1fmn_cryst
 OpenBabel11021811393D
libRbt.so/2013.1/901 2013/11/27
 31 33  0  0  0  0  0  0  0  0999 V2000
   -8.7600   -6.1920    3.6799 N   0  0  0  0  0  0  0  0  0  0  0  0
   -9.5618   -6.2461    4.7961 C   0  0  0  0  0  0  0  0  0  0  0  0
   -9.1913   -6.7831    5.8405 O   0  0  0  0  0  0  0  0  0  0  0  0
  -10.8413   -5.6500    4.6659 N   0  0  0  0  0  0  0  0  0  0  0  0
  -11.3646   -5.0168    3.5173 C   0  0  0  0  0  0  0  0  0  0  0  0
  -12.5037   -4.5339    3.5418 O   0  0  0  0  0  0  0  0  0  0  0  0
  -10.4508   -5.0015    2.3727 C   0  0  0  0  0  0  0  0  0  0  0  0
  -10.8847   -4.4034    1.2159 N   0  0  0  0  0  0  0  0  0  0  0  0
  -10.1092   -4.5484    0.1023 C   0  0  0  0  0  0  0  0  0  0  0  0
  -10.6240   -4.1107   -1.1051 C   0  0  0  0  0  0  0  0  0  0  0  0
   -9.9108   -4.2222   -2.2498 C   0  0  0  0  0  0  0  0  0  0  0  0
  -10.5120   -3.7307   -3.5278 C   0  0  0  0  0  0  0  0  0  0  0  0
   -8.6665   -4.7721   -2.2336 C   0  0  0  0  0  0  0  0  0  0  0  0
   -7.8888   -4.8976   -3.5031 C   0  0  0  0  0  0  0  0  0  0  0  0
   -8.1203   -5.2146   -1.0722 C   0  0  0  0  0  0  0  0  0  0  0  0
   -8.8131   -5.1225    0.1349 C   0  0  0  0  0  0  0  0  0  0  0  0
   -8.3042   -5.5587    1.3761 N   0  0  0  0  0  0  0  0  0  0  0  0
   -9.1464   -5.6064    2.5059 C   0  0  0  0  0  0  0  0  0  0  0  0
   -6.8218   -5.4177    1.6233 C   0  0  0  0  0  0  0  0  0  0  0  0
   -5.8975   -6.4319    0.8835 C   0  0  1  0  0  0  0  0  0  0  0  0
   -4.5784   -5.9133    0.7895 O   0  0  0  0  0  0  0  0  0  0  0  0
   -5.9234   -7.8480    1.5067 C   0  0  1  0  0  0  0  0  0  0  0  0
   -5.2261   -8.7675    0.6713 O   0  0  0  0  0  0  0  0  0  0  0  0
   -5.4255   -7.9803    2.9670 C   0  0  1  0  0  0  0  0  0  0  0  0
   -5.6463   -9.3189    3.3974 O   0  0  0  0  0  0  0  0  0  0  0  0
   -3.9246   -7.6483    3.1244 C   0  0  0  0  0  0  0  0  0  0  0  0
   -3.3427   -8.2858    4.2553 O   0  0  0  0  0  0  0  0  0  0  0  0
   -3.8083   -7.9873    5.7404 P   0  0  0  0  0  0  0  0  0  0  0  0
   -5.1881   -8.4727    5.9695 O   0  0  0  0  0  0  0  0  0  0  0  0
   -2.7539   -8.3702    6.7041 O   0  5  0  0  0  0  0  0  0  0  0  0
   -3.9024   -6.3989    5.7942 O   0  5  0  0  0  0  0  0  0  0  0  0
  1 18  1  0  0  0  0
  1  2  1  0  0  0  0
  2  4  1  0  0  0  0
  2  3  2  0  0  0  0
  4  5  1  0  0  0  0
  5  7  1  0  0  0  0
  5  6  2  0  0  0  0
  7 18  2  0  0  0  0
  7  8  1  0  0  0  0
  8  9  1  0  0  0  0
  9 10  2  0  0  0  0
  9 16  1  0  0  0  0
 10 11  1  0  0  0  0
 11 12  1  0  0  0  0
 11 13  2  0  0  0  0
 13 14  1  0  0  0  0
 13 15  1  0  0  0  0
 15 16  2  0  0  0  0
 16 17  1  0  0  0  0
 17 19  1  0  0  0  0
 17 18  1  0  0  0  0
 20 19  1  1  0  0  0
 20 22  1  0  0  0  0
 20 21  1  0  0  0  0
 22 24  1  0  0  0  0
 22 23  1  6  0  0  0
 24 26  1  6  0  0  0
 24 25  1  0  0  0  0
 26 27  1  0  0  0  0
 27 28  1  0  0  0  0
 28 30  1  0  0  0  0
 28 29  2  0  0  0  0
 28 31  1  0  0  0  0
M  CHG  2  30  -1  31  -1
M  END
>  <CHROM.1>
-74.54780873,158.42833688,171.14075670,-177.19574531,174.48436343,61.08060491
-154.87593598,-165.51720574,-62.76668926,67.22815724,-7.39999050,-6.29828370
2.29631416,2.35946182,0.37555100,-1.36971953

>  <Name>
1fmn_cryst

>  <RI>
0

>  <Rbt.Current_Directory>
/home/itssahil/PROJECTS/Mol_Feturizer/New_Systems/rnas/1fmn

>  <Rbt.Executable>
rbdock ($Id: //depot/dev/client3/rdock/2013.1/src/exe/rbdock.cxx#4 $)

>  <Rbt.Library>
libRbt.so (2013.1, Build901 2013/11/27)

>  <Rbt.Parameter_File>
/export/apps/rDock/src/rDock_2013.1_src/data/scripts/dock_solv.prm

>  <Rbt.Receptor>
prm/pocket_docking_2.prm

>  <SCORE>
-54.4294

>  <SCORE.INTER>
-48.7923

>  <SCORE.INTER.CONST>
1

>  <SCORE.INTER.POLAR>
-2.12467

>  <SCORE.INTER.ROT>
7

>  <SCORE.INTER.SOLV>
18.5901

>  <SCORE.INTER.VDW>
-39.9093

>  <SCORE.INTER.norm>
-1.57394

>  <SCORE.INTRA>
-5.6382

>  <SCORE.INTRA.DIHEDRAL>
-8.08789

>  <SCORE.INTRA.DIHEDRAL.0>
15.5708

>  <SCORE.INTRA.POLAR>
-0.632717

>  <SCORE.INTRA.POLAR.0>
-0.0677885

>  <SCORE.INTRA.REPUL>
0

>  <SCORE.INTRA.REPUL.0>
0

>  <SCORE.INTRA.SOLV>
0.102476

>  <SCORE.INTRA.SOLV.lig_0>
-87.6316

>  <SCORE.INTRA.VDW>
0.505749

>  <SCORE.INTRA.VDW.0>
-2.87309

>  <SCORE.INTRA.norm>
-0.181877

>  <SCORE.RESTR>
0.00111982

>  <SCORE.RESTR.CAVITY>
0.00111982

>  <SCORE.RESTR.norm>
3.61232e-05

>  <SCORE.SYSTEM>
0

>  <SCORE.SYSTEM.CONST>
0

>  <SCORE.SYSTEM.DIHEDRAL>
0

>  <SCORE.SYSTEM.SOLV>
0

>  <SCORE.SYSTEM.norm>
0

>  <SCORE.heavy>
31

>  <SCORE.norm>
-1.75579

>  <SYMMETRIC_BONDS>
33 34 3

>  <RMSD>
0.861

$$$$
1fmn_cryst
 OpenBabel11021811393D
libRbt.so/2013.1/901 2013/11/27
 31 33  0  0  0  0  0  0  0  0999 V2000
   -8.8561   -6.2351    3.5100 N   0  0  0  0  0  0  0  0  0  0  0  0
   -9.6080   -6.2653    4.6611 C   0  0  0  0  0  0  0  0  0  0  0  0
   -9.2242   -6.8471    5.6764 O   0  0  0  0  0  0  0  0  0  0  0  0
  -10.8529   -5.5897    4.6027 N   0  0  0  0  0  0  0  0  0  0  0  0
  -11.3877   -4.9003    3.4924 C   0  0  0  0  0  0  0  0  0  0  0  0
  -12.4925   -4.3496    3.5796 O   0  0  0  0  0  0  0  0  0  0  0  0
  -10.5278   -4.9150    2.3068 C   0  0  0  0  0  0  0  0  0  0  0  0
  -10.9760   -4.2658    1.1835 N   0  0  0  0  0  0  0  0  0  0  0  0
  -10.2624   -4.4328    0.0322 C   0  0  0  0  0  0  0  0  0  0  0  0
  -10.8037   -3.9377   -1.1410 C   0  0  0  0  0  0  0  0  0  0  0  0
  -10.1515   -4.0667   -2.3197 C   0  0  0  0  0  0  0  0  0  0  0  0
  -10.7788   -3.5111   -3.5584 C   0  0  0  0  0  0  0  0  0  0  0  0
   -8.9441   -4.6916   -2.3726 C   0  0  0  0  0  0  0  0  0  0  0  0
   -8.2343   -4.8357   -3.6793 C   0  0  0  0  0  0  0  0  0  0  0  0
   -8.3741   -5.1923   -1.2469 C   0  0  0  0  0  0  0  0  0  0  0  0
   -9.0042   -5.0853   -0.0071 C   0  0  0  0  0  0  0  0  0  0  0  0
   -8.4672   -5.5794    1.2001 N   0  0  0  0  0  0  0  0  0  0  0  0
   -9.2585   -5.6010    2.3670 C   0  0  0  0  0  0  0  0  0  0  0  0
   -6.9693   -5.5344    1.3804 C   0  0  0  0  0  0  0  0  0  0  0  0
   -6.1574   -6.6865    0.7144 C   0  0  1  0  0  0  0  0  0  0  0  0
   -5.1001   -6.1509   -0.0687 O   0  0  0  0  0  0  0  0  0  0  0  0
   -5.6545   -7.7431    1.7268 C   0  0  1  0  0  0  0  0  0  0  0  0
   -5.1829   -8.8989    1.0404 O   0  0  0  0  0  0  0  0  0  0  0  0
   -4.6002   -7.2770    2.7606 C   0  0  1  0  0  0  0  0  0  0  0  0
   -5.2222   -6.3612    3.6552 O   0  0  0  0  0  0  0  0  0  0  0  0
   -4.0021   -8.4432    3.5791 C   0  0  0  0  0  0  0  0  0  0  0  0
   -3.0376   -8.0029    4.5278 O   0  0  0  0  0  0  0  0  0  0  0  0
   -2.2071   -9.0044    5.4324 P   0  0  0  0  0  0  0  0  0  0  0  0
   -1.4985  -10.0041    4.6014 O   0  0  0  0  0  0  0  0  0  0  0  0
   -1.4404   -8.2660    6.4591 O   0  5  0  0  0  0  0  0  0  0  0  0
   -3.3263   -9.8209    6.2169 O   0  5  0  0  0  0  0  0  0  0  0  0
  1 18  1  0  0  0  0
  1  2  1  0  0  0  0
  2  4  1  0  0  0  0
  2  3  2  0  0  0  0
  4  5  1  0  0  0  0
  5  7  1  0  0  0  0
  5  6  2  0  0  0  0
  7 18  2  0  0  0  0
  7  8  1  0  0  0  0
  8  9  1  0  0  0  0
  9 10  2  0  0  0  0
  9 16  1  0  0  0  0
 10 11  1  0  0  0  0
 11 12  1  0  0  0  0
 11 13  2  0  0  0  0
 13 14  1  0  0  0  0
 13 15  1  0  0  0  0
 15 16  2  0  0  0  0
 16 17  1  0  0  0  0
 17 19  1  0  0  0  0
 17 18  1  0  0  0  0
 20 19  1  1  0  0  0
 20 22  1  0  0  0  0
 20 21  1  0  0  0  0
 22 24  1  0  0  0  0
 22 23  1  6  0  0  0
 24 26  1  1  0  0  0
 24 25  1  0  0  0  0
 26 27  1  0  0  0  0
 27 28  1  0  0  0  0
 28 30  1  0  0  0  0
 28 29  2  0  0  0  0
 28 31  1  0  0  0  0
M  CHG  2  30  -1  31  -1
M  END
>  <CHROM.1>
-81.50091288,129.14831472,167.39861639,-61.53055051,68.28637868,-63.08506586
-179.84426914,-73.35047088,-176.08973033,54.91064207,-7.15060671,-6.40135959
2.18021127,2.49570844,0.39229589,-1.35512534

>  <Name>
1fmn_cryst

>  <RI>
0

>  <Rbt.Current_Directory>
/home/itssahil/PROJECTS/Mol_Feturizer/New_Systems/rnas/1fmn

>  <Rbt.Executable>
rbdock ($Id: //depot/dev/client3/rdock/2013.1/src/exe/rbdock.cxx#4 $)

>  <Rbt.Library>
libRbt.so (2013.1, Build901 2013/11/27)

>  <Rbt.Parameter_File>
/export/apps/rDock/src/rDock_2013.1_src/data/scripts/dock_solv.prm

>  <Rbt.Receptor>
prm/pocket_docking_3.prm

>  <SCORE>
-59.3992

>  <SCORE.INTER>
-54.9271

>  <SCORE.INTER.CONST>
1

>  <SCORE.INTER.POLAR>
-3.34786

>  <SCORE.INTER.ROT>
7

>  <SCORE.INTER.SOLV>
16.6421

>  <SCORE.INTER.VDW>
-39.2726

>  <SCORE.INTER.norm>
-1.77184

>  <SCORE.INTRA>
-4.47211

>  <SCORE.INTRA.DIHEDRAL>
-6.53429

>  <SCORE.INTRA.DIHEDRAL.0>
15.5708

>  <SCORE.INTRA.POLAR>
0.0677885

>  <SCORE.INTRA.POLAR.0>
-0.0677885

>  <SCORE.INTRA.REPUL>
0

>  <SCORE.INTRA.REPUL.0>
0

>  <SCORE.INTRA.SOLV>
-4.59128

>  <SCORE.INTRA.SOLV.lig_0>
-87.6316

>  <SCORE.INTRA.VDW>
0.860193

>  <SCORE.INTRA.VDW.0>
-2.87309

>  <SCORE.INTRA.norm>
-0.144262

>  <SCORE.RESTR>
0

>  <SCORE.RESTR.CAVITY>
0

>  <SCORE.RESTR.norm>
0

>  <SCORE.SYSTEM>
0

>  <SCORE.SYSTEM.CONST>
0

>  <SCORE.SYSTEM.DIHEDRAL>
0

>  <SCORE.SYSTEM.SOLV>
0

>  <SCORE.SYSTEM.norm>
0

>  <SCORE.heavy>
31

>  <SCORE.norm>
-1.9161

>  <SYMMETRIC_BONDS>
33 34 3

>  <RMSD>
0.966

$$$$
1fmn_cryst
 OpenBabel11021811393D
libRbt.so/2013.1/901 2013/11/27
 31 33  0  0  0  0  0  0  0  0999 V2000
   -8.6205   -6.1743    3.6498 N   0  0  0  0  0  0  0  0  0  0  0  0
   -9.4455   -6.2248    4.7491 C   0  0  0  0  0  0  0  0  0  0  0  0
   -9.0915   -6.7455    5.8074 O   0  0  0  0  0  0  0  0  0  0  0  0
  -10.7284   -5.6447    4.5847 N   0  0  0  0  0  0  0  0  0  0  0  0
  -11.2338   -5.0306    3.4178 C   0  0  0  0  0  0  0  0  0  0  0  0
  -12.3785   -4.5603    3.4124 O   0  0  0  0  0  0  0  0  0  0  0  0
  -10.2959   -5.0180    2.2930 C   0  0  0  0  0  0  0  0  0  0  0  0
  -10.7114   -4.4380    1.1203 N   0  0  0  0  0  0  0  0  0  0  0  0
   -9.9105   -4.5869    0.0253 C   0  0  0  0  0  0  0  0  0  0  0  0
  -10.4042   -4.1690   -1.1979 C   0  0  0  0  0  0  0  0  0  0  0  0
   -9.6653   -4.2854   -2.3257 C   0  0  0  0  0  0  0  0  0  0  0  0
  -10.2444   -3.8153   -3.6219 C   0  0  0  0  0  0  0  0  0  0  0  0
   -8.4156   -4.8210   -2.2765 C   0  0  0  0  0  0  0  0  0  0  0  0
   -7.6095   -4.9521   -3.5276 C   0  0  0  0  0  0  0  0  0  0  0  0
   -7.8897   -5.2439   -1.0987 C   0  0  0  0  0  0  0  0  0  0  0  0
   -8.6093   -5.1460    0.0922 C   0  0  0  0  0  0  0  0  0  0  0  0
   -8.1223   -5.5622    1.3490 N   0  0  0  0  0  0  0  0  0  0  0  0
   -8.9880   -5.6066    2.4610 C   0  0  0  0  0  0  0  0  0  0  0  0
   -6.6472   -5.4017    1.6261 C   0  0  0  0  0  0  0  0  0  0  0  0
   -5.6930   -6.3881    0.8868 C   0  0  1  0  0  0  0  0  0  0  0  0
   -4.3476   -5.9474    1.0037 O   0  0  0  0  0  0  0  0  0  0  0  0
   -5.8656   -7.8579    1.3384 C   0  0  1  0  0  0  0  0  0  0  0  0
   -4.9520   -8.6991    0.6403 O   0  0  0  0  0  0  0  0  0  0  0  0
   -5.7837   -8.1381    2.8591 C   0  0  1  0  0  0  0  0  0  0  0  0
   -5.6547   -9.5426    3.0509 O   0  0  0  0  0  0  0  0  0  0  0  0
   -4.5894   -7.4315    3.5386 C   0  0  0  0  0  0  0  0  0  0  0  0
   -3.3875   -8.1873    3.4478 O   0  0  0  0  0  0  0  0  0  0  0  0
   -2.1062   -7.8672    4.3237 P   0  0  0  0  0  0  0  0  0  0  0  0
   -1.9120   -8.8949    5.3716 O   0  0  0  0  0  0  0  0  0  0  0  0
   -0.9598   -7.5114    3.4599 O   0  5  0  0  0  0  0  0  0  0  0  0
   -2.5044   -6.5367    5.1024 O   0  5  0  0  0  0  0  0  0  0  0  0
  1 18  1  0  0  0  0
  1  2  1  0  0  0  0
  2  4  1  0  0  0  0
  2  3  2  0  0  0  0
  4  5  1  0  0  0  0
  5  7  1  0  0  0  0
  5  6  2  0  0  0  0
  7 18  2  0  0  0  0
  7  8  1  0  0  0  0
  8  9  1  0  0  0  0
  9 10  2  0  0  0  0
  9 16  1  0  0  0  0
 10 11  1  0  0  0  0
 11 12  1  0  0  0  0
 11 13  2  0  0  0  0
 13 14  1  0  0  0  0
 13 15  1  0  0  0  0
 15 16  2  0  0  0  0
 16 17  1  0  0  0  0
 17 19  1  0  0  0  0
 17 18  1  0  0  0  0
 20 19  1  1  0  0  0
 20 22  1  0  0  0  0
 20 21  1  0  0  0  0
 22 24  1  0  0  0  0
 22 23  1  6  0  0  0
 24 26  1  6  0  0  0
 24 25  1  0  0  0  0
 26 27  1  0  0  0  0
 27 28  1  0  0  0  0
 28 30  1  0  0  0  0
 28 29  2  0  0  0  0
 28 31  1  0  0  0  0
M  CHG  2  30  -1  31  -1
M  END
>  <CHROM.1>
-72.88139235,167.32357592,-179.09937063,-65.27585114,-166.76740104,-147.57116558
-85.22537233,61.09442971,-165.84039438,107.89266153,-6.96415563,-6.29153280
1.97465804,2.59598145,0.31696952,-1.34957293

>  <Name>
1fmn_cryst

>  <RI>
0

>  <Rbt.Current_Directory>
/home/itssahil/PROJECTS/Mol_Feturizer/New_Systems/rnas/1fmn

>  <Rbt.Executable>
rbdock ($Id: //depot/dev/client3/rdock/2013.1/src/exe/rbdock.cxx#4 $)

>  <Rbt.Library>
libRbt.so (2013.1, Build901 2013/11/27)

>  <Rbt.Parameter_File>
/export/apps/rDock/src/rDock_2013.1_src/data/scripts/dock_solv.prm

>  <Rbt.Receptor>
prm/pocket_docking_3.prm

>  <SCORE>
-58.6741

>  <SCORE.INTER>
-56.291

>  <SCORE.INTER.CONST>
1

>  <SCORE.INTER.POLAR>
-3.75586

>  <SCORE.INTER.ROT>
7

>  <SCORE.INTER.SOLV>
17.1123

>  <SCORE.INTER.VDW>
-38.9785

>  <SCORE.INTER.norm>
-1.81584

>  <SCORE.INTRA>
-2.38314

>  <SCORE.INTRA.DIHEDRAL>
-3.27796

>  <SCORE.INTRA.DIHEDRAL.0>
15.5708

>  <SCORE.INTRA.POLAR>
0.0677885

>  <SCORE.INTRA.POLAR.0>
-0.0677885

>  <SCORE.INTRA.REPUL>
0

>  <SCORE.INTRA.REPUL.0>
0

>  <SCORE.INTRA.SOLV>
-4.06478

>  <SCORE.INTRA.SOLV.lig_0>
-87.6316

>  <SCORE.INTRA.VDW>
1.05775

>  <SCORE.INTRA.VDW.0>
-2.87309

>  <SCORE.INTRA.norm>
-0.0768754

>  <SCORE.RESTR>
0

>  <SCORE.RESTR.CAVITY>
0

>  <SCORE.RESTR.norm>
0

>  <SCORE.SYSTEM>
0

>  <SCORE.SYSTEM.CONST>
0

>  <SCORE.SYSTEM.DIHEDRAL>
0

>  <SCORE.SYSTEM.SOLV>
0

>  <SCORE.SYSTEM.norm>
0

>  <SCORE.heavy>
31

>  <SCORE.norm>
-1.89271

>  <SYMMETRIC_BONDS>
33 34 3

>  <RMSD>
0.977

$$$$
1fmn_cryst
 OpenBabel11021811393D
libRbt.so/2013.1/901 2013/11/27
 31 33  0  0  0  0  0  0  0  0999 V2000
   -8.8912   -6.7520    3.8080 N   0  0  0  0  0  0  0  0  0  0  0  0
   -9.7706   -6.6806    4.8630 C   0  0  0  0  0  0  0  0  0  0  0  0
   -9.5950   -7.3159    5.9032 O   0  0  0  0  0  0  0  0  0  0  0  0
  -10.8923   -5.8344    4.6749 N   0  0  0  0  0  0  0  0  0  0  0  0
  -11.1899   -5.0705    3.5251 C   0  0  0  0  0  0  0  0  0  0  0  0
  -12.2087   -4.3688    3.4952 O   0  0  0  0  0  0  0  0  0  0  0  0
  -10.2067   -5.2016    2.4475 C   0  0  0  0  0  0  0  0  0  0  0  0
  -10.4233   -4.4899    1.2939 N   0  0  0  0  0  0  0  0  0  0  0  0
   -9.6093   -4.7510    0.2301 C   0  0  0  0  0  0  0  0  0  0  0  0
   -9.9332   -4.1783   -0.9871 C   0  0  0  0  0  0  0  0  0  0  0  0
   -9.1710   -4.3929   -2.0846 C   0  0  0  0  0  0  0  0  0  0  0  0
   -9.5632   -3.7477   -3.3755 C   0  0  0  0  0  0  0  0  0  0  0  0
   -8.0658   -5.1829   -2.0103 C   0  0  0  0  0  0  0  0  0  0  0  0
   -7.2340   -5.4201   -3.2284 C   0  0  0  0  0  0  0  0  0  0  0  0
   -7.7089   -5.7651   -0.8370 C   0  0  0  0  0  0  0  0  0  0  0  0
   -8.4597   -5.5756    0.3231 C   0  0  0  0  0  0  0  0  0  0  0  0
   -8.1439   -6.1469    1.5737 N   0  0  0  0  0  0  0  0  0  0  0  0
   -9.0626   -6.0615    2.6399 C   0  0  0  0  0  0  0  0  0  0  0  0
   -6.6864   -6.3163    1.9277 C   0  0  0  0  0  0  0  0  0  0  0  0
   -6.1323   -7.7732    1.8994 C   0  0  1  0  0  0  0  0  0  0  0  0
   -5.8890   -8.1782    0.5598 O   0  0  0  0  0  0  0  0  0  0  0  0
   -4.8916   -7.9717    2.8023 C   0  0  1  0  0  0  0  0  0  0  0  0
   -3.9384   -6.9399    2.5649 O   0  0  0  0  0  0  0  0  0  0  0  0
   -5.1469   -8.1139    4.3230 C   0  0  1  0  0  0  0  0  0  0  0  0
   -4.7591   -9.4237    4.7232 O   0  0  0  0  0  0  0  0  0  0  0  0
   -4.3612   -7.0835    5.1649 C   0  0  0  0  0  0  0  0  0  0  0  0
   -2.9609   -7.3349    5.1631 O   0  0  0  0  0  0  0  0  0  0  0  0
   -2.2347   -8.1447    6.3156 P   0  0  0  0  0  0  0  0  0  0  0  0
   -2.8231   -9.4952    6.4643 O   0  0  0  0  0  0  0  0  0  0  0  0
   -0.7661   -8.0219    6.1933 O   0  5  0  0  0  0  0  0  0  0  0  0
   -2.6367   -7.3582    7.6403 O   0  5  0  0  0  0  0  0  0  0  0  0
  1 18  1  0  0  0  0
  1  2  1  0  0  0  0
  2  4  1  0  0  0  0
  2  3  2  0  0  0  0
  4  5  1  0  0  0  0
  5  7  1  0  0  0  0
  5  6  2  0  0  0  0
  7 18  2  0  0  0  0
  7  8  1  0  0  0  0
  8  9  1  0  0  0  0
  9 10  2  0  0  0  0
  9 16  1  0  0  0  0
 10 11  1  0  0  0  0
 11 12  1  0  0  0  0
 11 13  2  0  0  0  0
 13 14  1  0  0  0  0
 13 15  1  0  0  0  0
 15 16  2  0  0  0  0
 16 17  1  0  0  0  0
 17 19  1  0  0  0  0
 17 18  1  0  0  0  0
 20 19  1  6  0  0  0
 20 22  1  0  0  0  0
 20 21  1  0  0  0  0
 22 24  1  0  0  0  0
 22 23  1  1  0  0  0
 24 26  1  1  0  0  0
 24 25  1  0  0  0  0
 26 27  1  0  0  0  0
 27 28  1  0  0  0  0
 28 30  1  0  0  0  0
 28 29  2  0  0  0  0
 28 31  1  0  0  0  0
M  CHG  2  30  -1  31  -1
M  END
>  <CHROM.1>
-107.16988059,77.87793488,-48.37652739,-151.87337129,115.00992255,-57.97810672
-69.63108298,-57.86991388,-96.05586342,57.43436322,-6.87340087,-6.56784477
2.77905348,2.39598132,0.29247725,-1.36847428

>  <Name>
1fmn_cryst

>  <RI>
0

>  <Rbt.Current_Directory>
/home/itssahil/PROJECTS/Mol_Feturizer/New_Systems/rnas/1fmn

>  <Rbt.Executable>
rbdock ($Id: //depot/dev/client3/rdock/2013.1/src/exe/rbdock.cxx#4 $)

>  <Rbt.Library>
libRbt.so (2013.1, Build901 2013/11/27)

>  <Rbt.Parameter_File>
/export/apps/rDock/src/rDock_2013.1_src/data/scripts/dock_solv.prm

>  <Rbt.Receptor>
prm/pocket_docking_4.prm

>  <SCORE>
-51.398

>  <SCORE.INTER>
-53.031

>  <SCORE.INTER.CONST>
1

>  <SCORE.INTER.POLAR>
-3.50212

>  <SCORE.INTER.ROT>
7

>  <SCORE.INTER.SOLV>
15.7232

>  <SCORE.INTER.VDW>
-37.188

>  <SCORE.INTER.norm>
-1.71068

>  <SCORE.INTRA>
1.63296

>  <SCORE.INTRA.DIHEDRAL>
2.01761

>  <SCORE.INTRA.DIHEDRAL.0>
15.5708

>  <SCORE.INTRA.POLAR>
0.0677885

>  <SCORE.INTRA.POLAR.0>
-0.0677885

>  <SCORE.INTRA.REPUL>
0.013289

>  <SCORE.INTRA.REPUL.0>
0

>  <SCORE.INTRA.SOLV>
-1.28112

>  <SCORE.INTRA.SOLV.lig_0>
-87.6316

>  <SCORE.INTRA.VDW>
0.967793

>  <SCORE.INTRA.VDW.0>
-2.87309

>  <SCORE.INTRA.norm>
0.0526762

>  <SCORE.RESTR>
0

>  <SCORE.RESTR.CAVITY>
0

>  <SCORE.RESTR.norm>
0

>  <SCORE.SYSTEM>
0

>  <SCORE.SYSTEM.CONST>
0

>  <SCORE.SYSTEM.DIHEDRAL>
0

>  <SCORE.SYSTEM.SOLV>
0

>  <SCORE.SYSTEM.norm>
0

>  <SCORE.heavy>
31

>  <SCORE.norm>
-1.658

>  <SYMMETRIC_BONDS>
33 34 3

>  <RMSD>
0.983

$$$$
1fmn_cryst
 OpenBabel11021811393D
libRbt.so/2013.1/901 2013/11/27
 31 33  0  0  0  0  0  0  0  0999 V2000
   -8.7066   -6.6653    3.7332 N   0  0  0  0  0  0  0  0  0  0  0  0
   -9.5786   -6.6757    4.7966 C   0  0  0  0  0  0  0  0  0  0  0  0
   -9.3268   -7.2768    5.8415 O   0  0  0  0  0  0  0  0  0  0  0  0
  -10.7857   -5.9558    4.6115 N   0  0  0  0  0  0  0  0  0  0  0  0
  -11.1737   -5.2411    3.4570 C   0  0  0  0  0  0  0  0  0  0  0  0
  -12.2616   -4.6520    3.4305 O   0  0  0  0  0  0  0  0  0  0  0  0
  -10.1922   -5.2793    2.3706 C   0  0  0  0  0  0  0  0  0  0  0  0
  -10.4942   -4.6078    1.2120 N   0  0  0  0  0  0  0  0  0  0  0  0
   -9.6670   -4.7931    0.1424 C   0  0  0  0  0  0  0  0  0  0  0  0
  -10.0613   -4.2721   -1.0772 C   0  0  0  0  0  0  0  0  0  0  0  0
   -9.2910   -4.4171   -2.1803 C   0  0  0  0  0  0  0  0  0  0  0  0
   -9.7616   -3.8321   -3.4736 C   0  0  0  0  0  0  0  0  0  0  0  0
   -8.1074   -5.0842   -2.1094 C   0  0  0  0  0  0  0  0  0  0  0  0
   -7.2665   -5.2456   -3.3337 C   0  0  0  0  0  0  0  0  0  0  0  0
   -7.6795   -5.6117   -0.9340 C   0  0  0  0  0  0  0  0  0  0  0  0
   -8.4353   -5.4897    0.2319 C   0  0  0  0  0  0  0  0  0  0  0  0
   -8.0489   -6.0099    1.4850 N   0  0  0  0  0  0  0  0  0  0  0  0
   -8.9614   -6.0104    2.5599 C   0  0  0  0  0  0  0  0  0  0  0  0
   -6.5784   -6.0193    1.8254 C   0  0  0  0  0  0  0  0  0  0  0  0
   -5.8208   -7.3601    1.5836 C   0  0  1  0  0  0  0  0  0  0  0  0
   -5.2403   -7.3672    0.2871 O   0  0  0  0  0  0  0  0  0  0  0  0
   -4.7853   -7.6835    2.6869 C   0  0  1  0  0  0  0  0  0  0  0  0
   -3.7265   -6.7307    2.6645 O   0  0  0  0  0  0  0  0  0  0  0  0
   -5.3244   -7.8387    4.1302 C   0  0  1  0  0  0  0  0  0  0  0  0
   -6.4228   -8.7437    4.1048 O   0  0  0  0  0  0  0  0  0  0  0  0
   -4.2618   -8.3738    5.1162 C   0  0  0  0  0  0  0  0  0  0  0  0
   -3.1665   -7.4794    5.2727 O   0  0  0  0  0  0  0  0  0  0  0  0
   -1.9247   -7.8008    6.2032 P   0  0  0  0  0  0  0  0  0  0  0  0
   -2.3695   -8.2576    7.5394 O   0  0  0  0  0  0  0  0  0  0  0  0
   -0.9235   -8.6101    5.4754 O   0  5  0  0  0  0  0  0  0  0  0  0
   -1.2541   -6.3767    6.4427 O   0  5  0  0  0  0  0  0  0  0  0  0
  1 18  1  0  0  0  0
  1  2  1  0  0  0  0
  2  4  1  0  0  0  0
  2  3  2  0  0  0  0
  4  5  1  0  0  0  0
  5  7  1  0  0  0  0
  5  6  2  0  0  0  0
  7 18  2  0  0  0  0
  7  8  1  0  0  0  0
  8  9  1  0  0  0  0
  9 10  2  0  0  0  0
  9 16  1  0  0  0  0
 10 11  1  0  0  0  0
 11 12  1  0  0  0  0
 11 13  2  0  0  0  0
 13 14  1  0  0  0  0
 13 15  1  0  0  0  0
 15 16  2  0  0  0  0
 16 17  1  0  0  0  0
 17 19  1  0  0  0  0
 17 18  1  0  0  0  0
 20 19  1  1  0  0  0
 20 22  1  0  0  0  0
 20 21  1  0  0  0  0
 22 24  1  0  0  0  0
 22 23  1  1  0  0  0
 24 26  1  1  0  0  0
 24 25  1  0  0  0  0
 26 27  1  0  0  0  0
 27 28  1  0  0  0  0
 28 30  1  0  0  0  0
 28 29  2  0  0  0  0
 28 31  1  0  0  0  0
M  CHG  2  30  -1  31  -1
M  END
>  <CHROM.1>
-97.55700105,92.68508915,-66.17764553,62.81705789,50.42004209,59.70663983
63.67266643,67.70679824,-178.66917622,-48.67956760,-6.80463842,-6.43333235
2.65297998,2.41454416,0.21712818,-1.34767741

>  <Name>
1fmn_cryst

>  <RI>
0

>  <Rbt.Current_Directory>
/home/itssahil/PROJECTS/Mol_Feturizer/New_Systems/rnas/1fmn

>  <Rbt.Executable>
rbdock ($Id: //depot/dev/client3/rdock/2013.1/src/exe/rbdock.cxx#4 $)

>  <Rbt.Library>
libRbt.so (2013.1, Build901 2013/11/27)

>  <Rbt.Parameter_File>
/export/apps/rDock/src/rDock_2013.1_src/data/scripts/dock_solv.prm

>  <Rbt.Receptor>
prm/pocket_docking_3.prm

>  <SCORE>
-55.5008

>  <SCORE.INTER>
-46.1491

>  <SCORE.INTER.CONST>
1

>  <SCORE.INTER.POLAR>
-2.0917

>  <SCORE.INTER.ROT>
7

>  <SCORE.INTER.SOLV>
15.4611

>  <SCORE.INTER.VDW>
-37.2141

>  <SCORE.INTER.norm>
-1.48868

>  <SCORE.INTRA>
-9.35171

>  <SCORE.INTRA.DIHEDRAL>
-8.49614

>  <SCORE.INTRA.DIHEDRAL.0>
15.5708

>  <SCORE.INTRA.POLAR>
-0.932211

>  <SCORE.INTRA.POLAR.0>
-0.0677885

>  <SCORE.INTRA.REPUL>
0

>  <SCORE.INTRA.REPUL.0>
0

>  <SCORE.INTRA.SOLV>
-3.77772

>  <SCORE.INTRA.SOLV.lig_0>
-87.6316

>  <SCORE.INTRA.VDW>
-0.0452627

>  <SCORE.INTRA.VDW.0>
-2.87309

>  <SCORE.INTRA.norm>
-0.301668

>  <SCORE.RESTR>
0

>  <SCORE.RESTR.CAVITY>
0

>  <SCORE.RESTR.norm>
0

>  <SCORE.SYSTEM>
0

>  <SCORE.SYSTEM.CONST>
0

>  <SCORE.SYSTEM.DIHEDRAL>
0

>  <SCORE.SYSTEM.SOLV>
0

>  <SCORE.SYSTEM.norm>
0

>  <SCORE.heavy>
31

>  <SCORE.norm>
-1.79035

>  <SYMMETRIC_BONDS>
33 34 3

>  <RMSD>
1.008

$$$$
1fmn_cryst
 OpenBabel11021811393D
libRbt.so/2013.1/901 2013/11/27
 31 33  0  0  0  0  0  0  0  0999 V2000
   -8.9923   -6.3271    3.6161 N   0  0  0  0  0  0  0  0  0  0  0  0
   -9.7633   -6.2928    4.7544 C   0  0  0  0  0  0  0  0  0  0  0  0
   -9.4520   -6.9116    5.7726 O   0  0  0  0  0  0  0  0  0  0  0  0
  -10.9395   -5.5052    4.6793 N   0  0  0  0  0  0  0  0  0  0  0  0
  -11.3897   -4.7648    3.5642 C   0  0  0  0  0  0  0  0  0  0  0  0
  -12.4405   -4.1151    3.6363 O   0  0  0  0  0  0  0  0  0  0  0  0
  -10.5148   -4.8536    2.3930 C   0  0  0  0  0  0  0  0  0  0  0  0
  -10.8822   -4.1613    1.2661 N   0  0  0  0  0  0  0  0  0  0  0  0
  -10.1675   -4.3884    0.1259 C   0  0  0  0  0  0  0  0  0  0  0  0
  -10.6409   -3.8407   -1.0532 C   0  0  0  0  0  0  0  0  0  0  0  0
   -9.9834   -4.0243   -2.2217 C   0  0  0  0  0  0  0  0  0  0  0  0
  -10.5357   -3.4081   -3.4674 C   0  0  0  0  0  0  0  0  0  0  0  0
   -8.8379   -4.7574   -2.2582 C   0  0  0  0  0  0  0  0  0  0  0  0
   -8.1222   -4.9607   -3.5538 C   0  0  0  0  0  0  0  0  0  0  0  0
   -8.3356   -5.3132   -1.1261 C   0  0  0  0  0  0  0  0  0  0  0  0
   -8.9742   -5.1538    0.1037 C   0  0  0  0  0  0  0  0  0  0  0  0
   -8.5055   -5.7002    1.3168 N   0  0  0  0  0  0  0  0  0  0  0  0
   -9.3152   -5.6539    2.4702 C   0  0  0  0  0  0  0  0  0  0  0  0
   -7.0131   -5.7941    1.5221 C   0  0  0  0  0  0  0  0  0  0  0  0
   -6.2930   -6.9896    0.8275 C   0  0  1  0  0  0  0  0  0  0  0  0
   -5.0876   -6.5482    0.2192 O   0  0  0  0  0  0  0  0  0  0  0  0
   -6.0621   -8.1942    1.7708 C   0  0  1  0  0  0  0  0  0  0  0  0
   -5.3539   -9.2257    1.0896 O   0  0  0  0  0  0  0  0  0  0  0  0
   -5.3839   -7.8991    3.1313 C   0  0  1  0  0  0  0  0  0  0  0  0
   -6.3209   -7.2240    3.9633 O   0  0  0  0  0  0  0  0  0  0  0  0
   -4.9057   -9.1773    3.8560 C   0  0  0  0  0  0  0  0  0  0  0  0
   -4.4742   -8.9182    5.1867 O   0  0  0  0  0  0  0  0  0  0  0  0
   -3.1141   -8.1748    5.5166 P   0  0  0  0  0  0  0  0  0  0  0  0
   -3.0534   -6.8591    4.8405 O   0  0  0  0  0  0  0  0  0  0  0  0
   -2.8219   -8.2407    6.9648 O   0  5  0  0  0  0  0  0  0  0  0  0
   -2.0106   -9.0716    4.8004 O   0  5  0  0  0  0  0  0  0  0  0  0
  1 18  1  0  0  0  0
  1  2  1  0  0  0  0
  2  4  1  0  0  0  0
  2  3  2  0  0  0  0
  4  5  1  0  0  0  0
  5  7  1  0  0  0  0
  5  6  2  0  0  0  0
  7 18  2  0  0  0  0
  7  8  1  0  0  0  0
  8  9  1  0  0  0  0
  9 10  2  0  0  0  0
  9 16  1  0  0  0  0
 10 11  1  0  0  0  0
 11 12  1  0  0  0  0
 11 13  2  0  0  0  0
 13 14  1  0  0  0  0
 13 15  1  0  0  0  0
 15 16  2  0  0  0  0
 16 17  1  0  0  0  0
 17 19  1  0  0  0  0
 17 18  1  0  0  0  0
 20 19  1  1  0  0  0
 20 22  1  0  0  0  0
 20 21  1  0  0  0  0
 22 24  1  0  0  0  0
 22 23  1  6  0  0  0
 24 26  1  1  0  0  0
 24 25  1  0  0  0  0
 26 27  1  0  0  0  0
 27 28  1  0  0  0  0
 28 30  1  0  0  0  0
 28 29  2  0  0  0  0
 28 31  1  0  0  0  0
M  CHG  2  30  -1  31  -1
M  END
>  <CHROM.1>
-79.73275662,136.33589643,-177.63925741,-150.79184387,72.52994385,-68.75316322
-170.91698762,-86.04442233,-72.70210663,55.43803067,-7.42009262,-6.36488446
2.28853214,2.43819348,0.41582791,-1.38381833

>  <Name>
1fmn_cryst

>  <RI>
0

>  <Rbt.Current_Directory>
/home/itssahil/PROJECTS/Mol_Feturizer/New_Systems/rnas/1fmn

>  <Rbt.Executable>
rbdock ($Id: //depot/dev/client3/rdock/2013.1/src/exe/rbdock.cxx#4 $)

>  <Rbt.Library>
libRbt.so (2013.1, Build901 2013/11/27)

>  <Rbt.Parameter_File>
/export/apps/rDock/src/rDock_2013.1_src/data/scripts/dock_solv.prm

>  <Rbt.Receptor>
prm/pocket_docking_2.prm

>  <SCORE>
-61.1196

>  <SCORE.INTER>
-58.0152

>  <SCORE.INTER.CONST>
1

>  <SCORE.INTER.POLAR>
-3.79555

>  <SCORE.INTER.ROT>
7

>  <SCORE.INTER.SOLV>
16.8631

>  <SCORE.INTER.VDW>
-39.9127

>  <SCORE.INTER.norm>
-1.87146

>  <SCORE.INTRA>
-3.26818

>  <SCORE.INTRA.DIHEDRAL>
-0.867697

>  <SCORE.INTRA.DIHEDRAL.0>
15.5708

>  <SCORE.INTRA.POLAR>
-0.932211

>  <SCORE.INTRA.POLAR.0>
-0.0677885

>  <SCORE.INTRA.REPUL>
0

>  <SCORE.INTRA.REPUL.0>
0

>  <SCORE.INTRA.SOLV>
-0.71017

>  <SCORE.INTRA.SOLV.lig_0>
-87.6316

>  <SCORE.INTRA.VDW>
0.690269

>  <SCORE.INTRA.VDW.0>
-2.87309

>  <SCORE.INTRA.norm>
-0.105425

>  <SCORE.RESTR>
0.163752

>  <SCORE.RESTR.CAVITY>
0.163752

>  <SCORE.RESTR.norm>
0.00528233

>  <SCORE.SYSTEM>
0

>  <SCORE.SYSTEM.CONST>
0

>  <SCORE.SYSTEM.DIHEDRAL>
0

>  <SCORE.SYSTEM.SOLV>
0

>  <SCORE.SYSTEM.norm>
0

>  <SCORE.heavy>
31

>  <SCORE.norm>
-1.9716

>  <SYMMETRIC_BONDS>
33 34 3

>  <RMSD>
1.051

$$$$
1fmn_cryst
 OpenBabel11021811393D
libRbt.so/2013.1/901 2013/11/27
 31 33  0  0  0  0  0  0  0  0999 V2000
   -8.6902   -6.1895    3.6442 N   0  0  0  0  0  0  0  0  0  0  0  0
   -9.5465   -6.2231    4.7199 C   0  0  0  0  0  0  0  0  0  0  0  0
   -9.2247   -6.7310    5.7946 O   0  0  0  0  0  0  0  0  0  0  0  0
  -10.8223   -5.6415    4.5113 N   0  0  0  0  0  0  0  0  0  0  0  0
  -11.2920   -5.0412    3.3225 C   0  0  0  0  0  0  0  0  0  0  0  0
  -12.4345   -4.5677    3.2780 O   0  0  0  0  0  0  0  0  0  0  0  0
  -10.3222   -5.0461    2.2249 C   0  0  0  0  0  0  0  0  0  0  0  0
  -10.7020   -4.4804    1.0333 N   0  0  0  0  0  0  0  0  0  0  0  0
   -9.8706   -4.6460   -0.0362 C   0  0  0  0  0  0  0  0  0  0  0  0
  -10.3276   -4.2426   -1.2784 C   0  0  0  0  0  0  0  0  0  0  0  0
   -9.5571   -4.3760   -2.3829 C   0  0  0  0  0  0  0  0  0  0  0  0
  -10.0972   -3.9213   -3.7012 C   0  0  0  0  0  0  0  0  0  0  0  0
   -8.3111   -4.9146   -2.2910 C   0  0  0  0  0  0  0  0  0  0  0  0
   -7.4700   -5.0645   -3.5166 C   0  0  0  0  0  0  0  0  0  0  0  0
   -7.8206   -5.3236   -1.0931 C   0  0  0  0  0  0  0  0  0  0  0  0
   -8.5736   -5.2079    0.0753 C   0  0  0  0  0  0  0  0  0  0  0  0
   -8.1243   -5.6091    1.3508 N   0  0  0  0  0  0  0  0  0  0  0  0
   -9.0216   -5.6363    2.4381 C   0  0  0  0  0  0  0  0  0  0  0  0
   -6.6572   -5.4492    1.6681 C   0  0  0  0  0  0  0  0  0  0  0  0
   -5.6734   -6.3555    0.8673 C   0  0  1  0  0  0  0  0  0  0  0  0
   -4.3717   -5.7867    0.8703 O   0  0  0  0  0  0  0  0  0  0  0  0
   -5.6677   -7.8255    1.3501 C   0  0  1  0  0  0  0  0  0  0  0  0
   -4.8439   -8.6202    0.5020 O   0  0  0  0  0  0  0  0  0  0  0  0
   -5.2943   -8.0750    2.8321 C   0  0  1  0  0  0  0  0  0  0  0  0
   -6.4200   -7.7496    3.6400 O   0  0  0  0  0  0  0  0  0  0  0  0
   -4.8872   -9.5390    3.1127 C   0  0  0  0  0  0  0  0  0  0  0  0
   -4.7093   -9.7971    4.5004 O   0  0  0  0  0  0  0  0  0  0  0  0
   -3.7052   -8.9682    5.4038 P   0  0  0  0  0  0  0  0  0  0  0  0
   -3.4455   -9.6666    6.6832 O   0  0  0  0  0  0  0  0  0  0  0  0
   -2.5515   -8.4997    4.6061 O   0  5  0  0  0  0  0  0  0  0  0  0
   -4.5342   -7.6655    5.7918 O   0  5  0  0  0  0  0  0  0  0  0  0
  1 18  1  0  0  0  0
  1  2  1  0  0  0  0
  2  4  1  0  0  0  0
  2  3  2  0  0  0  0
  4  5  1  0  0  0  0
  5  7  1  0  0  0  0
  5  6  2  0  0  0  0
  7 18  2  0  0  0  0
  7  8  1  0  0  0  0
  8  9  1  0  0  0  0
  9 10  2  0  0  0  0
  9 16  1  0  0  0  0
 10 11  1  0  0  0  0
 11 12  1  0  0  0  0
 11 13  2  0  0  0  0
 13 14  1  0  0  0  0
 13 15  1  0  0  0  0
 15 16  2  0  0  0  0
 16 17  1  0  0  0  0
 17 19  1  0  0  0  0
 17 18  1  0  0  0  0
 20 19  1  1  0  0  0
 20 22  1  0  0  0  0
 20 21  1  0  0  0  0
 22 24  1  0  0  0  0
 22 23  1  6  0  0  0
 24 26  1  6  0  0  0
 24 25  1  0  0  0  0
 26 27  1  0  0  0  0
 27 28  1  0  0  0  0
 28 30  1  0  0  0  0
 28 29  2  0  0  0  0
 28 31  1  0  0  0  0
M  CHG  2  30  -1  31  -1
M  END
>  <CHROM.1>
-67.20787725,158.10102603,174.70915261,62.95991531,77.30567231,63.18562961
-172.60790604,-165.74853272,-56.29310967,-164.52857249,-7.30862477,-6.53344964
2.17604641,2.33995896,0.43007193,-1.30380478

>  <Name>
1fmn_cryst

>  <RI>
0

>  <Rbt.Current_Directory>
/home/itssahil/PROJECTS/Mol_Feturizer/New_Systems/rnas/1fmn

>  <Rbt.Executable>
rbdock ($Id: //depot/dev/client3/rdock/2013.1/src/exe/rbdock.cxx#4 $)

>  <Rbt.Library>
libRbt.so (2013.1, Build901 2013/11/27)

>  <Rbt.Parameter_File>
/export/apps/rDock/src/rDock_2013.1_src/data/scripts/dock_solv.prm

>  <Rbt.Receptor>
prm/pocket_docking_5.prm

>  <SCORE>
-59.6433

>  <SCORE.INTER>
-50.4125

>  <SCORE.INTER.CONST>
1

>  <SCORE.INTER.POLAR>
-2.15089

>  <SCORE.INTER.ROT>
7

>  <SCORE.INTER.SOLV>
16.7255

>  <SCORE.INTER.VDW>
-40.2805

>  <SCORE.INTER.norm>
-1.62621

>  <SCORE.INTRA>
-9.23084

>  <SCORE.INTRA.DIHEDRAL>
-9.02356

>  <SCORE.INTRA.DIHEDRAL.0>
15.5708

>  <SCORE.INTRA.POLAR>
-1.66341

>  <SCORE.INTRA.POLAR.0>
-0.0677885

>  <SCORE.INTRA.REPUL>
0

>  <SCORE.INTRA.REPUL.0>
0

>  <SCORE.INTRA.SOLV>
1.1582

>  <SCORE.INTRA.SOLV.lig_0>
-87.6316

>  <SCORE.INTRA.VDW>
0.357432

>  <SCORE.INTRA.VDW.0>
-2.87309

>  <SCORE.INTRA.norm>
-0.297769

>  <SCORE.RESTR>
0

>  <SCORE.RESTR.CAVITY>
0

>  <SCORE.RESTR.norm>
0

>  <SCORE.SYSTEM>
0

>  <SCORE.SYSTEM.CONST>
0

>  <SCORE.SYSTEM.DIHEDRAL>
0

>  <SCORE.SYSTEM.SOLV>
0

>  <SCORE.SYSTEM.norm>
0

>  <SCORE.heavy>
31

>  <SCORE.norm>
-1.92398

>  <SYMMETRIC_BONDS>
33 34 3

>  <RMSD>
1.069

$$$$
1fmn_cryst
 OpenBabel11021811393D
libRbt.so/2013.1/901 2013/11/27
 31 33  0  0  0  0  0  0  0  0999 V2000
   -8.7181   -6.1348    3.6639 N   0  0  0  0  0  0  0  0  0  0  0  0
   -9.5944   -6.1796    4.7230 C   0  0  0  0  0  0  0  0  0  0  0  0
   -9.2835   -6.6742    5.8070 O   0  0  0  0  0  0  0  0  0  0  0  0
  -10.8775   -5.6257    4.4857 N   0  0  0  0  0  0  0  0  0  0  0  0
  -11.3361   -5.0425    3.2841 C   0  0  0  0  0  0  0  0  0  0  0  0
  -12.4869   -4.5930    3.2144 O   0  0  0  0  0  0  0  0  0  0  0  0
  -10.3450   -5.0340    2.2058 C   0  0  0  0  0  0  0  0  0  0  0  0
  -10.7128   -4.4834    1.0034 N   0  0  0  0  0  0  0  0  0  0  0  0
   -9.8574   -4.6382   -0.0486 C   0  0  0  0  0  0  0  0  0  0  0  0
  -10.2980   -4.2519   -1.3020 C   0  0  0  0  0  0  0  0  0  0  0  0
   -9.5034   -4.3760   -2.3904 C   0  0  0  0  0  0  0  0  0  0  0  0
  -10.0268   -3.9405   -3.7219 C   0  0  0  0  0  0  0  0  0  0  0  0
   -8.2487   -4.8882   -2.2707 C   0  0  0  0  0  0  0  0  0  0  0  0
   -7.3807   -5.0280   -3.4787 C   0  0  0  0  0  0  0  0  0  0  0  0
   -7.7735   -5.2797   -1.0609 C   0  0  0  0  0  0  0  0  0  0  0  0
   -8.5515   -5.1726    0.0918 C   0  0  0  0  0  0  0  0  0  0  0  0
   -8.1192   -5.5567    1.3784 N   0  0  0  0  0  0  0  0  0  0  0  0
   -9.0370   -5.5959    2.4481 C   0  0  0  0  0  0  0  0  0  0  0  0
   -6.6622   -5.3646    1.7232 C   0  0  0  0  0  0  0  0  0  0  0  0
   -5.6534   -6.3259    1.0244 C   0  0  1  0  0  0  0  0  0  0  0  0
   -4.3411   -5.7853    1.0837 O   0  0  0  0  0  0  0  0  0  0  0  0
   -5.7122   -7.7730    1.5690 C   0  0  1  0  0  0  0  0  0  0  0  0
   -4.9584   -8.6460    0.7328 O   0  0  0  0  0  0  0  0  0  0  0  0
   -5.3081   -7.9818    3.0492 C   0  0  1  0  0  0  0  0  0  0  0  0
   -6.4169   -7.6337    3.8710 O   0  0  0  0  0  0  0  0  0  0  0  0
   -4.8951   -9.4376    3.3616 C   0  0  0  0  0  0  0  0  0  0  0  0
   -4.6810   -9.6555    4.7511 O   0  0  0  0  0  0  0  0  0  0  0  0
   -3.5214   -8.9413    5.5613 P   0  0  0  0  0  0  0  0  0  0  0  0
   -3.4657   -7.4966    5.2419 O   0  0  0  0  0  0  0  0  0  0  0  0
   -3.5487   -9.3517    6.9818 O   0  5  0  0  0  0  0  0  0  0  0  0
   -2.1919   -9.5639    4.9453 O   0  5  0  0  0  0  0  0  0  0  0  0
  1 18  1  0  0  0  0
  1  2  1  0  0  0  0
  2  4  1  0  0  0  0
  2  3  2  0  0  0  0
  4  5  1  0  0  0  0
  5  7  1  0  0  0  0
  5  6  2  0  0  0  0
  7 18  2  0  0  0  0
  7  8  1  0  0  0  0
  8  9  1  0  0  0  0
  9 10  2  0  0  0  0
  9 16  1  0  0  0  0
 10 11  1  0  0  0  0
 11 12  1  0  0  0  0
 11 13  2  0  0  0  0
 13 14  1  0  0  0  0
 13 15  1  0  0  0  0
 15 16  2  0  0  0  0
 16 17  1  0  0  0  0
 17 19  1  0  0  0  0
 17 18  1  0  0  0  0
 20 19  1  1  0  0  0
 20 22  1  0  0  0  0
 20 21  1  0  0  0  0
 22 24  1  0  0  0  0
 22 23  1  6  0  0  0
 24 26  1  6  0  0  0
 24 25  1  0  0  0  0
 26 27  1  0  0  0  0
 27 28  1  0  0  0  0
 28 30  1  0  0  0  0
 28 29  2  0  0  0  0
 28 31  1  0  0  0  0
M  CHG  2  30  -1  31  -1
M  END
>  <CHROM.1>
-71.50752199,161.27750020,169.20071497,-69.66741270,80.56008886,-128.33055016
-172.94400380,66.16526861,-64.71115963,45.85080935,-7.25811265,-6.52434651
2.24164275,2.35141693,0.41388071,-1.29902360

>  <Name>
1fmn_cryst

>  <RI>
0

>  <Rbt.Current_Directory>
/home/itssahil/PROJECTS/Mol_Feturizer/New_Systems/rnas/1fmn

>  <Rbt.Executable>
rbdock ($Id: //depot/dev/client3/rdock/2013.1/src/exe/rbdock.cxx#4 $)

>  <Rbt.Library>
libRbt.so (2013.1, Build901 2013/11/27)

>  <Rbt.Parameter_File>
/export/apps/rDock/src/rDock_2013.1_src/data/scripts/dock_solv.prm

>  <Rbt.Receptor>
prm/pocket_docking_2.prm

>  <SCORE>
-63.5951

>  <SCORE.INTER>
-59.1754

>  <SCORE.INTER.CONST>
1

>  <SCORE.INTER.POLAR>
-3.88842

>  <SCORE.INTER.ROT>
7

>  <SCORE.INTER.SOLV>
16.2484

>  <SCORE.INTER.VDW>
-40.1717

>  <SCORE.INTER.norm>
-1.90888

>  <SCORE.INTRA>
-4.42541

>  <SCORE.INTRA.DIHEDRAL>
-3.37421

>  <SCORE.INTRA.DIHEDRAL.0>
15.5708

>  <SCORE.INTRA.POLAR>
-0.932211

>  <SCORE.INTRA.POLAR.0>
-0.0677885

>  <SCORE.INTRA.REPUL>
0

>  <SCORE.INTRA.REPUL.0>
0

>  <SCORE.INTRA.SOLV>
-0.720504

>  <SCORE.INTRA.SOLV.lig_0>
-87.6316

>  <SCORE.INTRA.VDW>
0.791462

>  <SCORE.INTRA.VDW.0>
-2.87309

>  <SCORE.INTRA.norm>
-0.142755

>  <SCORE.RESTR>
0.0057108

>  <SCORE.RESTR.CAVITY>
0.0057108

>  <SCORE.RESTR.norm>
0.000184219

>  <SCORE.SYSTEM>
0

>  <SCORE.SYSTEM.CONST>
0

>  <SCORE.SYSTEM.DIHEDRAL>
0

>  <SCORE.SYSTEM.SOLV>
0

>  <SCORE.SYSTEM.norm>
0

>  <SCORE.heavy>
31

>  <SCORE.norm>
-2.05145

>  <SYMMETRIC_BONDS>
33 34 3

>  <RMSD>
1.115

$$$$
1fmn_cryst
 OpenBabel11021811393D
libRbt.so/2013.1/901 2013/11/27
 31 33  0  0  0  0  0  0  0  0999 V2000
   -8.8101   -6.2376    3.5990 N   0  0  0  0  0  0  0  0  0  0  0  0
   -9.5925   -6.2486    4.7300 C   0  0  0  0  0  0  0  0  0  0  0  0
   -9.2441   -6.8285    5.7590 O   0  0  0  0  0  0  0  0  0  0  0  0
  -10.8253   -5.5554    4.6341 N   0  0  0  0  0  0  0  0  0  0  0  0
  -11.3205   -4.8663    3.5054 C   0  0  0  0  0  0  0  0  0  0  0  0
  -12.4190   -4.2991    3.5596 O   0  0  0  0  0  0  0  0  0  0  0  0
  -10.4300   -4.9021    2.3431 C   0  0  0  0  0  0  0  0  0  0  0  0
  -10.8390   -4.2546    1.2039 N   0  0  0  0  0  0  0  0  0  0  0  0
  -10.0979   -4.4402    0.0731 C   0  0  0  0  0  0  0  0  0  0  0  0
  -10.6007   -3.9458   -1.1174 C   0  0  0  0  0  0  0  0  0  0  0  0
   -9.9198   -4.0927   -2.2776 C   0  0  0  0  0  0  0  0  0  0  0  0
  -10.5060   -3.5370   -3.5361 C   0  0  0  0  0  0  0  0  0  0  0  0
   -8.7207   -4.7354   -2.2943 C   0  0  0  0  0  0  0  0  0  0  0  0
   -7.9790   -4.8992   -3.5808 C   0  0  0  0  0  0  0  0  0  0  0  0
   -8.1879   -5.2362   -1.1505 C   0  0  0  0  0  0  0  0  0  0  0  0
   -8.8488   -5.1111    0.0714 C   0  0  0  0  0  0  0  0  0  0  0  0
   -8.3511   -5.6042    1.2958 N   0  0  0  0  0  0  0  0  0  0  0  0
   -9.1730   -5.6060    2.4414 C   0  0  0  0  0  0  0  0  0  0  0  0
   -6.8579   -5.5797    1.5152 C   0  0  0  0  0  0  0  0  0  0  0  0
   -6.1113   -6.9377    1.3460 C   0  0  1  0  0  0  0  0  0  0  0  0
   -5.0868   -6.8145    0.3697 O   0  0  0  0  0  0  0  0  0  0  0  0
   -5.5781   -7.5113    2.6804 C   0  0  1  0  0  0  0  0  0  0  0  0
   -4.8155   -8.6906    2.4410 O   0  0  0  0  0  0  0  0  0  0  0  0
   -4.7815   -6.5442    3.5905 C   0  0  1  0  0  0  0  0  0  0  0  0
   -5.7057   -5.6930    4.2594 O   0  0  0  0  0  0  0  0  0  0  0  0
   -3.9265   -7.2784    4.6476 C   0  0  0  0  0  0  0  0  0  0  0  0
   -2.8075   -7.9443    4.0744 O   0  0  0  0  0  0  0  0  0  0  0  0
   -1.7538   -8.7499    4.9416 P   0  0  0  0  0  0  0  0  0  0  0  0
   -0.7186   -9.3638    4.0794 O   0  0  0  0  0  0  0  0  0  0  0  0
   -1.3209   -7.9522    6.1091 O   0  5  0  0  0  0  0  0  0  0  0  0
   -2.5975   -9.9676    5.5249 O   0  5  0  0  0  0  0  0  0  0  0  0
  1 18  1  0  0  0  0
  1  2  1  0  0  0  0
  2  4  1  0  0  0  0
  2  3  2  0  0  0  0
  4  5  1  0  0  0  0
  5  7  1  0  0  0  0
  5  6  2  0  0  0  0
  7 18  2  0  0  0  0
  7  8  1  0  0  0  0
  8  9  1  0  0  0  0
  9 10  2  0  0  0  0
  9 16  1  0  0  0  0
 10 11  1  0  0  0  0
 11 12  1  0  0  0  0
 11 13  2  0  0  0  0
 13 14  1  0  0  0  0
 13 15  1  0  0  0  0
 15 16  2  0  0  0  0
 16 17  1  0  0  0  0
 17 19  1  0  0  0  0
 17 18  1  0  0  0  0
 20 19  1  1  0  0  0
 20 22  1  0  0  0  0
 20 21  1  0  0  0  0
 22 24  1  0  0  0  0
 22 23  1  6  0  0  0
 24 26  1  1  0  0  0
 24 25  1  0  0  0  0
 26 27  1  0  0  0  0
 27 28  1  0  0  0  0
 28 30  1  0  0  0  0
 28 29  2  0  0  0  0
 28 31  1  0  0  0  0
M  CHG  2  30  -1  31  -1
M  END
>  <CHROM.1>
-102.47117793,123.31710238,-175.24928940,-81.44935918,77.50823105,60.78972820
71.25370414,57.56478968,178.81532244,178.62518311,-6.98403360,-6.29658835
2.30316524,2.55323475,0.36267763,-1.36623748

>  <Name>
1fmn_cryst

>  <RI>
0

>  <Rbt.Current_Directory>
/home/itssahil/PROJECTS/Mol_Feturizer/New_Systems/rnas/1fmn

>  <Rbt.Executable>
rbdock ($Id: //depot/dev/client3/rdock/2013.1/src/exe/rbdock.cxx#4 $)

>  <Rbt.Library>
libRbt.so (2013.1, Build901 2013/11/27)

>  <Rbt.Parameter_File>
/export/apps/rDock/src/rDock_2013.1_src/data/scripts/dock_solv.prm

>  <Rbt.Receptor>
prm/pocket_docking_8.prm

>  <SCORE>
-58.0859

>  <SCORE.INTER>
-55.0389

>  <SCORE.INTER.CONST>
1

>  <SCORE.INTER.POLAR>
-3.71014

>  <SCORE.INTER.ROT>
7

>  <SCORE.INTER.SOLV>
14.9987

>  <SCORE.INTER.VDW>
-37.5917

>  <SCORE.INTER.norm>
-1.77545

>  <SCORE.INTRA>
-3.04693

>  <SCORE.INTRA.DIHEDRAL>
-4.15462

>  <SCORE.INTRA.DIHEDRAL.0>
15.5708

>  <SCORE.INTRA.POLAR>
0.0673157

>  <SCORE.INTRA.POLAR.0>
-0.0677885

>  <SCORE.INTRA.REPUL>
0

>  <SCORE.INTRA.REPUL.0>
0

>  <SCORE.INTRA.SOLV>
-3.22821

>  <SCORE.INTRA.SOLV.lig_0>
-87.6316

>  <SCORE.INTRA.VDW>
0.415611

>  <SCORE.INTRA.VDW.0>
-2.87309

>  <SCORE.INTRA.norm>
-0.098288

>  <SCORE.RESTR>
0

>  <SCORE.RESTR.CAVITY>
0

>  <SCORE.RESTR.norm>
0

>  <SCORE.SYSTEM>
0

>  <SCORE.SYSTEM.CONST>
0

>  <SCORE.SYSTEM.DIHEDRAL>
0

>  <SCORE.SYSTEM.SOLV>
0

>  <SCORE.SYSTEM.norm>
0

>  <SCORE.heavy>
31

>  <SCORE.norm>
-1.87374

>  <SYMMETRIC_BONDS>
33 34 3

>  <RMSD>
1.129

$$$$
1fmn_cryst
 OpenBabel11021811393D
libRbt.so/2013.1/901 2013/11/27
 31 33  0  0  0  0  0  0  0  0999 V2000
   -8.8165   -6.1986    3.6268 N   0  0  0  0  0  0  0  0  0  0  0  0
   -9.6658   -6.1526    4.7076 C   0  0  0  0  0  0  0  0  0  0  0  0
   -9.3905   -6.6963    5.7777 O   0  0  0  0  0  0  0  0  0  0  0  0
  -10.8782   -5.4452    4.5097 N   0  0  0  0  0  0  0  0  0  0  0  0
  -11.2921   -4.7942    3.3269 C   0  0  0  0  0  0  0  0  0  0  0  0
  -12.3817   -4.2086    3.2918 O   0  0  0  0  0  0  0  0  0  0  0  0
  -10.3338   -4.8897    2.2234 C   0  0  0  0  0  0  0  0  0  0  0  0
  -10.6617   -4.2820    1.0371 N   0  0  0  0  0  0  0  0  0  0  0  0
   -9.8570   -4.5238   -0.0383 C   0  0  0  0  0  0  0  0  0  0  0  0
  -10.2782   -4.0697   -1.2756 C   0  0  0  0  0  0  0  0  0  0  0  0
   -9.5310   -4.2730   -2.3854 C   0  0  0  0  0  0  0  0  0  0  0  0
  -10.0303   -3.7591   -3.6981 C   0  0  0  0  0  0  0  0  0  0  0  0
   -8.3446   -4.9340   -2.3038 C   0  0  0  0  0  0  0  0  0  0  0  0
   -7.5295   -5.1602   -3.5353 C   0  0  0  0  0  0  0  0  0  0  0  0
   -7.8908   -5.3969   -1.1111 C   0  0  0  0  0  0  0  0  0  0  0  0
   -8.6221   -5.2132    0.0624 C   0  0  0  0  0  0  0  0  0  0  0  0
   -8.2080   -5.6646    1.3331 N   0  0  0  0  0  0  0  0  0  0  0  0
   -9.0975   -5.6082    2.4256 C   0  0  0  0  0  0  0  0  0  0  0  0
   -6.7306   -5.6540    1.6422 C   0  0  0  0  0  0  0  0  0  0  0  0
   -5.9848   -7.0158    1.5029 C   0  0  1  0  0  0  0  0  0  0  0  0
   -5.0010   -6.9327    0.4815 O   0  0  0  0  0  0  0  0  0  0  0  0
   -5.3955   -7.5282    2.8386 C   0  0  1  0  0  0  0  0  0  0  0  0
   -6.4269   -7.6690    3.8112 O   0  0  0  0  0  0  0  0  0  0  0  0
   -4.5464   -8.8219    2.7796 C   0  0  1  0  0  0  0  0  0  0  0  0
   -3.3868   -8.5629    1.9959 O   0  0  0  0  0  0  0  0  0  0  0  0
   -4.1035   -9.3161    4.1750 C   0  0  0  0  0  0  0  0  0  0  0  0
   -3.3268   -8.3495    4.8726 O   0  0  0  0  0  0  0  0  0  0  0  0
   -2.7457   -8.6040    6.3248 P   0  0  0  0  0  0  0  0  0  0  0  0
   -1.8967   -9.8168    6.3493 O   0  0  0  0  0  0  0  0  0  0  0  0
   -2.2075   -7.3514    6.8978 O   0  5  0  0  0  0  0  0  0  0  0  0
   -4.0329   -8.9692    7.1877 O   0  5  0  0  0  0  0  0  0  0  0  0
  1 18  1  0  0  0  0
  1  2  1  0  0  0  0
  2  4  1  0  0  0  0
  2  3  2  0  0  0  0
  4  5  1  0  0  0  0
  5  7  1  0  0  0  0
  5  6  2  0  0  0  0
  7 18  2  0  0  0  0
  7  8  1  0  0  0  0
  8  9  1  0  0  0  0
  9 10  2  0  0  0  0
  9 16  1  0  0  0  0
 10 11  1  0  0  0  0
 11 12  1  0  0  0  0
 11 13  2  0  0  0  0
 13 14  1  0  0  0  0
 13 15  1  0  0  0  0
 15 16  2  0  0  0  0
 16 17  1  0  0  0  0
 17 19  1  0  0  0  0
 17 18  1  0  0  0  0
 20 19  1  1  0  0  0
 20 22  1  0  0  0  0
 20 21  1  0  0  0  0
 22 24  1  0  0  0  0
 22 23  1  1  0  0  0
 24 26  1  1  0  0  0
 24 25  1  0  0  0  0
 26 27  1  0  0  0  0
 27 28  1  0  0  0  0
 28 30  1  0  0  0  0
 28 29  2  0  0  0  0
 28 31  1  0  0  0  0
M  CHG  2  30  -1  31  -1
M  END
>  <CHROM.1>
-99.53345884,116.70997971,57.93507161,-77.21935526,64.20407245,72.86754854
-59.18898333,-52.27025518,-179.95168081,56.97986490,-7.06260876,-6.49083964
2.49580886,2.38786488,0.40381246,-1.37441826

>  <Name>
1fmn_cryst

>  <RI>
0

>  <Rbt.Current_Directory>
/home/itssahil/PROJECTS/Mol_Feturizer/New_Systems/rnas/1fmn

>  <Rbt.Executable>
rbdock ($Id: //depot/dev/client3/rdock/2013.1/src/exe/rbdock.cxx#4 $)

>  <Rbt.Library>
libRbt.so (2013.1, Build901 2013/11/27)

>  <Rbt.Parameter_File>
/export/apps/rDock/src/rDock_2013.1_src/data/scripts/dock_solv.prm

>  <Rbt.Receptor>
prm/pocket_docking_4.prm

>  <SCORE>
-62.6562

>  <SCORE.INTER>
-52.6929

>  <SCORE.INTER.CONST>
1

>  <SCORE.INTER.POLAR>
-3.01779

>  <SCORE.INTER.ROT>
7

>  <SCORE.INTER.SOLV>
14.0327

>  <SCORE.INTER.VDW>
-38.0135

>  <SCORE.INTER.norm>
-1.69977

>  <SCORE.INTRA>
-9.96327

>  <SCORE.INTRA.DIHEDRAL>
-5.28035

>  <SCORE.INTRA.DIHEDRAL.0>
15.5708

>  <SCORE.INTRA.POLAR>
-1.67195

>  <SCORE.INTRA.POLAR.0>
-0.0677885

>  <SCORE.INTRA.REPUL>
0

>  <SCORE.INTRA.REPUL.0>
0

>  <SCORE.INTRA.SOLV>
-3.24337

>  <SCORE.INTRA.SOLV.lig_0>
-87.6316

>  <SCORE.INTRA.VDW>
-0.0167735

>  <SCORE.INTRA.VDW.0>
-2.87309

>  <SCORE.INTRA.norm>
-0.321396

>  <SCORE.RESTR>
0

>  <SCORE.RESTR.CAVITY>
0

>  <SCORE.RESTR.norm>
0

>  <SCORE.SYSTEM>
0

>  <SCORE.SYSTEM.CONST>
0

>  <SCORE.SYSTEM.DIHEDRAL>
0

>  <SCORE.SYSTEM.SOLV>
0

>  <SCORE.SYSTEM.norm>
0

>  <SCORE.heavy>
31

>  <SCORE.norm>
-2.02117

>  <SYMMETRIC_BONDS>
33 34 3

>  <RMSD>
1.143

$$$$
1fmn_cryst
 OpenBabel11021811393D
libRbt.so/2013.1/901 2013/11/27
 31 33  0  0  0  0  0  0  0  0999 V2000
   -8.9231   -6.2828    3.6334 N   0  0  0  0  0  0  0  0  0  0  0  0
   -9.8035   -6.2657    4.6899 C   0  0  0  0  0  0  0  0  0  0  0  0
   -9.5503   -6.8208    5.7596 O   0  0  0  0  0  0  0  0  0  0  0  0
  -11.0207   -5.5740    4.4674 N   0  0  0  0  0  0  0  0  0  0  0  0
  -11.4110   -4.9121    3.2826 C   0  0  0  0  0  0  0  0  0  0  0  0
  -12.5082   -4.3428    3.2247 O   0  0  0  0  0  0  0  0  0  0  0  0
  -10.4202   -4.9768    2.2058 C   0  0  0  0  0  0  0  0  0  0  0  0
  -10.7237   -4.3568    1.0193 N   0  0  0  0  0  0  0  0  0  0  0  0
   -9.8850   -4.5704   -0.0359 C   0  0  0  0  0  0  0  0  0  0  0  0
  -10.2779   -4.1046   -1.2781 C   0  0  0  0  0  0  0  0  0  0  0  0
   -9.4964   -4.2802   -2.3688 C   0  0  0  0  0  0  0  0  0  0  0  0
   -9.9661   -3.7547   -3.6878 C   0  0  0  0  0  0  0  0  0  0  0  0
   -8.3026   -4.9241   -2.2627 C   0  0  0  0  0  0  0  0  0  0  0  0
   -7.4493   -5.1196   -3.4734 C   0  0  0  0  0  0  0  0  0  0  0  0
   -7.8757   -5.3975   -1.0641 C   0  0  0  0  0  0  0  0  0  0  0  0
   -8.6428   -5.2422    0.0904 C   0  0  0  0  0  0  0  0  0  0  0  0
   -8.2581   -5.7059    1.3659 N   0  0  0  0  0  0  0  0  0  0  0  0
   -9.1791   -5.6791    2.4331 C   0  0  0  0  0  0  0  0  0  0  0  0
   -6.7904   -5.6773    1.7174 C   0  0  0  0  0  0  0  0  0  0  0  0
   -5.9513   -6.9181    1.2858 C   0  0  1  0  0  0  0  0  0  0  0  0
   -5.5007   -6.7627   -0.0524 O   0  0  0  0  0  0  0  0  0  0  0  0
   -4.7905   -7.2377    2.2576 C   0  0  1  0  0  0  0  0  0  0  0  0
   -3.7337   -6.2971    2.0903 O   0  0  0  0  0  0  0  0  0  0  0  0
   -5.1485   -7.3670    3.7586 C   0  0  1  0  0  0  0  0  0  0  0  0
   -6.3801   -8.0720    3.8677 O   0  0  0  0  0  0  0  0  0  0  0  0
   -4.0713   -8.1187    4.5725 C   0  0  0  0  0  0  0  0  0  0  0  0
   -2.8327   -7.4197    4.6105 O   0  0  0  0  0  0  0  0  0  0  0  0
   -1.6233   -7.8699    5.5303 P   0  0  0  0  0  0  0  0  0  0  0  0
   -0.3936   -7.1179    5.1921 O   0  0  0  0  0  0  0  0  0  0  0  0
   -2.0434   -7.9398    6.9465 O   0  5  0  0  0  0  0  0  0  0  0  0
   -1.3422   -9.3699    5.0766 O   0  5  0  0  0  0  0  0  0  0  0  0
  1 18  1  0  0  0  0
  1  2  1  0  0  0  0
  2  4  1  0  0  0  0
  2  3  2  0  0  0  0
  4  5  1  0  0  0  0
  5  7  1  0  0  0  0
  5  6  2  0  0  0  0
  7 18  2  0  0  0  0
  7  8  1  0  0  0  0
  8  9  1  0  0  0  0
  9 10  2  0  0  0  0
  9 16  1  0  0  0  0
 10 11  1  0  0  0  0
 11 12  1  0  0  0  0
 11 13  2  0  0  0  0
 13 14  1  0  0  0  0
 13 15  1  0  0  0  0
 15 16  2  0  0  0  0
 16 17  1  0  0  0  0
 17 19  1  0  0  0  0
 17 18  1  0  0  0  0
 20 19  1  1  0  0  0
 20 22  1  0  0  0  0
 20 21  1  0  0  0  0
 22 24  1  0  0  0  0
 22 23  1  1  0  0  0
 24 26  1  1  0  0  0
 24 25  1  0  0  0  0
 26 27  1  0  0  0  0
 27 28  1  0  0  0  0
 28 30  1  0  0  0  0
 28 29  2  0  0  0  0
 28 31  1  0  0  0  0
M  CHG  2  30  -1  31  -1
M  END
>  <CHROM.1>
-86.35541372,85.78923777,-74.50050910,59.52228874,40.68093865,177.01672751
64.57925499,173.98993487,171.70132151,169.80922293,-6.86799119,-6.21360952
2.33312559,2.51301940,0.25046153,-1.34718613

>  <Name>
1fmn_cryst

>  <RI>
0

>  <Rbt.Current_Directory>
/home/itssahil/PROJECTS/Mol_Feturizer/New_Systems/rnas/1fmn

>  <Rbt.Executable>
rbdock ($Id: //depot/dev/client3/rdock/2013.1/src/exe/rbdock.cxx#4 $)

>  <Rbt.Library>
libRbt.so (2013.1, Build901 2013/11/27)

>  <Rbt.Parameter_File>
/export/apps/rDock/src/rDock_2013.1_src/data/scripts/dock_solv.prm

>  <Rbt.Receptor>
prm/pocket_docking_2.prm

>  <SCORE>
-56.3641

>  <SCORE.INTER>
-45.8983

>  <SCORE.INTER.CONST>
1

>  <SCORE.INTER.POLAR>
-1.95336

>  <SCORE.INTER.ROT>
7

>  <SCORE.INTER.SOLV>
14.88

>  <SCORE.INTER.VDW>
-37.3143

>  <SCORE.INTER.norm>
-1.48059

>  <SCORE.INTRA>
-10.4659

>  <SCORE.INTRA.DIHEDRAL>
-8.33457

>  <SCORE.INTRA.DIHEDRAL.0>
15.5708

>  <SCORE.INTRA.POLAR>
-1.49027

>  <SCORE.INTRA.POLAR.0>
-0.0677885

>  <SCORE.INTRA.REPUL>
0

>  <SCORE.INTRA.REPUL.0>
0

>  <SCORE.INTRA.SOLV>
-3.25344

>  <SCORE.INTRA.SOLV.lig_0>
-87.6316

>  <SCORE.INTRA.VDW>
0.395033

>  <SCORE.INTRA.VDW.0>
-2.87309

>  <SCORE.INTRA.norm>
-0.337609

>  <SCORE.RESTR>
0

>  <SCORE.RESTR.CAVITY>
0

>  <SCORE.RESTR.norm>
0

>  <SCORE.SYSTEM>
0

>  <SCORE.SYSTEM.CONST>
0

>  <SCORE.SYSTEM.DIHEDRAL>
0

>  <SCORE.SYSTEM.SOLV>
0

>  <SCORE.SYSTEM.norm>
0

>  <SCORE.heavy>
31

>  <SCORE.norm>
-1.8182

>  <SYMMETRIC_BONDS>
33 34 3

>  <RMSD>
1.151

$$$$
1fmn_cryst
 OpenBabel11021811393D
libRbt.so/2013.1/901 2013/11/27
 31 33  0  0  0  0  0  0  0  0999 V2000
   -8.5696   -6.2179    3.7155 N   0  0  0  0  0  0  0  0  0  0  0  0
   -9.4595   -6.2550    4.7635 C   0  0  0  0  0  0  0  0  0  0  0  0
   -9.1631   -6.7430    5.8546 O   0  0  0  0  0  0  0  0  0  0  0  0
  -10.7388   -5.7011    4.5062 N   0  0  0  0  0  0  0  0  0  0  0  0
  -11.1812   -5.1250    3.2952 C   0  0  0  0  0  0  0  0  0  0  0  0
  -12.3305   -4.6747    3.2078 O   0  0  0  0  0  0  0  0  0  0  0  0
  -10.1763   -5.1246    2.2296 C   0  0  0  0  0  0  0  0  0  0  0  0
  -10.5280   -4.5813    1.0191 N   0  0  0  0  0  0  0  0  0  0  0  0
   -9.6593   -4.7438   -0.0209 C   0  0  0  0  0  0  0  0  0  0  0  0
  -10.0834   -4.3650   -1.2822 C   0  0  0  0  0  0  0  0  0  0  0  0
   -9.2750   -4.4970   -2.3595 C   0  0  0  0  0  0  0  0  0  0  0  0
   -9.7807   -4.0694   -3.7004 C   0  0  0  0  0  0  0  0  0  0  0  0
   -8.0225   -5.0098   -2.2205 C   0  0  0  0  0  0  0  0  0  0  0  0
   -7.1393   -5.1584   -3.4163 C   0  0  0  0  0  0  0  0  0  0  0  0
   -7.5634   -5.3942   -1.0022 C   0  0  0  0  0  0  0  0  0  0  0  0
   -8.3561   -5.2787    0.1397 C   0  0  0  0  0  0  0  0  0  0  0  0
   -7.9407   -5.6551    1.4342 N   0  0  0  0  0  0  0  0  0  0  0  0
   -8.8722   -5.6864    2.4922 C   0  0  0  0  0  0  0  0  0  0  0  0
   -6.4881   -5.4626    1.7964 C   0  0  0  0  0  0  0  0  0  0  0  0
   -5.4460   -6.1632    0.8727 C   0  0  1  0  0  0  0  0  0  0  0  0
   -4.1417   -5.6702    1.1445 O   0  0  0  0  0  0  0  0  0  0  0  0
   -5.5107   -7.7076    0.9414 C   0  0  1  0  0  0  0  0  0  0  0  0
   -4.4002   -8.2790    0.2558 O   0  0  0  0  0  0  0  0  0  0  0  0
   -5.6450   -8.3417    2.3477 C   0  0  1  0  0  0  0  0  0  0  0  0
   -5.5270   -9.7541    2.2169 O   0  0  0  0  0  0  0  0  0  0  0  0
   -4.5700   -7.8424    3.3390 C   0  0  0  0  0  0  0  0  0  0  0  0
   -4.6642   -8.4780    4.6083 O   0  0  0  0  0  0  0  0  0  0  0  0
   -3.5904   -8.2656    5.7542 P   0  0  0  0  0  0  0  0  0  0  0  0
   -2.2961   -8.8839    5.3871 O   0  0  0  0  0  0  0  0  0  0  0  0
   -3.5974   -6.8626    6.2217 O   0  5  0  0  0  0  0  0  0  0  0  0
   -4.1503   -9.1383    6.9624 O   0  5  0  0  0  0  0  0  0  0  0  0
  1 18  1  0  0  0  0
  1  2  1  0  0  0  0
  2  4  1  0  0  0  0
  2  3  2  0  0  0  0
  4  5  1  0  0  0  0
  5  7  1  0  0  0  0
  5  6  2  0  0  0  0
  7 18  2  0  0  0  0
  7  8  1  0  0  0  0
  8  9  1  0  0  0  0
  9 10  2  0  0  0  0
  9 16  1  0  0  0  0
 10 11  1  0  0  0  0
 11 12  1  0  0  0  0
 11 13  2  0  0  0  0
 13 14  1  0  0  0  0
 13 15  1  0  0  0  0
 15 16  2  0  0  0  0
 16 17  1  0  0  0  0
 17 19  1  0  0  0  0
 17 18  1  0  0  0  0
 20 19  1  1  0  0  0
 20 22  1  0  0  0  0
 20 21  1  0  0  0  0
 22 24  1  0  0  0  0
 22 23  1  1  0  0  0
 24 26  1  1  0  0  0
 24 25  1  0  0  0  0
 26 27  1  0  0  0  0
 27 28  1  0  0  0  0
 28 30  1  0  0  0  0
 28 29  2  0  0  0  0
 28 31  1  0  0  0  0
M  CHG  2  30  -1  31  -1
M  END
>  <CHROM.1>
-56.61216633,167.35690359,-170.35540527,-80.97522205,-173.13302779,175.26590582
-177.22657083,-174.44465835,173.25028250,-68.69975436,-7.11261522,-6.45493623
2.20262823,2.31978667,0.38718034,-1.35282471

>  <Name>
1fmn_cryst

>  <RI>
0

>  <Rbt.Current_Directory>
/home/itssahil/PROJECTS/Mol_Feturizer/New_Systems/rnas/1fmn

>  <Rbt.Executable>
rbdock ($Id: //depot/dev/client3/rdock/2013.1/src/exe/rbdock.cxx#4 $)

>  <Rbt.Library>
libRbt.so (2013.1, Build901 2013/11/27)

>  <Rbt.Parameter_File>
/export/apps/rDock/src/rDock_2013.1_src/data/scripts/dock_solv.prm

>  <Rbt.Receptor>
prm/pocket_docking_4.prm

>  <SCORE>
-62.1011

>  <SCORE.INTER>
-55.0561

>  <SCORE.INTER.CONST>
1

>  <SCORE.INTER.POLAR>
-3.63181

>  <SCORE.INTER.ROT>
7

>  <SCORE.INTER.SOLV>
17.6639

>  <SCORE.INTER.VDW>
-38.7526

>  <SCORE.INTER.norm>
-1.776

>  <SCORE.INTRA>
-7.04504

>  <SCORE.INTRA.DIHEDRAL>
-10.563

>  <SCORE.INTRA.DIHEDRAL.0>
15.5708

>  <SCORE.INTRA.POLAR>
-0.0841205

>  <SCORE.INTRA.POLAR.0>
-0.0677885

>  <SCORE.INTRA.REPUL>
0

>  <SCORE.INTRA.REPUL.0>
0

>  <SCORE.INTRA.SOLV>
-5.08798

>  <SCORE.INTRA.SOLV.lig_0>
-87.6316

>  <SCORE.INTRA.VDW>
1.06645

>  <SCORE.INTRA.VDW.0>
-2.87309

>  <SCORE.INTRA.norm>
-0.227259

>  <SCORE.RESTR>
0

>  <SCORE.RESTR.CAVITY>
0

>  <SCORE.RESTR.norm>
0

>  <SCORE.SYSTEM>
0

>  <SCORE.SYSTEM.CONST>
0

>  <SCORE.SYSTEM.DIHEDRAL>
0

>  <SCORE.SYSTEM.SOLV>
0

>  <SCORE.SYSTEM.norm>
0

>  <SCORE.heavy>
31

>  <SCORE.norm>
-2.00326

>  <SYMMETRIC_BONDS>
33 34 3

>  <RMSD>
1.156

$$$$
1fmn_cryst
 OpenBabel11021811393D
libRbt.so/2013.1/901 2013/11/27
 31 33  0  0  0  0  0  0  0  0999 V2000
   -8.7393   -6.1489    3.7290 N   0  0  0  0  0  0  0  0  0  0  0  0
   -9.6222   -6.1663    4.7834 C   0  0  0  0  0  0  0  0  0  0  0  0
   -9.3307   -6.6656    5.8707 O   0  0  0  0  0  0  0  0  0  0  0  0
  -10.8884   -5.5782    4.5374 N   0  0  0  0  0  0  0  0  0  0  0  0
  -11.3243   -4.9866    3.3316 C   0  0  0  0  0  0  0  0  0  0  0  0
  -12.4620   -4.5060    3.2541 O   0  0  0  0  0  0  0  0  0  0  0  0
  -10.3277   -5.0089    2.2586 C   0  0  0  0  0  0  0  0  0  0  0  0
  -10.6739   -4.4524    1.0524 N   0  0  0  0  0  0  0  0  0  0  0  0
   -9.8173   -4.6341    0.0056 C   0  0  0  0  0  0  0  0  0  0  0  0
  -10.2406   -4.2400   -1.2514 C   0  0  0  0  0  0  0  0  0  0  0  0
   -9.4439   -4.3894   -2.3351 C   0  0  0  0  0  0  0  0  0  0  0  0
   -9.9480   -3.9442   -3.6708 C   0  0  0  0  0  0  0  0  0  0  0  0
   -8.2043   -4.9354   -2.2069 C   0  0  0  0  0  0  0  0  0  0  0  0
   -7.3340   -5.1029   -3.4097 C   0  0  0  0  0  0  0  0  0  0  0  0
   -7.7465   -5.3358   -0.9933 C   0  0  0  0  0  0  0  0  0  0  0  0
   -8.5274   -5.2035    0.1548 C   0  0  0  0  0  0  0  0  0  0  0  0
   -8.1126   -5.5951    1.4450 N   0  0  0  0  0  0  0  0  0  0  0  0
   -9.0368   -5.6056    2.5097 C   0  0  0  0  0  0  0  0  0  0  0  0
   -6.6528   -5.4419    1.7970 C   0  0  0  0  0  0  0  0  0  0  0  0
   -5.6463   -6.2851    0.9568 C   0  0  1  0  0  0  0  0  0  0  0  0
   -4.3503   -5.7070    1.0213 O   0  0  0  0  0  0  0  0  0  0  0  0
   -5.6353   -7.7837    1.3418 C   0  0  1  0  0  0  0  0  0  0  0  0
   -4.8557   -8.5270    0.4094 O   0  0  0  0  0  0  0  0  0  0  0  0
   -5.2028   -8.1328    2.7872 C   0  0  1  0  0  0  0  0  0  0  0  0
   -6.2464   -7.7459    3.6743 O   0  0  0  0  0  0  0  0  0  0  0  0
   -4.9158   -9.6384    2.9832 C   0  0  0  0  0  0  0  0  0  0  0  0
   -4.5789   -9.9567    4.3283 O   0  0  0  0  0  0  0  0  0  0  0  0
   -3.2178   -9.5024    5.0008 P   0  0  0  0  0  0  0  0  0  0  0  0
   -3.1545   -9.9398    6.4139 O   0  0  0  0  0  0  0  0  0  0  0  0
   -2.0727   -9.8031    4.1146 O   0  5  0  0  0  0  0  0  0  0  0  0
   -3.3337   -7.9153    5.0523 O   0  5  0  0  0  0  0  0  0  0  0  0
  1 18  1  0  0  0  0
  1  2  1  0  0  0  0
  2  4  1  0  0  0  0
  2  3  2  0  0  0  0
  4  5  1  0  0  0  0
  5  7  1  0  0  0  0
  5  6  2  0  0  0  0
  7 18  2  0  0  0  0
  7  8  1  0  0  0  0
  8  9  1  0  0  0  0
  9 10  2  0  0  0  0
  9 16  1  0  0  0  0
 10 11  1  0  0  0  0
 11 12  1  0  0  0  0
 11 13  2  0  0  0  0
 13 14  1  0  0  0  0
 13 15  1  0  0  0  0
 15 16  2  0  0  0  0
 16 17  1  0  0  0  0
 17 19  1  0  0  0  0
 17 18  1  0  0  0  0
 20 19  1  1  0  0  0
 20 22  1  0  0  0  0
 20 21  1  0  0  0  0
 22 24  1  0  0  0  0
 22 23  1  6  0  0  0
 24 26  1  6  0  0  0
 24 25  1  0  0  0  0
 26 27  1  0  0  0  0
 27 28  1  0  0  0  0
 28 30  1  0  0  0  0
 28 29  2  0  0  0  0
 28 31  1  0  0  0  0
M  CHG  2  30  -1  31  -1
M  END
>  <CHROM.1>
-62.82416306,158.24019456,171.10360927,63.70022577,72.37225484,61.53927194
-177.30460172,63.97392043,-69.49630366,178.37367774,-7.18210718,-6.62426948
2.12045464,2.43618211,0.45440480,-1.27988692

>  <Name>
1fmn_cryst

>  <RI>
0

>  <Rbt.Current_Directory>
/home/itssahil/PROJECTS/Mol_Feturizer/New_Systems/rnas/1fmn

>  <Rbt.Executable>
rbdock ($Id: //depot/dev/client3/rdock/2013.1/src/exe/rbdock.cxx#4 $)

>  <Rbt.Library>
libRbt.so (2013.1, Build901 2013/11/27)

>  <Rbt.Parameter_File>
/export/apps/rDock/src/rDock_2013.1_src/data/scripts/dock_solv.prm

>  <Rbt.Receptor>
prm/pocket_docking_3.prm

>  <SCORE>
-58.2908

>  <SCORE.INTER>
-50.0728

>  <SCORE.INTER.CONST>
1

>  <SCORE.INTER.POLAR>
-2.14891

>  <SCORE.INTER.ROT>
7

>  <SCORE.INTER.SOLV>
16.7181

>  <SCORE.INTER.VDW>
-40.0582

>  <SCORE.INTER.norm>
-1.61525

>  <SCORE.INTRA>
-8.218

>  <SCORE.INTRA.DIHEDRAL>
-10.811

>  <SCORE.INTRA.DIHEDRAL.0>
15.5708

>  <SCORE.INTRA.POLAR>
-0.932211

>  <SCORE.INTRA.POLAR.0>
-0.0677885

>  <SCORE.INTRA.REPUL>
0

>  <SCORE.INTRA.REPUL.0>
0

>  <SCORE.INTRA.SOLV>
-0.817438

>  <SCORE.INTRA.SOLV.lig_0>
-87.6316

>  <SCORE.INTRA.VDW>
0.765742

>  <SCORE.INTRA.VDW.0>
-2.87309

>  <SCORE.INTRA.norm>
-0.265097

>  <SCORE.RESTR>
0

>  <SCORE.RESTR.CAVITY>
0

>  <SCORE.RESTR.norm>
0

>  <SCORE.SYSTEM>
0

>  <SCORE.SYSTEM.CONST>
0

>  <SCORE.SYSTEM.DIHEDRAL>
0

>  <SCORE.SYSTEM.SOLV>
0

>  <SCORE.SYSTEM.norm>
0

>  <SCORE.heavy>
31

>  <SCORE.norm>
-1.88035

>  <SYMMETRIC_BONDS>
33 34 3

>  <RMSD>
1.159

$$$$
1fmn_cryst
 OpenBabel11021811393D
libRbt.so/2013.1/901 2013/11/27
 31 33  0  0  0  0  0  0  0  0999 V2000
   -8.8684   -6.3384    3.6451 N   0  0  0  0  0  0  0  0  0  0  0  0
   -9.6780   -6.3081    4.7565 C   0  0  0  0  0  0  0  0  0  0  0  0
   -9.3827   -6.8997    5.7954 O   0  0  0  0  0  0  0  0  0  0  0  0
  -10.8739   -5.5580    4.6282 N   0  0  0  0  0  0  0  0  0  0  0  0
  -11.3083   -4.8508    3.4857 C   0  0  0  0  0  0  0  0  0  0  0  0
  -12.3798   -4.2322    3.5112 O   0  0  0  0  0  0  0  0  0  0  0  0
  -10.3922   -4.9331    2.3459 C   0  0  0  0  0  0  0  0  0  0  0  0
  -10.7420   -4.2716    1.1951 N   0  0  0  0  0  0  0  0  0  0  0  0
   -9.9830   -4.4964    0.0834 C   0  0  0  0  0  0  0  0  0  0  0  0
  -10.4325   -3.9836   -1.1205 C   0  0  0  0  0  0  0  0  0  0  0  0
   -9.7310   -4.1670   -2.2631 C   0  0  0  0  0  0  0  0  0  0  0  0
  -10.2593   -3.5893   -3.5373 C   0  0  0  0  0  0  0  0  0  0  0  0
   -8.5636   -4.8655   -2.2483 C   0  0  0  0  0  0  0  0  0  0  0  0
   -7.7990   -5.0692   -3.5156 C   0  0  0  0  0  0  0  0  0  0  0  0
   -8.0832   -5.3864   -1.0904 C   0  0  0  0  0  0  0  0  0  0  0  0
   -8.7673   -5.2254    0.1145 C   0  0  0  0  0  0  0  0  0  0  0  0
   -8.3236   -5.7365    1.3522 N   0  0  0  0  0  0  0  0  0  0  0  0
   -9.1726   -5.6950    2.4772 C   0  0  0  0  0  0  0  0  0  0  0  0
   -6.8368   -5.7815    1.6084 C   0  0  0  0  0  0  0  0  0  0  0  0
   -6.0190   -6.8019    0.7597 C   0  0  1  0  0  0  0  0  0  0  0  0
   -5.2273   -6.1166   -0.2003 O   0  0  0  0  0  0  0  0  0  0  0  0
   -5.1783   -7.7755    1.6196 C   0  0  1  0  0  0  0  0  0  0  0  0
   -4.8572   -8.9440    0.8704 O   0  0  0  0  0  0  0  0  0  0  0  0
   -3.8989   -7.2032    2.2779 C   0  0  1  0  0  0  0  0  0  0  0  0
   -4.2386   -5.9902    2.9405 O   0  0  0  0  0  0  0  0  0  0  0  0
   -3.2649   -8.1696    3.3035 C   0  0  0  0  0  0  0  0  0  0  0  0
   -4.0530   -8.3069    4.4800 O   0  0  0  0  0  0  0  0  0  0  0  0
   -3.5650   -9.1239    5.7471 P   0  0  0  0  0  0  0  0  0  0  0  0
   -4.5379   -9.0086    6.8572 O   0  0  0  0  0  0  0  0  0  0  0  0
   -3.0988  -10.4704    5.3513 O   0  5  0  0  0  0  0  0  0  0  0  0
   -2.2718   -8.3317    6.2318 O   0  5  0  0  0  0  0  0  0  0  0  0
  1 18  1  0  0  0  0
  1  2  1  0  0  0  0
  2  4  1  0  0  0  0
  2  3  2  0  0  0  0
  4  5  1  0  0  0  0
  5  7  1  0  0  0  0
  5  6  2  0  0  0  0
  7 18  2  0  0  0  0
  7  8  1  0  0  0  0
  8  9  1  0  0  0  0
  9 10  2  0  0  0  0
  9 16  1  0  0  0  0
 10 11  1  0  0  0  0
 11 12  1  0  0  0  0
 11 13  2  0  0  0  0
 13 14  1  0  0  0  0
 13 15  1  0  0  0  0
 15 16  2  0  0  0  0
 16 17  1  0  0  0  0
 17 19  1  0  0  0  0
 17 18  1  0  0  0  0
 20 19  1  1  0  0  0
 20 22  1  0  0  0  0
 20 21  1  0  0  0  0
 22 24  1  0  0  0  0
 22 23  1  6  0  0  0
 24 26  1  1  0  0  0
 24 25  1  0  0  0  0
 26 27  1  0  0  0  0
 27 28  1  0  0  0  0
 28 30  1  0  0  0  0
 28 29  2  0  0  0  0
 28 31  1  0  0  0  0
M  CHG  2  30  -1  31  -1
M  END
>  <CHROM.1>
-68.97185763,108.50390273,158.99083440,-151.69035327,49.44687107,-58.15637829
-70.02507592,-70.14079259,-173.81907642,175.53078170,-7.19653957,-6.43851315
2.22437187,2.39250267,0.40909033,-1.31618137

>  <Name>
1fmn_cryst

>  <RI>
0

>  <Rbt.Current_Directory>
/home/itssahil/PROJECTS/Mol_Feturizer/New_Systems/rnas/1fmn

>  <Rbt.Executable>
rbdock ($Id: //depot/dev/client3/rdock/2013.1/src/exe/rbdock.cxx#4 $)

>  <Rbt.Library>
libRbt.so (2013.1, Build901 2013/11/27)

>  <Rbt.Parameter_File>
/export/apps/rDock/src/rDock_2013.1_src/data/scripts/dock_solv.prm

>  <Rbt.Receptor>
prm/pocket_docking_2.prm

>  <SCORE>
-60.3333

>  <SCORE.INTER>
-57.9982

>  <SCORE.INTER.CONST>
1

>  <SCORE.INTER.POLAR>
-3.96197

>  <SCORE.INTER.ROT>
7

>  <SCORE.INTER.SOLV>
16.9683

>  <SCORE.INTER.VDW>
-39.3817

>  <SCORE.INTER.norm>
-1.87091

>  <SCORE.INTRA>
-2.81253

>  <SCORE.INTRA.DIHEDRAL>
-2.87818

>  <SCORE.INTRA.DIHEDRAL.0>
15.5708

>  <SCORE.INTRA.POLAR>
0.0677885

>  <SCORE.INTRA.POLAR.0>
-0.0677885

>  <SCORE.INTRA.REPUL>
0

>  <SCORE.INTRA.REPUL.0>
0

>  <SCORE.INTRA.SOLV>
-4.37763

>  <SCORE.INTRA.SOLV.lig_0>
-87.6316

>  <SCORE.INTRA.VDW>
0.584895

>  <SCORE.INTRA.VDW.0>
-2.87309

>  <SCORE.INTRA.norm>
-0.0907266

>  <SCORE.RESTR>
0.477453

>  <SCORE.RESTR.CAVITY>
0.477453

>  <SCORE.RESTR.norm>
0.0154017

>  <SCORE.SYSTEM>
0

>  <SCORE.SYSTEM.CONST>
0

>  <SCORE.SYSTEM.DIHEDRAL>
0

>  <SCORE.SYSTEM.SOLV>
0

>  <SCORE.SYSTEM.norm>
0

>  <SCORE.heavy>
31

>  <SCORE.norm>
-1.94623

>  <SYMMETRIC_BONDS>
33 34 3

>  <RMSD>
1.165

$$$$
1fmn_cryst
 OpenBabel11021811393D
libRbt.so/2013.1/901 2013/11/27
 31 33  0  0  0  0  0  0  0  0999 V2000
   -8.9836   -6.1814    3.4543 N   0  0  0  0  0  0  0  0  0  0  0  0
   -9.7074   -6.2043    4.6235 C   0  0  0  0  0  0  0  0  0  0  0  0
   -9.3099   -6.7995    5.6256 O   0  0  0  0  0  0  0  0  0  0  0  0
  -10.9399   -5.5045    4.5998 N   0  0  0  0  0  0  0  0  0  0  0  0
  -11.4886   -4.7982    3.5070 C   0  0  0  0  0  0  0  0  0  0  0  0
  -12.5800   -4.2270    3.6247 O   0  0  0  0  0  0  0  0  0  0  0  0
  -10.6586   -4.8221    2.3004 C   0  0  0  0  0  0  0  0  0  0  0  0
  -11.1218   -4.1575    1.1923 N   0  0  0  0  0  0  0  0  0  0  0  0
  -10.4402   -4.3311    0.0227 C   0  0  0  0  0  0  0  0  0  0  0  0
  -11.0005   -3.8185   -1.1339 C   0  0  0  0  0  0  0  0  0  0  0  0
  -10.3803   -3.9527   -2.3291 C   0  0  0  0  0  0  0  0  0  0  0  0
  -11.0271   -3.3776   -3.5487 C   0  0  0  0  0  0  0  0  0  0  0  0
   -9.1869   -4.6003   -2.4155 C   0  0  0  0  0  0  0  0  0  0  0  0
   -8.5124   -4.7499   -3.7402 C   0  0  0  0  0  0  0  0  0  0  0  0
   -8.5990   -5.1188   -1.3071 C   0  0  0  0  0  0  0  0  0  0  0  0
   -9.1962   -5.0073   -0.0515 C   0  0  0  0  0  0  0  0  0  0  0  0
   -8.6392   -5.5190    1.1393 N   0  0  0  0  0  0  0  0  0  0  0  0
   -9.4017   -5.5327    2.3252 C   0  0  0  0  0  0  0  0  0  0  0  0
   -7.1367   -5.5040    1.2826 C   0  0  0  0  0  0  0  0  0  0  0  0
   -6.3583   -6.6233    0.5267 C   0  0  1  0  0  0  0  0  0  0  0  0
   -5.2190   -6.0752   -0.1210 O   0  0  0  0  0  0  0  0  0  0  0  0
   -5.9931   -7.8273    1.4274 C   0  0  1  0  0  0  0  0  0  0  0  0
   -5.1049   -8.7050    0.7416 O   0  0  0  0  0  0  0  0  0  0  0  0
   -5.4336   -7.5053    2.8349 C   0  0  1  0  0  0  0  0  0  0  0  0
   -6.4943   -6.9925    3.6336 O   0  0  0  0  0  0  0  0  0  0  0  0
   -4.8316   -8.7408    3.5412 C   0  0  0  0  0  0  0  0  0  0  0  0
   -4.4133   -8.4565    4.8710 O   0  0  0  0  0  0  0  0  0  0  0  0
   -3.6381   -9.5079    5.7682 P   0  0  0  0  0  0  0  0  0  0  0  0
   -4.5593  -10.5490    6.2777 O   0  0  0  0  0  0  0  0  0  0  0  0
   -2.3850   -9.9330    5.1080 O   0  5  0  0  0  0  0  0  0  0  0  0
   -3.2020   -8.6644    7.0462 O   0  5  0  0  0  0  0  0  0  0  0  0
  1 18  1  0  0  0  0
  1  2  1  0  0  0  0
  2  4  1  0  0  0  0
  2  3  2  0  0  0  0
  4  5  1  0  0  0  0
  5  7  1  0  0  0  0
  5  6  2  0  0  0  0
  7 18  2  0  0  0  0
  7  8  1  0  0  0  0
  8  9  1  0  0  0  0
  9 10  2  0  0  0  0
  9 16  1  0  0  0  0
 10 11  1  0  0  0  0
 11 12  1  0  0  0  0
 11 13  2  0  0  0  0
 13 14  1  0  0  0  0
 13 15  1  0  0  0  0
 15 16  2  0  0  0  0
 16 17  1  0  0  0  0
 17 19  1  0  0  0  0
 17 18  1  0  0  0  0
 20 19  1  1  0  0  0
 20 22  1  0  0  0  0
 20 21  1  0  0  0  0
 22 24  1  0  0  0  0
 22 23  1  6  0  0  0
 24 26  1  1  0  0  0
 24 25  1  0  0  0  0
 26 27  1  0  0  0  0
 27 28  1  0  0  0  0
 28 30  1  0  0  0  0
 28 29  2  0  0  0  0
 28 31  1  0  0  0  0
M  CHG  2  30  -1  31  -1
M  END
>  <CHROM.1>
-78.32813746,136.08614082,-170.60525861,-61.22184651,71.21022569,58.02442648
-175.53419045,-175.73386787,-174.04840992,-75.64814223,-7.63328985,-6.46894466
2.21765406,2.36207501,0.47218961,-1.31978815

>  <Name>
1fmn_cryst

>  <RI>
0

>  <Rbt.Current_Directory>
/home/itssahil/PROJECTS/Mol_Feturizer/New_Systems/rnas/1fmn

>  <Rbt.Executable>
rbdock ($Id: //depot/dev/client3/rdock/2013.1/src/exe/rbdock.cxx#4 $)

>  <Rbt.Library>
libRbt.so (2013.1, Build901 2013/11/27)

>  <Rbt.Parameter_File>
/export/apps/rDock/src/rDock_2013.1_src/data/scripts/dock_solv.prm

>  <Rbt.Receptor>
prm/pocket_docking_2.prm

>  <SCORE>
-57.6225

>  <SCORE.INTER>
-49.5889

>  <SCORE.INTER.CONST>
1

>  <SCORE.INTER.POLAR>
-2.21927

>  <SCORE.INTER.ROT>
7

>  <SCORE.INTER.SOLV>
20.1543

>  <SCORE.INTER.VDW>
-40.6464

>  <SCORE.INTER.norm>
-1.59964

>  <SCORE.INTRA>
-8.1035

>  <SCORE.INTRA.DIHEDRAL>
-7.78676

>  <SCORE.INTRA.DIHEDRAL.0>
15.5708

>  <SCORE.INTRA.POLAR>
-0.941918

>  <SCORE.INTRA.POLAR.0>
-0.0677885

>  <SCORE.INTRA.REPUL>
0

>  <SCORE.INTRA.REPUL.0>
0

>  <SCORE.INTRA.SOLV>
-3.64046

>  <SCORE.INTRA.SOLV.lig_0>
-87.6316

>  <SCORE.INTRA.VDW>
0.812635

>  <SCORE.INTRA.VDW.0>
-2.87309

>  <SCORE.INTRA.norm>
-0.261403

>  <SCORE.RESTR>
0.0698905

>  <SCORE.RESTR.CAVITY>
0.0698905

>  <SCORE.RESTR.norm>
0.00225453

>  <SCORE.SYSTEM>
0

>  <SCORE.SYSTEM.CONST>
0

>  <SCORE.SYSTEM.DIHEDRAL>
0

>  <SCORE.SYSTEM.SOLV>
0

>  <SCORE.SYSTEM.norm>
0

>  <SCORE.heavy>
31

>  <SCORE.norm>
-1.85879

>  <SYMMETRIC_BONDS>
33 34 3

>  <RMSD>
1.167

$$$$
1fmn_cryst
 OpenBabel11021811393D
libRbt.so/2013.1/901 2013/11/27
 31 33  0  0  0  0  0  0  0  0999 V2000
   -8.8382   -6.1723    3.6591 N   0  0  0  0  0  0  0  0  0  0  0  0
   -9.6472   -6.1956    4.7711 C   0  0  0  0  0  0  0  0  0  0  0  0
   -9.2989   -6.7379    5.8204 O   0  0  0  0  0  0  0  0  0  0  0  0
  -10.9071   -5.5611    4.6307 N   0  0  0  0  0  0  0  0  0  0  0  0
  -11.4044   -4.9184    3.4758 C   0  0  0  0  0  0  0  0  0  0  0  0
  -12.5282   -4.4006    3.4915 O   0  0  0  0  0  0  0  0  0  0  0  0
  -10.4846   -4.9376    2.3363 C   0  0  0  0  0  0  0  0  0  0  0  0
  -10.8936   -4.3328    1.1739 N   0  0  0  0  0  0  0  0  0  0  0  0
  -10.1170   -4.5077    0.0654 C   0  0  0  0  0  0  0  0  0  0  0  0
  -10.6117   -4.0611   -1.1472 C   0  0  0  0  0  0  0  0  0  0  0  0
   -9.8961   -4.2007   -2.2873 C   0  0  0  0  0  0  0  0  0  0  0  0
  -10.4751   -3.6981   -3.5712 C   0  0  0  0  0  0  0  0  0  0  0  0
   -8.6694   -4.7886   -2.2613 C   0  0  0  0  0  0  0  0  0  0  0  0
   -7.8893   -4.9449   -3.5259 C   0  0  0  0  0  0  0  0  0  0  0  0
   -8.1434   -5.2412   -1.0946 C   0  0  0  0  0  0  0  0  0  0  0  0
   -8.8394   -5.1212    0.1081 C   0  0  0  0  0  0  0  0  0  0  0  0
   -8.3508   -5.5661    1.3545 N   0  0  0  0  0  0  0  0  0  0  0  0
   -9.2001   -5.5816    2.4798 C   0  0  0  0  0  0  0  0  0  0  0  0
   -6.8661   -5.4694    1.6090 C   0  0  0  0  0  0  0  0  0  0  0  0
   -6.0587   -6.7990    1.5077 C   0  0  1  0  0  0  0  0  0  0  0  0
   -4.9071   -6.6117    0.6974 O   0  0  0  0  0  0  0  0  0  0  0  0
   -5.7077   -7.4064    2.8868 C   0  0  1  0  0  0  0  0  0  0  0  0
   -6.8766   -7.9382    3.5037 O   0  0  0  0  0  0  0  0  0  0  0  0
   -4.5695   -8.4557    2.9214 C   0  0  1  0  0  0  0  0  0  0  0  0
   -4.7485   -9.3489    1.8277 O   0  0  0  0  0  0  0  0  0  0  0  0
   -3.1633   -7.8230    2.8219 C   0  0  0  0  0  0  0  0  0  0  0  0
   -2.1757   -8.5829    3.5084 O   0  0  0  0  0  0  0  0  0  0  0  0
   -2.1132   -8.6771    5.0890 P   0  0  0  0  0  0  0  0  0  0  0  0
   -0.8537   -9.3179    5.5310 O   0  0  0  0  0  0  0  0  0  0  0  0
   -2.5069   -7.3911    5.7039 O   0  5  0  0  0  0  0  0  0  0  0  0
   -3.2665   -9.7132    5.4511 O   0  5  0  0  0  0  0  0  0  0  0  0
  1 18  1  0  0  0  0
  1  2  1  0  0  0  0
  2  4  1  0  0  0  0
  2  3  2  0  0  0  0
  4  5  1  0  0  0  0
  5  7  1  0  0  0  0
  5  6  2  0  0  0  0
  7 18  2  0  0  0  0
  7  8  1  0  0  0  0
  8  9  1  0  0  0  0
  9 10  2  0  0  0  0
  9 16  1  0  0  0  0
 10 11  1  0  0  0  0
 11 12  1  0  0  0  0
 11 13  2  0  0  0  0
 13 14  1  0  0  0  0
 13 15  1  0  0  0  0
 15 16  2  0  0  0  0
 16 17  1  0  0  0  0
 17 19  1  0  0  0  0
 17 18  1  0  0  0  0
 20 19  1  1  0  0  0
 20 22  1  0  0  0  0
 20 21  1  0  0  0  0
 22 24  1  0  0  0  0
 22 23  1  6  0  0  0
 24 26  1  6  0  0  0
 24 25  1  0  0  0  0
 26 27  1  0  0  0  0
 27 28  1  0  0  0  0
 28 30  1  0  0  0  0
 28 29  2  0  0  0  0
 28 31  1  0  0  0  0
M  CHG  2  30  -1  31  -1
M  END
>  <CHROM.1>
-103.34093715,131.43615269,71.65959591,60.18261590,-43.86881476,176.61629121
149.60283107,-59.03689483,-70.53842901,-169.48620176,-7.07336956,-6.46154202
2.23807537,2.55001079,0.37388063,-1.33960089

>  <Name>
1fmn_cryst

>  <RI>
0

>  <Rbt.Current_Directory>
/home/itssahil/PROJECTS/Mol_Feturizer/New_Systems/rnas/1fmn

>  <Rbt.Executable>
rbdock ($Id: //depot/dev/client3/rdock/2013.1/src/exe/rbdock.cxx#4 $)

>  <Rbt.Library>
libRbt.so (2013.1, Build901 2013/11/27)

>  <Rbt.Parameter_File>
/export/apps/rDock/src/rDock_2013.1_src/data/scripts/dock_solv.prm

>  <Rbt.Receptor>
prm/pocket_docking_2.prm

>  <SCORE>
-52.9309

>  <SCORE.INTER>
-48.1166

>  <SCORE.INTER.CONST>
1

>  <SCORE.INTER.POLAR>
-2.14376

>  <SCORE.INTER.ROT>
7

>  <SCORE.INTER.SOLV>
15.5513

>  <SCORE.INTER.VDW>
-38.3823

>  <SCORE.INTER.norm>
-1.55215

>  <SCORE.INTRA>
-4.81421

>  <SCORE.INTRA.DIHEDRAL>
-3.06398

>  <SCORE.INTRA.DIHEDRAL.0>
15.5708

>  <SCORE.INTRA.POLAR>
-0.932211

>  <SCORE.INTRA.POLAR.0>
-0.0677885

>  <SCORE.INTRA.REPUL>
0

>  <SCORE.INTRA.REPUL.0>
0

>  <SCORE.INTRA.SOLV>
-0.297751

>  <SCORE.INTRA.SOLV.lig_0>
-87.6316

>  <SCORE.INTRA.VDW>
0.0361703

>  <SCORE.INTRA.VDW.0>
-2.87309

>  <SCORE.INTRA.norm>
-0.155297

>  <SCORE.RESTR>
0

>  <SCORE.RESTR.CAVITY>
0

>  <SCORE.RESTR.norm>
0

>  <SCORE.SYSTEM>
0

>  <SCORE.SYSTEM.CONST>
0

>  <SCORE.SYSTEM.DIHEDRAL>
0

>  <SCORE.SYSTEM.SOLV>
0

>  <SCORE.SYSTEM.norm>
0

>  <SCORE.heavy>
31

>  <SCORE.norm>
-1.70745

>  <SYMMETRIC_BONDS>
33 34 3

>  <RMSD>
1.171

$$$$
1fmn_cryst
 OpenBabel11021811393D
libRbt.so/2013.1/901 2013/11/27
 31 33  0  0  0  0  0  0  0  0999 V2000
   -8.9727   -6.2726    3.6335 N   0  0  0  0  0  0  0  0  0  0  0  0
   -9.8300   -6.1864    4.7054 C   0  0  0  0  0  0  0  0  0  0  0  0
   -9.6008   -6.7573    5.7722 O   0  0  0  0  0  0  0  0  0  0  0  0
  -10.9945   -5.4039    4.5026 N   0  0  0  0  0  0  0  0  0  0  0  0
  -11.3543   -4.7161    3.3229 C   0  0  0  0  0  0  0  0  0  0  0  0
  -12.4056   -4.0646    3.2828 O   0  0  0  0  0  0  0  0  0  0  0  0
  -10.3910   -4.8583    2.2288 C   0  0  0  0  0  0  0  0  0  0  0  0
  -10.6675   -4.2189    1.0460 N   0  0  0  0  0  0  0  0  0  0  0  0
   -9.8667   -4.4979   -0.0233 C   0  0  0  0  0  0  0  0  0  0  0  0
  -10.2452   -4.0056   -1.2597 C   0  0  0  0  0  0  0  0  0  0  0  0
   -9.4991   -4.2424   -2.3637 C   0  0  0  0  0  0  0  0  0  0  0  0
   -9.9509   -3.6847   -3.6757 C   0  0  0  0  0  0  0  0  0  0  0  0
   -8.3564   -4.9756   -2.2769 C   0  0  0  0  0  0  0  0  0  0  0  0
   -7.5424   -5.2380   -3.5020 C   0  0  0  0  0  0  0  0  0  0  0  0
   -7.9454   -5.4782   -1.0847 C   0  0  0  0  0  0  0  0  0  0  0  0
   -8.6775   -5.2626    0.0829 C   0  0  0  0  0  0  0  0  0  0  0  0
   -8.3064   -5.7522    1.3528 N   0  0  0  0  0  0  0  0  0  0  0  0
   -9.2033   -5.6532    2.4361 C   0  0  0  0  0  0  0  0  0  0  0  0
   -6.8348   -5.8354    1.6779 C   0  0  0  0  0  0  0  0  0  0  0  0
   -6.2496   -7.2668    1.8752 C   0  0  1  0  0  0  0  0  0  0  0  0
   -5.8705   -7.8174    0.6218 O   0  0  0  0  0  0  0  0  0  0  0  0
   -5.0972   -7.3181    2.9063 C   0  0  1  0  0  0  0  0  0  0  0  0
   -5.1338   -8.5468    3.6265 O   0  0  0  0  0  0  0  0  0  0  0  0
   -3.6665   -7.0629    2.3717 C   0  0  1  0  0  0  0  0  0  0  0  0
   -3.5385   -5.6768    2.0745 O   0  0  0  0  0  0  0  0  0  0  0  0
   -2.5662   -7.4587    3.3819 C   0  0  0  0  0  0  0  0  0  0  0  0
   -2.8055   -6.9302    4.6809 O   0  0  0  0  0  0  0  0  0  0  0  0
   -1.9257   -7.3207    5.9397 P   0  0  0  0  0  0  0  0  0  0  0  0
   -2.0938   -8.7521    6.2787 O   0  0  0  0  0  0  0  0  0  0  0  0
   -0.5553   -6.7811    5.8056 O   0  5  0  0  0  0  0  0  0  0  0  0
   -2.6028   -6.5184    7.1367 O   0  5  0  0  0  0  0  0  0  0  0  0
  1 18  1  0  0  0  0
  1  2  1  0  0  0  0
  2  4  1  0  0  0  0
  2  3  2  0  0  0  0
  4  5  1  0  0  0  0
  5  7  1  0  0  0  0
  5  6  2  0  0  0  0
  7 18  2  0  0  0  0
  7  8  1  0  0  0  0
  8  9  1  0  0  0  0
  9 10  2  0  0  0  0
  9 16  1  0  0  0  0
 10 11  1  0  0  0  0
 11 12  1  0  0  0  0
 11 13  2  0  0  0  0
 13 14  1  0  0  0  0
 13 15  1  0  0  0  0
 15 16  2  0  0  0  0
 16 17  1  0  0  0  0
 17 19  1  0  0  0  0
 17 18  1  0  0  0  0
 20 19  1  6  0  0  0
 20 22  1  0  0  0  0
 20 21  1  0  0  0  0
 22 24  1  0  0  0  0
 22 23  1  6  0  0  0
 24 26  1  1  0  0  0
 24 25  1  0  0  0  0
 26 27  1  0  0  0  0
 27 28  1  0  0  0  0
 28 30  1  0  0  0  0
 28 29  2  0  0  0  0
 28 31  1  0  0  0  0
M  CHG  2  30  -1  31  -1
M  END
>  <CHROM.1>
-114.08647879,85.81904774,145.40224560,57.56098493,73.00113799,-56.51946973
-48.99428333,-65.48793037,172.71981741,-65.65841651,-6.83658625,-6.06518149
2.40782651,2.50257199,0.24010046,-1.41455420

>  <Name>
1fmn_cryst

>  <RI>
0

>  <Rbt.Current_Directory>
/home/itssahil/PROJECTS/Mol_Feturizer/New_Systems/rnas/1fmn

>  <Rbt.Executable>
rbdock ($Id: //depot/dev/client3/rdock/2013.1/src/exe/rbdock.cxx#4 $)

>  <Rbt.Library>
libRbt.so (2013.1, Build901 2013/11/27)

>  <Rbt.Parameter_File>
/export/apps/rDock/src/rDock_2013.1_src/data/scripts/dock_solv.prm

>  <Rbt.Receptor>
prm/pocket_docking_2.prm

>  <SCORE>
-49.8658

>  <SCORE.INTER>
-45.0073

>  <SCORE.INTER.CONST>
1

>  <SCORE.INTER.POLAR>
-2.01768

>  <SCORE.INTER.ROT>
7

>  <SCORE.INTER.SOLV>
14.6052

>  <SCORE.INTER.VDW>
-36.4143

>  <SCORE.INTER.norm>
-1.45185

>  <SCORE.INTRA>
-4.86565

>  <SCORE.INTRA.DIHEDRAL>
-6.26632

>  <SCORE.INTRA.DIHEDRAL.0>
15.5708

>  <SCORE.INTRA.POLAR>
0.0677885

>  <SCORE.INTRA.POLAR.0>
-0.0677885

>  <SCORE.INTRA.REPUL>
0

>  <SCORE.INTRA.REPUL.0>
0

>  <SCORE.INTRA.SOLV>
-4.29215

>  <SCORE.INTRA.SOLV.lig_0>
-87.6316

>  <SCORE.INTRA.VDW>
0.1831

>  <SCORE.INTRA.VDW.0>
-2.87309

>  <SCORE.INTRA.norm>
-0.156957

>  <SCORE.RESTR>
0.00714539

>  <SCORE.RESTR.CAVITY>
0.00714539

>  <SCORE.RESTR.norm>
0.000230497

>  <SCORE.SYSTEM>
0

>  <SCORE.SYSTEM.CONST>
0

>  <SCORE.SYSTEM.DIHEDRAL>
0

>  <SCORE.SYSTEM.SOLV>
0

>  <SCORE.SYSTEM.norm>
0

>  <SCORE.heavy>
31

>  <SCORE.norm>
-1.60857

>  <SYMMETRIC_BONDS>
33 34 3

>  <RMSD>
1.195

$$$$
1fmn_cryst
 OpenBabel11021811393D
libRbt.so/2013.1/901 2013/11/27
 31 33  0  0  0  0  0  0  0  0999 V2000
   -8.9978   -6.2417    3.6806 N   0  0  0  0  0  0  0  0  0  0  0  0
   -9.8982   -6.1702    4.7178 C   0  0  0  0  0  0  0  0  0  0  0  0
   -9.6875   -6.7115    5.8036 O   0  0  0  0  0  0  0  0  0  0  0  0
  -11.0841   -5.4391    4.4558 N   0  0  0  0  0  0  0  0  0  0  0  0
  -11.4255   -4.7884    3.2499 C   0  0  0  0  0  0  0  0  0  0  0  0
  -12.4994   -4.1805    3.1574 O   0  0  0  0  0  0  0  0  0  0  0  0
  -10.4162   -4.9120    2.1957 C   0  0  0  0  0  0  0  0  0  0  0  0
  -10.6724   -4.3063    0.9908 N   0  0  0  0  0  0  0  0  0  0  0  0
   -9.8210   -4.5727   -0.0420 C   0  0  0  0  0  0  0  0  0  0  0  0
  -10.1712   -4.1190   -1.3014 C   0  0  0  0  0  0  0  0  0  0  0  0
   -9.3748   -4.3460   -2.3717 C   0  0  0  0  0  0  0  0  0  0  0  0
   -9.7978   -3.8315   -3.7106 C   0  0  0  0  0  0  0  0  0  0  0  0
   -8.2081   -5.0309   -2.2275 C   0  0  0  0  0  0  0  0  0  0  0  0
   -7.3383   -5.2831   -3.4157 C   0  0  0  0  0  0  0  0  0  0  0  0
   -7.8234   -5.4943   -1.0109 C   0  0  0  0  0  0  0  0  0  0  0  0
   -8.6074   -5.2868    0.1239 C   0  0  0  0  0  0  0  0  0  0  0  0
   -8.2661   -5.7374    1.4164 N   0  0  0  0  0  0  0  0  0  0  0  0
   -9.2069   -5.6545    2.4632 C   0  0  0  0  0  0  0  0  0  0  0  0
   -6.8058   -5.7553    1.7979 C   0  0  0  0  0  0  0  0  0  0  0  0
   -6.1248   -7.1561    1.8633 C   0  0  1  0  0  0  0  0  0  0  0  0
   -5.4628   -7.4359    0.6380 O   0  0  0  0  0  0  0  0  0  0  0  0
   -5.1874   -7.3225    3.0829 C   0  0  1  0  0  0  0  0  0  0  0  0
   -4.0682   -6.4487    2.9679 O   0  0  0  0  0  0  0  0  0  0  0  0
   -5.8285   -7.1763    4.4848 C   0  0  1  0  0  0  0  0  0  0  0  0
   -6.8266   -8.1808    4.6295 O   0  0  0  0  0  0  0  0  0  0  0  0
   -4.8055   -7.3225    5.6336 C   0  0  0  0  0  0  0  0  0  0  0  0
   -3.8621   -8.3597    5.3923 O   0  0  0  0  0  0  0  0  0  0  0  0
   -2.7202   -8.7360    6.4248 P   0  0  0  0  0  0  0  0  0  0  0  0
   -1.7846   -9.7241    5.8413 O   0  0  0  0  0  0  0  0  0  0  0  0
   -2.1632   -7.5184    7.0525 O   0  5  0  0  0  0  0  0  0  0  0  0
   -3.4953   -9.5142    7.5774 O   0  5  0  0  0  0  0  0  0  0  0  0
  1 18  1  0  0  0  0
  1  2  1  0  0  0  0
  2  4  1  0  0  0  0
  2  3  2  0  0  0  0
  4  5  1  0  0  0  0
  5  7  1  0  0  0  0
  5  6  2  0  0  0  0
  7 18  2  0  0  0  0
  7  8  1  0  0  0  0
  8  9  1  0  0  0  0
  9 10  2  0  0  0  0
  9 16  1  0  0  0  0
 10 11  1  0  0  0  0
 11 12  1  0  0  0  0
 11 13  2  0  0  0  0
 13 14  1  0  0  0  0
 13 15  1  0  0  0  0
 15 16  2  0  0  0  0
 16 17  1  0  0  0  0
 17 19  1  0  0  0  0
 17 18  1  0  0  0  0
 20 19  1  6  0  0  0
 20 22  1  0  0  0  0
 20 21  1  0  0  0  0
 22 24  1  0  0  0  0
 22 23  1  6  0  0  0
 24 26  1  1  0  0  0
 24 25  1  0  0  0  0
 26 27  1  0  0  0  0
 27 28  1  0  0  0  0
 28 30  1  0  0  0  0
 28 29  2  0  0  0  0
 28 31  1  0  0  0  0
M  CHG  2  30  -1  31  -1
M  END
>  <CHROM.1>
-106.34782193,95.61435835,-66.19176671,-178.36194316,60.88582369,63.28126580
-40.62284641,58.65060842,-178.87995355,-172.64016613,-7.18371154,-6.39897287
2.71950549,2.32884622,0.34259100,-1.34590477

>  <Name>
1fmn_cryst

>  <RI>
0

>  <Rbt.Current_Directory>
/home/itssahil/PROJECTS/Mol_Feturizer/New_Systems/rnas/1fmn

>  <Rbt.Executable>
rbdock ($Id: //depot/dev/client3/rdock/2013.1/src/exe/rbdock.cxx#4 $)

>  <Rbt.Library>
libRbt.so (2013.1, Build901 2013/11/27)

>  <Rbt.Parameter_File>
/export/apps/rDock/src/rDock_2013.1_src/data/scripts/dock_solv.prm

>  <Rbt.Receptor>
prm/pocket_docking_2.prm

>  <SCORE>
-55.1985

>  <SCORE.INTER>
-46.7933

>  <SCORE.INTER.CONST>
1

>  <SCORE.INTER.POLAR>
-1.98087

>  <SCORE.INTER.ROT>
7

>  <SCORE.INTER.SOLV>
14.8706

>  <SCORE.INTER.VDW>
-37.8162

>  <SCORE.INTER.norm>
-1.50946

>  <SCORE.INTRA>
-8.50492

>  <SCORE.INTRA.DIHEDRAL>
-7.71173

>  <SCORE.INTRA.DIHEDRAL.0>
15.5708

>  <SCORE.INTRA.POLAR>
-0.916452

>  <SCORE.INTRA.POLAR.0>
-0.0677885

>  <SCORE.INTRA.REPUL>
0

>  <SCORE.INTRA.REPUL.0>
0

>  <SCORE.INTRA.SOLV>
-3.60444

>  <SCORE.INTRA.SOLV.lig_0>
-87.6316

>  <SCORE.INTRA.VDW>
0.269107

>  <SCORE.INTRA.VDW.0>
-2.87309

>  <SCORE.INTRA.norm>
-0.274352

>  <SCORE.RESTR>
0.0997897

>  <SCORE.RESTR.CAVITY>
0.0997897

>  <SCORE.RESTR.norm>
0.00321902

>  <SCORE.SYSTEM>
0

>  <SCORE.SYSTEM.CONST>
0

>  <SCORE.SYSTEM.DIHEDRAL>
0

>  <SCORE.SYSTEM.SOLV>
0

>  <SCORE.SYSTEM.norm>
0

>  <SCORE.heavy>
31

>  <SCORE.norm>
-1.7806

>  <SYMMETRIC_BONDS>
33 34 3

>  <RMSD>
1.235

$$$$
1fmn_cryst
 OpenBabel11021811393D
libRbt.so/2013.1/901 2013/11/27
 31 33  0  0  0  0  0  0  0  0999 V2000
   -8.7774   -6.1952    3.6879 N   0  0  0  0  0  0  0  0  0  0  0  0
   -9.5904   -6.2078    4.7971 C   0  0  0  0  0  0  0  0  0  0  0  0
   -9.2486   -6.7460    5.8508 O   0  0  0  0  0  0  0  0  0  0  0  0
  -10.8463   -5.5675    4.6488 N   0  0  0  0  0  0  0  0  0  0  0  0
  -11.3363   -4.9288    3.4885 C   0  0  0  0  0  0  0  0  0  0  0  0
  -12.4573   -4.4049    3.4973 O   0  0  0  0  0  0  0  0  0  0  0  0
  -10.4125   -4.9593    2.3523 C   0  0  0  0  0  0  0  0  0  0  0  0
  -10.8143   -4.3590    1.1850 N   0  0  0  0  0  0  0  0  0  0  0  0
  -10.0348   -4.5444    0.0803 C   0  0  0  0  0  0  0  0  0  0  0  0
  -10.5229   -4.1022   -1.1365 C   0  0  0  0  0  0  0  0  0  0  0  0
   -9.8042   -4.2521   -2.2733 C   0  0  0  0  0  0  0  0  0  0  0  0
  -10.3761   -3.7538   -3.5621 C   0  0  0  0  0  0  0  0  0  0  0  0
   -8.5808   -4.8464   -2.2397 C   0  0  0  0  0  0  0  0  0  0  0  0
   -7.7971   -5.0141   -3.5006 C   0  0  0  0  0  0  0  0  0  0  0  0
   -8.0612   -5.2951   -1.0686 C   0  0  0  0  0  0  0  0  0  0  0  0
   -8.7607   -5.1645    0.1310 C   0  0  0  0  0  0  0  0  0  0  0  0
   -8.2788   -5.6048    1.3815 N   0  0  0  0  0  0  0  0  0  0  0  0
   -9.1320   -5.6094    2.5040 C   0  0  0  0  0  0  0  0  0  0  0  0
   -6.7945   -5.5146    1.6407 C   0  0  0  0  0  0  0  0  0  0  0  0
   -5.9205   -6.6713    1.0677 C   0  0  1  0  0  0  0  0  0  0  0  0
   -4.6214   -6.1921    0.7505 O   0  0  0  0  0  0  0  0  0  0  0  0
   -5.8739   -7.9143    1.9880 C   0  0  1  0  0  0  0  0  0  0  0  0
   -5.2718   -9.0107    1.3062 O   0  0  0  0  0  0  0  0  0  0  0  0
   -5.2166   -7.7328    3.3783 C   0  0  1  0  0  0  0  0  0  0  0  0
   -6.0438   -6.8765    4.1581 O   0  0  0  0  0  0  0  0  0  0  0  0
   -5.0287   -9.0670    4.1348 C   0  0  0  0  0  0  0  0  0  0  0  0
   -4.2993   -8.9070    5.3458 O   0  0  0  0  0  0  0  0  0  0  0  0
   -3.8805  -10.1308    6.2613 P   0  0  0  0  0  0  0  0  0  0  0  0
   -5.0705  -10.7651    6.8727 O   0  0  0  0  0  0  0  0  0  0  0  0
   -2.8989  -10.9905    5.5655 O   0  5  0  0  0  0  0  0  0  0  0  0
   -3.0962   -9.4487    7.4673 O   0  5  0  0  0  0  0  0  0  0  0  0
  1 18  1  0  0  0  0
  1  2  1  0  0  0  0
  2  4  1  0  0  0  0
  2  3  2  0  0  0  0
  4  5  1  0  0  0  0
  5  7  1  0  0  0  0
  5  6  2  0  0  0  0
  7 18  2  0  0  0  0
  7  8  1  0  0  0  0
  8  9  1  0  0  0  0
  9 10  2  0  0  0  0
  9 16  1  0  0  0  0
 10 11  1  0  0  0  0
 11 12  1  0  0  0  0
 11 13  2  0  0  0  0
 13 14  1  0  0  0  0
 13 15  1  0  0  0  0
 15 16  2  0  0  0  0
 16 17  1  0  0  0  0
 17 19  1  0  0  0  0
 17 18  1  0  0  0  0
 20 19  1  1  0  0  0
 20 22  1  0  0  0  0
 20 21  1  0  0  0  0
 22 24  1  0  0  0  0
 22 23  1  6  0  0  0
 24 26  1  1  0  0  0
 24 25  1  0  0  0  0
 26 27  1  0  0  0  0
 27 28  1  0  0  0  0
 28 30  1  0  0  0  0
 28 29  2  0  0  0  0
 28 31  1  0  0  0  0
M  CHG  2  30  -1  31  -1
M  END
>  <CHROM.1>
-81.92974678,149.94934518,169.39204232,58.16914087,67.93768594,-67.27966164
173.82114037,-78.44251553,-175.64785956,-67.42729316,-7.43531959,-6.71580102
2.52491146,2.27552495,0.49291386,-1.27442315

>  <Name>
1fmn_cryst

>  <RI>
0

>  <Rbt.Current_Directory>
/home/itssahil/PROJECTS/Mol_Feturizer/New_Systems/rnas/1fmn

>  <Rbt.Executable>
rbdock ($Id: //depot/dev/client3/rdock/2013.1/src/exe/rbdock.cxx#4 $)

>  <Rbt.Library>
libRbt.so (2013.1, Build901 2013/11/27)

>  <Rbt.Parameter_File>
/export/apps/rDock/src/rDock_2013.1_src/data/scripts/dock_solv.prm

>  <Rbt.Receptor>
prm/pocket_docking_4.prm

>  <SCORE>
-63.9905

>  <SCORE.INTER>
-55.2807

>  <SCORE.INTER.CONST>
1

>  <SCORE.INTER.POLAR>
-3.24211

>  <SCORE.INTER.ROT>
7

>  <SCORE.INTER.SOLV>
20.2246

>  <SCORE.INTER.VDW>
-41.055

>  <SCORE.INTER.norm>
-1.78325

>  <SCORE.INTRA>
-8.70979

>  <SCORE.INTRA.DIHEDRAL>
-7.87115

>  <SCORE.INTRA.DIHEDRAL.0>
15.5708

>  <SCORE.INTRA.POLAR>
-0.932211

>  <SCORE.INTRA.POLAR.0>
-0.0677885

>  <SCORE.INTRA.REPUL>
0

>  <SCORE.INTRA.REPUL.0>
0

>  <SCORE.INTRA.SOLV>
-3.90649

>  <SCORE.INTRA.SOLV.lig_0>
-87.6316

>  <SCORE.INTRA.VDW>
0.348551

>  <SCORE.INTRA.VDW.0>
-2.87309

>  <SCORE.INTRA.norm>
-0.280961

>  <SCORE.RESTR>
0

>  <SCORE.RESTR.CAVITY>
0

>  <SCORE.RESTR.norm>
0

>  <SCORE.SYSTEM>
0

>  <SCORE.SYSTEM.CONST>
0

>  <SCORE.SYSTEM.DIHEDRAL>
0

>  <SCORE.SYSTEM.SOLV>
0

>  <SCORE.SYSTEM.norm>
0

>  <SCORE.heavy>
31

>  <SCORE.norm>
-2.06421

>  <SYMMETRIC_BONDS>
33 34 3

>  <RMSD>
1.241

$$$$
1fmn_cryst
 OpenBabel11021811393D
libRbt.so/2013.1/901 2013/11/27
 31 33  0  0  0  0  0  0  0  0999 V2000
   -8.9154   -6.2262    3.6065 N   0  0  0  0  0  0  0  0  0  0  0  0
   -9.6858   -6.2061    4.7457 C   0  0  0  0  0  0  0  0  0  0  0  0
   -9.3434   -6.7879    5.7756 O   0  0  0  0  0  0  0  0  0  0  0  0
  -10.8992   -5.4786    4.6569 N   0  0  0  0  0  0  0  0  0  0  0  0
  -11.3864   -4.7843    3.5279 C   0  0  0  0  0  0  0  0  0  0  0  0
  -12.4676   -4.1854    3.5889 O   0  0  0  0  0  0  0  0  0  0  0  0
  -10.5095   -4.8544    2.3568 C   0  0  0  0  0  0  0  0  0  0  0  0
  -10.9118   -4.2042    1.2168 N   0  0  0  0  0  0  0  0  0  0  0  0
  -10.1882   -4.4196    0.0799 C   0  0  0  0  0  0  0  0  0  0  0  0
  -10.6891   -3.9202   -1.1092 C   0  0  0  0  0  0  0  0  0  0  0  0
  -10.0249   -4.0954   -2.2752 C   0  0  0  0  0  0  0  0  0  0  0  0
  -10.6082   -3.5328   -3.5320 C   0  0  0  0  0  0  0  0  0  0  0  0
   -8.8449   -4.7724   -2.2991 C   0  0  0  0  0  0  0  0  0  0  0  0
   -8.1217   -4.9672   -3.5918 C   0  0  0  0  0  0  0  0  0  0  0  0
   -8.3147   -5.2795   -1.1569 C   0  0  0  0  0  0  0  0  0  0  0  0
   -8.9589   -5.1261    0.0707 C   0  0  0  0  0  0  0  0  0  0  0  0
   -8.4626   -5.6239    1.2938 N   0  0  0  0  0  0  0  0  0  0  0  0
   -9.2722   -5.5933    2.4478 C   0  0  0  0  0  0  0  0  0  0  0  0
   -6.9671   -5.6405    1.4977 C   0  0  0  0  0  0  0  0  0  0  0  0
   -6.2566   -7.0135    1.2966 C   0  0  1  0  0  0  0  0  0  0  0  0
   -5.2089   -6.8877    0.3457 O   0  0  0  0  0  0  0  0  0  0  0  0
   -5.7681   -7.6474    2.6209 C   0  0  1  0  0  0  0  0  0  0  0  0
   -6.8726   -7.8969    3.4854 O   0  0  0  0  0  0  0  0  0  0  0  0
   -4.8898   -8.9177    2.5077 C   0  0  1  0  0  0  0  0  0  0  0  0
   -3.6980   -8.5790    1.8070 O   0  0  0  0  0  0  0  0  0  0  0  0
   -4.5071   -9.5102    3.8825 C   0  0  0  0  0  0  0  0  0  0  0  0
   -3.7986   -8.5826    4.6959 O   0  0  0  0  0  0  0  0  0  0  0  0
   -3.2562   -8.9489    6.1391 P   0  0  0  0  0  0  0  0  0  0  0  0
   -2.3837  -10.1439    6.0883 O   0  0  0  0  0  0  0  0  0  0  0  0
   -2.7613   -7.7399    6.8323 O   0  5  0  0  0  0  0  0  0  0  0  0
   -4.5610   -9.4089    6.9270 O   0  5  0  0  0  0  0  0  0  0  0  0
  1 18  1  0  0  0  0
  1  2  1  0  0  0  0
  2  4  1  0  0  0  0
  2  3  2  0  0  0  0
  4  5  1  0  0  0  0
  5  7  1  0  0  0  0
  5  6  2  0  0  0  0
  7 18  2  0  0  0  0
  7  8  1  0  0  0  0
  8  9  1  0  0  0  0
  9 10  2  0  0  0  0
  9 16  1  0  0  0  0
 10 11  1  0  0  0  0
 11 12  1  0  0  0  0
 11 13  2  0  0  0  0
 13 14  1  0  0  0  0
 13 15  1  0  0  0  0
 15 16  2  0  0  0  0
 16 17  1  0  0  0  0
 17 19  1  0  0  0  0
 17 18  1  0  0  0  0
 20 19  1  1  0  0  0
 20 22  1  0  0  0  0
 20 21  1  0  0  0  0
 22 24  1  0  0  0  0
 22 23  1  1  0  0  0
 24 26  1  1  0  0  0
 24 25  1  0  0  0  0
 26 27  1  0  0  0  0
 27 28  1  0  0  0  0
 28 30  1  0  0  0  0
 28 29  2  0  0  0  0
 28 31  1  0  0  0  0
M  CHG  2  30  -1  31  -1
M  END
>  <CHROM.1>
-100.99473717,125.33191365,61.30384853,-86.21782436,61.99224555,-173.00770470
-58.61808057,-53.31344526,-178.35227330,55.48015155,-7.39001892,-6.54601914
2.44436341,2.38537161,0.45341709,-1.35450762

>  <Name>
1fmn_cryst

>  <RI>
0

>  <Rbt.Current_Directory>
/home/itssahil/PROJECTS/Mol_Feturizer/New_Systems/rnas/1fmn

>  <Rbt.Executable>
rbdock ($Id: //depot/dev/client3/rdock/2013.1/src/exe/rbdock.cxx#4 $)

>  <Rbt.Library>
libRbt.so (2013.1, Build901 2013/11/27)

>  <Rbt.Parameter_File>
/export/apps/rDock/src/rDock_2013.1_src/data/scripts/dock_solv.prm

>  <Rbt.Receptor>
prm/pocket_docking_6.prm

>  <SCORE>
-62.9798

>  <SCORE.INTER>
-54.0635

>  <SCORE.INTER.CONST>
1

>  <SCORE.INTER.POLAR>
-3.03303

>  <SCORE.INTER.ROT>
7

>  <SCORE.INTER.SOLV>
15.7666

>  <SCORE.INTER.VDW>
-39.4545

>  <SCORE.INTER.norm>
-1.74398

>  <SCORE.INTRA>
-8.91629

>  <SCORE.INTRA.DIHEDRAL>
-4.48277

>  <SCORE.INTRA.DIHEDRAL.0>
15.5708

>  <SCORE.INTRA.POLAR>
-1.67382

>  <SCORE.INTRA.POLAR.0>
-0.0677885

>  <SCORE.INTRA.REPUL>
0

>  <SCORE.INTRA.REPUL.0>
0

>  <SCORE.INTRA.SOLV>
-2.91333

>  <SCORE.INTRA.SOLV.lig_0>
-87.6316

>  <SCORE.INTRA.VDW>
0.472752

>  <SCORE.INTRA.VDW.0>
-2.87309

>  <SCORE.INTRA.norm>
-0.287622

>  <SCORE.RESTR>
0

>  <SCORE.RESTR.CAVITY>
0

>  <SCORE.RESTR.norm>
0

>  <SCORE.SYSTEM>
0

>  <SCORE.SYSTEM.CONST>
0

>  <SCORE.SYSTEM.DIHEDRAL>
0

>  <SCORE.SYSTEM.SOLV>
0

>  <SCORE.SYSTEM.norm>
0

>  <SCORE.heavy>
31

>  <SCORE.norm>
-2.03161

>  <SYMMETRIC_BONDS>
33 34 3

>  <RMSD>
1.243

$$$$
1fmn_cryst
 OpenBabel11021811393D
libRbt.so/2013.1/901 2013/11/27
 31 33  0  0  0  0  0  0  0  0999 V2000
   -8.9378   -6.2599    3.7071 N   0  0  0  0  0  0  0  0  0  0  0  0
   -9.7743   -6.1983    4.7970 C   0  0  0  0  0  0  0  0  0  0  0  0
   -9.5158   -6.7789    5.8518 O   0  0  0  0  0  0  0  0  0  0  0  0
  -10.9530   -5.4295    4.6273 N   0  0  0  0  0  0  0  0  0  0  0  0
  -11.3458   -4.7325    3.4636 C   0  0  0  0  0  0  0  0  0  0  0  0
  -12.4064   -4.0949    3.4527 O   0  0  0  0  0  0  0  0  0  0  0  0
  -10.4031   -4.8483    2.3488 C   0  0  0  0  0  0  0  0  0  0  0  0
  -10.7121   -4.1985    1.1797 N   0  0  0  0  0  0  0  0  0  0  0  0
   -9.9294   -4.4536    0.0912 C   0  0  0  0  0  0  0  0  0  0  0  0
  -10.3394   -3.9516   -1.1313 C   0  0  0  0  0  0  0  0  0  0  0  0
   -9.6129   -4.1649   -2.2528 C   0  0  0  0  0  0  0  0  0  0  0  0
  -10.0986   -3.5977   -3.5485 C   0  0  0  0  0  0  0  0  0  0  0  0
   -8.4588   -4.8834   -2.1981 C   0  0  0  0  0  0  0  0  0  0  0  0
   -7.6665   -5.1198   -3.4424 C   0  0  0  0  0  0  0  0  0  0  0  0
   -8.0171   -5.3947   -1.0206 C   0  0  0  0  0  0  0  0  0  0  0  0
   -8.7282   -5.2033    0.1640 C   0  0  0  0  0  0  0  0  0  0  0  0
   -8.3249   -5.7030    1.4200 N   0  0  0  0  0  0  0  0  0  0  0  0
   -9.2009   -5.6293    2.5223 C   0  0  0  0  0  0  0  0  0  0  0  0
   -6.8460   -5.7700    1.7144 C   0  0  0  0  0  0  0  0  0  0  0  0
   -6.0155   -6.7760    0.8610 C   0  0  1  0  0  0  0  0  0  0  0  0
   -5.3772   -6.0976   -0.2115 O   0  0  0  0  0  0  0  0  0  0  0  0
   -5.0169   -7.6088    1.6997 C   0  0  1  0  0  0  0  0  0  0  0  0
   -3.9369   -6.7894    2.1377 O   0  0  0  0  0  0  0  0  0  0  0  0
   -5.5972   -8.4006    2.8973 C   0  0  1  0  0  0  0  0  0  0  0  0
   -4.7418   -9.5073    3.1611 O   0  0  0  0  0  0  0  0  0  0  0  0
   -5.7187   -7.5489    4.1808 C   0  0  0  0  0  0  0  0  0  0  0  0
   -5.4775   -8.3065    5.3606 O   0  0  0  0  0  0  0  0  0  0  0  0
   -4.0182   -8.6388    5.8816 P   0  0  0  0  0  0  0  0  0  0  0  0
   -3.6861  -10.0631    5.6508 O   0  0  0  0  0  0  0  0  0  0  0  0
   -3.0578   -7.6066    5.4353 O   0  5  0  0  0  0  0  0  0  0  0  0
   -4.1365   -8.4809    7.4614 O   0  5  0  0  0  0  0  0  0  0  0  0
  1 18  1  0  0  0  0
  1  2  1  0  0  0  0
  2  4  1  0  0  0  0
  2  3  2  0  0  0  0
  4  5  1  0  0  0  0
  5  7  1  0  0  0  0
  5  6  2  0  0  0  0
  7 18  2  0  0  0  0
  7  8  1  0  0  0  0
  8  9  1  0  0  0  0
  9 10  2  0  0  0  0
  9 16  1  0  0  0  0
 10 11  1  0  0  0  0
 11 12  1  0  0  0  0
 11 13  2  0  0  0  0
 13 14  1  0  0  0  0
 13 15  1  0  0  0  0
 15 16  2  0  0  0  0
 16 17  1  0  0  0  0
 17 19  1  0  0  0  0
 17 18  1  0  0  0  0
 20 19  1  1  0  0  0
 20 22  1  0  0  0  0
 20 21  1  0  0  0  0
 22 24  1  0  0  0  0
 22 23  1  1  0  0  0
 24 26  1  1  0  0  0
 24 25  1  0  0  0  0
 26 27  1  0  0  0  0
 27 28  1  0  0  0  0
 28 30  1  0  0  0  0
 28 29  2  0  0  0  0
 28 31  1  0  0  0  0
M  CHG  2  30  -1  31  -1
M  END
>  <CHROM.1>
-66.54241094,98.12375077,-71.59651421,-151.10513610,154.52815327,57.51065160
-145.47662082,-161.67722120,81.01971995,-106.87103818,-7.41205563,-6.37779257
2.39274419,2.29124052,0.42245999,-1.31509553

>  <Name>
1fmn_cryst

>  <RI>
0

>  <Rbt.Current_Directory>
/home/itssahil/PROJECTS/Mol_Feturizer/New_Systems/rnas/1fmn

>  <Rbt.Executable>
rbdock ($Id: //depot/dev/client3/rdock/2013.1/src/exe/rbdock.cxx#4 $)

>  <Rbt.Library>
libRbt.so (2013.1, Build901 2013/11/27)

>  <Rbt.Parameter_File>
/export/apps/rDock/src/rDock_2013.1_src/data/scripts/dock_solv.prm

>  <Rbt.Receptor>
prm/pocket_docking_2.prm

>  <SCORE>
-54.0054

>  <SCORE.INTER>
-58.1756

>  <SCORE.INTER.CONST>
1

>  <SCORE.INTER.POLAR>
-3.80714

>  <SCORE.INTER.ROT>
7

>  <SCORE.INTER.SOLV>
16.3004

>  <SCORE.INTER.VDW>
-39.7934

>  <SCORE.INTER.norm>
-1.87663

>  <SCORE.INTRA>
4.03755

>  <SCORE.INTRA.DIHEDRAL>
4.2005

>  <SCORE.INTRA.DIHEDRAL.0>
15.5708

>  <SCORE.INTRA.POLAR>
0.0677885

>  <SCORE.INTRA.POLAR.0>
-0.0677885

>  <SCORE.INTRA.REPUL>
0

>  <SCORE.INTRA.REPUL.0>
0

>  <SCORE.INTRA.SOLV>
1.32843

>  <SCORE.INTRA.SOLV.lig_0>
-87.6316

>  <SCORE.INTRA.VDW>
1.0426

>  <SCORE.INTRA.VDW.0>
-2.87309

>  <SCORE.INTRA.norm>
0.130243

>  <SCORE.RESTR>
0.13262

>  <SCORE.RESTR.CAVITY>
0.13262

>  <SCORE.RESTR.norm>
0.00427808

>  <SCORE.SYSTEM>
0

>  <SCORE.SYSTEM.CONST>
0

>  <SCORE.SYSTEM.DIHEDRAL>
0

>  <SCORE.SYSTEM.SOLV>
0

>  <SCORE.SYSTEM.norm>
0

>  <SCORE.heavy>
31

>  <SCORE.norm>
-1.74211

>  <SYMMETRIC_BONDS>
33 34 3

>  <RMSD>
1.247

$$$$
1fmn_cryst
 OpenBabel11021811393D
libRbt.so/2013.1/901 2013/11/27
 31 33  0  0  0  0  0  0  0  0999 V2000
   -8.8913   -6.2450    3.6199 N   0  0  0  0  0  0  0  0  0  0  0  0
   -9.6692   -6.2213    4.7539 C   0  0  0  0  0  0  0  0  0  0  0  0
   -9.3381   -6.8076    5.7849 O   0  0  0  0  0  0  0  0  0  0  0  0
  -10.8764   -5.4844    4.6584 N   0  0  0  0  0  0  0  0  0  0  0  0
  -11.3507   -4.7842    3.5275 C   0  0  0  0  0  0  0  0  0  0  0  0
  -12.4277   -4.1773    3.5825 O   0  0  0  0  0  0  0  0  0  0  0  0
  -10.4666   -4.8588    2.3622 C   0  0  0  0  0  0  0  0  0  0  0  0
  -10.8562   -4.2034    1.2208 N   0  0  0  0  0  0  0  0  0  0  0  0
  -10.1266   -4.4221    0.0884 C   0  0  0  0  0  0  0  0  0  0  0  0
  -10.6158   -3.9165   -1.1031 C   0  0  0  0  0  0  0  0  0  0  0  0
   -9.9451   -4.0946   -2.2649 C   0  0  0  0  0  0  0  0  0  0  0  0
  -10.5156   -3.5251   -3.5245 C   0  0  0  0  0  0  0  0  0  0  0  0
   -8.7702   -4.7803   -2.2822 C   0  0  0  0  0  0  0  0  0  0  0  0
   -8.0398   -4.9782   -3.5704 C   0  0  0  0  0  0  0  0  0  0  0  0
   -8.2515   -5.2937   -1.1375 C   0  0  0  0  0  0  0  0  0  0  0  0
   -8.9027   -5.1378    0.0861 C   0  0  0  0  0  0  0  0  0  0  0  0
   -8.4185   -5.6417    1.3115 N   0  0  0  0  0  0  0  0  0  0  0  0
   -9.2355   -5.6072    2.4601 C   0  0  0  0  0  0  0  0  0  0  0  0
   -6.9245   -5.6701    1.5253 C   0  0  0  0  0  0  0  0  0  0  0  0
   -6.1245   -6.7093    0.6825 C   0  0  1  0  0  0  0  0  0  0  0  0
   -5.3494   -6.0453   -0.3055 O   0  0  0  0  0  0  0  0  0  0  0  0
   -5.2700   -7.6673    1.5463 C   0  0  1  0  0  0  0  0  0  0  0  0
   -4.9136   -8.8239    0.7948 O   0  0  0  0  0  0  0  0  0  0  0  0
   -4.0113   -7.0684    2.2208 C   0  0  1  0  0  0  0  0  0  0  0  0
   -4.4027   -5.9172    2.9607 O   0  0  0  0  0  0  0  0  0  0  0  0
   -3.3106   -8.0596    3.1768 C   0  0  0  0  0  0  0  0  0  0  0  0
   -4.0866   -8.3367    4.3366 O   0  0  0  0  0  0  0  0  0  0  0  0
   -3.5066   -9.1149    5.5893 P   0  0  0  0  0  0  0  0  0  0  0  0
   -2.3208   -8.4204    6.1404 O   0  0  0  0  0  0  0  0  0  0  0  0
   -4.5949   -9.4995    6.5138 O   0  5  0  0  0  0  0  0  0  0  0  0
   -2.9530  -10.4719    4.9673 O   0  5  0  0  0  0  0  0  0  0  0  0
  1 18  1  0  0  0  0
  1  2  1  0  0  0  0
  2  4  1  0  0  0  0
  2  3  2  0  0  0  0
  4  5  1  0  0  0  0
  5  7  1  0  0  0  0
  5  6  2  0  0  0  0
  7 18  2  0  0  0  0
  7  8  1  0  0  0  0
  8  9  1  0  0  0  0
  9 10  2  0  0  0  0
  9 16  1  0  0  0  0
 10 11  1  0  0  0  0
 11 12  1  0  0  0  0
 11 13  2  0  0  0  0
 13 14  1  0  0  0  0
 13 15  1  0  0  0  0
 15 16  2  0  0  0  0
 16 17  1  0  0  0  0
 17 19  1  0  0  0  0
 17 18  1  0  0  0  0
 20 19  1  1  0  0  0
 20 22  1  0  0  0  0
 20 21  1  0  0  0  0
 22 24  1  0  0  0  0
 22 23  1  6  0  0  0
 24 26  1  1  0  0  0
 24 25  1  0  0  0  0
 26 27  1  0  0  0  0
 27 28  1  0  0  0  0
 28 30  1  0  0  0  0
 28 29  2  0  0  0  0
 28 31  1  0  0  0  0
M  CHG  2  30  -1  31  -1
M  END
>  <CHROM.1>
-70.52819652,109.42843834,161.63689061,-159.04626785,53.32938776,-53.90978238
-68.44897573,-178.20706058,-169.14152196,57.89213658,-7.27257514,-6.39159977
2.16305806,2.42094026,0.42196662,-1.31690904

>  <Name>
1fmn_cryst

>  <RI>
0

>  <Rbt.Current_Directory>
/home/itssahil/PROJECTS/Mol_Feturizer/New_Systems/rnas/1fmn

>  <Rbt.Executable>
rbdock ($Id: //depot/dev/client3/rdock/2013.1/src/exe/rbdock.cxx#4 $)

>  <Rbt.Library>
libRbt.so (2013.1, Build901 2013/11/27)

>  <Rbt.Parameter_File>
/export/apps/rDock/src/rDock_2013.1_src/data/scripts/dock_solv.prm

>  <Rbt.Receptor>
prm/pocket_docking_2.prm

>  <SCORE>
-61.105

>  <SCORE.INTER>
-57.9125

>  <SCORE.INTER.CONST>
1

>  <SCORE.INTER.POLAR>
-4.0028

>  <SCORE.INTER.ROT>
7

>  <SCORE.INTER.SOLV>
17.8356

>  <SCORE.INTER.VDW>
-39.4776

>  <SCORE.INTER.norm>
-1.86815

>  <SCORE.INTRA>
-3.80794

>  <SCORE.INTRA.DIHEDRAL>
-4.58585

>  <SCORE.INTRA.DIHEDRAL.0>
15.5708

>  <SCORE.INTRA.POLAR>
0.0677885

>  <SCORE.INTRA.POLAR.0>
-0.0677885

>  <SCORE.INTRA.REPUL>
0

>  <SCORE.INTRA.REPUL.0>
0

>  <SCORE.INTRA.SOLV>
-4.46561

>  <SCORE.INTRA.SOLV.lig_0>
-87.6316

>  <SCORE.INTRA.VDW>
0.487302

>  <SCORE.INTRA.VDW.0>
-2.87309

>  <SCORE.INTRA.norm>
-0.122837

>  <SCORE.RESTR>
0.615432

>  <SCORE.RESTR.CAVITY>
0.615432

>  <SCORE.RESTR.norm>
0.0198526

>  <SCORE.SYSTEM>
0

>  <SCORE.SYSTEM.CONST>
0

>  <SCORE.SYSTEM.DIHEDRAL>
0

>  <SCORE.SYSTEM.SOLV>
0

>  <SCORE.SYSTEM.norm>
0

>  <SCORE.heavy>
31

>  <SCORE.norm>
-1.97113

>  <SYMMETRIC_BONDS>
33 34 3

>  <RMSD>
1.250

$$$$
1fmn_cryst
 OpenBabel11021811393D
libRbt.so/2013.1/901 2013/11/27
 31 33  0  0  0  0  0  0  0  0999 V2000
   -8.7960   -6.2034    3.6244 N   0  0  0  0  0  0  0  0  0  0  0  0
   -9.5815   -6.2465    4.7526 C   0  0  0  0  0  0  0  0  0  0  0  0
   -9.2089   -6.8022    5.7864 O   0  0  0  0  0  0  0  0  0  0  0  0
  -10.8467   -5.6158    4.6478 N   0  0  0  0  0  0  0  0  0  0  0  0
  -11.3709   -4.9589    3.5129 C   0  0  0  0  0  0  0  0  0  0  0  0
  -12.4963   -4.4465    3.5596 O   0  0  0  0  0  0  0  0  0  0  0  0
  -10.4750   -4.9574    2.3542 C   0  0  0  0  0  0  0  0  0  0  0  0
  -10.9110   -4.3379    1.2095 N   0  0  0  0  0  0  0  0  0  0  0  0
  -10.1570   -4.4933    0.0826 C   0  0  0  0  0  0  0  0  0  0  0  0
  -10.6789   -4.0316   -1.1127 C   0  0  0  0  0  0  0  0  0  0  0  0
   -9.9868   -4.1515   -2.2694 C   0  0  0  0  0  0  0  0  0  0  0  0
  -10.5948   -3.6331   -3.5336 C   0  0  0  0  0  0  0  0  0  0  0  0
   -8.7573   -4.7340   -2.2777 C   0  0  0  0  0  0  0  0  0  0  0  0
   -8.0032   -4.8686   -3.5603 C   0  0  0  0  0  0  0  0  0  0  0  0
   -8.2050   -5.2010   -1.1289 C   0  0  0  0  0  0  0  0  0  0  0  0
   -8.8762   -5.1015    0.0898 C   0  0  0  0  0  0  0  0  0  0  0  0
   -8.3596   -5.5619    1.3191 N   0  0  0  0  0  0  0  0  0  0  0  0
   -9.1851   -5.5976    2.4616 C   0  0  0  0  0  0  0  0  0  0  0  0
   -6.8704   -5.4621    1.5439 C   0  0  0  0  0  0  0  0  0  0  0  0
   -6.1040   -6.8093    1.7111 C   0  0  1  0  0  0  0  0  0  0  0  0
   -5.8033   -7.3625    0.4377 O   0  0  0  0  0  0  0  0  0  0  0  0
   -4.8471   -6.6894    2.6055 C   0  0  1  0  0  0  0  0  0  0  0  0
   -3.8662   -5.8740    1.9712 O   0  0  0  0  0  0  0  0  0  0  0  0
   -5.0665   -6.2131    4.0625 C   0  0  1  0  0  0  0  0  0  0  0  0
   -6.0920   -7.0093    4.6459 O   0  0  0  0  0  0  0  0  0  0  0  0
   -3.7939   -6.3263    4.9315 C   0  0  0  0  0  0  0  0  0  0  0  0
   -3.2899   -7.6556    4.9866 O   0  0  0  0  0  0  0  0  0  0  0  0
   -2.0293   -8.0581    5.8585 P   0  0  0  0  0  0  0  0  0  0  0  0
   -0.7964   -7.4367    5.3237 O   0  0  0  0  0  0  0  0  0  0  0  0
   -2.3258   -7.9158    7.3003 O   0  5  0  0  0  0  0  0  0  0  0  0
   -1.8684   -9.6193    5.5910 O   0  5  0  0  0  0  0  0  0  0  0  0
  1 18  1  0  0  0  0
  1  2  1  0  0  0  0
  2  4  1  0  0  0  0
  2  3  2  0  0  0  0
  4  5  1  0  0  0  0
  5  7  1  0  0  0  0
  5  6  2  0  0  0  0
  7 18  2  0  0  0  0
  7  8  1  0  0  0  0
  8  9  1  0  0  0  0
  9 10  2  0  0  0  0
  9 16  1  0  0  0  0
 10 11  1  0  0  0  0
 11 12  1  0  0  0  0
 11 13  2  0  0  0  0
 13 14  1  0  0  0  0
 13 15  1  0  0  0  0
 15 16  2  0  0  0  0
 16 17  1  0  0  0  0
 17 19  1  0  0  0  0
 17 18  1  0  0  0  0
 20 19  1  6  0  0  0
 20 22  1  0  0  0  0
 20 21  1  0  0  0  0
 22 24  1  0  0  0  0
 22 23  1  6  0  0  0
 24 26  1  1  0  0  0
 24 25  1  0  0  0  0
 26 27  1  0  0  0  0
 27 28  1  0  0  0  0
 28 30  1  0  0  0  0
 28 29  2  0  0  0  0
 28 31  1  0  0  0  0
M  CHG  2  30  -1  31  -1
M  END
>  <CHROM.1>
-116.02727663,82.94741065,-66.73490179,-179.11021508,50.81440269,62.62379362
-58.06983833,179.02864400,-177.35646312,-67.23473804,-7.03898797,-6.06838493
2.52763621,2.45911419,0.25904511,-1.36705047

>  <Name>
1fmn_cryst

>  <RI>
0

>  <Rbt.Current_Directory>
/home/itssahil/PROJECTS/Mol_Feturizer/New_Systems/rnas/1fmn

>  <Rbt.Executable>
rbdock ($Id: //depot/dev/client3/rdock/2013.1/src/exe/rbdock.cxx#4 $)

>  <Rbt.Library>
libRbt.so (2013.1, Build901 2013/11/27)

>  <Rbt.Parameter_File>
/export/apps/rDock/src/rDock_2013.1_src/data/scripts/dock_solv.prm

>  <Rbt.Receptor>
prm/pocket_docking_5.prm

>  <SCORE>
-57.7392

>  <SCORE.INTER>
-47.0152

>  <SCORE.INTER.CONST>
1

>  <SCORE.INTER.POLAR>
-2.13257

>  <SCORE.INTER.ROT>
7

>  <SCORE.INTER.SOLV>
14.8202

>  <SCORE.INTER.VDW>
-37.4416

>  <SCORE.INTER.norm>
-1.51662

>  <SCORE.INTRA>
-10.724

>  <SCORE.INTRA.DIHEDRAL>
-10.7107

>  <SCORE.INTRA.DIHEDRAL.0>
15.5708

>  <SCORE.INTRA.POLAR>
-0.932211

>  <SCORE.INTRA.POLAR.0>
-0.0677885

>  <SCORE.INTRA.REPUL>
0

>  <SCORE.INTRA.REPUL.0>
0

>  <SCORE.INTRA.SOLV>
-3.84493

>  <SCORE.INTRA.SOLV.lig_0>
-87.6316

>  <SCORE.INTRA.VDW>
-0.276669

>  <SCORE.INTRA.VDW.0>
-2.87309

>  <SCORE.INTRA.norm>
-0.345935

>  <SCORE.RESTR>
0

>  <SCORE.RESTR.CAVITY>
0

>  <SCORE.RESTR.norm>
0

>  <SCORE.SYSTEM>
0

>  <SCORE.SYSTEM.CONST>
0

>  <SCORE.SYSTEM.DIHEDRAL>
0

>  <SCORE.SYSTEM.SOLV>
0

>  <SCORE.SYSTEM.norm>
0

>  <SCORE.heavy>
31

>  <SCORE.norm>
-1.86256

>  <SYMMETRIC_BONDS>
33 34 3

>  <RMSD>
1.253

$$$$
1fmn_cryst
 OpenBabel11021811393D
libRbt.so/2013.1/901 2013/11/27
 31 33  0  0  0  0  0  0  0  0999 V2000
   -9.0887   -6.2819    3.5555 N   0  0  0  0  0  0  0  0  0  0  0  0
   -9.8815   -6.2719    4.6792 C   0  0  0  0  0  0  0  0  0  0  0  0
   -9.5658   -6.8737    5.7062 O   0  0  0  0  0  0  0  0  0  0  0  0
  -11.0853   -5.5301    4.5782 N   0  0  0  0  0  0  0  0  0  0  0  0
  -11.5425   -4.8126    3.4511 C   0  0  0  0  0  0  0  0  0  0  0  0
  -12.6184   -4.2032    3.5004 O   0  0  0  0  0  0  0  0  0  0  0  0
  -10.6431   -4.8733    2.2968 C   0  0  0  0  0  0  0  0  0  0  0  0
  -11.0157   -4.2007    1.1597 N   0  0  0  0  0  0  0  0  0  0  0  0
  -10.2717   -4.4056    0.0340 C   0  0  0  0  0  0  0  0  0  0  0  0
  -10.7436   -3.8818   -1.1565 C   0  0  0  0  0  0  0  0  0  0  0  0
  -10.0579   -4.0454   -2.3117 C   0  0  0  0  0  0  0  0  0  0  0  0
  -10.6100   -3.4565   -3.5706 C   0  0  0  0  0  0  0  0  0  0  0  0
   -8.8848   -4.7344   -2.3232 C   0  0  0  0  0  0  0  0  0  0  0  0
   -8.1379   -4.9162   -3.6043 C   0  0  0  0  0  0  0  0  0  0  0  0
   -8.3829   -5.2654   -1.1791 C   0  0  0  0  0  0  0  0  0  0  0  0
   -9.0499   -5.1249    0.0378 C   0  0  0  0  0  0  0  0  0  0  0  0
   -8.5834   -5.6475    1.2623 N   0  0  0  0  0  0  0  0  0  0  0  0
   -9.4156   -5.6268    2.4003 C   0  0  0  0  0  0  0  0  0  0  0  0
   -7.0926   -5.6834    1.4955 C   0  0  0  0  0  0  0  0  0  0  0  0
   -6.4759   -7.0787    1.8166 C   0  0  1  0  0  0  0  0  0  0  0  0
   -6.0759   -7.7248    0.6164 O   0  0  0  0  0  0  0  0  0  0  0  0
   -5.3293   -7.0150    2.8535 C   0  0  1  0  0  0  0  0  0  0  0  0
   -4.3998   -5.9951    2.4994 O   0  0  0  0  0  0  0  0  0  0  0  0
   -5.7362   -6.8644    4.3400 C   0  0  1  0  0  0  0  0  0  0  0  0
   -6.8615   -7.7008    4.5848 O   0  0  0  0  0  0  0  0  0  0  0  0
   -4.6045   -7.2545    5.3171 C   0  0  0  0  0  0  0  0  0  0  0  0
   -4.1220   -8.5737    5.0909 O   0  0  0  0  0  0  0  0  0  0  0  0
   -2.9304   -9.2043    5.9238 P   0  0  0  0  0  0  0  0  0  0  0  0
   -2.6159  -10.5698    5.4458 O   0  0  0  0  0  0  0  0  0  0  0  0
   -1.8248   -8.2330    6.0692 O   0  5  0  0  0  0  0  0  0  0  0  0
   -3.5470   -9.3954    7.3792 O   0  5  0  0  0  0  0  0  0  0  0  0
  1 18  1  0  0  0  0
  1  2  1  0  0  0  0
  2  4  1  0  0  0  0
  2  3  2  0  0  0  0
  4  5  1  0  0  0  0
  5  7  1  0  0  0  0
  5  6  2  0  0  0  0
  7 18  2  0  0  0  0
  7  8  1  0  0  0  0
  8  9  1  0  0  0  0
  9 10  2  0  0  0  0
  9 16  1  0  0  0  0
 10 11  1  0  0  0  0
 11 12  1  0  0  0  0
 11 13  2  0  0  0  0
 13 14  1  0  0  0  0
 13 15  1  0  0  0  0
 15 16  2  0  0  0  0
 16 17  1  0  0  0  0
 17 19  1  0  0  0  0
 17 18  1  0  0  0  0
 20 19  1  6  0  0  0
 20 22  1  0  0  0  0
 20 21  1  0  0  0  0
 22 24  1  0  0  0  0
 22 23  1  6  0  0  0
 24 26  1  1  0  0  0
 24 25  1  0  0  0  0
 26 27  1  0  0  0  0
 27 28  1  0  0  0  0
 28 30  1  0  0  0  0
 28 29  2  0  0  0  0
 28 31  1  0  0  0  0
M  CHG  2  30  -1  31  -1
M  END
>  <CHROM.1>
-123.16000510,90.37089568,-48.56911757,-176.78145946,41.08919688,-173.51081388
-55.59577583,174.24771423,177.97229722,-178.25743663,-7.45848383,-6.38488047
2.58397189,2.36874687,0.37810221,-1.32082104

>  <Name>
1fmn_cryst

>  <RI>
0

>  <Rbt.Current_Directory>
/home/itssahil/PROJECTS/Mol_Feturizer/New_Systems/rnas/1fmn

>  <Rbt.Executable>
rbdock ($Id: //depot/dev/client3/rdock/2013.1/src/exe/rbdock.cxx#4 $)

>  <Rbt.Library>
libRbt.so (2013.1, Build901 2013/11/27)

>  <Rbt.Parameter_File>
/export/apps/rDock/src/rDock_2013.1_src/data/scripts/dock_solv.prm

>  <Rbt.Receptor>
prm/pocket_docking_2.prm

>  <SCORE>
-55.3361

>  <SCORE.INTER>
-47.2234

>  <SCORE.INTER.CONST>
1

>  <SCORE.INTER.POLAR>
-1.95842

>  <SCORE.INTER.ROT>
7

>  <SCORE.INTER.SOLV>
15.2977

>  <SCORE.INTER.VDW>
-38.3201

>  <SCORE.INTER.norm>
-1.52334

>  <SCORE.INTRA>
-8.46073

>  <SCORE.INTRA.DIHEDRAL>
-8.28648

>  <SCORE.INTRA.DIHEDRAL.0>
15.5708

>  <SCORE.INTRA.POLAR>
-0.819313

>  <SCORE.INTRA.POLAR.0>
-0.0677885

>  <SCORE.INTRA.REPUL>
0

>  <SCORE.INTRA.REPUL.0>
0

>  <SCORE.INTRA.SOLV>
-3.47121

>  <SCORE.INTRA.SOLV.lig_0>
-87.6316

>  <SCORE.INTRA.VDW>
0.203785

>  <SCORE.INTRA.VDW.0>
-2.87309

>  <SCORE.INTRA.norm>
-0.272927

>  <SCORE.RESTR>
0.348047

>  <SCORE.RESTR.CAVITY>
0.348047

>  <SCORE.RESTR.norm>
0.0112273

>  <SCORE.SYSTEM>
0

>  <SCORE.SYSTEM.CONST>
0

>  <SCORE.SYSTEM.DIHEDRAL>
0

>  <SCORE.SYSTEM.SOLV>
0

>  <SCORE.SYSTEM.norm>
0

>  <SCORE.heavy>
31

>  <SCORE.norm>
-1.78504

>  <SYMMETRIC_BONDS>
33 34 3

>  <RMSD>
1.268

$$$$
1fmn_cryst
 OpenBabel11021811393D
libRbt.so/2013.1/901 2013/11/27
 31 33  0  0  0  0  0  0  0  0999 V2000
   -8.9360   -6.2190    3.6134 N   0  0  0  0  0  0  0  0  0  0  0  0
   -9.7534   -6.1869    4.7190 C   0  0  0  0  0  0  0  0  0  0  0  0
   -9.4538   -6.7563    5.7691 O   0  0  0  0  0  0  0  0  0  0  0  0
  -10.9627   -5.4621    4.5712 N   0  0  0  0  0  0  0  0  0  0  0  0
  -11.4028   -4.7815    3.4149 C   0  0  0  0  0  0  0  0  0  0  0  0
  -12.4861   -4.1834    3.4237 O   0  0  0  0  0  0  0  0  0  0  0  0
  -10.4777   -4.8639    2.2824 C   0  0  0  0  0  0  0  0  0  0  0  0
  -10.8325   -4.2275    1.1191 N   0  0  0  0  0  0  0  0  0  0  0  0
  -10.0618   -4.4550    0.0160 C   0  0  0  0  0  0  0  0  0  0  0  0
  -10.5131   -3.9699   -1.1987 C   0  0  0  0  0  0  0  0  0  0  0  0
   -9.8005   -4.1577   -2.3338 C   0  0  0  0  0  0  0  0  0  0  0  0
  -10.3312   -3.6104   -3.6203 C   0  0  0  0  0  0  0  0  0  0  0  0
   -8.6200   -4.8332   -2.3005 C   0  0  0  0  0  0  0  0  0  0  0  0
   -7.8432   -5.0419   -3.5595 C   0  0  0  0  0  0  0  0  0  0  0  0
   -8.1375   -5.3264   -1.1314 C   0  0  0  0  0  0  0  0  0  0  0  0
   -8.8326   -5.1598    0.0664 C   0  0  0  0  0  0  0  0  0  0  0  0
   -8.3875   -5.6428    1.3148 N   0  0  0  0  0  0  0  0  0  0  0  0
   -9.2446   -5.6000    2.4336 C   0  0  0  0  0  0  0  0  0  0  0  0
   -6.9018   -5.6550    1.5812 C   0  0  0  0  0  0  0  0  0  0  0  0
   -6.1744   -7.0194    1.3824 C   0  0  1  0  0  0  0  0  0  0  0  0
   -5.0811   -6.8654    0.4886 O   0  0  0  0  0  0  0  0  0  0  0  0
   -5.7492   -7.6839    2.7134 C   0  0  1  0  0  0  0  0  0  0  0  0
   -6.8877   -7.9030    3.5413 O   0  0  0  0  0  0  0  0  0  0  0  0
   -4.9130   -8.9833    2.6123 C   0  0  1  0  0  0  0  0  0  0  0  0
   -3.7596   -8.7151    1.8226 O   0  0  0  0  0  0  0  0  0  0  0  0
   -4.4596   -9.5168    3.9898 C   0  0  0  0  0  0  0  0  0  0  0  0
   -3.7055   -8.5584    4.7224 O   0  0  0  0  0  0  0  0  0  0  0  0
   -3.1472   -8.8395    6.1786 P   0  0  0  0  0  0  0  0  0  0  0  0
   -2.3204   -7.7076    6.6555 O   0  0  0  0  0  0  0  0  0  0  0  0
   -4.2197   -9.3526    7.0580 O   0  5  0  0  0  0  0  0  0  0  0  0
   -2.1318  -10.0473    5.9667 O   0  5  0  0  0  0  0  0  0  0  0  0
  1 18  1  0  0  0  0
  1  2  1  0  0  0  0
  2  4  1  0  0  0  0
  2  3  2  0  0  0  0
  4  5  1  0  0  0  0
  5  7  1  0  0  0  0
  5  6  2  0  0  0  0
  7 18  2  0  0  0  0
  7  8  1  0  0  0  0
  8  9  1  0  0  0  0
  9 10  2  0  0  0  0
  9 16  1  0  0  0  0
 10 11  1  0  0  0  0
 11 12  1  0  0  0  0
 11 13  2  0  0  0  0
 13 14  1  0  0  0  0
 13 15  1  0  0  0  0
 15 16  2  0  0  0  0
 16 17  1  0  0  0  0
 17 19  1  0  0  0  0
 17 18  1  0  0  0  0
 20 19  1  1  0  0  0
 20 22  1  0  0  0  0
 20 21  1  0  0  0  0
 22 24  1  0  0  0  0
 22 23  1  6  0  0  0
 24 26  1  1  0  0  0
 24 25  1  0  0  0  0
 26 27  1  0  0  0  0
 27 28  1  0  0  0  0
 28 30  1  0  0  0  0
 28 29  2  0  0  0  0
 28 31  1  0  0  0  0
M  CHG  2  30  -1  31  -1
M  END
>  <CHROM.1>
-99.13316753,125.85401507,58.61058697,-85.69630000,55.56676729,-174.29266274
-57.14703594,60.21283618,178.63085489,175.89299898,-7.29006694,-6.55092664
2.44248066,2.39108315,0.43514572,-1.35044544

>  <Name>
1fmn_cryst

>  <RI>
0

>  <Rbt.Current_Directory>
/home/itssahil/PROJECTS/Mol_Feturizer/New_Systems/rnas/1fmn

>  <Rbt.Executable>
rbdock ($Id: //depot/dev/client3/rdock/2013.1/src/exe/rbdock.cxx#4 $)

>  <Rbt.Library>
libRbt.so (2013.1, Build901 2013/11/27)

>  <Rbt.Parameter_File>
/export/apps/rDock/src/rDock_2013.1_src/data/scripts/dock_solv.prm

>  <Rbt.Receptor>
prm/pocket_docking_2.prm

>  <SCORE>
-60.5552

>  <SCORE.INTER>
-53.8107

>  <SCORE.INTER.CONST>
1

>  <SCORE.INTER.POLAR>
-2.9837

>  <SCORE.INTER.ROT>
7

>  <SCORE.INTER.SOLV>
15.1381

>  <SCORE.INTER.VDW>
-39.2409

>  <SCORE.INTER.norm>
-1.73583

>  <SCORE.INTRA>
-6.74448

>  <SCORE.INTRA.DIHEDRAL>
-4.77806

>  <SCORE.INTRA.DIHEDRAL.0>
15.5708

>  <SCORE.INTRA.POLAR>
-0.932211

>  <SCORE.INTRA.POLAR.0>
-0.0677885

>  <SCORE.INTRA.REPUL>
0

>  <SCORE.INTRA.REPUL.0>
0

>  <SCORE.INTRA.SOLV>
-3.17328

>  <SCORE.INTRA.SOLV.lig_0>
-87.6316

>  <SCORE.INTRA.VDW>
0.400712

>  <SCORE.INTRA.VDW.0>
-2.87309

>  <SCORE.INTRA.norm>
-0.217564

>  <SCORE.RESTR>
0

>  <SCORE.RESTR.CAVITY>
0

>  <SCORE.RESTR.norm>
0

>  <SCORE.SYSTEM>
0

>  <SCORE.SYSTEM.CONST>
0

>  <SCORE.SYSTEM.DIHEDRAL>
0

>  <SCORE.SYSTEM.SOLV>
0

>  <SCORE.SYSTEM.norm>
0

>  <SCORE.heavy>
31

>  <SCORE.norm>
-1.95339

>  <SYMMETRIC_BONDS>
33 34 3

>  <RMSD>
1.271

$$$$
1fmn_cryst
 OpenBabel11021811393D
libRbt.so/2013.1/901 2013/11/27
 31 33  0  0  0  0  0  0  0  0999 V2000
   -8.8878   -6.2625    3.6221 N   0  0  0  0  0  0  0  0  0  0  0  0
   -9.6533   -6.2491    4.7647 C   0  0  0  0  0  0  0  0  0  0  0  0
   -9.3074   -6.8387    5.7890 O   0  0  0  0  0  0  0  0  0  0  0  0
  -10.8657   -5.5188    4.6863 N   0  0  0  0  0  0  0  0  0  0  0  0
  -11.3565   -4.8157    3.5643 C   0  0  0  0  0  0  0  0  0  0  0  0
  -12.4363   -4.2153    3.6341 O   0  0  0  0  0  0  0  0  0  0  0  0
  -10.4848   -4.8792    2.3890 C   0  0  0  0  0  0  0  0  0  0  0  0
  -10.8907   -4.2203    1.2553 N   0  0  0  0  0  0  0  0  0  0  0  0
  -10.1724   -4.4290    0.1138 C   0  0  0  0  0  0  0  0  0  0  0  0
  -10.6776   -3.9203   -1.0696 C   0  0  0  0  0  0  0  0  0  0  0  0
  -10.0187   -4.0885   -2.2396 C   0  0  0  0  0  0  0  0  0  0  0  0
  -10.6064   -3.5160   -3.4899 C   0  0  0  0  0  0  0  0  0  0  0  0
   -8.8401   -4.7673   -2.2734 C   0  0  0  0  0  0  0  0  0  0  0  0
   -8.1228   -4.9544   -3.5705 C   0  0  0  0  0  0  0  0  0  0  0  0
   -8.3059   -5.2834   -1.1371 C   0  0  0  0  0  0  0  0  0  0  0  0
   -8.9445   -5.1376    0.0943 C   0  0  0  0  0  0  0  0  0  0  0  0
   -8.4439   -5.6448    1.3118 N   0  0  0  0  0  0  0  0  0  0  0  0
   -9.2484   -5.6209    2.4694 C   0  0  0  0  0  0  0  0  0  0  0  0
   -6.9475   -5.6655    1.5090 C   0  0  0  0  0  0  0  0  0  0  0  0
   -6.2375   -7.0333    1.2739 C   0  0  1  0  0  0  0  0  0  0  0  0
   -5.1903   -6.8844    0.3258 O   0  0  0  0  0  0  0  0  0  0  0  0
   -5.7484   -7.6997    2.5819 C   0  0  1  0  0  0  0  0  0  0  0  0
   -6.8448   -7.9156    3.4656 O   0  0  0  0  0  0  0  0  0  0  0  0
   -4.9223   -9.0016    2.4388 C   0  0  1  0  0  0  0  0  0  0  0  0
   -3.8016   -8.7331    1.6034 O   0  0  0  0  0  0  0  0  0  0  0  0
   -4.4143   -9.5448    3.7932 C   0  0  0  0  0  0  0  0  0  0  0  0
   -3.6079   -8.6017    4.4890 O   0  0  0  0  0  0  0  0  0  0  0  0
   -2.9478   -8.9121    5.8959 P   0  0  0  0  0  0  0  0  0  0  0  0
   -2.1246   -7.7711    6.3569 O   0  0  0  0  0  0  0  0  0  0  0  0
   -3.9454   -9.4863    6.8244 O   0  5  0  0  0  0  0  0  0  0  0  0
   -1.9140  -10.0805    5.5779 O   0  5  0  0  0  0  0  0  0  0  0  0
  1 18  1  0  0  0  0
  1  2  1  0  0  0  0
  2  4  1  0  0  0  0
  2  3  2  0  0  0  0
  4  5  1  0  0  0  0
  5  7  1  0  0  0  0
  5  6  2  0  0  0  0
  7 18  2  0  0  0  0
  7  8  1  0  0  0  0
  8  9  1  0  0  0  0
  9 10  2  0  0  0  0
  9 16  1  0  0  0  0
 10 11  1  0  0  0  0
 11 12  1  0  0  0  0
 11 13  2  0  0  0  0
 13 14  1  0  0  0  0
 13 15  1  0  0  0  0
 15 16  2  0  0  0  0
 16 17  1  0  0  0  0
 17 19  1  0  0  0  0
 17 18  1  0  0  0  0
 20 19  1  1  0  0  0
 20 22  1  0  0  0  0
 20 21  1  0  0  0  0
 22 24  1  0  0  0  0
 22 23  1  1  0  0  0
 24 26  1  1  0  0  0
 24 25  1  0  0  0  0
 26 27  1  0  0  0  0
 27 28  1  0  0  0  0
 28 30  1  0  0  0  0
 28 29  2  0  0  0  0
 28 31  1  0  0  0  0
M  CHG  2  30  -1  31  -1
M  END
>  <CHROM.1>
-100.08636033,125.56159814,58.71500057,-87.50300151,56.14575890,-173.88896315
-58.14245437,-177.30262448,-179.32920359,177.87576943,-7.28863649,-6.57041624
2.38391832,2.44183860,0.44504127,-1.35665325

>  <Name>
1fmn_cryst

>  <RI>
0

>  <Rbt.Current_Directory>
/home/itssahil/PROJECTS/Mol_Feturizer/New_Systems/rnas/1fmn

>  <Rbt.Executable>
rbdock ($Id: //depot/dev/client3/rdock/2013.1/src/exe/rbdock.cxx#4 $)

>  <Rbt.Library>
libRbt.so (2013.1, Build901 2013/11/27)

>  <Rbt.Parameter_File>
/export/apps/rDock/src/rDock_2013.1_src/data/scripts/dock_solv.prm

>  <Rbt.Receptor>
prm/pocket_docking_5.prm

>  <SCORE>
-60.7898

>  <SCORE.INTER>
-54.2502

>  <SCORE.INTER.CONST>
1

>  <SCORE.INTER.POLAR>
-3.0101

>  <SCORE.INTER.ROT>
7

>  <SCORE.INTER.SOLV>
15.6126

>  <SCORE.INTER.VDW>
-39.604

>  <SCORE.INTER.norm>
-1.75001

>  <SCORE.INTRA>
-6.53966

>  <SCORE.INTRA.DIHEDRAL>
-4.40649

>  <SCORE.INTRA.DIHEDRAL.0>
15.5708

>  <SCORE.INTRA.POLAR>
-0.927106

>  <SCORE.INTRA.POLAR.0>
-0.0677885

>  <SCORE.INTRA.REPUL>
0

>  <SCORE.INTRA.REPUL.0>
0

>  <SCORE.INTRA.SOLV>
-3.20758

>  <SCORE.INTRA.SOLV.lig_0>
-87.6316

>  <SCORE.INTRA.VDW>
0.419537

>  <SCORE.INTRA.VDW.0>
-2.87309

>  <SCORE.INTRA.norm>
-0.210957

>  <SCORE.RESTR>
0

>  <SCORE.RESTR.CAVITY>
0

>  <SCORE.RESTR.norm>
0

>  <SCORE.SYSTEM>
0

>  <SCORE.SYSTEM.CONST>
0

>  <SCORE.SYSTEM.DIHEDRAL>
0

>  <SCORE.SYSTEM.SOLV>
0

>  <SCORE.SYSTEM.norm>
0

>  <SCORE.heavy>
31

>  <SCORE.norm>
-1.96096

>  <SYMMETRIC_BONDS>
33 34 3

>  <RMSD>
1.275

$$$$
1fmn_cryst
 OpenBabel11021811393D
libRbt.so/2013.1/901 2013/11/27
 31 33  0  0  0  0  0  0  0  0999 V2000
   -8.7728   -6.1463    3.6473 N   0  0  0  0  0  0  0  0  0  0  0  0
   -9.6606   -6.1441    4.6978 C   0  0  0  0  0  0  0  0  0  0  0  0
   -9.3870   -6.6546    5.7845 O   0  0  0  0  0  0  0  0  0  0  0  0
  -10.9098   -5.5224    4.4483 N   0  0  0  0  0  0  0  0  0  0  0  0
  -11.3249   -4.9155    3.2426 C   0  0  0  0  0  0  0  0  0  0  0  0
  -12.4493   -4.4051    3.1620 O   0  0  0  0  0  0  0  0  0  0  0  0
  -10.3244   -4.9602    2.1739 C   0  0  0  0  0  0  0  0  0  0  0  0
  -10.6506   -4.3908    0.9682 N   0  0  0  0  0  0  0  0  0  0  0  0
   -9.7944   -4.5913   -0.0755 C   0  0  0  0  0  0  0  0  0  0  0  0
  -10.2017   -4.1820   -1.3329 C   0  0  0  0  0  0  0  0  0  0  0  0
   -9.4044   -4.3485   -2.4136 C   0  0  0  0  0  0  0  0  0  0  0  0
   -9.8907   -3.8858   -3.7500 C   0  0  0  0  0  0  0  0  0  0  0  0
   -8.1800   -4.9271   -2.2820 C   0  0  0  0  0  0  0  0  0  0  0  0
   -7.3091   -5.1133   -3.4816 C   0  0  0  0  0  0  0  0  0  0  0  0
   -7.7382   -5.3434   -1.0678 C   0  0  0  0  0  0  0  0  0  0  0  0
   -8.5205   -5.1947    0.0773 C   0  0  0  0  0  0  0  0  0  0  0  0
   -8.1218   -5.6013    1.3679 N   0  0  0  0  0  0  0  0  0  0  0  0
   -9.0507   -5.5912    2.4286 C   0  0  0  0  0  0  0  0  0  0  0  0
   -6.6601   -5.4875    1.7268 C   0  0  0  0  0  0  0  0  0  0  0  0
   -5.8364   -6.8108    1.7019 C   0  0  1  0  0  0  0  0  0  0  0  0
   -5.1525   -6.9382    0.4634 O   0  0  0  0  0  0  0  0  0  0  0  0
   -4.8831   -6.9589    2.9116 C   0  0  1  0  0  0  0  0  0  0  0  0
   -3.9293   -5.9008    2.9206 O   0  0  0  0  0  0  0  0  0  0  0  0
   -5.5383   -7.0900    4.3085 C   0  0  1  0  0  0  0  0  0  0  0  0
   -6.5249   -8.1141    4.2477 O   0  0  0  0  0  0  0  0  0  0  0  0
   -4.5236   -7.4420    5.4194 C   0  0  0  0  0  0  0  0  0  0  0  0
   -3.5233   -6.4429    5.5781 O   0  0  0  0  0  0  0  0  0  0  0  0
   -2.3279   -6.5841    6.6089 P   0  0  0  0  0  0  0  0  0  0  0  0
   -1.5947   -7.8529    6.3975 O   0  0  0  0  0  0  0  0  0  0  0  0
   -1.5561   -5.3251    6.6878 O   0  5  0  0  0  0  0  0  0  0  0  0
   -3.0586   -6.7450    8.0143 O   0  5  0  0  0  0  0  0  0  0  0  0
  1 18  1  0  0  0  0
  1  2  1  0  0  0  0
  2  4  1  0  0  0  0
  2  3  2  0  0  0  0
  4  5  1  0  0  0  0
  5  7  1  0  0  0  0
  5  6  2  0  0  0  0
  7 18  2  0  0  0  0
  7  8  1  0  0  0  0
  8  9  1  0  0  0  0
  9 10  2  0  0  0  0
  9 16  1  0  0  0  0
 10 11  1  0  0  0  0
 11 12  1  0  0  0  0
 11 13  2  0  0  0  0
 13 14  1  0  0  0  0
 13 15  1  0  0  0  0
 15 16  2  0  0  0  0
 16 17  1  0  0  0  0
 17 19  1  0  0  0  0
 17 18  1  0  0  0  0
 20 19  1  6  0  0  0
 20 22  1  0  0  0  0
 20 21  1  0  0  0  0
 22 24  1  0  0  0  0
 22 23  1  1  0  0  0
 24 26  1  1  0  0  0
 24 25  1  0  0  0  0
 26 27  1  0  0  0  0
 27 28  1  0  0  0  0
 28 30  1  0  0  0  0
 28 29  2  0  0  0  0
 28 31  1  0  0  0  0
M  CHG  2  30  -1  31  -1
M  END
>  <CHROM.1>
-102.48248189,96.77946990,-61.33887502,-72.54540269,50.82923940,-62.53317779
61.56167436,59.31498271,-177.46475978,53.95839108,-6.98758829,-5.87355415
2.69409372,2.34225187,0.15838044,-1.42266642

>  <Name>
1fmn_cryst

>  <RI>
0

>  <Rbt.Current_Directory>
/home/itssahil/PROJECTS/Mol_Feturizer/New_Systems/rnas/1fmn

>  <Rbt.Executable>
rbdock ($Id: //depot/dev/client3/rdock/2013.1/src/exe/rbdock.cxx#4 $)

>  <Rbt.Library>
libRbt.so (2013.1, Build901 2013/11/27)

>  <Rbt.Parameter_File>
/export/apps/rDock/src/rDock_2013.1_src/data/scripts/dock_solv.prm

>  <Rbt.Receptor>
prm/pocket_docking_6.prm

>  <SCORE>
-60.4909

>  <SCORE.INTER>
-51.3695

>  <SCORE.INTER.CONST>
1

>  <SCORE.INTER.POLAR>
-2.90554

>  <SCORE.INTER.ROT>
7

>  <SCORE.INTER.SOLV>
14.5937

>  <SCORE.INTER.VDW>
-37.6924

>  <SCORE.INTER.norm>
-1.65708

>  <SCORE.INTRA>
-9.12147

>  <SCORE.INTRA.DIHEDRAL>
-8.19285

>  <SCORE.INTRA.DIHEDRAL.0>
15.5708

>  <SCORE.INTRA.POLAR>
-0.932211

>  <SCORE.INTRA.POLAR.0>
-0.0677885

>  <SCORE.INTRA.REPUL>
0

>  <SCORE.INTRA.REPUL.0>
0

>  <SCORE.INTRA.SOLV>
-3.38238

>  <SCORE.INTRA.SOLV.lig_0>
-87.6316

>  <SCORE.INTRA.VDW>
-0.164334

>  <SCORE.INTRA.VDW.0>
-2.87309

>  <SCORE.INTRA.norm>
-0.294241

>  <SCORE.RESTR>
0

>  <SCORE.RESTR.CAVITY>
0

>  <SCORE.RESTR.norm>
0

>  <SCORE.SYSTEM>
0

>  <SCORE.SYSTEM.CONST>
0

>  <SCORE.SYSTEM.DIHEDRAL>
0

>  <SCORE.SYSTEM.SOLV>
0

>  <SCORE.SYSTEM.norm>
0

>  <SCORE.heavy>
31

>  <SCORE.norm>
-1.95132

>  <SYMMETRIC_BONDS>
33 34 3

>  <RMSD>
1.281

$$$$
1fmn_cryst
 OpenBabel11021811393D
libRbt.so/2013.1/901 2013/11/27
 31 33  0  0  0  0  0  0  0  0999 V2000
   -8.9412   -6.2321    3.5540 N   0  0  0  0  0  0  0  0  0  0  0  0
   -9.7138   -6.2301    4.6919 C   0  0  0  0  0  0  0  0  0  0  0  0
   -9.3720   -6.8260    5.7139 O   0  0  0  0  0  0  0  0  0  0  0  0
  -10.9285   -5.5039    4.6114 N   0  0  0  0  0  0  0  0  0  0  0  0
  -11.4151   -4.7942    3.4917 C   0  0  0  0  0  0  0  0  0  0  0  0
  -12.4976   -4.1985    3.5593 O   0  0  0  0  0  0  0  0  0  0  0  0
  -10.5359   -4.8456    2.3214 C   0  0  0  0  0  0  0  0  0  0  0  0
  -10.9374   -4.1797    1.1901 N   0  0  0  0  0  0  0  0  0  0  0  0
  -10.2112   -4.3771    0.0516 C   0  0  0  0  0  0  0  0  0  0  0  0
  -10.7111   -3.8615   -1.1311 C   0  0  0  0  0  0  0  0  0  0  0  0
  -10.0443   -4.0184   -2.2982 C   0  0  0  0  0  0  0  0  0  0  0  0
  -10.6264   -3.4388   -3.5478 C   0  0  0  0  0  0  0  0  0  0  0  0
   -8.8629   -4.6925   -2.3297 C   0  0  0  0  0  0  0  0  0  0  0  0
   -8.1369   -4.8671   -3.6238 C   0  0  0  0  0  0  0  0  0  0  0  0
   -8.3337   -5.2151   -1.1941 C   0  0  0  0  0  0  0  0  0  0  0  0
   -8.9805   -5.0809    0.0345 C   0  0  0  0  0  0  0  0  0  0  0  0
   -8.4855   -5.5953    1.2511 N   0  0  0  0  0  0  0  0  0  0  0  0
   -9.2972   -5.5832    2.4039 C   0  0  0  0  0  0  0  0  0  0  0  0
   -6.9903   -5.6119    1.4575 C   0  0  0  0  0  0  0  0  0  0  0  0
   -6.1959   -6.7018    0.6758 C   0  0  1  0  0  0  0  0  0  0  0  0
   -5.3562   -6.0933   -0.2950 O   0  0  0  0  0  0  0  0  0  0  0  0
   -5.4145   -7.6670    1.5987 C   0  0  1  0  0  0  0  0  0  0  0  0
   -4.9678   -8.8013    0.8615 O   0  0  0  0  0  0  0  0  0  0  0  0
   -4.2377   -7.0660    2.4059 C   0  0  1  0  0  0  0  0  0  0  0  0
   -4.7595   -6.0930    3.3042 O   0  0  0  0  0  0  0  0  0  0  0  0
   -3.4601   -8.1262    3.2178 C   0  0  0  0  0  0  0  0  0  0  0  0
   -2.2400   -7.6193    3.7454 O   0  0  0  0  0  0  0  0  0  0  0  0
   -2.1899   -6.4633    4.8282 P   0  0  0  0  0  0  0  0  0  0  0  0
   -2.3626   -5.1368    4.1938 O   0  0  0  0  0  0  0  0  0  0  0  0
   -3.0319   -6.8051    5.9950 O   0  5  0  0  0  0  0  0  0  0  0  0
   -0.6839   -6.4945    5.3440 O   0  5  0  0  0  0  0  0  0  0  0  0
  1 18  1  0  0  0  0
  1  2  1  0  0  0  0
  2  4  1  0  0  0  0
  2  3  2  0  0  0  0
  4  5  1  0  0  0  0
  5  7  1  0  0  0  0
  5  6  2  0  0  0  0
  7 18  2  0  0  0  0
  7  8  1  0  0  0  0
  8  9  1  0  0  0  0
  9 10  2  0  0  0  0
  9 16  1  0  0  0  0
 10 11  1  0  0  0  0
 11 12  1  0  0  0  0
 11 13  2  0  0  0  0
 13 14  1  0  0  0  0
 13 15  1  0  0  0  0
 15 16  2  0  0  0  0
 16 17  1  0  0  0  0
 17 19  1  0  0  0  0
 17 18  1  0  0  0  0
 20 19  1  1  0  0  0
 20 22  1  0  0  0  0
 20 21  1  0  0  0  0
 22 24  1  0  0  0  0
 22 23  1  6  0  0  0
 24 26  1  1  0  0  0
 24 25  1  0  0  0  0
 26 27  1  0  0  0  0
 27 28  1  0  0  0  0
 28 30  1  0  0  0  0
 28 29  2  0  0  0  0
 28 31  1  0  0  0  0
M  CHG  2  30  -1  31  -1
M  END
>  <CHROM.1>
-74.82503649,113.43274855,166.82277325,-157.20172844,63.46447965,-62.13608835
168.68307116,58.93294271,64.72828334,-80.27677027,-7.06275442,-5.82856605
2.01496110,2.60887661,0.23114780,-1.44901723

>  <Name>
1fmn_cryst

>  <RI>
0

>  <Rbt.Current_Directory>
/home/itssahil/PROJECTS/Mol_Feturizer/New_Systems/rnas/1fmn

>  <Rbt.Executable>
rbdock ($Id: //depot/dev/client3/rdock/2013.1/src/exe/rbdock.cxx#4 $)

>  <Rbt.Library>
libRbt.so (2013.1, Build901 2013/11/27)

>  <Rbt.Parameter_File>
/export/apps/rDock/src/rDock_2013.1_src/data/scripts/dock_solv.prm

>  <Rbt.Receptor>
prm/pocket_docking_5.prm

>  <SCORE>
-60.1033

>  <SCORE.INTER>
-58.0674

>  <SCORE.INTER.CONST>
1

>  <SCORE.INTER.POLAR>
-3.999

>  <SCORE.INTER.ROT>
7

>  <SCORE.INTER.SOLV>
16.4098

>  <SCORE.INTER.VDW>
-39.1182

>  <SCORE.INTER.norm>
-1.87314

>  <SCORE.INTRA>
-2.03591

>  <SCORE.INTRA.DIHEDRAL>
-4.7393

>  <SCORE.INTRA.DIHEDRAL.0>
15.5708

>  <SCORE.INTRA.POLAR>
0.0677885

>  <SCORE.INTRA.POLAR.0>
-0.0677885

>  <SCORE.INTRA.REPUL>
0.00103872

>  <SCORE.INTRA.REPUL.0>
0

>  <SCORE.INTRA.SOLV>
-0.0458418

>  <SCORE.INTRA.SOLV.lig_0>
-87.6316

>  <SCORE.INTRA.VDW>
0.120991

>  <SCORE.INTRA.VDW.0>
-2.87309

>  <SCORE.INTRA.norm>
-0.0656744

>  <SCORE.RESTR>
0

>  <SCORE.RESTR.CAVITY>
0

>  <SCORE.RESTR.norm>
0

>  <SCORE.SYSTEM>
0

>  <SCORE.SYSTEM.CONST>
0

>  <SCORE.SYSTEM.DIHEDRAL>
0

>  <SCORE.SYSTEM.SOLV>
0

>  <SCORE.SYSTEM.norm>
0

>  <SCORE.heavy>
31

>  <SCORE.norm>
-1.93882

>  <SYMMETRIC_BONDS>
33 34 3

>  <RMSD>
1.282

$$$$
1fmn_cryst
 OpenBabel11021811393D
libRbt.so/2013.1/901 2013/11/27
 31 33  0  0  0  0  0  0  0  0999 V2000
   -8.8003   -6.2601    3.6153 N   0  0  0  0  0  0  0  0  0  0  0  0
   -9.5932   -6.2466    4.7390 C   0  0  0  0  0  0  0  0  0  0  0  0
   -9.2675   -6.8277    5.7746 O   0  0  0  0  0  0  0  0  0  0  0  0
  -10.8092   -5.5265    4.6273 N   0  0  0  0  0  0  0  0  0  0  0  0
  -11.2783   -4.8335    3.4898 C   0  0  0  0  0  0  0  0  0  0  0  0
  -12.3642   -4.2415    3.5303 O   0  0  0  0  0  0  0  0  0  0  0  0
  -10.3781   -4.8964    2.3362 C   0  0  0  0  0  0  0  0  0  0  0  0
  -10.7618   -4.2470    1.1894 N   0  0  0  0  0  0  0  0  0  0  0  0
  -10.0146   -4.4561    0.0667 C   0  0  0  0  0  0  0  0  0  0  0  0
  -10.4951   -3.9580   -1.1314 C   0  0  0  0  0  0  0  0  0  0  0  0
   -9.8069   -4.1273   -2.2842 C   0  0  0  0  0  0  0  0  0  0  0  0
  -10.3688   -3.5664   -3.5515 C   0  0  0  0  0  0  0  0  0  0  0  0
   -8.6225   -4.7968   -2.2858 C   0  0  0  0  0  0  0  0  0  0  0  0
   -7.8727   -4.9851   -3.5642 C   0  0  0  0  0  0  0  0  0  0  0  0
   -8.1117   -5.3023   -1.1341 C   0  0  0  0  0  0  0  0  0  0  0  0
   -8.7809   -5.1549    0.0808 C   0  0  0  0  0  0  0  0  0  0  0  0
   -8.3058   -5.6514    1.3128 N   0  0  0  0  0  0  0  0  0  0  0  0
   -9.1381   -5.6277    2.4506 C   0  0  0  0  0  0  0  0  0  0  0  0
   -6.8145   -5.6590    1.5461 C   0  0  0  0  0  0  0  0  0  0  0  0
   -6.0136   -6.8104    0.8657 C   0  0  1  0  0  0  0  0  0  0  0  0
   -5.0081   -6.2728    0.0184 O   0  0  0  0  0  0  0  0  0  0  0  0
   -5.4392   -7.8332    1.8746 C   0  0  1  0  0  0  0  0  0  0  0  0
   -6.1606   -9.0594    1.7990 O   0  0  0  0  0  0  0  0  0  0  0  0
   -3.9176   -8.1114    1.8012 C   0  0  1  0  0  0  0  0  0  0  0  0
   -3.5484   -8.2318    0.4319 O   0  0  0  0  0  0  0  0  0  0  0  0
   -3.0689   -6.9942    2.4488 C   0  0  0  0  0  0  0  0  0  0  0  0
   -3.3088   -6.8700    3.8456 O   0  0  0  0  0  0  0  0  0  0  0  0
   -2.7869   -7.9300    4.9017 P   0  0  0  0  0  0  0  0  0  0  0  0
   -3.2202   -7.5695    6.2708 O   0  0  0  0  0  0  0  0  0  0  0  0
   -3.0303   -9.3074    4.4218 O   0  5  0  0  0  0  0  0  0  0  0  0
   -1.2076   -7.7287    4.8894 O   0  5  0  0  0  0  0  0  0  0  0  0
  1 18  1  0  0  0  0
  1  2  1  0  0  0  0
  2  4  1  0  0  0  0
  2  3  2  0  0  0  0
  4  5  1  0  0  0  0
  5  7  1  0  0  0  0
  5  6  2  0  0  0  0
  7 18  2  0  0  0  0
  7  8  1  0  0  0  0
  8  9  1  0  0  0  0
  9 10  2  0  0  0  0
  9 16  1  0  0  0  0
 10 11  1  0  0  0  0
 11 12  1  0  0  0  0
 11 13  2  0  0  0  0
 13 14  1  0  0  0  0
 13 15  1  0  0  0  0
 15 16  2  0  0  0  0
 16 17  1  0  0  0  0
 17 19  1  0  0  0  0
 17 18  1  0  0  0  0
 20 19  1  1  0  0  0
 20 22  1  0  0  0  0
 20 21  1  0  0  0  0
 22 24  1  0  0  0  0
 22 23  1  6  0  0  0
 24 26  1  6  0  0  0
 24 25  1  0  0  0  0
 26 27  1  0  0  0  0
 27 28  1  0  0  0  0
 28 30  1  0  0  0  0
 28 29  2  0  0  0  0
 28 31  1  0  0  0  0
M  CHG  2  30  -1  31  -1
M  END
>  <CHROM.1>
-78.58699146,122.52479011,107.70081178,-141.79924818,-43.08268068,62.27391672
63.71320754,-69.16534020,72.81364307,-178.14606665,-7.04624788,-6.25299498
1.95134266,2.58712731,0.35816075,-1.39069863

>  <Name>
1fmn_cryst

>  <RI>
0

>  <Rbt.Current_Directory>
/home/itssahil/PROJECTS/Mol_Feturizer/New_Systems/rnas/1fmn

>  <Rbt.Executable>
rbdock ($Id: //depot/dev/client3/rdock/2013.1/src/exe/rbdock.cxx#4 $)

>  <Rbt.Library>
libRbt.so (2013.1, Build901 2013/11/27)

>  <Rbt.Parameter_File>
/export/apps/rDock/src/rDock_2013.1_src/data/scripts/dock_solv.prm

>  <Rbt.Receptor>
prm/pocket_docking_2.prm

>  <SCORE>
-55.0118

>  <SCORE.INTER>
-56.8464

>  <SCORE.INTER.CONST>
1

>  <SCORE.INTER.POLAR>
-4.09279

>  <SCORE.INTER.ROT>
7

>  <SCORE.INTER.SOLV>
16.967

>  <SCORE.INTER.VDW>
-38.1773

>  <SCORE.INTER.norm>
-1.83376

>  <SCORE.INTRA>
1.43816

>  <SCORE.INTRA.DIHEDRAL>
3.5566

>  <SCORE.INTRA.DIHEDRAL.0>
15.5708

>  <SCORE.INTRA.POLAR>
0.0677885

>  <SCORE.INTRA.POLAR.0>
-0.0677885

>  <SCORE.INTRA.REPUL>
0

>  <SCORE.INTRA.REPUL.0>
0

>  <SCORE.INTRA.SOLV>
-1.67082

>  <SCORE.INTRA.SOLV.lig_0>
-87.6316

>  <SCORE.INTRA.VDW>
0.264793

>  <SCORE.INTRA.VDW.0>
-2.87309

>  <SCORE.INTRA.norm>
0.0463924

>  <SCORE.RESTR>
0.39643

>  <SCORE.RESTR.CAVITY>
0.39643

>  <SCORE.RESTR.norm>
0.0127881

>  <SCORE.SYSTEM>
0

>  <SCORE.SYSTEM.CONST>
0

>  <SCORE.SYSTEM.DIHEDRAL>
0

>  <SCORE.SYSTEM.SOLV>
0

>  <SCORE.SYSTEM.norm>
0

>  <SCORE.heavy>
31

>  <SCORE.norm>
-1.77457

>  <SYMMETRIC_BONDS>
33 34 3

>  <RMSD>
1.287

$$$$
1fmn_cryst
 OpenBabel11021811393D
libRbt.so/2013.1/901 2013/11/27
 31 33  0  0  0  0  0  0  0  0999 V2000
   -8.8929   -6.1935    3.5258 N   0  0  0  0  0  0  0  0  0  0  0  0
   -9.6523   -6.2300    4.6719 C   0  0  0  0  0  0  0  0  0  0  0  0
   -9.2672   -6.8022    5.6920 O   0  0  0  0  0  0  0  0  0  0  0  0
  -10.9062   -5.5724    4.6022 N   0  0  0  0  0  0  0  0  0  0  0  0
  -11.4432   -4.8951    3.4855 C   0  0  0  0  0  0  0  0  0  0  0  0
  -12.5563   -4.3600    3.5630 O   0  0  0  0  0  0  0  0  0  0  0  0
  -10.5750   -4.9021    2.3059 C   0  0  0  0  0  0  0  0  0  0  0  0
  -11.0247   -4.2638    1.1770 N   0  0  0  0  0  0  0  0  0  0  0  0
  -10.3009   -4.4251    0.0313 C   0  0  0  0  0  0  0  0  0  0  0  0
  -10.8410   -3.9424   -1.1476 C   0  0  0  0  0  0  0  0  0  0  0  0
  -10.1790   -4.0666   -2.3213 C   0  0  0  0  0  0  0  0  0  0  0  0
  -10.8056   -3.5249   -3.5664 C   0  0  0  0  0  0  0  0  0  0  0  0
   -8.9625   -4.6743   -2.3634 C   0  0  0  0  0  0  0  0  0  0  0  0
   -8.2417   -4.8133   -3.6647 C   0  0  0  0  0  0  0  0  0  0  0  0
   -8.3931   -5.1625   -1.2318 C   0  0  0  0  0  0  0  0  0  0  0  0
   -9.0333   -5.0596    0.0031 C   0  0  0  0  0  0  0  0  0  0  0  0
   -8.4976   -5.5412    1.2160 N   0  0  0  0  0  0  0  0  0  0  0  0
   -9.2965   -5.5697    2.3775 C   0  0  0  0  0  0  0  0  0  0  0  0
   -7.0017   -5.4741    1.4063 C   0  0  0  0  0  0  0  0  0  0  0  0
   -6.2235   -6.8158    1.2498 C   0  0  1  0  0  0  0  0  0  0  0  0
   -5.2786   -6.7131    0.1941 O   0  0  0  0  0  0  0  0  0  0  0  0
   -5.5739   -7.3017    2.5674 C   0  0  1  0  0  0  0  0  0  0  0  0
   -4.8429   -8.5037    2.3432 O   0  0  0  0  0  0  0  0  0  0  0  0
   -4.6924   -6.2833    3.3314 C   0  0  1  0  0  0  0  0  0  0  0  0
   -5.5324   -5.5116    4.1827 O   0  0  0  0  0  0  0  0  0  0  0  0
   -3.5989   -6.9577    4.1900 C   0  0  0  0  0  0  0  0  0  0  0  0
   -2.5602   -7.5243    3.4001 O   0  0  0  0  0  0  0  0  0  0  0  0
   -1.3326   -8.3033    4.0307 P   0  0  0  0  0  0  0  0  0  0  0  0
   -1.7975   -9.3723    4.9435 O   0  0  0  0  0  0  0  0  0  0  0  0
   -0.3406   -8.6442    2.9883 O   0  5  0  0  0  0  0  0  0  0  0  0
   -0.6377   -7.2185    4.9662 O   0  5  0  0  0  0  0  0  0  0  0  0
  1 18  1  0  0  0  0
  1  2  1  0  0  0  0
  2  4  1  0  0  0  0
  2  3  2  0  0  0  0
  4  5  1  0  0  0  0
  5  7  1  0  0  0  0
  5  6  2  0  0  0  0
  7 18  2  0  0  0  0
  7  8  1  0  0  0  0
  8  9  1  0  0  0  0
  9 10  2  0  0  0  0
  9 16  1  0  0  0  0
 10 11  1  0  0  0  0
 11 12  1  0  0  0  0
 11 13  2  0  0  0  0
 13 14  1  0  0  0  0
 13 15  1  0  0  0  0
 15 16  2  0  0  0  0
 16 17  1  0  0  0  0
 17 19  1  0  0  0  0
 17 18  1  0  0  0  0
 20 19  1  1  0  0  0
 20 22  1  0  0  0  0
 20 21  1  0  0  0  0
 22 24  1  0  0  0  0
 22 23  1  6  0  0  0
 24 26  1  1  0  0  0
 24 25  1  0  0  0  0
 26 27  1  0  0  0  0
 27 28  1  0  0  0  0
 28 30  1  0  0  0  0
 28 29  2  0  0  0  0
 28 31  1  0  0  0  0
M  CHG  2  30  -1  31  -1
M  END
>  <CHROM.1>
-103.79635801,119.62276476,-177.99427229,62.51362050,86.50475294,-62.76278970
71.55839520,-67.01445976,-178.61645609,52.63929466,-6.96683214,-6.11870932
2.04939218,2.67385451,0.30556265,-1.37412659

>  <Name>
1fmn_cryst

>  <RI>
0

>  <Rbt.Current_Directory>
/home/itssahil/PROJECTS/Mol_Feturizer/New_Systems/rnas/1fmn

>  <Rbt.Executable>
rbdock ($Id: //depot/dev/client3/rdock/2013.1/src/exe/rbdock.cxx#4 $)

>  <Rbt.Library>
libRbt.so (2013.1, Build901 2013/11/27)

>  <Rbt.Parameter_File>
/export/apps/rDock/src/rDock_2013.1_src/data/scripts/dock_solv.prm

>  <Rbt.Receptor>
prm/pocket_docking_7.prm

>  <SCORE>
-54.305

>  <SCORE.INTER>
-51.3093

>  <SCORE.INTER.CONST>
1

>  <SCORE.INTER.POLAR>
-2.8829

>  <SCORE.INTER.ROT>
7

>  <SCORE.INTER.SOLV>
15.4284

>  <SCORE.INTER.VDW>
-38.006

>  <SCORE.INTER.norm>
-1.65514

>  <SCORE.INTRA>
-2.99573

>  <SCORE.INTRA.DIHEDRAL>
-4.79479

>  <SCORE.INTRA.DIHEDRAL.0>
15.5708

>  <SCORE.INTRA.POLAR>
0.0677885

>  <SCORE.INTRA.POLAR.0>
-0.0677885

>  <SCORE.INTRA.REPUL>
0

>  <SCORE.INTRA.REPUL.0>
0

>  <SCORE.INTRA.SOLV>
-3.69861

>  <SCORE.INTRA.SOLV.lig_0>
-87.6316

>  <SCORE.INTRA.VDW>
1.02049

>  <SCORE.INTRA.VDW.0>
-2.87309

>  <SCORE.INTRA.norm>
-0.0966364

>  <SCORE.RESTR>
0

>  <SCORE.RESTR.CAVITY>
0

>  <SCORE.RESTR.norm>
0

>  <SCORE.SYSTEM>
0

>  <SCORE.SYSTEM.CONST>
0

>  <SCORE.SYSTEM.DIHEDRAL>
0

>  <SCORE.SYSTEM.SOLV>
0

>  <SCORE.SYSTEM.norm>
0

>  <SCORE.heavy>
31

>  <SCORE.norm>
-1.75177

>  <SYMMETRIC_BONDS>
33 34 3

>  <RMSD>
1.295

$$$$
1fmn_cryst
 OpenBabel11021811393D
libRbt.so/2013.1/901 2013/11/27
 31 33  0  0  0  0  0  0  0  0999 V2000
   -8.7483   -6.1871    3.5377 N   0  0  0  0  0  0  0  0  0  0  0  0
   -9.5224   -6.2374    4.6734 C   0  0  0  0  0  0  0  0  0  0  0  0
   -9.1422   -6.8054    5.6978 O   0  0  0  0  0  0  0  0  0  0  0  0
  -10.7854   -5.5994    4.5878 N   0  0  0  0  0  0  0  0  0  0  0  0
  -11.3178   -4.9286    3.4651 C   0  0  0  0  0  0  0  0  0  0  0  0
  -12.4401   -4.4110    3.5283 O   0  0  0  0  0  0  0  0  0  0  0  0
  -10.4338   -4.9200    2.2973 C   0  0  0  0  0  0  0  0  0  0  0  0
  -10.8782   -4.2868    1.1634 N   0  0  0  0  0  0  0  0  0  0  0  0
  -10.1366   -4.4347    0.0273 C   0  0  0  0  0  0  0  0  0  0  0  0
  -10.6683   -3.9585   -1.1580 C   0  0  0  0  0  0  0  0  0  0  0  0
   -9.9887   -4.0703   -2.3229 C   0  0  0  0  0  0  0  0  0  0  0  0
  -10.6069   -3.5362   -3.5755 C   0  0  0  0  0  0  0  0  0  0  0  0
   -8.7624   -4.6589   -2.3495 C   0  0  0  0  0  0  0  0  0  0  0  0
   -8.0221   -4.7843   -3.6412 C   0  0  0  0  0  0  0  0  0  0  0  0
   -8.2007   -5.1401   -1.2112 C   0  0  0  0  0  0  0  0  0  0  0  0
   -8.8589   -5.0494    0.0152 C   0  0  0  0  0  0  0  0  0  0  0  0
   -8.3322   -5.5247    1.2345 N   0  0  0  0  0  0  0  0  0  0  0  0
   -9.1461   -5.5676    2.3850 C   0  0  0  0  0  0  0  0  0  0  0  0
   -6.8402   -5.4346    1.4450 C   0  0  0  0  0  0  0  0  0  0  0  0
   -6.1107   -6.7645    1.8046 C   0  0  1  0  0  0  0  0  0  0  0  0
   -6.3951   -7.7578    0.8297 O   0  0  0  0  0  0  0  0  0  0  0  0
   -4.5900   -6.5854    2.0269 C   0  0  1  0  0  0  0  0  0  0  0  0
   -4.1929   -5.2623    1.6788 O   0  0  0  0  0  0  0  0  0  0  0  0
   -4.0386   -6.9501    3.4272 C   0  0  1  0  0  0  0  0  0  0  0  0
   -4.4976   -8.2543    3.7652 O   0  0  0  0  0  0  0  0  0  0  0  0
   -2.4947   -6.9344    3.4898 C   0  0  0  0  0  0  0  0  0  0  0  0
   -2.0049   -6.9381    4.8255 O   0  0  0  0  0  0  0  0  0  0  0  0
   -1.6844   -8.2733    5.6165 P   0  0  0  0  0  0  0  0  0  0  0  0
   -1.5401   -8.0075    7.0658 O   0  0  0  0  0  0  0  0  0  0  0  0
   -2.5834   -9.3646    5.1830 O   0  5  0  0  0  0  0  0  0  0  0  0
   -0.2282   -8.6712    5.1107 O   0  5  0  0  0  0  0  0  0  0  0  0
  1 18  1  0  0  0  0
  1  2  1  0  0  0  0
  2  4  1  0  0  0  0
  2  3  2  0  0  0  0
  4  5  1  0  0  0  0
  5  7  1  0  0  0  0
  5  6  2  0  0  0  0
  7 18  2  0  0  0  0
  7  8  1  0  0  0  0
  8  9  1  0  0  0  0
  9 10  2  0  0  0  0
  9 16  1  0  0  0  0
 10 11  1  0  0  0  0
 11 12  1  0  0  0  0
 11 13  2  0  0  0  0
 13 14  1  0  0  0  0
 13 15  1  0  0  0  0
 15 16  2  0  0  0  0
 16 17  1  0  0  0  0
 17 19  1  0  0  0  0
 17 18  1  0  0  0  0
 20 19  1  6  0  0  0
 20 22  1  0  0  0  0
 20 21  1  0  0  0  0
 22 24  1  0  0  0  0
 22 23  1  1  0  0  0
 24 26  1  6  0  0  0
 24 25  1  0  0  0  0
 26 27  1  0  0  0  0
 27 28  1  0  0  0  0
 28 30  1  0  0  0  0
 28 29  2  0  0  0  0
 28 31  1  0  0  0  0
M  CHG  2  30  -1  31  -1
M  END
>  <CHROM.1>
-124.94389802,54.52224428,-7.43888926,60.58772013,51.05747880,-70.92769284
165.32425579,-63.79595816,90.53987426,-165.01347969,-6.83197042,-6.14352725
2.32685137,2.52324759,0.26408282,-1.33647357

>  <Name>
1fmn_cryst

>  <RI>
0

>  <Rbt.Current_Directory>
/home/itssahil/PROJECTS/Mol_Feturizer/New_Systems/rnas/1fmn

>  <Rbt.Executable>
rbdock ($Id: //depot/dev/client3/rdock/2013.1/src/exe/rbdock.cxx#4 $)

>  <Rbt.Library>
libRbt.so (2013.1, Build901 2013/11/27)

>  <Rbt.Parameter_File>
/export/apps/rDock/src/rDock_2013.1_src/data/scripts/dock_solv.prm

>  <Rbt.Receptor>
prm/pocket_docking_2.prm

>  <SCORE>
-50.0032

>  <SCORE.INTER>
-49.9112

>  <SCORE.INTER.CONST>
1

>  <SCORE.INTER.POLAR>
-2.92915

>  <SCORE.INTER.ROT>
7

>  <SCORE.INTER.SOLV>
14.6474

>  <SCORE.INTER.VDW>
-36.6594

>  <SCORE.INTER.norm>
-1.61004

>  <SCORE.INTRA>
-0.126593

>  <SCORE.INTRA.DIHEDRAL>
-2.14462

>  <SCORE.INTRA.DIHEDRAL.0>
15.5708

>  <SCORE.INTRA.POLAR>
0.0677885

>  <SCORE.INTRA.POLAR.0>
-0.0677885

>  <SCORE.INTRA.REPUL>
0

>  <SCORE.INTRA.REPUL.0>
0

>  <SCORE.INTRA.SOLV>
-1.79417

>  <SCORE.INTRA.SOLV.lig_0>
-87.6316

>  <SCORE.INTRA.VDW>
1.61232

>  <SCORE.INTRA.VDW.0>
-2.87309

>  <SCORE.INTRA.norm>
-0.00408366

>  <SCORE.RESTR>
0.0345935

>  <SCORE.RESTR.CAVITY>
0.0345935

>  <SCORE.RESTR.norm>
0.00111592

>  <SCORE.SYSTEM>
0

>  <SCORE.SYSTEM.CONST>
0

>  <SCORE.SYSTEM.DIHEDRAL>
0

>  <SCORE.SYSTEM.SOLV>
0

>  <SCORE.SYSTEM.norm>
0

>  <SCORE.heavy>
31

>  <SCORE.norm>
-1.61301

>  <SYMMETRIC_BONDS>
33 34 3

>  <RMSD>
1.298

$$$$
1fmn_cryst
 OpenBabel11021811393D
libRbt.so/2013.1/901 2013/11/27
 31 33  0  0  0  0  0  0  0  0999 V2000
   -8.8086   -6.2355    3.6565 N   0  0  0  0  0  0  0  0  0  0  0  0
   -9.5950   -6.2407    4.7848 C   0  0  0  0  0  0  0  0  0  0  0  0
   -9.2510   -6.8165    5.8176 O   0  0  0  0  0  0  0  0  0  0  0  0
  -10.8265   -5.5464    4.6815 N   0  0  0  0  0  0  0  0  0  0  0  0
  -11.3169   -4.8616    3.5480 C   0  0  0  0  0  0  0  0  0  0  0  0
  -12.4149   -4.2928    3.5959 O   0  0  0  0  0  0  0  0  0  0  0  0
  -10.4224   -4.9035    2.3891 C   0  0  0  0  0  0  0  0  0  0  0  0
  -10.8265   -4.2605    1.2456 N   0  0  0  0  0  0  0  0  0  0  0  0
  -10.0815   -4.4519    0.1183 C   0  0  0  0  0  0  0  0  0  0  0  0
  -10.5796   -3.9621   -1.0761 C   0  0  0  0  0  0  0  0  0  0  0  0
   -9.8947   -4.1149   -2.2332 C   0  0  0  0  0  0  0  0  0  0  0  0
  -10.4757   -3.5640   -3.4963 C   0  0  0  0  0  0  0  0  0  0  0  0
   -8.6964   -4.7592   -2.2428 C   0  0  0  0  0  0  0  0  0  0  0  0
   -7.9503   -4.9295   -3.5260 C   0  0  0  0  0  0  0  0  0  0  0  0
   -8.1683   -5.2556   -1.0951 C   0  0  0  0  0  0  0  0  0  0  0  0
   -8.8333   -5.1244    0.1240 C   0  0  0  0  0  0  0  0  0  0  0  0
   -8.3406   -5.6128    1.3523 N   0  0  0  0  0  0  0  0  0  0  0  0
   -9.1665   -5.6085    2.4950 C   0  0  0  0  0  0  0  0  0  0  0  0
   -6.8481   -5.5891    1.5769 C   0  0  0  0  0  0  0  0  0  0  0  0
   -6.0874   -6.9238    1.3121 C   0  0  1  0  0  0  0  0  0  0  0  0
   -4.9273   -6.6789    0.5298 O   0  0  0  0  0  0  0  0  0  0  0  0
   -5.7624   -7.7079    2.6059 C   0  0  1  0  0  0  0  0  0  0  0  0
   -6.9619   -8.0197    3.3083 O   0  0  0  0  0  0  0  0  0  0  0  0
   -4.8939   -8.9809    2.4544 C   0  0  1  0  0  0  0  0  0  0  0  0
   -5.0080   -9.4458    1.1139 O   0  0  0  0  0  0  0  0  0  0  0  0
   -3.4016   -8.7335    2.7698 C   0  0  0  0  0  0  0  0  0  0  0  0
   -3.1841   -8.3900    4.1332 O   0  0  0  0  0  0  0  0  0  0  0  0
   -1.7422   -8.1020    4.7242 P   0  0  0  0  0  0  0  0  0  0  0  0
   -1.0202   -7.1092    3.8964 O   0  0  0  0  0  0  0  0  0  0  0  0
   -1.8110   -7.8890    6.1860 O   0  5  0  0  0  0  0  0  0  0  0  0
   -0.9663   -9.4761    4.5124 O   0  5  0  0  0  0  0  0  0  0  0  0
  1 18  1  0  0  0  0
  1  2  1  0  0  0  0
  2  4  1  0  0  0  0
  2  3  2  0  0  0  0
  4  5  1  0  0  0  0
  5  7  1  0  0  0  0
  5  6  2  0  0  0  0
  7 18  2  0  0  0  0
  7  8  1  0  0  0  0
  8  9  1  0  0  0  0
  9 10  2  0  0  0  0
  9 16  1  0  0  0  0
 10 11  1  0  0  0  0
 11 12  1  0  0  0  0
 11 13  2  0  0  0  0
 13 14  1  0  0  0  0
 13 15  1  0  0  0  0
 15 16  2  0  0  0  0
 16 17  1  0  0  0  0
 17 19  1  0  0  0  0
 17 18  1  0  0  0  0
 20 19  1  1  0  0  0
 20 22  1  0  0  0  0
 20 21  1  0  0  0  0
 22 24  1  0  0  0  0
 22 23  1  6  0  0  0
 24 26  1  6  0  0  0
 24 25  1  0  0  0  0
 26 27  1  0  0  0  0
 27 28  1  0  0  0  0
 28 30  1  0  0  0  0
 28 29  2  0  0  0  0
 28 31  1  0  0  0  0
M  CHG  2  30  -1  31  -1
M  END
>  <CHROM.1>
-98.03546849,133.14774497,59.01662030,57.18540776,-22.50686732,-176.39934577
65.31268183,59.51400875,179.25543073,51.22274135,-6.99715077,-6.40041263
2.11060381,2.62387052,0.35799727,-1.36901840

>  <Name>
1fmn_cryst

>  <RI>
0

>  <Rbt.Current_Directory>
/home/itssahil/PROJECTS/Mol_Feturizer/New_Systems/rnas/1fmn

>  <Rbt.Executable>
rbdock ($Id: //depot/dev/client3/rdock/2013.1/src/exe/rbdock.cxx#4 $)

>  <Rbt.Library>
libRbt.so (2013.1, Build901 2013/11/27)

>  <Rbt.Parameter_File>
/export/apps/rDock/src/rDock_2013.1_src/data/scripts/dock_solv.prm

>  <Rbt.Receptor>
prm/pocket_docking_3.prm

>  <SCORE>
-56.3637

>  <SCORE.INTER>
-48.7161

>  <SCORE.INTER.CONST>
1

>  <SCORE.INTER.POLAR>
-2.13059

>  <SCORE.INTER.ROT>
7

>  <SCORE.INTER.SOLV>
16.7178

>  <SCORE.INTER.VDW>
-39.2147

>  <SCORE.INTER.norm>
-1.57149

>  <SCORE.INTRA>
-7.6476

>  <SCORE.INTRA.DIHEDRAL>
-4.46639

>  <SCORE.INTRA.DIHEDRAL.0>
15.5708

>  <SCORE.INTRA.POLAR>
-1.4012

>  <SCORE.INTRA.POLAR.0>
-0.0677885

>  <SCORE.INTRA.REPUL>
0

>  <SCORE.INTRA.REPUL.0>
0

>  <SCORE.INTRA.SOLV>
-3.12928

>  <SCORE.INTRA.SOLV.lig_0>
-87.6316

>  <SCORE.INTRA.VDW>
0.914307

>  <SCORE.INTRA.VDW.0>
-2.87309

>  <SCORE.INTRA.norm>
-0.246697

>  <SCORE.RESTR>
0

>  <SCORE.RESTR.CAVITY>
0

>  <SCORE.RESTR.norm>
0

>  <SCORE.SYSTEM>
0

>  <SCORE.SYSTEM.CONST>
0

>  <SCORE.SYSTEM.DIHEDRAL>
0

>  <SCORE.SYSTEM.SOLV>
0

>  <SCORE.SYSTEM.norm>
0

>  <SCORE.heavy>
31

>  <SCORE.norm>
-1.81818

>  <SYMMETRIC_BONDS>
33 34 3

>  <RMSD>
1.303

$$$$
1fmn_cryst
 OpenBabel11021811393D
libRbt.so/2013.1/901 2013/11/27
 31 33  0  0  0  0  0  0  0  0999 V2000
   -8.7066   -6.2104    3.6249 N   0  0  0  0  0  0  0  0  0  0  0  0
   -9.5742   -6.2561    4.6911 C   0  0  0  0  0  0  0  0  0  0  0  0
   -9.2590   -6.7642    5.7677 O   0  0  0  0  0  0  0  0  0  0  0  0
  -10.8534   -5.6867    4.4704 N   0  0  0  0  0  0  0  0  0  0  0  0
  -11.3162   -5.0874    3.2784 C   0  0  0  0  0  0  0  0  0  0  0  0
  -12.4629   -4.6253    3.2230 O   0  0  0  0  0  0  0  0  0  0  0  0
  -10.3346   -5.0790    2.1915 C   0  0  0  0  0  0  0  0  0  0  0  0
  -10.7071   -4.5133    0.9975 N   0  0  0  0  0  0  0  0  0  0  0  0
   -9.8625   -4.6671   -0.0634 C   0  0  0  0  0  0  0  0  0  0  0  0
  -10.3100   -4.2643   -1.3091 C   0  0  0  0  0  0  0  0  0  0  0  0
   -9.5262   -4.3864   -2.4056 C   0  0  0  0  0  0  0  0  0  0  0  0
  -10.0565   -3.9329   -3.7283 C   0  0  0  0  0  0  0  0  0  0  0  0
   -8.2759   -4.9127   -2.3018 C   0  0  0  0  0  0  0  0  0  0  0  0
   -7.4200   -5.0502   -3.5186 C   0  0  0  0  0  0  0  0  0  0  0  0
   -7.7943   -5.3206   -1.0999 C   0  0  0  0  0  0  0  0  0  0  0  0
   -8.5612   -5.2163    0.0605 C   0  0  0  0  0  0  0  0  0  0  0  0
   -8.1216   -5.6170    1.3397 N   0  0  0  0  0  0  0  0  0  0  0  0
   -9.0305   -5.6567    2.4170 C   0  0  0  0  0  0  0  0  0  0  0  0
   -6.6598   -5.4434    1.6734 C   0  0  0  0  0  0  0  0  0  0  0  0
   -5.8087   -6.7470    1.7526 C   0  0  1  0  0  0  0  0  0  0  0  0
   -5.2532   -7.0469    0.4801 O   0  0  0  0  0  0  0  0  0  0  0  0
   -4.7319   -6.7061    2.8630 C   0  0  1  0  0  0  0  0  0  0  0  0
   -3.6842   -5.8110    2.5016 O   0  0  0  0  0  0  0  0  0  0  0  0
   -5.2183   -6.3956    4.3000 C   0  0  1  0  0  0  0  0  0  0  0  0
   -6.4013   -7.1478    4.5463 O   0  0  0  0  0  0  0  0  0  0  0  0
   -4.1709   -6.7478    5.3800 C   0  0  0  0  0  0  0  0  0  0  0  0
   -3.7882   -8.1175    5.3397 O   0  0  0  0  0  0  0  0  0  0  0  0
   -2.7899   -8.7590    6.3899 P   0  0  0  0  0  0  0  0  0  0  0  0
   -1.4687   -8.0928    6.3386 O   0  0  0  0  0  0  0  0  0  0  0  0
   -3.4495   -8.9232    7.7033 O   0  5  0  0  0  0  0  0  0  0  0  0
   -2.5461  -10.2292    5.8294 O   0  5  0  0  0  0  0  0  0  0  0  0
  1 18  1  0  0  0  0
  1  2  1  0  0  0  0
  2  4  1  0  0  0  0
  2  3  2  0  0  0  0
  4  5  1  0  0  0  0
  5  7  1  0  0  0  0
  5  6  2  0  0  0  0
  7 18  2  0  0  0  0
  7  8  1  0  0  0  0
  8  9  1  0  0  0  0
  9 10  2  0  0  0  0
  9 16  1  0  0  0  0
 10 11  1  0  0  0  0
 11 12  1  0  0  0  0
 11 13  2  0  0  0  0
 13 14  1  0  0  0  0
 13 15  1  0  0  0  0
 15 16  2  0  0  0  0
 16 17  1  0  0  0  0
 17 19  1  0  0  0  0
 17 18  1  0  0  0  0
 20 19  1  6  0  0  0
 20 22  1  0  0  0  0
 20 21  1  0  0  0  0
 22 24  1  0  0  0  0
 22 23  1  6  0  0  0
 24 26  1  1  0  0  0
 24 25  1  0  0  0  0
 26 27  1  0  0  0  0
 27 28  1  0  0  0  0
 28 30  1  0  0  0  0
 28 29  2  0  0  0  0
 28 31  1  0  0  0  0
M  CHG  2  30  -1  31  -1
M  END
>  <CHROM.1>
-108.06768100,90.23816859,-71.51216975,-63.17211038,43.76486611,-175.80876351
-57.84912728,178.51481278,-176.48175797,-60.65476422,-7.05201914,-6.28776717
2.62828084,2.32495959,0.28765043,-1.32362972

>  <Name>
1fmn_cryst

>  <RI>
0

>  <Rbt.Current_Directory>
/home/itssahil/PROJECTS/Mol_Feturizer/New_Systems/rnas/1fmn

>  <Rbt.Executable>
rbdock ($Id: //depot/dev/client3/rdock/2013.1/src/exe/rbdock.cxx#4 $)

>  <Rbt.Library>
libRbt.so (2013.1, Build901 2013/11/27)

>  <Rbt.Parameter_File>
/export/apps/rDock/src/rDock_2013.1_src/data/scripts/dock_solv.prm

>  <Rbt.Receptor>
prm/pocket_docking_3.prm

>  <SCORE>
-58.9318

>  <SCORE.INTER>
-49.6483

>  <SCORE.INTER.CONST>
1

>  <SCORE.INTER.POLAR>
-2.64378

>  <SCORE.INTER.ROT>
7

>  <SCORE.INTER.SOLV>
14.0712

>  <SCORE.INTER.VDW>
-37.2434

>  <SCORE.INTER.norm>
-1.60156

>  <SCORE.INTRA>
-9.28347

>  <SCORE.INTRA.DIHEDRAL>
-8.51686

>  <SCORE.INTRA.DIHEDRAL.0>
15.5708

>  <SCORE.INTRA.POLAR>
-0.932211

>  <SCORE.INTRA.POLAR.0>
-0.0677885

>  <SCORE.INTRA.REPUL>
0

>  <SCORE.INTRA.REPUL.0>
0

>  <SCORE.INTRA.SOLV>
-3.5176

>  <SCORE.INTRA.SOLV.lig_0>
-87.6316

>  <SCORE.INTRA.VDW>
-0.0967212

>  <SCORE.INTRA.VDW.0>
-2.87309

>  <SCORE.INTRA.norm>
-0.299467

>  <SCORE.RESTR>
0

>  <SCORE.RESTR.CAVITY>
0

>  <SCORE.RESTR.norm>
0

>  <SCORE.SYSTEM>
0

>  <SCORE.SYSTEM.CONST>
0

>  <SCORE.SYSTEM.DIHEDRAL>
0

>  <SCORE.SYSTEM.SOLV>
0

>  <SCORE.SYSTEM.norm>
0

>  <SCORE.heavy>
31

>  <SCORE.norm>
-1.90103

>  <SYMMETRIC_BONDS>
33 34 3

>  <RMSD>
1.304

$$$$
1fmn_cryst
 OpenBabel11021811393D
libRbt.so/2013.1/901 2013/11/27
 31 33  0  0  0  0  0  0  0  0999 V2000
   -8.6817   -6.2215    3.3657 N   0  0  0  0  0  0  0  0  0  0  0  0
   -9.4692   -6.2886    4.4912 C   0  0  0  0  0  0  0  0  0  0  0  0
   -9.0864   -6.8395    5.5239 O   0  0  0  0  0  0  0  0  0  0  0  0
  -10.7491   -5.6885    4.3851 N   0  0  0  0  0  0  0  0  0  0  0  0
  -11.2858   -5.0396    3.2515 C   0  0  0  0  0  0  0  0  0  0  0  0
  -12.4235   -4.5550    3.2968 O   0  0  0  0  0  0  0  0  0  0  0  0
  -10.3867   -5.0113    2.0956 C   0  0  0  0  0  0  0  0  0  0  0  0
  -10.8342   -4.3976    0.9522 N   0  0  0  0  0  0  0  0  0  0  0  0
  -10.0732   -4.5296   -0.1730 C   0  0  0  0  0  0  0  0  0  0  0  0
  -10.6026   -4.0756   -1.3679 C   0  0  0  0  0  0  0  0  0  0  0  0
   -9.9043   -4.1736   -2.5230 C   0  0  0  0  0  0  0  0  0  0  0  0
  -10.5209   -3.6646   -3.7868 C   0  0  0  0  0  0  0  0  0  0  0  0
   -8.6610   -4.7259   -2.5299 C   0  0  0  0  0  0  0  0  0  0  0  0
   -7.8999   -4.8364   -3.8107 C   0  0  0  0  0  0  0  0  0  0  0  0
   -8.1009   -5.1842   -1.3813 C   0  0  0  0  0  0  0  0  0  0  0  0
   -8.7780   -5.1064   -0.1644 C   0  0  0  0  0  0  0  0  0  0  0  0
   -8.2541   -5.5595    1.0645 N   0  0  0  0  0  0  0  0  0  0  0  0
   -9.0819   -5.6202    2.2043 C   0  0  0  0  0  0  0  0  0  0  0  0
   -6.7684   -5.4244    1.2945 C   0  0  0  0  0  0  0  0  0  0  0  0
   -5.8947   -6.6590    0.9170 C   0  0  1  0  0  0  0  0  0  0  0  0
   -4.7884   -6.2517    0.1245 O   0  0  0  0  0  0  0  0  0  0  0  0
   -5.4562   -7.4941    2.1436 C   0  0  1  0  0  0  0  0  0  0  0  0
   -6.5933   -8.0677    2.7820 O   0  0  0  0  0  0  0  0  0  0  0  0
   -4.3820   -8.5830    1.9023 C   0  0  1  0  0  0  0  0  0  0  0  0
   -4.5296   -9.0734    0.5743 O   0  0  0  0  0  0  0  0  0  0  0  0
   -2.9401   -8.0571    2.0810 C   0  0  0  0  0  0  0  0  0  0  0  0
   -2.7566   -7.3852    3.3215 O   0  0  0  0  0  0  0  0  0  0  0  0
   -2.6822   -8.1504    4.7072 P   0  0  0  0  0  0  0  0  0  0  0  0
   -3.0721   -7.2604    5.8242 O   0  0  0  0  0  0  0  0  0  0  0  0
   -3.3231   -9.4792    4.6039 O   0  5  0  0  0  0  0  0  0  0  0  0
   -1.1261   -8.4230    4.9047 O   0  5  0  0  0  0  0  0  0  0  0  0
  1 18  1  0  0  0  0
  1  2  1  0  0  0  0
  2  4  1  0  0  0  0
  2  3  2  0  0  0  0
  4  5  1  0  0  0  0
  5  7  1  0  0  0  0
  5  6  2  0  0  0  0
  7 18  2  0  0  0  0
  7  8  1  0  0  0  0
  8  9  1  0  0  0  0
  9 10  2  0  0  0  0
  9 16  1  0  0  0  0
 10 11  1  0  0  0  0
 11 12  1  0  0  0  0
 11 13  2  0  0  0  0
 13 14  1  0  0  0  0
 13 15  1  0  0  0  0
 15 16  2  0  0  0  0
 16 17  1  0  0  0  0
 17 19  1  0  0  0  0
 17 18  1  0  0  0  0
 20 19  1  1  0  0  0
 20 22  1  0  0  0  0
 20 21  1  0  0  0  0
 22 24  1  0  0  0  0
 22 23  1  6  0  0  0
 24 26  1  6  0  0  0
 24 25  1  0  0  0  0
 26 27  1  0  0  0  0
 27 28  1  0  0  0  0
 28 30  1  0  0  0  0
 28 29  2  0  0  0  0
 28 31  1  0  0  0  0
M  CHG  2  30  -1  31  -1
M  END
>  <CHROM.1>
-93.13121606,131.21748296,64.31983110,60.60809747,-30.90615909,-178.49749088
51.70124914,-66.55715305,73.11040786,-155.44641825,-7.07110553,-6.34644337
1.82775217,2.55022460,0.35715610,-1.36003718

>  <Name>
1fmn_cryst

>  <RI>
0

>  <Rbt.Current_Directory>
/home/itssahil/PROJECTS/Mol_Feturizer/New_Systems/rnas/1fmn

>  <Rbt.Executable>
rbdock ($Id: //depot/dev/client3/rdock/2013.1/src/exe/rbdock.cxx#4 $)

>  <Rbt.Library>
libRbt.so (2013.1, Build901 2013/11/27)

>  <Rbt.Parameter_File>
/export/apps/rDock/src/rDock_2013.1_src/data/scripts/dock_solv.prm

>  <Rbt.Receptor>
prm/pocket_docking_2.prm

>  <SCORE>
-59.3124

>  <SCORE.INTER>
-54.2087

>  <SCORE.INTER.CONST>
1

>  <SCORE.INTER.POLAR>
-3.40514

>  <SCORE.INTER.ROT>
7

>  <SCORE.INTER.SOLV>
16.6794

>  <SCORE.INTER.VDW>
-38.6151

>  <SCORE.INTER.norm>
-1.74867

>  <SCORE.INTRA>
-5.10373

>  <SCORE.INTRA.DIHEDRAL>
-3.13307

>  <SCORE.INTRA.DIHEDRAL.0>
15.5708

>  <SCORE.INTRA.POLAR>
-0.854459

>  <SCORE.INTRA.POLAR.0>
-0.0677885

>  <SCORE.INTRA.REPUL>
0

>  <SCORE.INTRA.REPUL.0>
0

>  <SCORE.INTRA.SOLV>
-0.338001

>  <SCORE.INTRA.SOLV.lig_0>
-87.6316

>  <SCORE.INTRA.VDW>
-0.463029

>  <SCORE.INTRA.VDW.0>
-2.87309

>  <SCORE.INTRA.norm>
-0.164636

>  <SCORE.RESTR>
0

>  <SCORE.RESTR.CAVITY>
0

>  <SCORE.RESTR.norm>
0

>  <SCORE.SYSTEM>
0

>  <SCORE.SYSTEM.CONST>
0

>  <SCORE.SYSTEM.DIHEDRAL>
0

>  <SCORE.SYSTEM.SOLV>
0

>  <SCORE.SYSTEM.norm>
0

>  <SCORE.heavy>
31

>  <SCORE.norm>
-1.9133

>  <SYMMETRIC_BONDS>
33 34 3

>  <RMSD>
1.305

$$$$
1fmn_cryst
 OpenBabel11021811393D
libRbt.so/2013.1/901 2013/11/27
 31 33  0  0  0  0  0  0  0  0999 V2000
   -8.9200   -6.3239    3.6078 N   0  0  0  0  0  0  0  0  0  0  0  0
   -9.7650   -6.2555    4.6908 C   0  0  0  0  0  0  0  0  0  0  0  0
   -9.5180   -6.8348    5.7490 O   0  0  0  0  0  0  0  0  0  0  0  0
  -10.9384   -5.4811    4.5096 N   0  0  0  0  0  0  0  0  0  0  0  0
  -11.3183   -4.7850    3.3412 C   0  0  0  0  0  0  0  0  0  0  0  0
  -12.3755   -4.1421    3.3201 O   0  0  0  0  0  0  0  0  0  0  0  0
  -10.3671   -4.9082    2.2343 C   0  0  0  0  0  0  0  0  0  0  0  0
  -10.6633   -4.2597    1.0612 N   0  0  0  0  0  0  0  0  0  0  0  0
   -9.8732   -4.5214   -0.0203 C   0  0  0  0  0  0  0  0  0  0  0  0
  -10.2707   -4.0203   -1.2472 C   0  0  0  0  0  0  0  0  0  0  0  0
   -9.5361   -4.2399   -2.3624 C   0  0  0  0  0  0  0  0  0  0  0  0
  -10.0085   -3.6733   -3.6633 C   0  0  0  0  0  0  0  0  0  0  0  0
   -8.3862   -4.9640   -2.2965 C   0  0  0  0  0  0  0  0  0  0  0  0
   -7.5850   -5.2075   -3.5338 C   0  0  0  0  0  0  0  0  0  0  0  0
   -7.9566   -5.4747   -1.1143 C   0  0  0  0  0  0  0  0  0  0  0  0
   -8.6763   -5.2769    0.0640 C   0  0  0  0  0  0  0  0  0  0  0  0
   -8.2858   -5.7755    1.3244 N   0  0  0  0  0  0  0  0  0  0  0  0
   -9.1703   -5.6948    2.4195 C   0  0  0  0  0  0  0  0  0  0  0  0
   -6.8097   -5.8493    1.6311 C   0  0  0  0  0  0  0  0  0  0  0  0
   -6.1453   -7.2536    1.5013 C   0  0  1  0  0  0  0  0  0  0  0  0
   -5.1179   -7.2201    0.5209 O   0  0  0  0  0  0  0  0  0  0  0  0
   -5.6435   -7.8184    2.8515 C   0  0  1  0  0  0  0  0  0  0  0  0
   -6.7213   -7.9114    3.7786 O   0  0  0  0  0  0  0  0  0  0  0  0
   -4.8698   -9.1590    2.8064 C   0  0  1  0  0  0  0  0  0  0  0  0
   -5.0809   -9.7569    1.5321 O   0  0  0  0  0  0  0  0  0  0  0  0
   -3.3506   -8.9857    3.0289 C   0  0  0  0  0  0  0  0  0  0  0  0
   -3.0509   -8.3654    4.2738 O   0  0  0  0  0  0  0  0  0  0  0  0
   -3.4258   -9.0185    5.6681 P   0  0  0  0  0  0  0  0  0  0  0  0
   -2.7634   -8.3028    6.7822 O   0  0  0  0  0  0  0  0  0  0  0  0
   -4.8811   -9.2676    5.7526 O   0  5  0  0  0  0  0  0  0  0  0  0
   -2.7333  -10.4510    5.6122 O   0  5  0  0  0  0  0  0  0  0  0  0
  1 18  1  0  0  0  0
  1  2  1  0  0  0  0
  2  4  1  0  0  0  0
  2  3  2  0  0  0  0
  4  5  1  0  0  0  0
  5  7  1  0  0  0  0
  5  6  2  0  0  0  0
  7 18  2  0  0  0  0
  7  8  1  0  0  0  0
  8  9  1  0  0  0  0
  9 10  2  0  0  0  0
  9 16  1  0  0  0  0
 10 11  1  0  0  0  0
 11 12  1  0  0  0  0
 11 13  2  0  0  0  0
 13 14  1  0  0  0  0
 13 15  1  0  0  0  0
 15 16  2  0  0  0  0
 16 17  1  0  0  0  0
 17 19  1  0  0  0  0
 17 18  1  0  0  0  0
 20 19  1  1  0  0  0
 20 22  1  0  0  0  0
 20 21  1  0  0  0  0
 22 24  1  0  0  0  0
 22 23  1  1  0  0  0
 24 26  1  6  0  0  0
 24 25  1  0  0  0  0
 26 27  1  0  0  0  0
 27 28  1  0  0  0  0
 28 30  1  0  0  0  0
 28 29  2  0  0  0  0
 28 31  1  0  0  0  0
M  CHG  2  30  -1  31  -1
M  END
>  <CHROM.1>
-101.19738058,119.40794608,58.19589664,-73.27349362,-14.56306220,-179.21471714
58.34050815,62.54600336,62.54563853,168.57930590,-7.27691936,-6.68552263
2.30435051,2.41009023,0.48100704,-1.34506963

>  <Name>
1fmn_cryst

>  <RI>
0

>  <Rbt.Current_Directory>
/home/itssahil/PROJECTS/Mol_Feturizer/New_Systems/rnas/1fmn

>  <Rbt.Executable>
rbdock ($Id: //depot/dev/client3/rdock/2013.1/src/exe/rbdock.cxx#4 $)

>  <Rbt.Library>
libRbt.so (2013.1, Build901 2013/11/27)

>  <Rbt.Parameter_File>
/export/apps/rDock/src/rDock_2013.1_src/data/scripts/dock_solv.prm

>  <Rbt.Receptor>
prm/pocket_docking_2.prm

>  <SCORE>
-62.1169

>  <SCORE.INTER>
-53.1153

>  <SCORE.INTER.CONST>
1

>  <SCORE.INTER.POLAR>
-2.846

>  <SCORE.INTER.ROT>
7

>  <SCORE.INTER.SOLV>
17.1359

>  <SCORE.INTER.VDW>
-39.9022

>  <SCORE.INTER.norm>
-1.7134

>  <SCORE.INTRA>
-9.00158

>  <SCORE.INTRA.DIHEDRAL>
-2.28595

>  <SCORE.INTRA.DIHEDRAL.0>
15.5708

>  <SCORE.INTRA.POLAR>
-2.55965

>  <SCORE.INTRA.POLAR.0>
-0.0677885

>  <SCORE.INTRA.REPUL>
0

>  <SCORE.INTRA.REPUL.0>
0

>  <SCORE.INTRA.SOLV>
1.61825

>  <SCORE.INTRA.SOLV.lig_0>
-87.6316

>  <SCORE.INTRA.VDW>
0.035092

>  <SCORE.INTRA.VDW.0>
-2.87309

>  <SCORE.INTRA.norm>
-0.290374

>  <SCORE.RESTR>
0

>  <SCORE.RESTR.CAVITY>
0

>  <SCORE.RESTR.norm>
0

>  <SCORE.SYSTEM>
0

>  <SCORE.SYSTEM.CONST>
0

>  <SCORE.SYSTEM.DIHEDRAL>
0

>  <SCORE.SYSTEM.SOLV>
0

>  <SCORE.SYSTEM.norm>
0

>  <SCORE.heavy>
31

>  <SCORE.norm>
-2.00377

>  <SYMMETRIC_BONDS>
33 34 3

>  <RMSD>
1.308

$$$$
1fmn_cryst
 OpenBabel11021811393D
libRbt.so/2013.1/901 2013/11/27
 31 33  0  0  0  0  0  0  0  0999 V2000
   -8.5857   -6.2945    3.5209 N   0  0  0  0  0  0  0  0  0  0  0  0
   -9.4406   -6.2755    4.5980 C   0  0  0  0  0  0  0  0  0  0  0  0
   -9.1546   -6.8143    5.6679 O   0  0  0  0  0  0  0  0  0  0  0  0
  -10.6715   -5.6019    4.3968 N   0  0  0  0  0  0  0  0  0  0  0  0
  -11.0986   -4.9594    3.2140 C   0  0  0  0  0  0  0  0  0  0  0  0
  -12.2041   -4.4046    3.1759 O   0  0  0  0  0  0  0  0  0  0  0  0
  -10.1333   -5.0249    2.1145 C   0  0  0  0  0  0  0  0  0  0  0  0
  -10.4731   -4.4233    0.9284 N   0  0  0  0  0  0  0  0  0  0  0  0
   -9.6573   -4.6393   -0.1442 C   0  0  0  0  0  0  0  0  0  0  0  0
  -10.0859   -4.1937   -1.3820 C   0  0  0  0  0  0  0  0  0  0  0  0
   -9.3287   -4.3728   -2.4892 C   0  0  0  0  0  0  0  0  0  0  0  0
   -9.8366   -3.8694   -3.8026 C   0  0  0  0  0  0  0  0  0  0  0  0
   -8.1245   -5.0004   -2.4043 C   0  0  0  0  0  0  0  0  0  0  0  0
   -7.2981   -5.2001   -3.6328 C   0  0  0  0  0  0  0  0  0  0  0  0
   -7.6629   -5.4537   -1.2109 C   0  0  0  0  0  0  0  0  0  0  0  0
   -8.4040   -5.2939   -0.0400 C   0  0  0  0  0  0  0  0  0  0  0  0
   -7.9828   -5.7371    1.2313 N   0  0  0  0  0  0  0  0  0  0  0  0
   -8.8782   -5.7089    2.3200 C   0  0  0  0  0  0  0  0  0  0  0  0
   -6.5076   -5.6859    1.5467 C   0  0  0  0  0  0  0  0  0  0  0  0
   -5.6147   -6.7614    0.8567 C   0  0  1  0  0  0  0  0  0  0  0  0
   -4.9561   -6.2009   -0.2702 O   0  0  0  0  0  0  0  0  0  0  0  0
   -4.6247   -7.4473    1.8281 C   0  0  1  0  0  0  0  0  0  0  0  0
   -4.1384   -6.5075    2.7820 O   0  0  0  0  0  0  0  0  0  0  0  0
   -5.1226   -8.7228    2.5513 C   0  0  1  0  0  0  0  0  0  0  0  0
   -5.6148   -9.6312    1.5723 O   0  0  0  0  0  0  0  0  0  0  0  0
   -4.0140   -9.4241    3.3679 C   0  0  0  0  0  0  0  0  0  0  0  0
   -3.4973   -8.5978    4.4044 O   0  0  0  0  0  0  0  0  0  0  0  0
   -2.3931   -9.0955    5.4263 P   0  0  0  0  0  0  0  0  0  0  0  0
   -1.9052   -7.9765    6.2640 O   0  0  0  0  0  0  0  0  0  0  0  0
   -2.8242  -10.3432    6.0928 O   0  5  0  0  0  0  0  0  0  0  0  0
   -1.1664   -9.4929    4.4923 O   0  5  0  0  0  0  0  0  0  0  0  0
  1 18  1  0  0  0  0
  1  2  1  0  0  0  0
  2  4  1  0  0  0  0
  2  3  2  0  0  0  0
  4  5  1  0  0  0  0
  5  7  1  0  0  0  0
  5  6  2  0  0  0  0
  7 18  2  0  0  0  0
  7  8  1  0  0  0  0
  8  9  1  0  0  0  0
  9 10  2  0  0  0  0
  9 16  1  0  0  0  0
 10 11  1  0  0  0  0
 11 12  1  0  0  0  0
 11 13  2  0  0  0  0
 13 14  1  0  0  0  0
 13 15  1  0  0  0  0
 15 16  2  0  0  0  0
 16 17  1  0  0  0  0
 17 19  1  0  0  0  0
 17 18  1  0  0  0  0
 20 19  1  1  0  0  0
 20 22  1  0  0  0  0
 20 21  1  0  0  0  0
 22 24  1  0  0  0  0
 22 23  1  1  0  0  0
 24 26  1  6  0  0  0
 24 25  1  0  0  0  0
 26 27  1  0  0  0  0
 27 28  1  0  0  0  0
 28 30  1  0  0  0  0
 28 29  2  0  0  0  0
 28 31  1  0  0  0  0
M  CHG  2  30  -1  31  -1
M  END
>  <CHROM.1>
-73.89005297,100.12004211,-36.54340183,-112.17063689,52.67323779,173.64362637
61.66464095,57.42340350,177.45015617,171.81119643,-6.81956999,-6.61381093
2.07482075,2.45682828,0.40821527,-1.33056226

>  <Name>
1fmn_cryst

>  <RI>
0

>  <Rbt.Current_Directory>
/home/itssahil/PROJECTS/Mol_Feturizer/New_Systems/rnas/1fmn

>  <Rbt.Executable>
rbdock ($Id: //depot/dev/client3/rdock/2013.1/src/exe/rbdock.cxx#4 $)

>  <Rbt.Library>
libRbt.so (2013.1, Build901 2013/11/27)

>  <Rbt.Parameter_File>
/export/apps/rDock/src/rDock_2013.1_src/data/scripts/dock_solv.prm

>  <Rbt.Receptor>
prm/pocket_docking_3.prm

>  <SCORE>
-58.4346

>  <SCORE.INTER>
-54.4195

>  <SCORE.INTER.CONST>
1

>  <SCORE.INTER.POLAR>
-3.31416

>  <SCORE.INTER.ROT>
7

>  <SCORE.INTER.SOLV>
16.3959

>  <SCORE.INTER.VDW>
-38.9644

>  <SCORE.INTER.norm>
-1.75547

>  <SCORE.INTRA>
-4.01512

>  <SCORE.INTRA.DIHEDRAL>
-0.854657

>  <SCORE.INTRA.DIHEDRAL.0>
15.5708

>  <SCORE.INTRA.POLAR>
-0.766879

>  <SCORE.INTRA.POLAR.0>
-0.0677885

>  <SCORE.INTRA.REPUL>
0

>  <SCORE.INTRA.REPUL.0>
0

>  <SCORE.INTRA.SOLV>
-4.36258

>  <SCORE.INTRA.SOLV.lig_0>
-87.6316

>  <SCORE.INTRA.VDW>
1.20089

>  <SCORE.INTRA.VDW.0>
-2.87309

>  <SCORE.INTRA.norm>
-0.12952

>  <SCORE.RESTR>
0

>  <SCORE.RESTR.CAVITY>
0

>  <SCORE.RESTR.norm>
0

>  <SCORE.SYSTEM>
0

>  <SCORE.SYSTEM.CONST>
0

>  <SCORE.SYSTEM.DIHEDRAL>
0

>  <SCORE.SYSTEM.SOLV>
0

>  <SCORE.SYSTEM.norm>
0

>  <SCORE.heavy>
31

>  <SCORE.norm>
-1.88499

>  <SYMMETRIC_BONDS>
33 34 3

>  <RMSD>
1.318

$$$$
1fmn_cryst
 OpenBabel11021811393D
libRbt.so/2013.1/901 2013/11/27
 31 33  0  0  0  0  0  0  0  0999 V2000
   -8.9808   -6.2403    3.5235 N   0  0  0  0  0  0  0  0  0  0  0  0
   -9.8242   -6.2695    4.6095 C   0  0  0  0  0  0  0  0  0  0  0  0
   -9.5188   -6.8388    5.6580 O   0  0  0  0  0  0  0  0  0  0  0  0
  -11.0669   -5.6080    4.4435 N   0  0  0  0  0  0  0  0  0  0  0  0
  -11.5161   -4.9335    3.2870 C   0  0  0  0  0  0  0  0  0  0  0  0
  -12.6299   -4.3943    3.2787 O   0  0  0  0  0  0  0  0  0  0  0  0
  -10.5619   -4.9483    2.1760 C   0  0  0  0  0  0  0  0  0  0  0  0
  -10.9233   -4.3132    1.0140 N   0  0  0  0  0  0  0  0  0  0  0  0
  -10.1161   -4.4816   -0.0735 C   0  0  0  0  0  0  0  0  0  0  0  0
  -10.5645   -4.0019   -1.2914 C   0  0  0  0  0  0  0  0  0  0  0  0
   -9.8168   -4.1333   -2.4117 C   0  0  0  0  0  0  0  0  0  0  0  0
  -10.3462   -3.5945   -3.7024 C   0  0  0  0  0  0  0  0  0  0  0  0
   -8.6028   -4.7453   -2.3601 C   0  0  0  0  0  0  0  0  0  0  0  0
   -7.7869   -4.8921   -3.6030 C   0  0  0  0  0  0  0  0  0  0  0  0
   -8.1217   -5.2306   -1.1871 C   0  0  0  0  0  0  0  0  0  0  0  0
   -8.8523   -5.1205   -0.0040 C   0  0  0  0  0  0  0  0  0  0  0  0
   -8.4109   -5.5990    1.2475 N   0  0  0  0  0  0  0  0  0  0  0  0
   -9.2948   -5.6199    2.3458 C   0  0  0  0  0  0  0  0  0  0  0  0
   -6.9333   -5.5361    1.5492 C   0  0  0  0  0  0  0  0  0  0  0  0
   -6.2450   -6.8847    1.9203 C   0  0  1  0  0  0  0  0  0  0  0  0
   -5.5105   -7.3809    0.8102 O   0  0  0  0  0  0  0  0  0  0  0  0
   -5.3784   -6.7959    3.1991 C   0  0  1  0  0  0  0  0  0  0  0  0
   -5.8086   -5.7080    4.0121 O   0  0  0  0  0  0  0  0  0  0  0  0
   -5.2602   -8.0801    4.0562 C   0  0  1  0  0  0  0  0  0  0  0  0
   -5.3549   -9.2073    3.1923 O   0  0  0  0  0  0  0  0  0  0  0  0
   -3.9298   -8.1627    4.8377 C   0  0  0  0  0  0  0  0  0  0  0  0
   -4.1086   -8.6389    6.1663 O   0  0  0  0  0  0  0  0  0  0  0  0
   -2.9357   -8.6655    7.2317 P   0  0  0  0  0  0  0  0  0  0  0  0
   -3.4500   -9.0140    8.5756 O   0  0  0  0  0  0  0  0  0  0  0  0
   -1.7701   -9.4079    6.7053 O   0  5  0  0  0  0  0  0  0  0  0  0
   -2.4827   -7.1425    7.3322 O   0  5  0  0  0  0  0  0  0  0  0  0
  1 18  1  0  0  0  0
  1  2  1  0  0  0  0
  2  4  1  0  0  0  0
  2  3  2  0  0  0  0
  4  5  1  0  0  0  0
  5  7  1  0  0  0  0
  5  6  2  0  0  0  0
  7 18  2  0  0  0  0
  7  8  1  0  0  0  0
  8  9  1  0  0  0  0
  9 10  2  0  0  0  0
  9 16  1  0  0  0  0
 10 11  1  0  0  0  0
 11 12  1  0  0  0  0
 11 13  2  0  0  0  0
 13 14  1  0  0  0  0
 13 15  1  0  0  0  0
 15 16  2  0  0  0  0
 16 17  1  0  0  0  0
 17 19  1  0  0  0  0
 17 18  1  0  0  0  0
 20 19  1  6  0  0  0
 20 22  1  0  0  0  0
 20 21  1  0  0  0  0
 22 24  1  0  0  0  0
 22 23  1  1  0  0  0
 24 26  1  6  0  0  0
 24 25  1  0  0  0  0
 26 27  1  0  0  0  0
 27 28  1  0  0  0  0
 28 30  1  0  0  0  0
 28 29  2  0  0  0  0
 28 31  1  0  0  0  0
M  CHG  2  30  -1  31  -1
M  END
>  <CHROM.1>
-123.29499375,102.53024987,22.80392335,-57.17500274,30.73709592,74.02175605
138.35889284,-170.31619229,-172.95728936,171.44731087,-7.30752122,-6.36220590
2.79381350,2.29555740,0.34670626,-1.36268579

>  <Name>
1fmn_cryst

>  <RI>
0

>  <Rbt.Current_Directory>
/home/itssahil/PROJECTS/Mol_Feturizer/New_Systems/rnas/1fmn

>  <Rbt.Executable>
rbdock ($Id: //depot/dev/client3/rdock/2013.1/src/exe/rbdock.cxx#4 $)

>  <Rbt.Library>
libRbt.so (2013.1, Build901 2013/11/27)

>  <Rbt.Parameter_File>
/export/apps/rDock/src/rDock_2013.1_src/data/scripts/dock_solv.prm

>  <Rbt.Receptor>
prm/pocket_docking_3.prm

>  <SCORE>
-53.994

>  <SCORE.INTER>
-55.2859

>  <SCORE.INTER.CONST>
1

>  <SCORE.INTER.POLAR>
-3.70956

>  <SCORE.INTER.ROT>
7

>  <SCORE.INTER.SOLV>
15.2438

>  <SCORE.INTER.VDW>
-37.84

>  <SCORE.INTER.norm>
-1.78342

>  <SCORE.INTRA>
1.29187

>  <SCORE.INTRA.DIHEDRAL>
2.76859

>  <SCORE.INTRA.DIHEDRAL.0>
15.5708

>  <SCORE.INTRA.POLAR>
0.0677885

>  <SCORE.INTRA.POLAR.0>
-0.0677885

>  <SCORE.INTRA.REPUL>
0.020246

>  <SCORE.INTRA.REPUL.0>
0

>  <SCORE.INTRA.SOLV>
-4.21356

>  <SCORE.INTRA.SOLV.lig_0>
-87.6316

>  <SCORE.INTRA.VDW>
1.68265

>  <SCORE.INTRA.VDW.0>
-2.87309

>  <SCORE.INTRA.norm>
0.0416734

>  <SCORE.RESTR>
0

>  <SCORE.RESTR.CAVITY>
0

>  <SCORE.RESTR.norm>
0

>  <SCORE.SYSTEM>
0

>  <SCORE.SYSTEM.CONST>
0

>  <SCORE.SYSTEM.DIHEDRAL>
0

>  <SCORE.SYSTEM.SOLV>
0

>  <SCORE.SYSTEM.norm>
0

>  <SCORE.heavy>
31

>  <SCORE.norm>
-1.74174

>  <SYMMETRIC_BONDS>
33 34 3

>  <RMSD>
1.319

$$$$
1fmn_cryst
 OpenBabel11021811393D
libRbt.so/2013.1/901 2013/11/27
 31 33  0  0  0  0  0  0  0  0999 V2000
   -8.8341   -6.2479    3.5441 N   0  0  0  0  0  0  0  0  0  0  0  0
   -9.6045   -6.2607    4.6833 C   0  0  0  0  0  0  0  0  0  0  0  0
   -9.2472   -6.8458    5.7064 O   0  0  0  0  0  0  0  0  0  0  0  0
  -10.8359   -5.5631    4.6031 N   0  0  0  0  0  0  0  0  0  0  0  0
  -11.3408   -4.8680    3.4823 C   0  0  0  0  0  0  0  0  0  0  0  0
  -12.4367   -4.2974    3.5503 O   0  0  0  0  0  0  0  0  0  0  0  0
  -10.4627   -4.9022    2.3106 C   0  0  0  0  0  0  0  0  0  0  0  0
  -10.8815   -4.2490    1.1783 N   0  0  0  0  0  0  0  0  0  0  0  0
  -10.1529   -4.4326    0.0389 C   0  0  0  0  0  0  0  0  0  0  0  0
  -10.6667   -3.9320   -1.1442 C   0  0  0  0  0  0  0  0  0  0  0  0
   -9.9985   -4.0767   -2.3121 C   0  0  0  0  0  0  0  0  0  0  0  0
  -10.5961   -3.5142   -3.5623 C   0  0  0  0  0  0  0  0  0  0  0  0
   -8.8018   -4.7233   -2.3439 C   0  0  0  0  0  0  0  0  0  0  0  0
   -8.0742   -4.8845   -3.6388 C   0  0  0  0  0  0  0  0  0  0  0  0
   -8.2587   -5.2303   -1.2078 C   0  0  0  0  0  0  0  0  0  0  0  0
   -8.9062   -5.1077    0.0215 C   0  0  0  0  0  0  0  0  0  0  0  0
   -8.3972   -5.6072    1.2387 N   0  0  0  0  0  0  0  0  0  0  0  0
   -9.2070   -5.6106    2.3929 C   0  0  0  0  0  0  0  0  0  0  0  0
   -6.9018   -5.5884    1.4424 C   0  0  0  0  0  0  0  0  0  0  0  0
   -6.2443   -6.9368    1.8665 C   0  0  1  0  0  0  0  0  0  0  0  0
   -6.4503   -7.9191    0.8612 O   0  0  0  0  0  0  0  0  0  0  0  0
   -4.7507   -6.7950    2.2447 C   0  0  1  0  0  0  0  0  0  0  0  0
   -4.5670   -5.6885    3.1230 O   0  0  0  0  0  0  0  0  0  0  0  0
   -4.0523   -8.0497    2.8243 C   0  0  1  0  0  0  0  0  0  0  0  0
   -3.8395   -8.9754    1.7642 O   0  0  0  0  0  0  0  0  0  0  0  0
   -2.6931   -7.7309    3.4865 C   0  0  0  0  0  0  0  0  0  0  0  0
   -2.3004   -8.7240    4.4266 O   0  0  0  0  0  0  0  0  0  0  0  0
   -1.1752   -8.4761    5.5146 P   0  0  0  0  0  0  0  0  0  0  0  0
   -1.1197   -9.5954    6.4822 O   0  0  0  0  0  0  0  0  0  0  0  0
    0.0811   -8.0316    4.8734 O   0  5  0  0  0  0  0  0  0  0  0  0
   -1.7174   -7.2275    6.3403 O   0  5  0  0  0  0  0  0  0  0  0  0
  1 18  1  0  0  0  0
  1  2  1  0  0  0  0
  2  4  1  0  0  0  0
  2  3  2  0  0  0  0
  4  5  1  0  0  0  0
  5  7  1  0  0  0  0
  5  6  2  0  0  0  0
  7 18  2  0  0  0  0
  7  8  1  0  0  0  0
  8  9  1  0  0  0  0
  9 10  2  0  0  0  0
  9 16  1  0  0  0  0
 10 11  1  0  0  0  0
 11 12  1  0  0  0  0
 11 13  2  0  0  0  0
 13 14  1  0  0  0  0
 13 15  1  0  0  0  0
 15 16  2  0  0  0  0
 16 17  1  0  0  0  0
 17 19  1  0  0  0  0
 17 18  1  0  0  0  0
 20 19  1  6  0  0  0
 20 22  1  0  0  0  0
 20 21  1  0  0  0  0
 22 24  1  0  0  0  0
 22 23  1  1  0  0  0
 24 26  1  6  0  0  0
 24 25  1  0  0  0  0
 26 27  1  0  0  0  0
 27 28  1  0  0  0  0
 28 30  1  0  0  0  0
 28 29  2  0  0  0  0
 28 31  1  0  0  0  0
M  CHG  2  30  -1  31  -1
M  END
>  <CHROM.1>
-127.78176129,61.55949862,47.14781498,56.12271617,73.50429309,61.04920840
157.88498868,-56.32278859,-163.26829351,171.30072055,-6.78195250,-6.30631449
2.29721850,2.58206677,0.32254613,-1.39334224

>  <Name>
1fmn_cryst

>  <RI>
0

>  <Rbt.Current_Directory>
/home/itssahil/PROJECTS/Mol_Feturizer/New_Systems/rnas/1fmn

>  <Rbt.Executable>
rbdock ($Id: //depot/dev/client3/rdock/2013.1/src/exe/rbdock.cxx#4 $)

>  <Rbt.Library>
libRbt.so (2013.1, Build901 2013/11/27)

>  <Rbt.Parameter_File>
/export/apps/rDock/src/rDock_2013.1_src/data/scripts/dock_solv.prm

>  <Rbt.Receptor>
prm/pocket_docking_2.prm

>  <SCORE>
-54.0722

>  <SCORE.INTER>
-48.5177

>  <SCORE.INTER.CONST>
1

>  <SCORE.INTER.POLAR>
-2.60523

>  <SCORE.INTER.ROT>
7

>  <SCORE.INTER.SOLV>
14.2498

>  <SCORE.INTER.VDW>
-36.6777

>  <SCORE.INTER.norm>
-1.56509

>  <SCORE.INTRA>
-6.24022

>  <SCORE.INTRA.DIHEDRAL>
-9.07646

>  <SCORE.INTRA.DIHEDRAL.0>
15.5708

>  <SCORE.INTRA.POLAR>
-0.201132

>  <SCORE.INTRA.POLAR.0>
-0.0677885

>  <SCORE.INTRA.REPUL>
0

>  <SCORE.INTRA.REPUL.0>
0

>  <SCORE.INTRA.SOLV>
-4.68126

>  <SCORE.INTRA.SOLV.lig_0>
-87.6316

>  <SCORE.INTRA.VDW>
1.32249

>  <SCORE.INTRA.VDW.0>
-2.87309

>  <SCORE.INTRA.norm>
-0.201297

>  <SCORE.RESTR>
0.685772

>  <SCORE.RESTR.CAVITY>
0.685772

>  <SCORE.RESTR.norm>
0.0221217

>  <SCORE.SYSTEM>
0

>  <SCORE.SYSTEM.CONST>
0

>  <SCORE.SYSTEM.DIHEDRAL>
0

>  <SCORE.SYSTEM.SOLV>
0

>  <SCORE.SYSTEM.norm>
0

>  <SCORE.heavy>
31

>  <SCORE.norm>
-1.74426

>  <SYMMETRIC_BONDS>
33 34 3

>  <RMSD>
1.322

$$$$
1fmn_cryst
 OpenBabel11021811393D
libRbt.so/2013.1/901 2013/11/27
 31 33  0  0  0  0  0  0  0  0999 V2000
   -8.8542   -6.2580    3.6414 N   0  0  0  0  0  0  0  0  0  0  0  0
   -9.6486   -6.2539    4.7641 C   0  0  0  0  0  0  0  0  0  0  0  0
   -9.3179   -6.8321    5.7998 O   0  0  0  0  0  0  0  0  0  0  0  0
  -10.8723   -5.5472    4.6512 N   0  0  0  0  0  0  0  0  0  0  0  0
  -11.3476   -4.8587    3.5136 C   0  0  0  0  0  0  0  0  0  0  0  0
  -12.4400   -4.2787    3.5530 O   0  0  0  0  0  0  0  0  0  0  0  0
  -10.4452   -4.9110    2.3611 C   0  0  0  0  0  0  0  0  0  0  0  0
  -10.8346   -4.2652    1.2142 N   0  0  0  0  0  0  0  0  0  0  0  0
  -10.0836   -4.4654    0.0923 C   0  0  0  0  0  0  0  0  0  0  0  0
  -10.5681   -3.9719   -1.1061 C   0  0  0  0  0  0  0  0  0  0  0  0
   -9.8765   -4.1329   -2.2581 C   0  0  0  0  0  0  0  0  0  0  0  0
  -10.4429   -3.5775   -3.5258 C   0  0  0  0  0  0  0  0  0  0  0  0
   -8.6848   -4.7893   -2.2585 C   0  0  0  0  0  0  0  0  0  0  0  0
   -7.9313   -4.9686   -3.5361 C   0  0  0  0  0  0  0  0  0  0  0  0
   -8.1700   -5.2899   -1.1065 C   0  0  0  0  0  0  0  0  0  0  0  0
   -8.8424   -5.1506    0.1076 C   0  0  0  0  0  0  0  0  0  0  0  0
   -8.3634   -5.6426    1.3399 N   0  0  0  0  0  0  0  0  0  0  0  0
   -9.1974   -5.6287    2.4767 C   0  0  0  0  0  0  0  0  0  0  0  0
   -6.8725   -5.6339    1.5752 C   0  0  0  0  0  0  0  0  0  0  0  0
   -6.1417   -7.0037    1.4341 C   0  0  1  0  0  0  0  0  0  0  0  0
   -5.1764   -6.9384    0.3940 O   0  0  0  0  0  0  0  0  0  0  0  0
   -5.5325   -7.5100    2.7631 C   0  0  1  0  0  0  0  0  0  0  0  0
   -6.5465   -7.6308    3.7565 O   0  0  0  0  0  0  0  0  0  0  0  0
   -4.6983   -8.8131    2.7002 C   0  0  1  0  0  0  0  0  0  0  0  0
   -3.4555   -8.5211    2.0709 O   0  0  0  0  0  0  0  0  0  0  0  0
   -4.4198   -9.4182    4.0945 C   0  0  0  0  0  0  0  0  0  0  0  0
   -4.1487   -8.4231    5.0745 O   0  0  0  0  0  0  0  0  0  0  0  0
   -3.5643   -8.7682    6.5065 P   0  0  0  0  0  0  0  0  0  0  0  0
   -2.2409   -9.4223    6.3938 O   0  0  0  0  0  0  0  0  0  0  0  0
   -3.7082   -7.6142    7.4201 O   0  5  0  0  0  0  0  0  0  0  0  0
   -4.5487   -9.8931    7.0547 O   0  5  0  0  0  0  0  0  0  0  0  0
  1 18  1  0  0  0  0
  1  2  1  0  0  0  0
  2  4  1  0  0  0  0
  2  3  2  0  0  0  0
  4  5  1  0  0  0  0
  5  7  1  0  0  0  0
  5  6  2  0  0  0  0
  7 18  2  0  0  0  0
  7  8  1  0  0  0  0
  8  9  1  0  0  0  0
  9 10  2  0  0  0  0
  9 16  1  0  0  0  0
 10 11  1  0  0  0  0
 11 12  1  0  0  0  0
 11 13  2  0  0  0  0
 13 14  1  0  0  0  0
 13 15  1  0  0  0  0
 15 16  2  0  0  0  0
 16 17  1  0  0  0  0
 17 19  1  0  0  0  0
 17 18  1  0  0  0  0
 20 19  1  1  0  0  0
 20 22  1  0  0  0  0
 20 21  1  0  0  0  0
 22 24  1  0  0  0  0
 22 23  1  1  0  0  0
 24 26  1  1  0  0  0
 24 25  1  0  0  0  0
 26 27  1  0  0  0  0
 27 28  1  0  0  0  0
 28 30  1  0  0  0  0
 28 29  2  0  0  0  0
 28 31  1  0  0  0  0
M  CHG  2  30  -1  31  -1
M  END
>  <CHROM.1>
-103.01221371,118.74204941,57.83840961,-80.40972052,73.09952517,-172.86800324
-38.83449443,-176.19102152,-168.03291430,60.74550064,-7.35667895,-6.52051516
2.57338498,2.32764236,0.43650632,-1.34928122

>  <Name>
1fmn_cryst

>  <RI>
0

>  <Rbt.Current_Directory>
/home/itssahil/PROJECTS/Mol_Feturizer/New_Systems/rnas/1fmn

>  <Rbt.Executable>
rbdock ($Id: //depot/dev/client3/rdock/2013.1/src/exe/rbdock.cxx#4 $)

>  <Rbt.Library>
libRbt.so (2013.1, Build901 2013/11/27)

>  <Rbt.Parameter_File>
/export/apps/rDock/src/rDock_2013.1_src/data/scripts/dock_solv.prm

>  <Rbt.Receptor>
prm/pocket_docking_2.prm

>  <SCORE>
-60.2115

>  <SCORE.INTER>
-53.3106

>  <SCORE.INTER.CONST>
1

>  <SCORE.INTER.POLAR>
-2.98034

>  <SCORE.INTER.ROT>
7

>  <SCORE.INTER.SOLV>
15.2953

>  <SCORE.INTER.VDW>
-38.9711

>  <SCORE.INTER.norm>
-1.7197

>  <SCORE.INTRA>
-6.90113

>  <SCORE.INTRA.DIHEDRAL>
-2.7621

>  <SCORE.INTRA.DIHEDRAL.0>
15.5708

>  <SCORE.INTRA.POLAR>
-1.53694

>  <SCORE.INTRA.POLAR.0>
-0.0677885

>  <SCORE.INTRA.REPUL>
0

>  <SCORE.INTRA.REPUL.0>
0

>  <SCORE.INTRA.SOLV>
-2.86447

>  <SCORE.INTRA.SOLV.lig_0>
-87.6316

>  <SCORE.INTRA.VDW>
1.13774

>  <SCORE.INTRA.VDW.0>
-2.87309

>  <SCORE.INTRA.norm>
-0.222617

>  <SCORE.RESTR>
0.000280204

>  <SCORE.RESTR.CAVITY>
0.000280204

>  <SCORE.RESTR.norm>
9.03884e-06

>  <SCORE.SYSTEM>
0

>  <SCORE.SYSTEM.CONST>
0

>  <SCORE.SYSTEM.DIHEDRAL>
0

>  <SCORE.SYSTEM.SOLV>
0

>  <SCORE.SYSTEM.norm>
0

>  <SCORE.heavy>
31

>  <SCORE.norm>
-1.94231

>  <SYMMETRIC_BONDS>
33 34 3

>  <RMSD>
1.327

$$$$
1fmn_cryst
 OpenBabel11021811393D
libRbt.so/2013.1/901 2013/11/27
 31 33  0  0  0  0  0  0  0  0999 V2000
   -8.8852   -6.2562    3.6427 N   0  0  0  0  0  0  0  0  0  0  0  0
   -9.6673   -6.2395    4.7739 C   0  0  0  0  0  0  0  0  0  0  0  0
   -9.3379   -6.8287    5.8039 O   0  0  0  0  0  0  0  0  0  0  0  0
  -10.8766   -5.5062    4.6770 N   0  0  0  0  0  0  0  0  0  0  0  0
  -11.3492   -4.8032    3.5471 C   0  0  0  0  0  0  0  0  0  0  0  0
  -12.4284   -4.2001    3.6005 O   0  0  0  0  0  0  0  0  0  0  0  0
  -10.4606   -4.8703    2.3847 C   0  0  0  0  0  0  0  0  0  0  0  0
  -10.8482   -4.2117    1.2444 N   0  0  0  0  0  0  0  0  0  0  0  0
  -10.1138   -4.4236    0.1138 C   0  0  0  0  0  0  0  0  0  0  0  0
  -10.6004   -3.9150   -1.0774 C   0  0  0  0  0  0  0  0  0  0  0  0
   -9.9249   -4.0864   -2.2375 C   0  0  0  0  0  0  0  0  0  0  0  0
  -10.4928   -3.5139   -3.4969 C   0  0  0  0  0  0  0  0  0  0  0  0
   -8.7476   -4.7682   -2.2532 C   0  0  0  0  0  0  0  0  0  0  0  0
   -8.0120   -4.9585   -3.5395 C   0  0  0  0  0  0  0  0  0  0  0  0
   -8.2314   -5.2842   -1.1087 C   0  0  0  0  0  0  0  0  0  0  0  0
   -8.8875   -5.1353    0.1131 C   0  0  0  0  0  0  0  0  0  0  0  0
   -8.4061   -5.6423    1.3383 N   0  0  0  0  0  0  0  0  0  0  0  0
   -9.2273   -5.6150    2.4841 C   0  0  0  0  0  0  0  0  0  0  0  0
   -6.9128   -5.6666    1.5575 C   0  0  0  0  0  0  0  0  0  0  0  0
   -6.1895   -7.0119    1.2457 C   0  0  1  0  0  0  0  0  0  0  0  0
   -5.1215   -6.7936    0.3349 O   0  0  0  0  0  0  0  0  0  0  0  0
   -5.7268   -7.7645    2.5160 C   0  0  1  0  0  0  0  0  0  0  0  0
   -6.8087   -7.8954    3.4336 O   0  0  0  0  0  0  0  0  0  0  0  0
   -5.0438   -9.1384    2.3069 C   0  0  1  0  0  0  0  0  0  0  0  0
   -4.0133   -8.9850    1.3371 O   0  0  0  0  0  0  0  0  0  0  0  0
   -4.4257   -9.7078    3.6036 C   0  0  0  0  0  0  0  0  0  0  0  0
   -3.4770   -8.8228    4.1874 O   0  0  0  0  0  0  0  0  0  0  0  0
   -2.6674   -9.1811    5.5018 P   0  0  0  0  0  0  0  0  0  0  0  0
   -1.7036   -8.1087    5.8378 O   0  0  0  0  0  0  0  0  0  0  0  0
   -3.5790   -9.6703    6.5585 O   0  5  0  0  0  0  0  0  0  0  0  0
   -1.7795  -10.4299    5.0693 O   0  5  0  0  0  0  0  0  0  0  0  0
  1 18  1  0  0  0  0
  1  2  1  0  0  0  0
  2  4  1  0  0  0  0
  2  3  2  0  0  0  0
  4  5  1  0  0  0  0
  5  7  1  0  0  0  0
  5  6  2  0  0  0  0
  7 18  2  0  0  0  0
  7  8  1  0  0  0  0
  8  9  1  0  0  0  0
  9 10  2  0  0  0  0
  9 16  1  0  0  0  0
 10 11  1  0  0  0  0
 11 12  1  0  0  0  0
 11 13  2  0  0  0  0
 13 14  1  0  0  0  0
 13 15  1  0  0  0  0
 15 16  2  0  0  0  0
 16 17  1  0  0  0  0
 17 19  1  0  0  0  0
 17 18  1  0  0  0  0
 20 19  1  1  0  0  0
 20 22  1  0  0  0  0
 20 21  1  0  0  0  0
 22 24  1  0  0  0  0
 22 23  1  1  0  0  0
 24 26  1  1  0  0  0
 24 25  1  0  0  0  0
 26 27  1  0  0  0  0
 27 28  1  0  0  0  0
 28 30  1  0  0  0  0
 28 29  2  0  0  0  0
 28 31  1  0  0  0  0
M  CHG  2  30  -1  31  -1
M  END
>  <CHROM.1>
-96.27431305,126.07025565,51.34456412,-91.37095025,50.50100264,-177.27033893
-57.11025204,60.02739976,-178.29006959,177.00126454,-7.21493722,-6.63628395
2.28322518,2.48898923,0.45975594,-1.33788719

>  <Name>
1fmn_cryst

>  <RI>
0

>  <Rbt.Current_Directory>
/home/itssahil/PROJECTS/Mol_Feturizer/New_Systems/rnas/1fmn

>  <Rbt.Executable>
rbdock ($Id: //depot/dev/client3/rdock/2013.1/src/exe/rbdock.cxx#4 $)

>  <Rbt.Library>
libRbt.so (2013.1, Build901 2013/11/27)

>  <Rbt.Parameter_File>
/export/apps/rDock/src/rDock_2013.1_src/data/scripts/dock_solv.prm

>  <Rbt.Receptor>
prm/pocket_docking_6.prm

>  <SCORE>
-60.5818

>  <SCORE.INTER>
-54.4223

>  <SCORE.INTER.CONST>
1

>  <SCORE.INTER.POLAR>
-2.97104

>  <SCORE.INTER.ROT>
7

>  <SCORE.INTER.SOLV>
15.8245

>  <SCORE.INTER.VDW>
-39.9196

>  <SCORE.INTER.norm>
-1.75556

>  <SCORE.INTRA>
-6.15954

>  <SCORE.INTRA.DIHEDRAL>
-3.35962

>  <SCORE.INTRA.DIHEDRAL.0>
15.5708

>  <SCORE.INTRA.POLAR>
-0.932211

>  <SCORE.INTRA.POLAR.0>
-0.0677885

>  <SCORE.INTRA.REPUL>
0

>  <SCORE.INTRA.REPUL.0>
0

>  <SCORE.INTRA.SOLV>
-3.25653

>  <SCORE.INTRA.SOLV.lig_0>
-87.6316

>  <SCORE.INTRA.VDW>
0.31806

>  <SCORE.INTRA.VDW.0>
-2.87309

>  <SCORE.INTRA.norm>
-0.198695

>  <SCORE.RESTR>
0

>  <SCORE.RESTR.CAVITY>
0

>  <SCORE.RESTR.norm>
0

>  <SCORE.SYSTEM>
0

>  <SCORE.SYSTEM.CONST>
0

>  <SCORE.SYSTEM.DIHEDRAL>
0

>  <SCORE.SYSTEM.SOLV>
0

>  <SCORE.SYSTEM.norm>
0

>  <SCORE.heavy>
31

>  <SCORE.norm>
-1.95425

>  <SYMMETRIC_BONDS>
33 34 3

>  <RMSD>
1.333

$$$$
1fmn_cryst
 OpenBabel11021811393D
libRbt.so/2013.1/901 2013/11/27
 31 33  0  0  0  0  0  0  0  0999 V2000
   -8.7100   -6.1852    3.6557 N   0  0  0  0  0  0  0  0  0  0  0  0
   -9.5621   -6.2011    4.7352 C   0  0  0  0  0  0  0  0  0  0  0  0
   -9.2454   -6.7135    5.8093 O   0  0  0  0  0  0  0  0  0  0  0  0
  -10.8274   -5.5955    4.5311 N   0  0  0  0  0  0  0  0  0  0  0  0
  -11.2908   -4.9881    3.3434 C   0  0  0  0  0  0  0  0  0  0  0  0
  -12.4242   -4.4930    3.3032 O   0  0  0  0  0  0  0  0  0  0  0  0
  -10.3260   -5.0130    2.2417 C   0  0  0  0  0  0  0  0  0  0  0  0
  -10.7001   -4.4418    1.0509 N   0  0  0  0  0  0  0  0  0  0  0  0
   -9.8766   -4.6247   -0.0219 C   0  0  0  0  0  0  0  0  0  0  0  0
  -10.3311   -4.2145   -1.2627 C   0  0  0  0  0  0  0  0  0  0  0  0
   -9.5681   -4.3640   -2.3703 C   0  0  0  0  0  0  0  0  0  0  0  0
  -10.1051   -3.9010   -3.6869 C   0  0  0  0  0  0  0  0  0  0  0  0
   -8.3322   -4.9261   -2.2829 C   0  0  0  0  0  0  0  0  0  0  0  0
   -7.4993   -5.0937   -3.5118 C   0  0  0  0  0  0  0  0  0  0  0  0
   -7.8444   -5.3428   -1.0865 C   0  0  0  0  0  0  0  0  0  0  0  0
   -8.5900   -5.2111    0.0849 C   0  0  0  0  0  0  0  0  0  0  0  0
   -8.1429   -5.6190    1.3591 N   0  0  0  0  0  0  0  0  0  0  0  0
   -9.0359   -5.6276    2.4502 C   0  0  0  0  0  0  0  0  0  0  0  0
   -6.6717   -5.4867    1.6698 C   0  0  0  0  0  0  0  0  0  0  0  0
   -5.7333   -6.5639    1.0462 C   0  0  1  0  0  0  0  0  0  0  0  0
   -4.4038   -6.0694    0.9695 O   0  0  0  0  0  0  0  0  0  0  0  0
   -5.8058   -7.9294    1.7704 C   0  0  1  0  0  0  0  0  0  0  0  0
   -5.0671   -8.9106    1.0485 O   0  0  0  0  0  0  0  0  0  0  0  0
   -5.3956   -7.9535    3.2634 C   0  0  1  0  0  0  0  0  0  0  0  0
   -6.5629   -7.7552    4.0533 O   0  0  0  0  0  0  0  0  0  0  0  0
   -4.7304   -9.2832    3.6841 C   0  0  0  0  0  0  0  0  0  0  0  0
   -4.4759   -9.3450    5.0825 O   0  0  0  0  0  0  0  0  0  0  0  0
   -3.5838  -10.4769    5.7414 P   0  0  0  0  0  0  0  0  0  0  0  0
   -3.7391  -10.4822    7.2138 O   0  0  0  0  0  0  0  0  0  0  0  0
   -3.7354  -11.7526    5.0090 O   0  5  0  0  0  0  0  0  0  0  0  0
   -2.0931   -9.9862    5.4734 O   0  5  0  0  0  0  0  0  0  0  0  0
  1 18  1  0  0  0  0
  1  2  1  0  0  0  0
  2  4  1  0  0  0  0
  2  3  2  0  0  0  0
  4  5  1  0  0  0  0
  5  7  1  0  0  0  0
  5  6  2  0  0  0  0
  7 18  2  0  0  0  0
  7  8  1  0  0  0  0
  8  9  1  0  0  0  0
  9 10  2  0  0  0  0
  9 16  1  0  0  0  0
 10 11  1  0  0  0  0
 11 12  1  0  0  0  0
 11 13  2  0  0  0  0
 13 14  1  0  0  0  0
 13 15  1  0  0  0  0
 15 16  2  0  0  0  0
 16 17  1  0  0  0  0
 17 19  1  0  0  0  0
 17 18  1  0  0  0  0
 20 19  1  1  0  0  0
 20 22  1  0  0  0  0
 20 21  1  0  0  0  0
 22 24  1  0  0  0  0
 22 23  1  6  0  0  0
 24 26  1  1  0  0  0
 24 25  1  0  0  0  0
 26 27  1  0  0  0  0
 27 28  1  0  0  0  0
 28 30  1  0  0  0  0
 28 29  2  0  0  0  0
 28 31  1  0  0  0  0
M  CHG  2  30  -1  31  -1
M  END
>  <CHROM.1>
-76.91460168,157.76267556,172.26696667,-55.11580597,92.18900822,-82.52346413
-174.29120888,-173.93368824,-169.19341629,-167.04306965,-7.28740147,-6.85456135
2.33007109,2.32547332,0.50885070,-1.24571296

>  <Name>
1fmn_cryst

>  <RI>
0

>  <Rbt.Current_Directory>
/home/itssahil/PROJECTS/Mol_Feturizer/New_Systems/rnas/1fmn

>  <Rbt.Executable>
rbdock ($Id: //depot/dev/client3/rdock/2013.1/src/exe/rbdock.cxx#4 $)

>  <Rbt.Library>
libRbt.so (2013.1, Build901 2013/11/27)

>  <Rbt.Parameter_File>
/export/apps/rDock/src/rDock_2013.1_src/data/scripts/dock_solv.prm

>  <Rbt.Receptor>
prm/pocket_docking_5.prm

>  <SCORE>
-64.2708

>  <SCORE.INTER>
-57.5417

>  <SCORE.INTER.CONST>
1

>  <SCORE.INTER.POLAR>
-3.58589

>  <SCORE.INTER.ROT>
7

>  <SCORE.INTER.SOLV>
19.9946

>  <SCORE.INTER.VDW>
-41.3397

>  <SCORE.INTER.norm>
-1.85619

>  <SCORE.INTRA>
-6.72908

>  <SCORE.INTRA.DIHEDRAL>
-5.07448

>  <SCORE.INTRA.DIHEDRAL.0>
15.5708

>  <SCORE.INTRA.POLAR>
-0.932211

>  <SCORE.INTRA.POLAR.0>
-0.0677885

>  <SCORE.INTRA.REPUL>
0

>  <SCORE.INTRA.REPUL.0>
0

>  <SCORE.INTRA.SOLV>
-3.66497

>  <SCORE.INTRA.SOLV.lig_0>
-87.6316

>  <SCORE.INTRA.VDW>
0.81017

>  <SCORE.INTRA.VDW.0>
-2.87309

>  <SCORE.INTRA.norm>
-0.217067

>  <SCORE.RESTR>
0

>  <SCORE.RESTR.CAVITY>
0

>  <SCORE.RESTR.norm>
0

>  <SCORE.SYSTEM>
0

>  <SCORE.SYSTEM.CONST>
0

>  <SCORE.SYSTEM.DIHEDRAL>
0

>  <SCORE.SYSTEM.SOLV>
0

>  <SCORE.SYSTEM.norm>
0

>  <SCORE.heavy>
31

>  <SCORE.norm>
-2.07325

>  <SYMMETRIC_BONDS>
33 34 3

>  <RMSD>
1.361

$$$$
1fmn_cryst
 OpenBabel11021811393D
libRbt.so/2013.1/901 2013/11/27
 31 33  0  0  0  0  0  0  0  0999 V2000
   -8.9250   -6.1324    3.6398 N   0  0  0  0  0  0  0  0  0  0  0  0
   -9.7970   -6.0818    4.7022 C   0  0  0  0  0  0  0  0  0  0  0  0
   -9.5412   -6.6148    5.7825 O   0  0  0  0  0  0  0  0  0  0  0  0
  -11.0086   -5.3827    4.4730 N   0  0  0  0  0  0  0  0  0  0  0  0
  -11.4012   -4.7441    3.2762 C   0  0  0  0  0  0  0  0  0  0  0  0
  -12.4929   -4.1648    3.2134 O   0  0  0  0  0  0  0  0  0  0  0  0
  -10.4195   -4.8438    2.1938 C   0  0  0  0  0  0  0  0  0  0  0  0
  -10.7258   -4.2481    0.9957 N   0  0  0  0  0  0  0  0  0  0  0  0
   -9.8975   -4.4946   -0.0606 C   0  0  0  0  0  0  0  0  0  0  0  0
  -10.2952   -4.0534   -1.3102 C   0  0  0  0  0  0  0  0  0  0  0  0
   -9.5240   -4.2621   -2.4024 C   0  0  0  0  0  0  0  0  0  0  0  0
   -9.9984   -3.7621   -3.7296 C   0  0  0  0  0  0  0  0  0  0  0  0
   -8.3361   -4.9159   -2.2904 C   0  0  0  0  0  0  0  0  0  0  0  0
   -7.4942   -5.1481   -3.5026 C   0  0  0  0  0  0  0  0  0  0  0  0
   -7.9048   -5.3661   -1.0845 C   0  0  0  0  0  0  0  0  0  0  0  0
   -8.6614   -5.1764    0.0718 C   0  0  0  0  0  0  0  0  0  0  0  0
   -8.2716   -5.6146    1.3548 N   0  0  0  0  0  0  0  0  0  0  0  0
   -9.1840   -5.5538    2.4280 C   0  0  0  0  0  0  0  0  0  0  0  0
   -6.8010   -5.5934    1.6945 C   0  0  0  0  0  0  0  0  0  0  0  0
   -6.0475   -6.9542    1.5923 C   0  0  1  0  0  0  0  0  0  0  0  0
   -5.4881   -7.1076    0.2956 O   0  0  0  0  0  0  0  0  0  0  0  0
   -4.9944   -7.1539    2.7082 C   0  0  1  0  0  0  0  0  0  0  0  0
   -3.9678   -6.1723    2.5992 O   0  0  0  0  0  0  0  0  0  0  0  0
   -5.5182   -7.2096    4.1644 C   0  0  1  0  0  0  0  0  0  0  0  0
   -6.6034   -8.1291    4.2168 O   0  0  0  0  0  0  0  0  0  0  0  0
   -4.4390   -7.6556    5.1763 C   0  0  0  0  0  0  0  0  0  0  0  0
   -3.9071   -8.9398    4.8728 O   0  0  0  0  0  0  0  0  0  0  0  0
   -2.8035   -9.6427    5.7667 P   0  0  0  0  0  0  0  0  0  0  0  0
   -1.5942   -8.7956    5.8770 O   0  0  0  0  0  0  0  0  0  0  0  0
   -3.4033  -10.1850    7.0049 O   0  5  0  0  0  0  0  0  0  0  0  0
   -2.3617  -10.9026    4.8994 O   0  5  0  0  0  0  0  0  0  0  0  0
  1 18  1  0  0  0  0
  1  2  1  0  0  0  0
  2  4  1  0  0  0  0
  2  3  2  0  0  0  0
  4  5  1  0  0  0  0
  5  7  1  0  0  0  0
  5  6  2  0  0  0  0
  7 18  2  0  0  0  0
  7  8  1  0  0  0  0
  8  9  1  0  0  0  0
  9 10  2  0  0  0  0
  9 16  1  0  0  0  0
 10 11  1  0  0  0  0
 11 12  1  0  0  0  0
 11 13  2  0  0  0  0
 13 14  1  0  0  0  0
 13 15  1  0  0  0  0
 15 16  2  0  0  0  0
 16 17  1  0  0  0  0
 17 19  1  0  0  0  0
 17 18  1  0  0  0  0
 20 19  1  6  0  0  0
 20 22  1  0  0  0  0
 20 21  1  0  0  0  0
 22 24  1  0  0  0  0
 22 23  1  1  0  0  0
 24 26  1  1  0  0  0
 24 25  1  0  0  0  0
 26 27  1  0  0  0  0
 27 28  1  0  0  0  0
 28 30  1  0  0  0  0
 28 29  2  0  0  0  0
 28 31  1  0  0  0  0
M  CHG  2  30  -1  31  -1
M  END
>  <CHROM.1>
-99.95416206,91.62341003,-63.48835005,58.19449071,49.28720264,-62.79044899
-58.58177293,60.77025604,-178.90501165,-57.70474319,-7.16313147,-6.51492000
2.46081926,2.38611644,0.41421909,-1.29535535

>  <Name>
1fmn_cryst

>  <RI>
0

>  <Rbt.Current_Directory>
/home/itssahil/PROJECTS/Mol_Feturizer/New_Systems/rnas/1fmn

>  <Rbt.Executable>
rbdock ($Id: //depot/dev/client3/rdock/2013.1/src/exe/rbdock.cxx#4 $)

>  <Rbt.Library>
libRbt.so (2013.1, Build901 2013/11/27)

>  <Rbt.Parameter_File>
/export/apps/rDock/src/rDock_2013.1_src/data/scripts/dock_solv.prm

>  <Rbt.Receptor>
prm/pocket_docking_6.prm

>  <SCORE>
-57.7117

>  <SCORE.INTER>
-47.6371

>  <SCORE.INTER.CONST>
1

>  <SCORE.INTER.POLAR>
-2.13216

>  <SCORE.INTER.ROT>
7

>  <SCORE.INTER.SOLV>
15.0043

>  <SCORE.INTER.VDW>
-37.919

>  <SCORE.INTER.norm>
-1.53668

>  <SCORE.INTRA>
-10.0746

>  <SCORE.INTRA.DIHEDRAL>
-9.30483

>  <SCORE.INTRA.DIHEDRAL.0>
15.5708

>  <SCORE.INTRA.POLAR>
-0.932211

>  <SCORE.INTRA.POLAR.0>
-0.0677885

>  <SCORE.INTRA.REPUL>
0

>  <SCORE.INTRA.REPUL.0>
0

>  <SCORE.INTRA.SOLV>
-3.95346

>  <SCORE.INTRA.SOLV.lig_0>
-87.6316

>  <SCORE.INTRA.VDW>
-0.275926

>  <SCORE.INTRA.VDW.0>
-2.87309

>  <SCORE.INTRA.norm>
-0.324987

>  <SCORE.RESTR>
0

>  <SCORE.RESTR.CAVITY>
0

>  <SCORE.RESTR.norm>
0

>  <SCORE.SYSTEM>
0

>  <SCORE.SYSTEM.CONST>
0

>  <SCORE.SYSTEM.DIHEDRAL>
0

>  <SCORE.SYSTEM.SOLV>
0

>  <SCORE.SYSTEM.norm>
0

>  <SCORE.heavy>
31

>  <SCORE.norm>
-1.86167

>  <SYMMETRIC_BONDS>
33 34 3

>  <RMSD>
1.370

$$$$
1fmn_cryst
 OpenBabel11021811393D
libRbt.so/2013.1/901 2013/11/27
 31 33  0  0  0  0  0  0  0  0999 V2000
   -8.8284   -6.0092    3.3723 N   0  0  0  0  0  0  0  0  0  0  0  0
   -9.5014   -6.0940    4.5687 C   0  0  0  0  0  0  0  0  0  0  0  0
   -9.0143   -6.6501    5.5536 O   0  0  0  0  0  0  0  0  0  0  0  0
  -10.7909   -5.5058    4.5941 N   0  0  0  0  0  0  0  0  0  0  0  0
  -11.4418   -4.8525    3.5247 C   0  0  0  0  0  0  0  0  0  0  0  0
  -12.5740   -4.3797    3.6856 O   0  0  0  0  0  0  0  0  0  0  0  0
  -10.6605   -4.8051    2.2867 C   0  0  0  0  0  0  0  0  0  0  0  0
  -11.2232   -4.1859    1.1986 N   0  0  0  0  0  0  0  0  0  0  0  0
  -10.5748   -4.3005    0.0031 C   0  0  0  0  0  0  0  0  0  0  0  0
  -11.2227   -3.8414   -1.1299 C   0  0  0  0  0  0  0  0  0  0  0  0
  -10.6400   -3.9224   -2.3486 C   0  0  0  0  0  0  0  0  0  0  0  0
  -11.3818   -3.4086   -3.5411 C   0  0  0  0  0  0  0  0  0  0  0  0
   -9.3983   -4.4622   -2.4823 C   0  0  0  0  0  0  0  0  0  0  0  0
   -8.7652   -4.5539   -3.8325 C   0  0  0  0  0  0  0  0  0  0  0  0
   -8.7244   -4.9249   -1.3986 C   0  0  0  0  0  0  0  0  0  0  0  0
   -9.2798   -4.8645   -0.1205 C   0  0  0  0  0  0  0  0  0  0  0  0
   -8.6341   -5.3230    1.0468 N   0  0  0  0  0  0  0  0  0  0  0  0
   -9.3457   -5.4019    2.2614 C   0  0  0  0  0  0  0  0  0  0  0  0
   -7.1343   -5.1750    1.1317 C   0  0  0  0  0  0  0  0  0  0  0  0
   -6.2890   -6.3123    0.4818 C   0  0  1  0  0  0  0  0  0  0  0  0
   -5.7287   -5.8657   -0.7448 O   0  0  0  0  0  0  0  0  0  0  0  0
   -5.2173   -6.8958    1.4332 C   0  0  1  0  0  0  0  0  0  0  0  0
   -3.9891   -6.1891    1.2857 O   0  0  0  0  0  0  0  0  0  0  0  0
   -5.5910   -6.9959    2.9326 C   0  0  1  0  0  0  0  0  0  0  0  0
   -6.6059   -7.9833    3.0778 O   0  0  0  0  0  0  0  0  0  0  0  0
   -4.3918   -7.3799    3.8282 C   0  0  0  0  0  0  0  0  0  0  0  0
   -4.6875   -7.2571    5.2144 O   0  0  0  0  0  0  0  0  0  0  0  0
   -3.7721   -7.8868    6.3444 P   0  0  0  0  0  0  0  0  0  0  0  0
   -4.4897   -7.9381    7.6385 O   0  0  0  0  0  0  0  0  0  0  0  0
   -3.1083   -9.1139    5.8539 O   0  5  0  0  0  0  0  0  0  0  0  0
   -2.6187   -6.8071    6.5409 O   0  5  0  0  0  0  0  0  0  0  0  0
  1 18  1  0  0  0  0
  1  2  1  0  0  0  0
  2  4  1  0  0  0  0
  2  3  2  0  0  0  0
  4  5  1  0  0  0  0
  5  7  1  0  0  0  0
  5  6  2  0  0  0  0
  7 18  2  0  0  0  0
  7  8  1  0  0  0  0
  8  9  1  0  0  0  0
  9 10  2  0  0  0  0
  9 16  1  0  0  0  0
 10 11  1  0  0  0  0
 11 12  1  0  0  0  0
 11 13  2  0  0  0  0
 13 14  1  0  0  0  0
 13 15  1  0  0  0  0
 15 16  2  0  0  0  0
 16 17  1  0  0  0  0
 17 19  1  0  0  0  0
 17 18  1  0  0  0  0
 20 19  1  1  0  0  0
 20 22  1  0  0  0  0
 20 21  1  0  0  0  0
 22 24  1  0  0  0  0
 22 23  1  1  0  0  0
 24 26  1  1  0  0  0
 24 25  1  0  0  0  0
 26 27  1  0  0  0  0
 27 28  1  0  0  0  0
 28 30  1  0  0  0  0
 28 29  2  0  0  0  0
 28 31  1  0  0  0  0
M  CHG  2  30  -1  31  -1
M  END
>  <CHROM.1>
-85.06873811,105.24855861,-90.81217926,-158.52951206,68.33217272,-60.64754118
170.39514893,64.86814783,165.81541305,-164.24404041,-7.62527683,-5.93668162
2.28469538,0.83785649,-0.30427206,1.77755902

>  <Name>
1fmn_cryst

>  <RI>
0

>  <Rbt.Current_Directory>
/home/itssahil/PROJECTS/Mol_Feturizer/New_Systems/rnas/1fmn

>  <Rbt.Executable>
rbdock ($Id: //depot/dev/client3/rdock/2013.1/src/exe/rbdock.cxx#4 $)

>  <Rbt.Library>
libRbt.so (2013.1, Build901 2013/11/27)

>  <Rbt.Parameter_File>
/export/apps/rDock/src/rDock_2013.1_src/data/scripts/dock_solv.prm

>  <Rbt.Receptor>
prm/pocket_docking_2.prm

>  <SCORE>
-55.4225

>  <SCORE.INTER>
-50.9104

>  <SCORE.INTER.CONST>
1

>  <SCORE.INTER.POLAR>
-3.03941

>  <SCORE.INTER.ROT>
7

>  <SCORE.INTER.SOLV>
17.09

>  <SCORE.INTER.VDW>
-37.7723

>  <SCORE.INTER.norm>
-1.64227

>  <SCORE.INTRA>
-4.96066

>  <SCORE.INTRA.DIHEDRAL>
-1.67514

>  <SCORE.INTRA.DIHEDRAL.0>
15.5708

>  <SCORE.INTRA.POLAR>
-0.932211

>  <SCORE.INTRA.POLAR.0>
-0.0677885

>  <SCORE.INTRA.REPUL>
0

>  <SCORE.INTRA.REPUL.0>
0

>  <SCORE.INTRA.SOLV>
-3.5436

>  <SCORE.INTRA.SOLV.lig_0>
-87.6316

>  <SCORE.INTRA.VDW>
0.818231

>  <SCORE.INTRA.VDW.0>
-2.87309

>  <SCORE.INTRA.norm>
-0.160021

>  <SCORE.RESTR>
0.448609

>  <SCORE.RESTR.CAVITY>
0.448609

>  <SCORE.RESTR.norm>
0.0144713

>  <SCORE.SYSTEM>
0

>  <SCORE.SYSTEM.CONST>
0

>  <SCORE.SYSTEM.DIHEDRAL>
0

>  <SCORE.SYSTEM.SOLV>
0

>  <SCORE.SYSTEM.norm>
0

>  <SCORE.heavy>
31

>  <SCORE.norm>
-1.78782

>  <SYMMETRIC_BONDS>
33 34 3

>  <RMSD>
1.377

$$$$
1fmn_cryst
 OpenBabel11021811393D
libRbt.so/2013.1/901 2013/11/27
 31 33  0  0  0  0  0  0  0  0999 V2000
   -8.7502   -6.1641    3.5015 N   0  0  0  0  0  0  0  0  0  0  0  0
   -9.5068   -6.2350    4.6478 C   0  0  0  0  0  0  0  0  0  0  0  0
   -9.0968   -6.7908    5.6673 O   0  0  0  0  0  0  0  0  0  0  0  0
  -10.7883   -5.6328    4.5792 N   0  0  0  0  0  0  0  0  0  0  0  0
  -11.3547   -4.9784    3.4634 C   0  0  0  0  0  0  0  0  0  0  0  0
  -12.4901   -4.4925    3.5417 O   0  0  0  0  0  0  0  0  0  0  0  0
  -10.4875   -4.9463    2.2835 C   0  0  0  0  0  0  0  0  0  0  0  0
  -10.9651   -4.3271    1.1554 N   0  0  0  0  0  0  0  0  0  0  0  0
  -10.2352   -4.4554    0.0093 C   0  0  0  0  0  0  0  0  0  0  0  0
  -10.7964   -3.9956   -1.1689 C   0  0  0  0  0  0  0  0  0  0  0  0
  -10.1300   -4.0895   -2.3430 C   0  0  0  0  0  0  0  0  0  0  0  0
  -10.7800   -3.5744   -3.5873 C   0  0  0  0  0  0  0  0  0  0  0  0
   -8.8880   -4.6435   -2.3860 C   0  0  0  0  0  0  0  0  0  0  0  0
   -8.1623   -4.7495   -3.6877 C   0  0  0  0  0  0  0  0  0  0  0  0
   -8.2975   -5.1074   -1.2552 C   0  0  0  0  0  0  0  0  0  0  0  0
   -8.9411   -5.0339   -0.0199 C   0  0  0  0  0  0  0  0  0  0  0  0
   -8.3845   -5.4929    1.1923 N   0  0  0  0  0  0  0  0  0  0  0  0
   -9.1810   -5.5574    2.3540 C   0  0  0  0  0  0  0  0  0  0  0  0
   -6.8929   -5.3607    1.3823 C   0  0  0  0  0  0  0  0  0  0  0  0
   -6.0154   -6.5017    0.7838 C   0  0  1  0  0  0  0  0  0  0  0  0
   -5.2978   -6.0259   -0.3460 O   0  0  0  0  0  0  0  0  0  0  0  0
   -5.0855   -7.1670    1.8263 C   0  0  1  0  0  0  0  0  0  0  0  0
   -5.1454   -8.5853    1.7071 O   0  0  0  0  0  0  0  0  0  0  0  0
   -3.6087   -6.7016    1.8463 C   0  0  1  0  0  0  0  0  0  0  0  0
   -3.5756   -5.3008    1.5959 O   0  0  0  0  0  0  0  0  0  0  0  0
   -2.9065   -6.9827    3.1937 C   0  0  0  0  0  0  0  0  0  0  0  0
   -3.0101   -8.3462    3.5864 O   0  0  0  0  0  0  0  0  0  0  0  0
   -2.5770   -8.8593    5.0218 P   0  0  0  0  0  0  0  0  0  0  0  0
   -3.0393   -7.9295    6.0773 O   0  0  0  0  0  0  0  0  0  0  0  0
   -2.8703  -10.3011    5.1704 O   0  5  0  0  0  0  0  0  0  0  0  0
   -0.9903   -8.7289    5.0062 O   0  5  0  0  0  0  0  0  0  0  0  0
  1 18  1  0  0  0  0
  1  2  1  0  0  0  0
  2  4  1  0  0  0  0
  2  3  2  0  0  0  0
  4  5  1  0  0  0  0
  5  7  1  0  0  0  0
  5  6  2  0  0  0  0
  7 18  2  0  0  0  0
  7  8  1  0  0  0  0
  8  9  1  0  0  0  0
  9 10  2  0  0  0  0
  9 16  1  0  0  0  0
 10 11  1  0  0  0  0
 11 12  1  0  0  0  0
 11 13  2  0  0  0  0
 13 14  1  0  0  0  0
 13 15  1  0  0  0  0
 15 16  2  0  0  0  0
 16 17  1  0  0  0  0
 17 19  1  0  0  0  0
 17 18  1  0  0  0  0
 20 19  1  1  0  0  0
 20 22  1  0  0  0  0
 20 21  1  0  0  0  0
 22 24  1  0  0  0  0
 22 23  1  6  0  0  0
 24 26  1  1  0  0  0
 24 25  1  0  0  0  0
 26 27  1  0  0  0  0
 27 28  1  0  0  0  0
 28 30  1  0  0  0  0
 28 29  2  0  0  0  0
 28 31  1  0  0  0  0
M  CHG  2  30  -1  31  -1
M  END
>  <CHROM.1>
-84.34162964,109.12088243,134.16317207,-149.83470277,37.57854150,-176.49212861
53.77129632,-65.17477045,-170.32492371,42.95030067,-7.02464787,-6.22348383
1.97986152,2.52754670,0.32263713,-1.29273042

>  <Name>
1fmn_cryst

>  <RI>
0

>  <Rbt.Current_Directory>
/home/itssahil/PROJECTS/Mol_Feturizer/New_Systems/rnas/1fmn

>  <Rbt.Executable>
rbdock ($Id: //depot/dev/client3/rdock/2013.1/src/exe/rbdock.cxx#4 $)

>  <Rbt.Library>
libRbt.so (2013.1, Build901 2013/11/27)

>  <Rbt.Parameter_File>
/export/apps/rDock/src/rDock_2013.1_src/data/scripts/dock_solv.prm

>  <Rbt.Receptor>
prm/pocket_docking_2.prm

>  <SCORE>
-59.1056

>  <SCORE.INTER>
-54.5472

>  <SCORE.INTER.CONST>
1

>  <SCORE.INTER.POLAR>
-3.56957

>  <SCORE.INTER.ROT>
7

>  <SCORE.INTER.SOLV>
16.3253

>  <SCORE.INTER.VDW>
-38.1746

>  <SCORE.INTER.norm>
-1.75959

>  <SCORE.INTRA>
-4.80447

>  <SCORE.INTRA.DIHEDRAL>
2.16627

>  <SCORE.INTRA.DIHEDRAL.0>
15.5708

>  <SCORE.INTRA.POLAR>
-1.21344

>  <SCORE.INTRA.POLAR.0>
-0.0677885

>  <SCORE.INTRA.REPUL>
0

>  <SCORE.INTRA.REPUL.0>
0

>  <SCORE.INTRA.SOLV>
-3.91897

>  <SCORE.INTRA.SOLV.lig_0>
-87.6316

>  <SCORE.INTRA.VDW>
0.197569

>  <SCORE.INTRA.VDW.0>
-2.87309

>  <SCORE.INTRA.norm>
-0.154983

>  <SCORE.RESTR>
0.246001

>  <SCORE.RESTR.CAVITY>
0.246001

>  <SCORE.RESTR.norm>
0.00793551

>  <SCORE.SYSTEM>
0

>  <SCORE.SYSTEM.CONST>
0

>  <SCORE.SYSTEM.DIHEDRAL>
0

>  <SCORE.SYSTEM.SOLV>
0

>  <SCORE.SYSTEM.norm>
0

>  <SCORE.heavy>
31

>  <SCORE.norm>
-1.90663

>  <SYMMETRIC_BONDS>
33 34 3

>  <RMSD>
1.379

$$$$
1fmn_cryst
 OpenBabel11021811393D
libRbt.so/2013.1/901 2013/11/27
 31 33  0  0  0  0  0  0  0  0999 V2000
   -8.8937   -6.2436    3.5134 N   0  0  0  0  0  0  0  0  0  0  0  0
   -9.6618   -6.2600    4.6542 C   0  0  0  0  0  0  0  0  0  0  0  0
   -9.3033   -6.8499    5.6740 O   0  0  0  0  0  0  0  0  0  0  0  0
  -10.8923   -5.5601    4.5795 N   0  0  0  0  0  0  0  0  0  0  0  0
  -11.3983   -4.8595    3.4627 C   0  0  0  0  0  0  0  0  0  0  0  0
  -12.4932   -4.2874    3.5354 O   0  0  0  0  0  0  0  0  0  0  0  0
  -10.5228   -4.8902    2.2890 C   0  0  0  0  0  0  0  0  0  0  0  0
  -10.9429   -4.2315    1.1603 N   0  0  0  0  0  0  0  0  0  0  0  0
  -10.2170   -4.4115    0.0187 C   0  0  0  0  0  0  0  0  0  0  0  0
  -10.7324   -3.9051   -1.1613 C   0  0  0  0  0  0  0  0  0  0  0  0
  -10.0669   -4.0459   -2.3312 C   0  0  0  0  0  0  0  0  0  0  0  0
  -10.6662   -3.4772   -3.5777 C   0  0  0  0  0  0  0  0  0  0  0  0
   -8.8713   -4.6943   -2.3682 C   0  0  0  0  0  0  0  0  0  0  0  0
   -8.1467   -4.8512   -3.6653 C   0  0  0  0  0  0  0  0  0  0  0  0
   -8.3266   -5.2069   -1.2354 C   0  0  0  0  0  0  0  0  0  0  0  0
   -8.9714   -5.0885   -0.0042 C   0  0  0  0  0  0  0  0  0  0  0  0
   -8.4607   -5.5939    1.2098 N   0  0  0  0  0  0  0  0  0  0  0  0
   -9.2681   -5.6009    2.3657 C   0  0  0  0  0  0  0  0  0  0  0  0
   -6.9647   -5.5784    1.4105 C   0  0  0  0  0  0  0  0  0  0  0  0
   -6.1618   -6.7210    0.7177 C   0  0  1  0  0  0  0  0  0  0  0  0
   -5.2408   -6.1752   -0.2160 O   0  0  0  0  0  0  0  0  0  0  0  0
   -5.4758   -7.6793    1.7202 C   0  0  1  0  0  0  0  0  0  0  0  0
   -6.0605   -8.9760    1.6423 O   0  0  0  0  0  0  0  0  0  0  0  0
   -3.9334   -7.7908    1.6398 C   0  0  1  0  0  0  0  0  0  0  0  0
   -3.3905   -6.4766    1.5774 O   0  0  0  0  0  0  0  0  0  0  0  0
   -3.3184   -8.5260    2.8518 C   0  0  0  0  0  0  0  0  0  0  0  0
   -1.8983   -8.4430    2.8744 O   0  0  0  0  0  0  0  0  0  0  0  0
   -1.0317   -8.9262    4.1101 P   0  0  0  0  0  0  0  0  0  0  0  0
   -1.3397  -10.3329    4.4540 O   0  0  0  0  0  0  0  0  0  0  0  0
    0.3836   -8.5325    3.9400 O   0  5  0  0  0  0  0  0  0  0  0  0
   -1.5900   -8.0602    5.3239 O   0  5  0  0  0  0  0  0  0  0  0  0
  1 18  1  0  0  0  0
  1  2  1  0  0  0  0
  2  4  1  0  0  0  0
  2  3  2  0  0  0  0
  4  5  1  0  0  0  0
  5  7  1  0  0  0  0
  5  6  2  0  0  0  0
  7 18  2  0  0  0  0
  7  8  1  0  0  0  0
  8  9  1  0  0  0  0
  9 10  2  0  0  0  0
  9 16  1  0  0  0  0
 10 11  1  0  0  0  0
 11 12  1  0  0  0  0
 11 13  2  0  0  0  0
 13 14  1  0  0  0  0
 13 15  1  0  0  0  0
 15 16  2  0  0  0  0
 16 17  1  0  0  0  0
 17 19  1  0  0  0  0
 17 18  1  0  0  0  0
 20 19  1  1  0  0  0
 20 22  1  0  0  0  0
 20 21  1  0  0  0  0
 22 24  1  0  0  0  0
 22 23  1  6  0  0  0
 24 26  1  1  0  0  0
 24 25  1  0  0  0  0
 26 27  1  0  0  0  0
 27 28  1  0  0  0  0
 28 30  1  0  0  0  0
 28 29  2  0  0  0  0
 28 31  1  0  0  0  0
M  CHG  2  30  -1  31  -1
M  END
>  <CHROM.1>
-79.67528660,118.87633370,113.47808975,-143.17214532,47.27644882,56.52588832
-170.88100068,-59.02297903,170.93567387,54.86331230,-6.81249231,-6.39216448
1.78677727,2.70288833,0.34970949,-1.32300743

>  <Name>
1fmn_cryst

>  <RI>
0

>  <Rbt.Current_Directory>
/home/itssahil/PROJECTS/Mol_Feturizer/New_Systems/rnas/1fmn

>  <Rbt.Executable>
rbdock ($Id: //depot/dev/client3/rdock/2013.1/src/exe/rbdock.cxx#4 $)

>  <Rbt.Library>
libRbt.so (2013.1, Build901 2013/11/27)

>  <Rbt.Parameter_File>
/export/apps/rDock/src/rDock_2013.1_src/data/scripts/dock_solv.prm

>  <Rbt.Receptor>
prm/pocket_docking_3.prm

>  <SCORE>
-60.2542

>  <SCORE.INTER>
-57.9597

>  <SCORE.INTER.CONST>
1

>  <SCORE.INTER.POLAR>
-3.99401

>  <SCORE.INTER.ROT>
7

>  <SCORE.INTER.SOLV>
16.6992

>  <SCORE.INTER.VDW>
-39.1595

>  <SCORE.INTER.norm>
-1.86967

>  <SCORE.INTRA>
-2.29444

>  <SCORE.INTRA.DIHEDRAL>
2.8403

>  <SCORE.INTRA.DIHEDRAL.0>
15.5708

>  <SCORE.INTRA.POLAR>
-0.634174

>  <SCORE.INTRA.POLAR.0>
-0.0677885

>  <SCORE.INTRA.REPUL>
0

>  <SCORE.INTRA.REPUL.0>
0

>  <SCORE.INTRA.SOLV>
-4.43307

>  <SCORE.INTRA.SOLV.lig_0>
-87.6316

>  <SCORE.INTRA.VDW>
0.658145

>  <SCORE.INTRA.VDW.0>
-2.87309

>  <SCORE.INTRA.norm>
-0.0740141

>  <SCORE.RESTR>
0

>  <SCORE.RESTR.CAVITY>
0

>  <SCORE.RESTR.norm>
0

>  <SCORE.SYSTEM>
0

>  <SCORE.SYSTEM.CONST>
0

>  <SCORE.SYSTEM.DIHEDRAL>
0

>  <SCORE.SYSTEM.SOLV>
0

>  <SCORE.SYSTEM.norm>
0

>  <SCORE.heavy>
31

>  <SCORE.norm>
-1.94368

>  <SYMMETRIC_BONDS>
33 34 3

>  <RMSD>
1.389

$$$$
1fmn_cryst
 OpenBabel11021811393D
libRbt.so/2013.1/901 2013/11/27
 31 33  0  0  0  0  0  0  0  0999 V2000
   -8.7191   -6.1079    3.3272 N   0  0  0  0  0  0  0  0  0  0  0  0
   -9.4971   -6.1864    4.4586 C   0  0  0  0  0  0  0  0  0  0  0  0
   -9.0890   -6.7088    5.4964 O   0  0  0  0  0  0  0  0  0  0  0  0
  -10.7979   -5.6331    4.3522 N   0  0  0  0  0  0  0  0  0  0  0  0
  -11.3637   -5.0197    3.2130 C   0  0  0  0  0  0  0  0  0  0  0  0
  -12.5175   -4.5747    3.2588 O   0  0  0  0  0  0  0  0  0  0  0  0
  -10.4730   -4.9764    2.0511 C   0  0  0  0  0  0  0  0  0  0  0  0
  -10.9485   -4.3952    0.9021 N   0  0  0  0  0  0  0  0  0  0  0  0
  -10.1901   -4.5166   -0.2260 C   0  0  0  0  0  0  0  0  0  0  0  0
  -10.7421   -4.0986   -1.4238 C   0  0  0  0  0  0  0  0  0  0  0  0
  -10.0477   -4.1886   -2.5819 C   0  0  0  0  0  0  0  0  0  0  0  0
  -10.6892   -3.7197   -3.8487 C   0  0  0  0  0  0  0  0  0  0  0  0
   -8.7858   -4.6971   -2.5889 C   0  0  0  0  0  0  0  0  0  0  0  0
   -8.0289   -4.7992   -3.8730 C   0  0  0  0  0  0  0  0  0  0  0  0
   -8.2032   -5.1190   -1.4377 C   0  0  0  0  0  0  0  0  0  0  0  0
   -8.8754   -5.0476   -0.2176 C   0  0  0  0  0  0  0  0  0  0  0  0
   -8.3286   -5.4644    1.0142 N   0  0  0  0  0  0  0  0  0  0  0  0
   -9.1470   -5.5377    2.1600 C   0  0  0  0  0  0  0  0  0  0  0  0
   -6.8472   -5.2740    1.2327 C   0  0  0  0  0  0  0  0  0  0  0  0
   -6.0539   -6.5234    1.7226 C   0  0  1  0  0  0  0  0  0  0  0  0
   -5.2325   -7.0225    0.6766 O   0  0  0  0  0  0  0  0  0  0  0  0
   -5.2520   -6.2665    3.0207 C   0  0  1  0  0  0  0  0  0  0  0  0
   -6.0640   -5.5912    3.9768 O   0  0  0  0  0  0  0  0  0  0  0  0
   -4.5719   -7.4923    3.6785 C   0  0  1  0  0  0  0  0  0  0  0  0
   -3.5708   -7.9801    2.7920 O   0  0  0  0  0  0  0  0  0  0  0  0
   -3.9144   -7.1598    5.0367 C   0  0  0  0  0  0  0  0  0  0  0  0
   -3.1469   -8.2429    5.5485 O   0  0  0  0  0  0  0  0  0  0  0  0
   -2.3580   -8.1605    6.9204 P   0  0  0  0  0  0  0  0  0  0  0  0
   -1.3188   -7.1071    6.8702 O   0  0  0  0  0  0  0  0  0  0  0  0
   -3.2965   -8.1752    8.0632 O   0  5  0  0  0  0  0  0  0  0  0  0
   -1.5630   -9.5386    6.9819 O   0  5  0  0  0  0  0  0  0  0  0  0
  1 18  1  0  0  0  0
  1  2  1  0  0  0  0
  2  4  1  0  0  0  0
  2  3  2  0  0  0  0
  4  5  1  0  0  0  0
  5  7  1  0  0  0  0
  5  6  2  0  0  0  0
  7 18  2  0  0  0  0
  7  8  1  0  0  0  0
  8  9  1  0  0  0  0
  9 10  2  0  0  0  0
  9 16  1  0  0  0  0
 10 11  1  0  0  0  0
 11 12  1  0  0  0  0
 11 13  2  0  0  0  0
 13 14  1  0  0  0  0
 13 15  1  0  0  0  0
 15 16  2  0  0  0  0
 16 17  1  0  0  0  0
 17 19  1  0  0  0  0
 17 18  1  0  0  0  0
 20 19  1  6  0  0  0
 20 22  1  0  0  0  0
 20 21  1  0  0  0  0
 22 24  1  0  0  0  0
 22 23  1  1  0  0  0
 24 26  1  1  0  0  0
 24 25  1  0  0  0  0
 26 27  1  0  0  0  0
 27 28  1  0  0  0  0
 28 30  1  0  0  0  0
 28 29  2  0  0  0  0
 28 31  1  0  0  0  0
M  CHG  2  30  -1  31  -1
M  END
>  <CHROM.1>
-129.20119651,108.27192977,46.30281073,-57.70958369,64.98937982,-67.59861805
-172.35830805,-51.31241898,179.44834485,-62.06303780,-7.06416067,-6.13511795
2.59000331,2.35583620,0.28318660,-1.38750596

>  <Name>
1fmn_cryst

>  <RI>
0

>  <Rbt.Current_Directory>
/home/itssahil/PROJECTS/Mol_Feturizer/New_Systems/rnas/1fmn

>  <Rbt.Executable>
rbdock ($Id: //depot/dev/client3/rdock/2013.1/src/exe/rbdock.cxx#4 $)

>  <Rbt.Library>
libRbt.so (2013.1, Build901 2013/11/27)

>  <Rbt.Parameter_File>
/export/apps/rDock/src/rDock_2013.1_src/data/scripts/dock_solv.prm

>  <Rbt.Receptor>
prm/pocket_docking_7.prm

>  <SCORE>
-60.8787

>  <SCORE.INTER>
-53.4013

>  <SCORE.INTER.CONST>
1

>  <SCORE.INTER.POLAR>
-3.60464

>  <SCORE.INTER.ROT>
7

>  <SCORE.INTER.SOLV>
14.1853

>  <SCORE.INTER.VDW>
-36.5805

>  <SCORE.INTER.norm>
-1.72262

>  <SCORE.INTRA>
-7.47738

>  <SCORE.INTRA.DIHEDRAL>
-7.10736

>  <SCORE.INTRA.DIHEDRAL.0>
15.5708

>  <SCORE.INTRA.POLAR>
-0.931308

>  <SCORE.INTRA.POLAR.0>
-0.0677885

>  <SCORE.INTRA.REPUL>
0

>  <SCORE.INTRA.REPUL.0>
0

>  <SCORE.INTRA.SOLV>
-3.69771

>  <SCORE.INTRA.SOLV.lig_0>
-87.6316

>  <SCORE.INTRA.VDW>
1.0916

>  <SCORE.INTRA.VDW.0>
-2.87309

>  <SCORE.INTRA.norm>
-0.241206

>  <SCORE.RESTR>
0

>  <SCORE.RESTR.CAVITY>
0

>  <SCORE.RESTR.norm>
0

>  <SCORE.SYSTEM>
0

>  <SCORE.SYSTEM.CONST>
0

>  <SCORE.SYSTEM.DIHEDRAL>
0

>  <SCORE.SYSTEM.SOLV>
0

>  <SCORE.SYSTEM.norm>
0

>  <SCORE.heavy>
31

>  <SCORE.norm>
-1.96383

>  <SYMMETRIC_BONDS>
33 34 3

>  <RMSD>
1.395

$$$$
1fmn_cryst
 OpenBabel11021811393D
libRbt.so/2013.1/901 2013/11/27
 31 33  0  0  0  0  0  0  0  0999 V2000
   -8.9668   -6.2946    3.6018 N   0  0  0  0  0  0  0  0  0  0  0  0
   -9.7365   -6.2699    4.7413 C   0  0  0  0  0  0  0  0  0  0  0  0
   -9.4100   -6.8752    5.7628 O   0  0  0  0  0  0  0  0  0  0  0  0
  -10.9298   -5.5086    4.6633 N   0  0  0  0  0  0  0  0  0  0  0  0
  -11.3979   -4.7855    3.5443 C   0  0  0  0  0  0  0  0  0  0  0  0
  -12.4625   -4.1585    3.6142 O   0  0  0  0  0  0  0  0  0  0  0  0
  -10.5232   -4.8627    2.3722 C   0  0  0  0  0  0  0  0  0  0  0  0
  -10.9076   -4.1858    1.2416 N   0  0  0  0  0  0  0  0  0  0  0  0
  -10.1900   -4.4045    0.1015 C   0  0  0  0  0  0  0  0  0  0  0  0
  -10.6772   -3.8749   -1.0802 C   0  0  0  0  0  0  0  0  0  0  0  0
  -10.0178   -4.0515   -2.2488 C   0  0  0  0  0  0  0  0  0  0  0  0
  -10.5855   -3.4555   -3.4973 C   0  0  0  0  0  0  0  0  0  0  0  0
   -8.8566   -4.7596   -2.2826 C   0  0  0  0  0  0  0  0  0  0  0  0
   -8.1388   -4.9556   -3.5782 C   0  0  0  0  0  0  0  0  0  0  0  0
   -8.3403   -5.2970   -1.1479 C   0  0  0  0  0  0  0  0  0  0  0  0
   -8.9802   -5.1438    0.0820 C   0  0  0  0  0  0  0  0  0  0  0  0
   -8.4977   -5.6720    1.2977 N   0  0  0  0  0  0  0  0  0  0  0  0
   -9.3062   -5.6360    2.4523 C   0  0  0  0  0  0  0  0  0  0  0  0
   -7.0032   -5.7320    1.5009 C   0  0  0  0  0  0  0  0  0  0  0  0
   -6.4146   -7.1184    1.9028 C   0  0  1  0  0  0  0  0  0  0  0  0
   -6.5732   -8.0447    0.8376 O   0  0  0  0  0  0  0  0  0  0  0  0
   -4.9492   -7.0402    2.3931 C   0  0  1  0  0  0  0  0  0  0  0  0
   -4.4866   -5.6934    2.3531 O   0  0  0  0  0  0  0  0  0  0  0  0
   -4.6387   -7.6633    3.7763 C   0  0  1  0  0  0  0  0  0  0  0  0
   -5.7196   -7.3692    4.6544 O   0  0  0  0  0  0  0  0  0  0  0  0
   -4.4481   -9.1956    3.7179 C   0  0  0  0  0  0  0  0  0  0  0  0
   -4.2711   -9.7707    5.0071 O   0  0  0  0  0  0  0  0  0  0  0  0
   -3.0555   -9.3962    5.9523 P   0  0  0  0  0  0  0  0  0  0  0  0
   -3.0704   -7.9539    6.2863 O   0  0  0  0  0  0  0  0  0  0  0  0
   -2.9295  -10.3764    7.0525 O   0  5  0  0  0  0  0  0  0  0  0  0
   -1.7783   -9.6042    5.0248 O   0  5  0  0  0  0  0  0  0  0  0  0
  1 18  1  0  0  0  0
  1  2  1  0  0  0  0
  2  4  1  0  0  0  0
  2  3  2  0  0  0  0
  4  5  1  0  0  0  0
  5  7  1  0  0  0  0
  5  6  2  0  0  0  0
  7 18  2  0  0  0  0
  7  8  1  0  0  0  0
  8  9  1  0  0  0  0
  9 10  2  0  0  0  0
  9 16  1  0  0  0  0
 10 11  1  0  0  0  0
 11 12  1  0  0  0  0
 11 13  2  0  0  0  0
 13 14  1  0  0  0  0
 13 15  1  0  0  0  0
 15 16  2  0  0  0  0
 16 17  1  0  0  0  0
 17 19  1  0  0  0  0
 17 18  1  0  0  0  0
 20 19  1  6  0  0  0
 20 22  1  0  0  0  0
 20 21  1  0  0  0  0
 22 24  1  0  0  0  0
 22 23  1  1  0  0  0
 24 26  1  6  0  0  0
 24 25  1  0  0  0  0
 26 27  1  0  0  0  0
 27 28  1  0  0  0  0
 28 30  1  0  0  0  0
 28 29  2  0  0  0  0
 28 31  1  0  0  0  0
M  CHG  2  30  -1  31  -1
M  END
>  <CHROM.1>
-126.98629931,66.27562798,-0.14784788,57.18366346,-39.14779925,60.41900606
-175.23740093,-57.18158293,-61.69548691,60.78350984,-7.34550337,-6.49953858
2.52333672,2.39483799,0.42370696,-1.31887640

>  <Name>
1fmn_cryst

>  <RI>
0

>  <Rbt.Current_Directory>
/home/itssahil/PROJECTS/Mol_Feturizer/New_Systems/rnas/1fmn

>  <Rbt.Executable>
rbdock ($Id: //depot/dev/client3/rdock/2013.1/src/exe/rbdock.cxx#4 $)

>  <Rbt.Library>
libRbt.so (2013.1, Build901 2013/11/27)

>  <Rbt.Parameter_File>
/export/apps/rDock/src/rDock_2013.1_src/data/scripts/dock_solv.prm

>  <Rbt.Receptor>
prm/pocket_docking_2.prm

>  <SCORE>
-50.6164

>  <SCORE.INTER>
-49.288

>  <SCORE.INTER.CONST>
1

>  <SCORE.INTER.POLAR>
-2.46896

>  <SCORE.INTER.ROT>
7

>  <SCORE.INTER.SOLV>
14.8499

>  <SCORE.INTER.VDW>
-37.8455

>  <SCORE.INTER.norm>
-1.58994

>  <SCORE.INTRA>
-1.50954

>  <SCORE.INTRA.DIHEDRAL>
-6.43835

>  <SCORE.INTRA.DIHEDRAL.0>
15.5708

>  <SCORE.INTRA.POLAR>
0.0677885

>  <SCORE.INTRA.POLAR.0>
-0.0677885

>  <SCORE.INTRA.REPUL>
0

>  <SCORE.INTRA.REPUL.0>
0

>  <SCORE.INTRA.SOLV>
-0.627597

>  <SCORE.INTRA.SOLV.lig_0>
-87.6316

>  <SCORE.INTRA.VDW>
1.79295

>  <SCORE.INTRA.VDW.0>
-2.87309

>  <SCORE.INTRA.norm>
-0.048695

>  <SCORE.RESTR>
0.181131

>  <SCORE.RESTR.CAVITY>
0.181131

>  <SCORE.RESTR.norm>
0.00584293

>  <SCORE.SYSTEM>
0

>  <SCORE.SYSTEM.CONST>
0

>  <SCORE.SYSTEM.DIHEDRAL>
0

>  <SCORE.SYSTEM.SOLV>
0

>  <SCORE.SYSTEM.norm>
0

>  <SCORE.heavy>
31

>  <SCORE.norm>
-1.63279

>  <SYMMETRIC_BONDS>
33 34 3

>  <RMSD>
1.396

$$$$
1fmn_cryst
 OpenBabel11021811393D
libRbt.so/2013.1/901 2013/11/27
 31 33  0  0  0  0  0  0  0  0999 V2000
   -8.6573   -6.2199    3.6111 N   0  0  0  0  0  0  0  0  0  0  0  0
   -9.5149   -6.2827    4.6845 C   0  0  0  0  0  0  0  0  0  0  0  0
   -9.1867   -6.7999    5.7528 O   0  0  0  0  0  0  0  0  0  0  0  0
  -10.7998   -5.7196    4.4811 N   0  0  0  0  0  0  0  0  0  0  0  0
  -11.2773   -5.1109    3.2997 C   0  0  0  0  0  0  0  0  0  0  0  0
  -12.4274   -4.6560    3.2594 O   0  0  0  0  0  0  0  0  0  0  0  0
  -10.3055   -5.0845    2.2043 C   0  0  0  0  0  0  0  0  0  0  0  0
  -10.6925   -4.5088    1.0198 N   0  0  0  0  0  0  0  0  0  0  0  0
   -9.8564   -4.6457   -0.0502 C   0  0  0  0  0  0  0  0  0  0  0  0
  -10.3177   -4.2329   -1.2876 C   0  0  0  0  0  0  0  0  0  0  0  0
   -9.5430   -4.3381   -2.3922 C   0  0  0  0  0  0  0  0  0  0  0  0
  -10.0882   -3.8743   -3.7053 C   0  0  0  0  0  0  0  0  0  0  0  0
   -8.2884   -4.8570   -2.3051 C   0  0  0  0  0  0  0  0  0  0  0  0
   -7.4425   -4.9759   -3.5309 C   0  0  0  0  0  0  0  0  0  0  0  0
   -7.7933   -5.2743   -1.1119 C   0  0  0  0  0  0  0  0  0  0  0  0
   -8.5504   -5.1873    0.0563 C   0  0  0  0  0  0  0  0  0  0  0  0
   -8.0968   -5.5985    1.3272 N   0  0  0  0  0  0  0  0  0  0  0  0
   -8.9956   -5.6557    2.4120 C   0  0  0  0  0  0  0  0  0  0  0  0
   -6.6332   -5.4186    1.6497 C   0  0  0  0  0  0  0  0  0  0  0  0
   -5.6393   -6.3584    0.9020 C   0  0  1  0  0  0  0  0  0  0  0  0
   -4.3073   -5.8934    1.0678 O   0  0  0  0  0  0  0  0  0  0  0  0
   -5.7903   -7.8462    1.2992 C   0  0  1  0  0  0  0  0  0  0  0  0
   -4.9165   -8.6565    0.5186 O   0  0  0  0  0  0  0  0  0  0  0  0
   -5.6283   -8.1908    2.8002 C   0  0  1  0  0  0  0  0  0  0  0  0
   -5.5926   -9.6073    2.9347 O   0  0  0  0  0  0  0  0  0  0  0  0
   -4.3415   -7.5998    3.4187 C   0  0  0  0  0  0  0  0  0  0  0  0
   -3.1611   -8.1550    2.8510 O   0  0  0  0  0  0  0  0  0  0  0  0
   -1.7063   -7.7278    3.3119 P   0  0  0  0  0  0  0  0  0  0  0  0
   -1.5278   -7.9431    4.7658 O   0  0  0  0  0  0  0  0  0  0  0  0
   -0.6869   -8.2667    2.3860 O   0  5  0  0  0  0  0  0  0  0  0  0
   -1.6960   -6.1483    3.1122 O   0  5  0  0  0  0  0  0  0  0  0  0
  1 18  1  0  0  0  0
  1  2  1  0  0  0  0
  2  4  1  0  0  0  0
  2  3  2  0  0  0  0
  4  5  1  0  0  0  0
  5  7  1  0  0  0  0
  5  6  2  0  0  0  0
  7 18  2  0  0  0  0
  7  8  1  0  0  0  0
  8  9  1  0  0  0  0
  9 10  2  0  0  0  0
  9 16  1  0  0  0  0
 10 11  1  0  0  0  0
 11 12  1  0  0  0  0
 11 13  2  0  0  0  0
 13 14  1  0  0  0  0
 13 15  1  0  0  0  0
 15 16  2  0  0  0  0
 16 17  1  0  0  0  0
 17 19  1  0  0  0  0
 17 18  1  0  0  0  0
 20 19  1  1  0  0  0
 20 22  1  0  0  0  0
 20 21  1  0  0  0  0
 22 24  1  0  0  0  0
 22 23  1  6  0  0  0
 24 26  1  6  0  0  0
 24 25  1  0  0  0  0
 26 27  1  0  0  0  0
 27 28  1  0  0  0  0
 28 30  1  0  0  0  0
 28 29  2  0  0  0  0
 28 31  1  0  0  0  0
M  CHG  2  30  -1  31  -1
M  END
>  <CHROM.1>
-70.83533972,167.16239961,176.21955028,-70.53900576,-171.07486822,-150.14908189
-64.81826519,-169.30742618,-179.67796049,57.00548527,-6.84356050,-6.29492048
1.71190865,2.73874514,0.28884531,-1.30943495

>  <Name>
1fmn_cryst

>  <RI>
0

>  <Rbt.Current_Directory>
/home/itssahil/PROJECTS/Mol_Feturizer/New_Systems/rnas/1fmn

>  <Rbt.Executable>
rbdock ($Id: //depot/dev/client3/rdock/2013.1/src/exe/rbdock.cxx#4 $)

>  <Rbt.Library>
libRbt.so (2013.1, Build901 2013/11/27)

>  <Rbt.Parameter_File>
/export/apps/rDock/src/rDock_2013.1_src/data/scripts/dock_solv.prm

>  <Rbt.Receptor>
prm/pocket_docking_8.prm

>  <SCORE>
-62.7056

>  <SCORE.INTER>
-57.2374

>  <SCORE.INTER.CONST>
1

>  <SCORE.INTER.POLAR>
-3.92381

>  <SCORE.INTER.ROT>
7

>  <SCORE.INTER.SOLV>
17.1026

>  <SCORE.INTER.VDW>
-39.0464

>  <SCORE.INTER.norm>
-1.84637

>  <SCORE.INTRA>
-5.46824

>  <SCORE.INTRA.DIHEDRAL>
-8.18965

>  <SCORE.INTRA.DIHEDRAL.0>
15.5708

>  <SCORE.INTRA.POLAR>
0.0677885

>  <SCORE.INTRA.POLAR.0>
-0.0677885

>  <SCORE.INTRA.REPUL>
0

>  <SCORE.INTRA.REPUL.0>
0

>  <SCORE.INTRA.SOLV>
-3.03226

>  <SCORE.INTRA.SOLV.lig_0>
-87.6316

>  <SCORE.INTRA.VDW>
-0.0877634

>  <SCORE.INTRA.VDW.0>
-2.87309

>  <SCORE.INTRA.norm>
-0.176395

>  <SCORE.RESTR>
0

>  <SCORE.RESTR.CAVITY>
0

>  <SCORE.RESTR.norm>
0

>  <SCORE.SYSTEM>
0

>  <SCORE.SYSTEM.CONST>
0

>  <SCORE.SYSTEM.DIHEDRAL>
0

>  <SCORE.SYSTEM.SOLV>
0

>  <SCORE.SYSTEM.norm>
0

>  <SCORE.heavy>
31

>  <SCORE.norm>
-2.02276

>  <SYMMETRIC_BONDS>
33 34 3

>  <RMSD>
1.396

$$$$
1fmn_cryst
 OpenBabel11021811393D
libRbt.so/2013.1/901 2013/11/27
 31 33  0  0  0  0  0  0  0  0999 V2000
   -8.9763   -6.1905    3.5425 N   0  0  0  0  0  0  0  0  0  0  0  0
   -9.6803   -6.2323    4.7233 C   0  0  0  0  0  0  0  0  0  0  0  0
   -9.2616   -6.8354    5.7119 O   0  0  0  0  0  0  0  0  0  0  0  0
  -10.9186   -5.5422    4.7279 N   0  0  0  0  0  0  0  0  0  0  0  0
  -11.4909   -4.8281    3.6524 C   0  0  0  0  0  0  0  0  0  0  0  0
  -12.5847   -4.2670    3.7946 O   0  0  0  0  0  0  0  0  0  0  0  0
  -10.6810   -4.8318    2.4321 C   0  0  0  0  0  0  0  0  0  0  0  0
  -11.1678   -4.1587    1.3393 N   0  0  0  0  0  0  0  0  0  0  0  0
  -10.5044   -4.3136    0.1567 C   0  0  0  0  0  0  0  0  0  0  0  0
  -11.0879   -3.7927   -0.9845 C   0  0  0  0  0  0  0  0  0  0  0  0
  -10.4867   -3.9085   -2.1914 C   0  0  0  0  0  0  0  0  0  0  0  0
  -11.1581   -3.3250   -3.3934 C   0  0  0  0  0  0  0  0  0  0  0  0
   -9.2898   -4.5455   -2.3048 C   0  0  0  0  0  0  0  0  0  0  0  0
   -8.6364   -4.6748   -3.6421 C   0  0  0  0  0  0  0  0  0  0  0  0
   -8.6795   -5.0716   -1.2122 C   0  0  0  0  0  0  0  0  0  0  0  0
   -9.2565   -4.9790    0.0542 C   0  0  0  0  0  0  0  0  0  0  0  0
   -8.6758   -5.4995    1.2298 N   0  0  0  0  0  0  0  0  0  0  0  0
   -9.4183   -5.5325    2.4279 C   0  0  0  0  0  0  0  0  0  0  0  0
   -7.1713   -5.4739    1.3483 C   0  0  0  0  0  0  0  0  0  0  0  0
   -6.4080   -6.6854    0.7321 C   0  0  1  0  0  0  0  0  0  0  0  0
   -5.1573   -6.2610    0.2090 O   0  0  0  0  0  0  0  0  0  0  0  0
   -6.2565   -7.8734    1.7118 C   0  0  1  0  0  0  0  0  0  0  0  0
   -5.7058   -9.0014    1.0380 O   0  0  0  0  0  0  0  0  0  0  0  0
   -5.4731   -7.6070    3.0206 C   0  0  1  0  0  0  0  0  0  0  0  0
   -6.2584   -6.7571    3.8493 O   0  0  0  0  0  0  0  0  0  0  0  0
   -5.1469   -8.8999    3.8015 C   0  0  0  0  0  0  0  0  0  0  0  0
   -4.3405   -8.6537    4.9475 O   0  0  0  0  0  0  0  0  0  0  0  0
   -3.7387   -9.8187    5.8374 P   0  0  0  0  0  0  0  0  0  0  0  0
   -2.8036   -9.2803    6.8512 O   0  0  0  0  0  0  0  0  0  0  0  0
   -4.8061  -10.7423    6.2785 O   0  5  0  0  0  0  0  0  0  0  0  0
   -2.8330  -10.6420    4.8191 O   0  5  0  0  0  0  0  0  0  0  0  0
  1 18  1  0  0  0  0
  1  2  1  0  0  0  0
  2  4  1  0  0  0  0
  2  3  2  0  0  0  0
  4  5  1  0  0  0  0
  5  7  1  0  0  0  0
  5  6  2  0  0  0  0
  7 18  2  0  0  0  0
  7  8  1  0  0  0  0
  8  9  1  0  0  0  0
  9 10  2  0  0  0  0
  9 16  1  0  0  0  0
 10 11  1  0  0  0  0
 11 12  1  0  0  0  0
 11 13  2  0  0  0  0
 13 14  1  0  0  0  0
 13 15  1  0  0  0  0
 15 16  2  0  0  0  0
 16 17  1  0  0  0  0
 17 19  1  0  0  0  0
 17 18  1  0  0  0  0
 20 19  1  1  0  0  0
 20 22  1  0  0  0  0
 20 21  1  0  0  0  0
 22 24  1  0  0  0  0
 22 23  1  6  0  0  0
 24 26  1  1  0  0  0
 24 25  1  0  0  0  0
 26 27  1  0  0  0  0
 27 28  1  0  0  0  0
 28 30  1  0  0  0  0
 28 29  2  0  0  0  0
 28 31  1  0  0  0  0
M  CHG  2  30  -1  31  -1
M  END
>  <CHROM.1>
-86.41377574,146.41587006,172.64053622,-58.96933761,70.18758717,63.93216099
175.51381921,-179.22566788,-173.51110938,172.65081301,-7.70172937,-6.56542962
2.33303820,2.36952476,0.50554983,-1.30473048

>  <Name>
1fmn_cryst

>  <RI>
0

>  <Rbt.Current_Directory>
/home/itssahil/PROJECTS/Mol_Feturizer/New_Systems/rnas/1fmn

>  <Rbt.Executable>
rbdock ($Id: //depot/dev/client3/rdock/2013.1/src/exe/rbdock.cxx#4 $)

>  <Rbt.Library>
libRbt.so (2013.1, Build901 2013/11/27)

>  <Rbt.Parameter_File>
/export/apps/rDock/src/rDock_2013.1_src/data/scripts/dock_solv.prm

>  <Rbt.Receptor>
prm/pocket_docking_4.prm

>  <SCORE>
-58.5935

>  <SCORE.INTER>
-49.3264

>  <SCORE.INTER.CONST>
1

>  <SCORE.INTER.POLAR>
-2.14825

>  <SCORE.INTER.ROT>
7

>  <SCORE.INTER.SOLV>
22.019

>  <SCORE.INTER.VDW>
-41.3297

>  <SCORE.INTER.norm>
-1.59117

>  <SCORE.INTRA>
-9.26713

>  <SCORE.INTRA.DIHEDRAL>
-9.00303

>  <SCORE.INTRA.DIHEDRAL.0>
15.5708

>  <SCORE.INTRA.POLAR>
-0.932211

>  <SCORE.INTRA.POLAR.0>
-0.0677885

>  <SCORE.INTRA.REPUL>
0

>  <SCORE.INTRA.REPUL.0>
0

>  <SCORE.INTRA.SOLV>
-3.62004

>  <SCORE.INTRA.SOLV.lig_0>
-87.6316

>  <SCORE.INTRA.VDW>
0.21392

>  <SCORE.INTRA.VDW.0>
-2.87309

>  <SCORE.INTRA.norm>
-0.29894

>  <SCORE.RESTR>
0

>  <SCORE.RESTR.CAVITY>
0

>  <SCORE.RESTR.norm>
0

>  <SCORE.SYSTEM>
0

>  <SCORE.SYSTEM.CONST>
0

>  <SCORE.SYSTEM.DIHEDRAL>
0

>  <SCORE.SYSTEM.SOLV>
0

>  <SCORE.SYSTEM.norm>
0

>  <SCORE.heavy>
31

>  <SCORE.norm>
-1.89011

>  <SYMMETRIC_BONDS>
33 34 3

>  <RMSD>
1.399

$$$$
1fmn_cryst
 OpenBabel11021811393D
libRbt.so/2013.1/901 2013/11/27
 31 33  0  0  0  0  0  0  0  0999 V2000
   -8.8101   -6.2098    3.6532 N   0  0  0  0  0  0  0  0  0  0  0  0
   -9.5879   -6.2395    4.7871 C   0  0  0  0  0  0  0  0  0  0  0  0
   -9.2189   -6.8047    5.8171 O   0  0  0  0  0  0  0  0  0  0  0  0
  -10.8410   -5.5836    4.6929 N   0  0  0  0  0  0  0  0  0  0  0  0
  -11.3604   -4.9140    3.5632 C   0  0  0  0  0  0  0  0  0  0  0  0
  -12.4750   -4.3794    3.6192 O   0  0  0  0  0  0  0  0  0  0  0  0
  -10.4733   -4.9280    2.3979 C   0  0  0  0  0  0  0  0  0  0  0  0
  -10.9052   -4.2976    1.2577 N   0  0  0  0  0  0  0  0  0  0  0  0
  -10.1628   -4.4657    0.1249 C   0  0  0  0  0  0  0  0  0  0  0  0
  -10.6843   -3.9912   -1.0657 C   0  0  0  0  0  0  0  0  0  0  0  0
  -10.0033   -4.1226   -2.2277 C   0  0  0  0  0  0  0  0  0  0  0  0
  -10.6101   -3.5895   -3.4863 C   0  0  0  0  0  0  0  0  0  0  0  0
   -8.7858   -4.7294   -2.2462 C   0  0  0  0  0  0  0  0  0  0  0  0
   -8.0440   -4.8763   -3.5347 C   0  0  0  0  0  0  0  0  0  0  0  0
   -8.2344   -5.2096   -1.1024 C   0  0  0  0  0  0  0  0  0  0  0  0
   -8.8944   -5.0993    0.1214 C   0  0  0  0  0  0  0  0  0  0  0  0
   -8.3781   -5.5724    1.3459 N   0  0  0  0  0  0  0  0  0  0  0  0
   -9.1956   -5.5940    2.4945 C   0  0  0  0  0  0  0  0  0  0  0  0
   -6.8855   -5.5028    1.5599 C   0  0  0  0  0  0  0  0  0  0  0  0
   -6.0533   -6.7090    1.0284 C   0  0  1  0  0  0  0  0  0  0  0  0
   -4.7425   -6.2847    0.6825 O   0  0  0  0  0  0  0  0  0  0  0  0
   -6.0381   -7.9144    1.9984 C   0  0  1  0  0  0  0  0  0  0  0  0
   -5.4289   -9.0415    1.3754 O   0  0  0  0  0  0  0  0  0  0  0  0
   -5.4120   -7.6820    3.3955 C   0  0  1  0  0  0  0  0  0  0  0  0
   -6.1472   -6.6553    4.0522 O   0  0  0  0  0  0  0  0  0  0  0  0
   -5.4267   -8.9484    4.2807 C   0  0  0  0  0  0  0  0  0  0  0  0
   -4.5426   -9.9555    3.8033 O   0  0  0  0  0  0  0  0  0  0  0  0
   -2.9667   -9.8388    3.9235 P   0  0  0  0  0  0  0  0  0  0  0  0
   -2.3058  -11.0631    3.4173 O   0  0  0  0  0  0  0  0  0  0  0  0
   -2.5018   -8.5260    3.4260 O   0  5  0  0  0  0  0  0  0  0  0  0
   -2.7074   -9.8347    5.4943 O   0  5  0  0  0  0  0  0  0  0  0  0
  1 18  1  0  0  0  0
  1  2  1  0  0  0  0
  2  4  1  0  0  0  0
  2  3  2  0  0  0  0
  4  5  1  0  0  0  0
  5  7  1  0  0  0  0
  5  6  2  0  0  0  0
  7 18  2  0  0  0  0
  7  8  1  0  0  0  0
  8  9  1  0  0  0  0
  9 10  2  0  0  0  0
  9 16  1  0  0  0  0
 10 11  1  0  0  0  0
 11 12  1  0  0  0  0
 11 13  2  0  0  0  0
 13 14  1  0  0  0  0
 13 15  1  0  0  0  0
 15 16  2  0  0  0  0
 16 17  1  0  0  0  0
 17 19  1  0  0  0  0
 17 18  1  0  0  0  0
 20 19  1  1  0  0  0
 20 22  1  0  0  0  0
 20 21  1  0  0  0  0
 22 24  1  0  0  0  0
 22 23  1  6  0  0  0
 24 26  1  1  0  0  0
 24 25  1  0  0  0  0
 26 27  1  0  0  0  0
 27 28  1  0  0  0  0
 28 30  1  0  0  0  0
 28 29  2  0  0  0  0
 28 31  1  0  0  0  0
M  CHG  2  30  -1  31  -1
M  END
>  <CHROM.1>
-86.42401114,151.42843211,171.66365225,-175.48567656,60.18645627,-66.38745128
68.87489297,-178.07771041,72.57461724,176.66783503,-7.35307361,-6.63899812
2.05622437,2.55153389,0.50590876,-1.29089671

>  <Name>
1fmn_cryst

>  <RI>
0

>  <Rbt.Current_Directory>
/home/itssahil/PROJECTS/Mol_Feturizer/New_Systems/rnas/1fmn

>  <Rbt.Executable>
rbdock ($Id: //depot/dev/client3/rdock/2013.1/src/exe/rbdock.cxx#4 $)

>  <Rbt.Library>
libRbt.so (2013.1, Build901 2013/11/27)

>  <Rbt.Parameter_File>
/export/apps/rDock/src/rDock_2013.1_src/data/scripts/dock_solv.prm

>  <Rbt.Receptor>
prm/pocket_docking_5.prm

>  <SCORE>
-65.0261

>  <SCORE.INTER>
-57.0893

>  <SCORE.INTER.CONST>
1

>  <SCORE.INTER.POLAR>
-3.24813

>  <SCORE.INTER.ROT>
7

>  <SCORE.INTER.SOLV>
16.3277

>  <SCORE.INTER.VDW>
-40.9417

>  <SCORE.INTER.norm>
-1.84159

>  <SCORE.INTRA>
-7.9368

>  <SCORE.INTRA.DIHEDRAL>
-8.94236

>  <SCORE.INTRA.DIHEDRAL.0>
15.5708

>  <SCORE.INTRA.POLAR>
-0.932211

>  <SCORE.INTRA.POLAR.0>
-0.0677885

>  <SCORE.INTRA.REPUL>
0

>  <SCORE.INTRA.REPUL.0>
0

>  <SCORE.INTRA.SOLV>
0.494116

>  <SCORE.INTRA.SOLV.lig_0>
-87.6316

>  <SCORE.INTRA.VDW>
-0.543161

>  <SCORE.INTRA.VDW.0>
-2.87309

>  <SCORE.INTRA.norm>
-0.256026

>  <SCORE.RESTR>
0

>  <SCORE.RESTR.CAVITY>
0

>  <SCORE.RESTR.norm>
0

>  <SCORE.SYSTEM>
0

>  <SCORE.SYSTEM.CONST>
0

>  <SCORE.SYSTEM.DIHEDRAL>
0

>  <SCORE.SYSTEM.SOLV>
0

>  <SCORE.SYSTEM.norm>
0

>  <SCORE.heavy>
31

>  <SCORE.norm>
-2.09762

>  <SYMMETRIC_BONDS>
33 34 3

>  <RMSD>
1.406

$$$$
1fmn_cryst
 OpenBabel11021811393D
libRbt.so/2013.1/901 2013/11/27
 31 33  0  0  0  0  0  0  0  0999 V2000
   -8.9870   -6.1090    3.4199 N   0  0  0  0  0  0  0  0  0  0  0  0
   -9.6703   -6.2053    4.6097 C   0  0  0  0  0  0  0  0  0  0  0  0
   -9.2084   -6.8051    5.5809 O   0  0  0  0  0  0  0  0  0  0  0  0
  -10.9398   -5.5756    4.6446 N   0  0  0  0  0  0  0  0  0  0  0  0
  -11.5617   -4.8708    3.5907 C   0  0  0  0  0  0  0  0  0  0  0  0
  -12.6787   -4.3654    3.7588 O   0  0  0  0  0  0  0  0  0  0  0  0
  -10.7711   -4.8141    2.3591 C   0  0  0  0  0  0  0  0  0  0  0  0
  -11.3059   -4.1459    1.2860 N   0  0  0  0  0  0  0  0  0  0  0  0
  -10.6538   -4.2479    0.0914 C   0  0  0  0  0  0  0  0  0  0  0  0
  -11.2788   -3.7354   -1.0316 C   0  0  0  0  0  0  0  0  0  0  0  0
  -10.6910   -3.8009   -2.2488 C   0  0  0  0  0  0  0  0  0  0  0  0
  -11.4076   -3.2290   -3.4303 C   0  0  0  0  0  0  0  0  0  0  0  0
   -9.4670   -4.3777   -2.3910 C   0  0  0  0  0  0  0  0  0  0  0  0
   -8.8284   -4.4519   -3.7397 C   0  0  0  0  0  0  0  0  0  0  0  0
   -8.8158   -4.8932   -1.3172 C   0  0  0  0  0  0  0  0  0  0  0  0
   -9.3774   -4.8508   -0.0411 C   0  0  0  0  0  0  0  0  0  0  0  0
   -8.7548   -5.3636    1.1163 N   0  0  0  0  0  0  0  0  0  0  0  0
   -9.4767   -5.4534    2.3241 C   0  0  0  0  0  0  0  0  0  0  0  0
   -7.2516   -5.2680    1.2138 C   0  0  0  0  0  0  0  0  0  0  0  0
   -6.4363   -6.2511    0.3199 C   0  0  1  0  0  0  0  0  0  0  0  0
   -6.2189   -5.6805   -0.9627 O   0  0  0  0  0  0  0  0  0  0  0  0
   -5.1182   -6.7239    0.9779 C   0  0  1  0  0  0  0  0  0  0  0  0
   -4.3240   -5.6023    1.3532 O   0  0  0  0  0  0  0  0  0  0  0  0
   -5.2422   -7.7045    2.1699 C   0  0  1  0  0  0  0  0  0  0  0  0
   -5.5311   -9.0006    1.6573 O   0  0  0  0  0  0  0  0  0  0  0  0
   -3.9560   -7.7822    3.0227 C   0  0  0  0  0  0  0  0  0  0  0  0
   -4.1604   -8.4659    4.2534 O   0  0  0  0  0  0  0  0  0  0  0  0
   -3.0444   -8.5641    5.3742 P   0  0  0  0  0  0  0  0  0  0  0  0
   -3.5569   -9.2706    6.5701 O   0  0  0  0  0  0  0  0  0  0  0  0
   -1.7573   -9.0007    4.7914 O   0  5  0  0  0  0  0  0  0  0  0  0
   -2.8345   -7.0534    5.8310 O   0  5  0  0  0  0  0  0  0  0  0  0
  1 18  1  0  0  0  0
  1  2  1  0  0  0  0
  2  4  1  0  0  0  0
  2  3  2  0  0  0  0
  4  5  1  0  0  0  0
  5  7  1  0  0  0  0
  5  6  2  0  0  0  0
  7 18  2  0  0  0  0
  7  8  1  0  0  0  0
  8  9  1  0  0  0  0
  9 10  2  0  0  0  0
  9 16  1  0  0  0  0
 10 11  1  0  0  0  0
 11 12  1  0  0  0  0
 11 13  2  0  0  0  0
 13 14  1  0  0  0  0
 13 15  1  0  0  0  0
 15 16  2  0  0  0  0
 16 17  1  0  0  0  0
 17 19  1  0  0  0  0
 17 18  1  0  0  0  0
 20 19  1  1  0  0  0
 20 22  1  0  0  0  0
 20 21  1  0  0  0  0
 22 24  1  0  0  0  0
 22 23  1  1  0  0  0
 24 26  1  6  0  0  0
 24 25  1  0  0  0  0
 26 27  1  0  0  0  0
 27 28  1  0  0  0  0
 28 30  1  0  0  0  0
 28 29  2  0  0  0  0
 28 31  1  0  0  0  0
M  CHG  2  30  -1  31  -1
M  END
>  <CHROM.1>
-73.94587078,87.72629492,-55.14652650,-166.56430514,76.97438381,-58.82930092
168.13377212,58.91072739,-173.92160648,177.05193587,-7.51244439,-6.10657914
2.00417437,2.46240017,0.35580426,-1.32122871

>  <Name>
1fmn_cryst

>  <RI>
0

>  <Rbt.Current_Directory>
/home/itssahil/PROJECTS/Mol_Feturizer/New_Systems/rnas/1fmn

>  <Rbt.Executable>
rbdock ($Id: //depot/dev/client3/rdock/2013.1/src/exe/rbdock.cxx#4 $)

>  <Rbt.Library>
libRbt.so (2013.1, Build901 2013/11/27)

>  <Rbt.Parameter_File>
/export/apps/rDock/src/rDock_2013.1_src/data/scripts/dock_solv.prm

>  <Rbt.Receptor>
prm/pocket_docking_2.prm

>  <SCORE>
-60.5515

>  <SCORE.INTER>
-55.3176

>  <SCORE.INTER.CONST>
1

>  <SCORE.INTER.POLAR>
-3.60796

>  <SCORE.INTER.ROT>
7

>  <SCORE.INTER.SOLV>
17.9734

>  <SCORE.INTER.VDW>
-39.1096

>  <SCORE.INTER.norm>
-1.78444

>  <SCORE.INTRA>
-5.2521

>  <SCORE.INTRA.DIHEDRAL>
-8.65264

>  <SCORE.INTRA.DIHEDRAL.0>
15.5708

>  <SCORE.INTRA.POLAR>
0.0677885

>  <SCORE.INTRA.POLAR.0>
-0.0677885

>  <SCORE.INTRA.REPUL>
0

>  <SCORE.INTRA.REPUL.0>
0

>  <SCORE.INTRA.SOLV>
-4.98885

>  <SCORE.INTRA.SOLV.lig_0>
-87.6316

>  <SCORE.INTRA.VDW>
1.33817

>  <SCORE.INTRA.VDW.0>
-2.87309

>  <SCORE.INTRA.norm>
-0.169423

>  <SCORE.RESTR>
0.0181679

>  <SCORE.RESTR.CAVITY>
0.0181679

>  <SCORE.RESTR.norm>
0.000586062

>  <SCORE.SYSTEM>
0

>  <SCORE.SYSTEM.CONST>
0

>  <SCORE.SYSTEM.DIHEDRAL>
0

>  <SCORE.SYSTEM.SOLV>
0

>  <SCORE.SYSTEM.norm>
0

>  <SCORE.heavy>
31

>  <SCORE.norm>
-1.95327

>  <SYMMETRIC_BONDS>
33 34 3

>  <RMSD>
1.414

$$$$
1fmn_cryst
 OpenBabel11021811393D
libRbt.so/2013.1/901 2013/11/27
 31 33  0  0  0  0  0  0  0  0999 V2000
   -8.7685   -6.1743    3.5209 N   0  0  0  0  0  0  0  0  0  0  0  0
   -9.5336   -6.2517    4.6611 C   0  0  0  0  0  0  0  0  0  0  0  0
   -9.1296   -6.8103    5.6816 O   0  0  0  0  0  0  0  0  0  0  0  0
  -10.8163   -5.6530    4.5851 N   0  0  0  0  0  0  0  0  0  0  0  0
  -11.3761   -4.9960    3.4675 C   0  0  0  0  0  0  0  0  0  0  0  0
  -12.5135   -4.5137    3.5391 O   0  0  0  0  0  0  0  0  0  0  0  0
  -10.5000   -4.9568    2.2944 C   0  0  0  0  0  0  0  0  0  0  0  0
  -10.9709   -4.3347    1.1650 N   0  0  0  0  0  0  0  0  0  0  0  0
  -10.2320   -4.4565    0.0241 C   0  0  0  0  0  0  0  0  0  0  0  0
  -10.7856   -3.9937   -1.1566 C   0  0  0  0  0  0  0  0  0  0  0  0
  -10.1100   -4.0813   -2.3259 C   0  0  0  0  0  0  0  0  0  0  0  0
  -10.7521   -3.5633   -3.5732 C   0  0  0  0  0  0  0  0  0  0  0  0
   -8.8662   -4.6315   -2.3617 C   0  0  0  0  0  0  0  0  0  0  0  0
   -8.1303   -4.7305   -3.6582 C   0  0  0  0  0  0  0  0  0  0  0  0
   -8.2829   -5.0981   -1.2281 C   0  0  0  0  0  0  0  0  0  0  0  0
   -8.9360   -5.0312    0.0025 C   0  0  0  0  0  0  0  0  0  0  0  0
   -8.3873   -5.4932    1.2172 N   0  0  0  0  0  0  0  0  0  0  0  0
   -9.1924   -5.5644    2.3725 C   0  0  0  0  0  0  0  0  0  0  0  0
   -6.8976   -5.3574    1.4189 C   0  0  0  0  0  0  0  0  0  0  0  0
   -6.0059   -6.4417    0.7410 C   0  0  1  0  0  0  0  0  0  0  0  0
   -5.6302   -6.0211   -0.5628 O   0  0  0  0  0  0  0  0  0  0  0  0
   -4.7826   -6.8481    1.5969 C   0  0  1  0  0  0  0  0  0  0  0  0
   -3.7661   -5.8539    1.5081 O   0  0  0  0  0  0  0  0  0  0  0  0
   -5.0507   -7.1967    3.0816 C   0  0  1  0  0  0  0  0  0  0  0  0
   -6.2494   -7.9607    3.1544 O   0  0  0  0  0  0  0  0  0  0  0  0
   -3.9043   -8.0073    3.7267 C   0  0  0  0  0  0  0  0  0  0  0  0
   -2.6831   -7.2790    3.7734 O   0  0  0  0  0  0  0  0  0  0  0  0
   -1.3658   -7.8575    4.4377 P   0  0  0  0  0  0  0  0  0  0  0  0
   -0.2287   -6.9271    4.2542 O   0  0  0  0  0  0  0  0  0  0  0  0
   -1.6487   -8.3705    5.7956 O   0  5  0  0  0  0  0  0  0  0  0  0
   -1.0211   -9.1304    3.5458 O   0  5  0  0  0  0  0  0  0  0  0  0
  1 18  1  0  0  0  0
  1  2  1  0  0  0  0
  2  4  1  0  0  0  0
  2  3  2  0  0  0  0
  4  5  1  0  0  0  0
  5  7  1  0  0  0  0
  5  6  2  0  0  0  0
  7 18  2  0  0  0  0
  7  8  1  0  0  0  0
  8  9  1  0  0  0  0
  9 10  2  0  0  0  0
  9 16  1  0  0  0  0
 10 11  1  0  0  0  0
 11 12  1  0  0  0  0
 11 13  2  0  0  0  0
 13 14  1  0  0  0  0
 13 15  1  0  0  0  0
 15 16  2  0  0  0  0
 16 17  1  0  0  0  0
 17 19  1  0  0  0  0
 17 18  1  0  0  0  0
 20 19  1  1  0  0  0
 20 22  1  0  0  0  0
 20 21  1  0  0  0  0
 22 24  1  0  0  0  0
 22 23  1  1  0  0  0
 24 26  1  6  0  0  0
 24 25  1  0  0  0  0
 26 27  1  0  0  0  0
 27 28  1  0  0  0  0
 28 30  1  0  0  0  0
 28 29  2  0  0  0  0
 28 31  1  0  0  0  0
M  CHG  2  30  -1  31  -1
M  END
>  <CHROM.1>
-80.35756876,90.82683385,-77.49269354,-158.77241891,40.90789941,179.37121919
63.37091906,58.80221497,177.48654242,175.87193755,-6.91439268,-6.06528559
1.94999963,2.63500138,0.25278375,-1.32270770

>  <Name>
1fmn_cryst

>  <RI>
0

>  <Rbt.Current_Directory>
/home/itssahil/PROJECTS/Mol_Feturizer/New_Systems/rnas/1fmn

>  <Rbt.Executable>
rbdock ($Id: //depot/dev/client3/rdock/2013.1/src/exe/rbdock.cxx#4 $)

>  <Rbt.Library>
libRbt.so (2013.1, Build901 2013/11/27)

>  <Rbt.Parameter_File>
/export/apps/rDock/src/rDock_2013.1_src/data/scripts/dock_solv.prm

>  <Rbt.Receptor>
prm/pocket_docking_5.prm

>  <SCORE>
-62.2127

>  <SCORE.INTER>
-52.0091

>  <SCORE.INTER.CONST>
1

>  <SCORE.INTER.POLAR>
-2.95512

>  <SCORE.INTER.ROT>
7

>  <SCORE.INTER.SOLV>
15.8859

>  <SCORE.INTER.VDW>
-38.3843

>  <SCORE.INTER.norm>
-1.67771

>  <SCORE.INTRA>
-10.2036

>  <SCORE.INTRA.DIHEDRAL>
-6.21666

>  <SCORE.INTRA.DIHEDRAL.0>
15.5708

>  <SCORE.INTRA.POLAR>
-1.67536

>  <SCORE.INTRA.POLAR.0>
-0.0677885

>  <SCORE.INTRA.REPUL>
0

>  <SCORE.INTRA.REPUL.0>
0

>  <SCORE.INTRA.SOLV>
-3.27844

>  <SCORE.INTRA.SOLV.lig_0>
-87.6316

>  <SCORE.INTRA.VDW>
0.240155

>  <SCORE.INTRA.VDW.0>
-2.87309

>  <SCORE.INTRA.norm>
-0.329149

>  <SCORE.RESTR>
0

>  <SCORE.RESTR.CAVITY>
0

>  <SCORE.RESTR.norm>
0

>  <SCORE.SYSTEM>
0

>  <SCORE.SYSTEM.CONST>
0

>  <SCORE.SYSTEM.DIHEDRAL>
0

>  <SCORE.SYSTEM.SOLV>
0

>  <SCORE.SYSTEM.norm>
0

>  <SCORE.heavy>
31

>  <SCORE.norm>
-2.00686

>  <SYMMETRIC_BONDS>
33 34 3

>  <RMSD>
1.414

$$$$
1fmn_cryst
 OpenBabel11021811393D
libRbt.so/2013.1/901 2013/11/27
 31 33  0  0  0  0  0  0  0  0999 V2000
   -8.7764   -6.1464    3.7428 N   0  0  0  0  0  0  0  0  0  0  0  0
   -9.5896   -6.2016    4.8506 C   0  0  0  0  0  0  0  0  0  0  0  0
   -9.2221   -6.7211    5.9049 O   0  0  0  0  0  0  0  0  0  0  0  0
  -10.8770   -5.6277    4.6999 N   0  0  0  0  0  0  0  0  0  0  0  0
  -11.3976   -5.0155    3.5387 C   0  0  0  0  0  0  0  0  0  0  0  0
  -12.5445   -4.5510    3.5454 O   0  0  0  0  0  0  0  0  0  0  0  0
  -10.4715   -4.9977    2.4042 C   0  0  0  0  0  0  0  0  0  0  0  0
  -10.9020   -4.4193    1.2362 N   0  0  0  0  0  0  0  0  0  0  0  0
  -10.1119   -4.5636    0.1328 C   0  0  0  0  0  0  0  0  0  0  0  0
  -10.6202   -4.1475   -1.0849 C   0  0  0  0  0  0  0  0  0  0  0  0
   -9.8926   -4.2597   -2.2204 C   0  0  0  0  0  0  0  0  0  0  0  0
  -10.4874   -3.7919   -3.5102 C   0  0  0  0  0  0  0  0  0  0  0  0
   -8.6398   -4.7891   -2.1845 C   0  0  0  0  0  0  0  0  0  0  0  0
   -7.8462   -4.9156   -3.4440 C   0  0  0  0  0  0  0  0  0  0  0  0
   -8.0996   -5.2101   -1.0125 C   0  0  0  0  0  0  0  0  0  0  0  0
   -8.8072   -5.1163    0.1859 C   0  0  0  0  0  0  0  0  0  0  0  0
   -8.3051   -5.5308    1.4373 N   0  0  0  0  0  0  0  0  0  0  0  0
   -9.1590   -5.5800    2.5583 C   0  0  0  0  0  0  0  0  0  0  0  0
   -6.8281   -5.3631    1.6992 C   0  0  0  0  0  0  0  0  0  0  0  0
   -6.0450   -6.6514    2.0957 C   0  0  1  0  0  0  0  0  0  0  0  0
   -5.3583   -7.1735    0.9670 O   0  0  0  0  0  0  0  0  0  0  0  0
   -5.1034   -6.4449    3.3059 C   0  0  1  0  0  0  0  0  0  0  0  0
   -5.8544   -6.0704    4.4572 O   0  0  0  0  0  0  0  0  0  0  0  0
   -4.1471   -7.6112    3.6569 C   0  0  1  0  0  0  0  0  0  0  0  0
   -3.3094   -7.8591    2.5331 O   0  0  0  0  0  0  0  0  0  0  0  0
   -3.2572   -7.3123    4.8842 C   0  0  0  0  0  0  0  0  0  0  0  0
   -2.3179   -8.3498    5.1400 O   0  0  0  0  0  0  0  0  0  0  0  0
   -1.3217   -8.3185    6.3721 P   0  0  0  0  0  0  0  0  0  0  0  0
   -0.4467   -7.1255    6.3142 O   0  0  0  0  0  0  0  0  0  0  0  0
   -2.0408   -8.6086    7.6314 O   0  5  0  0  0  0  0  0  0  0  0  0
   -0.3620   -9.5621    6.1129 O   0  5  0  0  0  0  0  0  0  0  0  0
  1 18  1  0  0  0  0
  1  2  1  0  0  0  0
  2  4  1  0  0  0  0
  2  3  2  0  0  0  0
  4  5  1  0  0  0  0
  5  7  1  0  0  0  0
  5  6  2  0  0  0  0
  7 18  2  0  0  0  0
  7  8  1  0  0  0  0
  8  9  1  0  0  0  0
  9 10  2  0  0  0  0
  9 16  1  0  0  0  0
 10 11  1  0  0  0  0
 11 12  1  0  0  0  0
 11 13  2  0  0  0  0
 13 14  1  0  0  0  0
 13 15  1  0  0  0  0
 15 16  2  0  0  0  0
 16 17  1  0  0  0  0
 17 19  1  0  0  0  0
 17 18  1  0  0  0  0
 20 19  1  6  0  0  0
 20 22  1  0  0  0  0
 20 21  1  0  0  0  0
 22 24  1  0  0  0  0
 22 23  1  1  0  0  0
 24 26  1  1  0  0  0
 24 25  1  0  0  0  0
 26 27  1  0  0  0  0
 27 28  1  0  0  0  0
 28 30  1  0  0  0  0
 28 29  2  0  0  0  0
 28 31  1  0  0  0  0
M  CHG  2  30  -1  31  -1
M  END
>  <CHROM.1>
-123.68758666,99.68280035,61.36519978,60.47695509,59.80456007,-178.27441688
-175.82961165,-177.57746709,-177.67802578,-59.63130229,-6.77195100,-6.22884835
2.72531279,2.49972599,0.27936973,-1.38467178

>  <Name>
1fmn_cryst

>  <RI>
0

>  <Rbt.Current_Directory>
/home/itssahil/PROJECTS/Mol_Feturizer/New_Systems/rnas/1fmn

>  <Rbt.Executable>
rbdock ($Id: //depot/dev/client3/rdock/2013.1/src/exe/rbdock.cxx#4 $)

>  <Rbt.Library>
libRbt.so (2013.1, Build901 2013/11/27)

>  <Rbt.Parameter_File>
/export/apps/rDock/src/rDock_2013.1_src/data/scripts/dock_solv.prm

>  <Rbt.Receptor>
prm/pocket_docking_3.prm

>  <SCORE>
-55.8763

>  <SCORE.INTER>
-47.9238

>  <SCORE.INTER.CONST>
1

>  <SCORE.INTER.POLAR>
-2.67525

>  <SCORE.INTER.ROT>
7

>  <SCORE.INTER.SOLV>
14.2974

>  <SCORE.INTER.VDW>
-36.0642

>  <SCORE.INTER.norm>
-1.54593

>  <SCORE.INTRA>
-7.95249

>  <SCORE.INTRA.DIHEDRAL>
-9.15496

>  <SCORE.INTRA.DIHEDRAL.0>
15.5708

>  <SCORE.INTRA.POLAR>
-0.768032

>  <SCORE.INTRA.POLAR.0>
-0.0677885

>  <SCORE.INTRA.REPUL>
0

>  <SCORE.INTRA.REPUL.0>
0

>  <SCORE.INTRA.SOLV>
-4.02782

>  <SCORE.INTRA.SOLV.lig_0>
-87.6316

>  <SCORE.INTRA.VDW>
1.25021

>  <SCORE.INTRA.VDW.0>
-2.87309

>  <SCORE.INTRA.norm>
-0.256532

>  <SCORE.RESTR>
0

>  <SCORE.RESTR.CAVITY>
0

>  <SCORE.RESTR.norm>
0

>  <SCORE.SYSTEM>
0

>  <SCORE.SYSTEM.CONST>
0

>  <SCORE.SYSTEM.DIHEDRAL>
0

>  <SCORE.SYSTEM.SOLV>
0

>  <SCORE.SYSTEM.norm>
0

>  <SCORE.heavy>
31

>  <SCORE.norm>
-1.80246

>  <SYMMETRIC_BONDS>
33 34 3

>  <RMSD>
1.415

$$$$
1fmn_cryst
 OpenBabel11021811393D
libRbt.so/2013.1/901 2013/11/27
 31 33  0  0  0  0  0  0  0  0999 V2000
   -8.5300   -6.1071    3.7372 N   0  0  0  0  0  0  0  0  0  0  0  0
   -9.4106   -6.1558    4.7925 C   0  0  0  0  0  0  0  0  0  0  0  0
   -9.0932   -6.6237    5.8865 O   0  0  0  0  0  0  0  0  0  0  0  0
  -10.7059   -5.6385    4.5393 N   0  0  0  0  0  0  0  0  0  0  0  0
  -11.1724   -5.0878    3.3256 C   0  0  0  0  0  0  0  0  0  0  0  0
  -12.3338   -4.6687    3.2423 O   0  0  0  0  0  0  0  0  0  0  0  0
  -10.1761   -5.0729    2.2521 C   0  0  0  0  0  0  0  0  0  0  0  0
  -10.5512   -4.5525    1.0385 N   0  0  0  0  0  0  0  0  0  0  0  0
   -9.6864   -4.7039   -0.0064 C   0  0  0  0  0  0  0  0  0  0  0  0
  -10.1299   -4.3504   -1.2684 C   0  0  0  0  0  0  0  0  0  0  0  0
   -9.3266   -4.4731   -2.3506 C   0  0  0  0  0  0  0  0  0  0  0  0
   -9.8535   -4.0739   -3.6920 C   0  0  0  0  0  0  0  0  0  0  0  0
   -8.0600   -4.9514   -2.2158 C   0  0  0  0  0  0  0  0  0  0  0  0
   -7.1824   -5.0901   -3.4169 C   0  0  0  0  0  0  0  0  0  0  0  0
   -7.5817   -5.3100   -0.9970 C   0  0  0  0  0  0  0  0  0  0  0  0
   -8.3684   -5.2026    0.1497 C   0  0  0  0  0  0  0  0  0  0  0  0
   -7.9335   -5.5536    1.4450 N   0  0  0  0  0  0  0  0  0  0  0  0
   -8.8557   -5.5974    2.5106 C   0  0  0  0  0  0  0  0  0  0  0  0
   -6.4837   -5.3190    1.7936 C   0  0  0  0  0  0  0  0  0  0  0  0
   -5.4380   -6.1756    1.0170 C   0  0  1  0  0  0  0  0  0  0  0  0
   -4.1327   -5.6509    1.2136 O   0  0  0  0  0  0  0  0  0  0  0  0
   -5.5157   -7.6842    1.3516 C   0  0  1  0  0  0  0  0  0  0  0  0
   -6.6487   -8.2723    0.7191 O   0  0  0  0  0  0  0  0  0  0  0  0
   -4.2522   -8.5319    1.0636 C   0  0  1  0  0  0  0  0  0  0  0  0
   -3.5890   -7.9798   -0.0683 O   0  0  0  0  0  0  0  0  0  0  0  0
   -3.2648   -8.5645    2.2517 C   0  0  0  0  0  0  0  0  0  0  0  0
   -3.8672   -9.0495    3.4459 O   0  0  0  0  0  0  0  0  0  0  0  0
   -3.0920   -9.1268    4.8258 P   0  0  0  0  0  0  0  0  0  0  0  0
   -4.0109   -9.4887    5.9289 O   0  0  0  0  0  0  0  0  0  0  0  0
   -1.8331   -9.8880    4.6746 O   0  5  0  0  0  0  0  0  0  0  0  0
   -2.6670   -7.6181    5.1049 O   0  5  0  0  0  0  0  0  0  0  0  0
  1 18  1  0  0  0  0
  1  2  1  0  0  0  0
  2  4  1  0  0  0  0
  2  3  2  0  0  0  0
  4  5  1  0  0  0  0
  5  7  1  0  0  0  0
  5  6  2  0  0  0  0
  7 18  2  0  0  0  0
  7  8  1  0  0  0  0
  8  9  1  0  0  0  0
  9 10  2  0  0  0  0
  9 16  1  0  0  0  0
 10 11  1  0  0  0  0
 11 12  1  0  0  0  0
 11 13  2  0  0  0  0
 13 14  1  0  0  0  0
 13 15  1  0  0  0  0
 15 16  2  0  0  0  0
 16 17  1  0  0  0  0
 17 19  1  0  0  0  0
 17 18  1  0  0  0  0
 20 19  1  1  0  0  0
 20 22  1  0  0  0  0
 20 21  1  0  0  0  0
 22 24  1  0  0  0  0
 22 23  1  6  0  0  0
 24 26  1  1  0  0  0
 24 25  1  0  0  0  0
 26 27  1  0  0  0  0
 27 28  1  0  0  0  0
 28 30  1  0  0  0  0
 28 29  2  0  0  0  0
 28 31  1  0  0  0  0
M  CHG  2  30  -1  31  -1
M  END
>  <CHROM.1>
-65.95993523,166.81218356,75.06893619,-76.58697066,-32.13688707,162.33303125
56.96365461,60.05991284,-177.35868678,172.10724987,-6.93001140,-6.52879562
1.88642403,2.53022778,0.42011914,-1.31920057

>  <Name>
1fmn_cryst

>  <RI>
0

>  <Rbt.Current_Directory>
/home/itssahil/PROJECTS/Mol_Feturizer/New_Systems/rnas/1fmn

>  <Rbt.Executable>
rbdock ($Id: //depot/dev/client3/rdock/2013.1/src/exe/rbdock.cxx#4 $)

>  <Rbt.Library>
libRbt.so (2013.1, Build901 2013/11/27)

>  <Rbt.Parameter_File>
/export/apps/rDock/src/rDock_2013.1_src/data/scripts/dock_solv.prm

>  <Rbt.Receptor>
prm/pocket_docking_3.prm

>  <SCORE>
-61.0996

>  <SCORE.INTER>
-55.442

>  <SCORE.INTER.CONST>
1

>  <SCORE.INTER.POLAR>
-3.85781

>  <SCORE.INTER.ROT>
7

>  <SCORE.INTER.SOLV>
18.3667

>  <SCORE.INTER.VDW>
-38.4909

>  <SCORE.INTER.norm>
-1.78845

>  <SCORE.INTRA>
-5.65752

>  <SCORE.INTRA.DIHEDRAL>
-7.50403

>  <SCORE.INTRA.DIHEDRAL.0>
15.5708

>  <SCORE.INTRA.POLAR>
-0.276306

>  <SCORE.INTRA.POLAR.0>
-0.0677885

>  <SCORE.INTRA.REPUL>
0

>  <SCORE.INTRA.REPUL.0>
0

>  <SCORE.INTRA.SOLV>
-3.93462

>  <SCORE.INTRA.SOLV.lig_0>
-87.6316

>  <SCORE.INTRA.VDW>
1.00124

>  <SCORE.INTRA.VDW.0>
-2.87309

>  <SCORE.INTRA.norm>
-0.182501

>  <SCORE.RESTR>
0

>  <SCORE.RESTR.CAVITY>
0

>  <SCORE.RESTR.norm>
0

>  <SCORE.SYSTEM>
0

>  <SCORE.SYSTEM.CONST>
0

>  <SCORE.SYSTEM.DIHEDRAL>
0

>  <SCORE.SYSTEM.SOLV>
0

>  <SCORE.SYSTEM.norm>
0

>  <SCORE.heavy>
31

>  <SCORE.norm>
-1.97095

>  <SYMMETRIC_BONDS>
33 34 3

>  <RMSD>
1.420

$$$$
1fmn_cryst
 OpenBabel11021811393D
libRbt.so/2013.1/901 2013/11/27
 31 33  0  0  0  0  0  0  0  0999 V2000
   -8.9373   -6.1738    3.5359 N   0  0  0  0  0  0  0  0  0  0  0  0
   -9.6922   -6.1963    4.6854 C   0  0  0  0  0  0  0  0  0  0  0  0
   -9.3134   -6.7761    5.7037 O   0  0  0  0  0  0  0  0  0  0  0  0
  -10.9337   -5.5151    4.6216 N   0  0  0  0  0  0  0  0  0  0  0  0
  -11.4627   -4.8273    3.5075 C   0  0  0  0  0  0  0  0  0  0  0  0
  -12.5651   -4.2712    3.5901 O   0  0  0  0  0  0  0  0  0  0  0  0
  -10.6001   -4.8504    2.3240 C   0  0  0  0  0  0  0  0  0  0  0  0
  -11.0427   -4.2033    1.1972 N   0  0  0  0  0  0  0  0  0  0  0  0
  -10.3271   -4.3778    0.0483 C   0  0  0  0  0  0  0  0  0  0  0  0
  -10.8633   -3.8845   -1.1280 C   0  0  0  0  0  0  0  0  0  0  0  0
  -10.2091   -4.0209   -2.3047 C   0  0  0  0  0  0  0  0  0  0  0  0
  -10.8308   -3.4669   -3.5469 C   0  0  0  0  0  0  0  0  0  0  0  0
   -9.0045   -4.6515   -2.3524 C   0  0  0  0  0  0  0  0  0  0  0  0
   -8.2923   -4.8037   -3.6570 C   0  0  0  0  0  0  0  0  0  0  0  0
   -8.4394   -5.1508   -1.2236 C   0  0  0  0  0  0  0  0  0  0  0  0
   -9.0719   -5.0363    0.0143 C   0  0  0  0  0  0  0  0  0  0  0  0
   -8.5401   -5.5284    1.2246 N   0  0  0  0  0  0  0  0  0  0  0  0
   -9.3341   -5.5420    2.3897 C   0  0  0  0  0  0  0  0  0  0  0  0
   -7.0424   -5.4897    1.4082 C   0  0  0  0  0  0  0  0  0  0  0  0
   -6.2647   -6.7856    1.0261 C   0  0  1  0  0  0  0  0  0  0  0  0
   -5.3812   -6.5252   -0.0554 O   0  0  0  0  0  0  0  0  0  0  0  0
   -5.5390   -7.4382    2.2267 C   0  0  1  0  0  0  0  0  0  0  0  0
   -6.4473   -7.6302    3.3073 O   0  0  0  0  0  0  0  0  0  0  0  0
   -4.7652   -8.7504    1.9490 C   0  0  1  0  0  0  0  0  0  0  0  0
   -4.0359   -8.5940    0.7367 O   0  0  0  0  0  0  0  0  0  0  0  0
   -3.7781   -9.1187    3.0793 C   0  0  0  0  0  0  0  0  0  0  0  0
   -4.4244   -9.2680    4.3379 O   0  0  0  0  0  0  0  0  0  0  0  0
   -3.6277   -9.5086    5.6865 P   0  0  0  0  0  0  0  0  0  0  0  0
   -4.5549   -9.6223    6.8352 O   0  0  0  0  0  0  0  0  0  0  0  0
   -2.5962  -10.5524    5.5034 O   0  5  0  0  0  0  0  0  0  0  0  0
   -2.8413   -8.1423    5.9091 O   0  5  0  0  0  0  0  0  0  0  0  0
  1 18  1  0  0  0  0
  1  2  1  0  0  0  0
  2  4  1  0  0  0  0
  2  3  2  0  0  0  0
  4  5  1  0  0  0  0
  5  7  1  0  0  0  0
  5  6  2  0  0  0  0
  7 18  2  0  0  0  0
  7  8  1  0  0  0  0
  8  9  1  0  0  0  0
  9 10  2  0  0  0  0
  9 16  1  0  0  0  0
 10 11  1  0  0  0  0
 11 12  1  0  0  0  0
 11 13  2  0  0  0  0
 13 14  1  0  0  0  0
 13 15  1  0  0  0  0
 15 16  2  0  0  0  0
 16 17  1  0  0  0  0
 17 19  1  0  0  0  0
 17 18  1  0  0  0  0
 20 19  1  1  0  0  0
 20 22  1  0  0  0  0
 20 21  1  0  0  0  0
 22 24  1  0  0  0  0
 22 23  1  1  0  0  0
 24 26  1  1  0  0  0
 24 25  1  0  0  0  0
 26 27  1  0  0  0  0
 27 28  1  0  0  0  0
 28 30  1  0  0  0  0
 28 29  2  0  0  0  0
 28 31  1  0  0  0  0
M  CHG  2  30  -1  31  -1
M  END
>  <CHROM.1>
-94.30140925,116.57351246,52.18692455,64.33633831,43.88954026,176.30266852
58.41458674,60.24820211,-174.07288396,179.82351473,-7.47023178,-6.56291643
2.20272182,2.41216344,0.47761874,-1.31504136

>  <Name>
1fmn_cryst

>  <RI>
0

>  <Rbt.Current_Directory>
/home/itssahil/PROJECTS/Mol_Feturizer/New_Systems/rnas/1fmn

>  <Rbt.Executable>
rbdock ($Id: //depot/dev/client3/rdock/2013.1/src/exe/rbdock.cxx#4 $)

>  <Rbt.Library>
libRbt.so (2013.1, Build901 2013/11/27)

>  <Rbt.Parameter_File>
/export/apps/rDock/src/rDock_2013.1_src/data/scripts/dock_solv.prm

>  <Rbt.Receptor>
prm/pocket_docking_2.prm

>  <SCORE>
-59.1627

>  <SCORE.INTER>
-49.3341

>  <SCORE.INTER.CONST>
1

>  <SCORE.INTER.POLAR>
-2.14384

>  <SCORE.INTER.ROT>
7

>  <SCORE.INTER.SOLV>
17.3589

>  <SCORE.INTER.VDW>
-39.7962

>  <SCORE.INTER.norm>
-1.59142

>  <SCORE.INTRA>
-9.82866

>  <SCORE.INTRA.DIHEDRAL>
-6.17351

>  <SCORE.INTRA.DIHEDRAL.0>
15.5708

>  <SCORE.INTRA.POLAR>
-1.73215

>  <SCORE.INTRA.POLAR.0>
-0.0677885

>  <SCORE.INTRA.REPUL>
0

>  <SCORE.INTRA.REPUL.0>
0

>  <SCORE.INTRA.SOLV>
-2.7787

>  <SCORE.INTRA.SOLV.lig_0>
-87.6316

>  <SCORE.INTRA.VDW>
0.536746

>  <SCORE.INTRA.VDW.0>
-2.87309

>  <SCORE.INTRA.norm>
-0.317054

>  <SCORE.RESTR>
0

>  <SCORE.RESTR.CAVITY>
0

>  <SCORE.RESTR.norm>
0

>  <SCORE.SYSTEM>
0

>  <SCORE.SYSTEM.CONST>
0

>  <SCORE.SYSTEM.DIHEDRAL>
0

>  <SCORE.SYSTEM.SOLV>
0

>  <SCORE.SYSTEM.norm>
0

>  <SCORE.heavy>
31

>  <SCORE.norm>
-1.90848

>  <SYMMETRIC_BONDS>
33 34 3

>  <RMSD>
1.422

$$$$
1fmn_cryst
 OpenBabel11021811393D
libRbt.so/2013.1/901 2013/11/27
 31 33  0  0  0  0  0  0  0  0999 V2000
   -9.0308   -6.0931    3.6626 N   0  0  0  0  0  0  0  0  0  0  0  0
   -9.9202   -6.0198    4.7091 C   0  0  0  0  0  0  0  0  0  0  0  0
   -9.6885   -6.5412    5.8004 O   0  0  0  0  0  0  0  0  0  0  0  0
  -11.1205   -5.3114    4.4500 N   0  0  0  0  0  0  0  0  0  0  0  0
  -11.4859   -4.6845    3.2385 C   0  0  0  0  0  0  0  0  0  0  0  0
  -12.5703   -4.0950    3.1495 O   0  0  0  0  0  0  0  0  0  0  0  0
  -10.4869   -4.8084    2.1746 C   0  0  0  0  0  0  0  0  0  0  0  0
  -10.7665   -4.2253    0.9638 N   0  0  0  0  0  0  0  0  0  0  0  0
   -9.9228   -4.4940   -0.0748 C   0  0  0  0  0  0  0  0  0  0  0  0
  -10.2945   -4.0651   -1.3366 C   0  0  0  0  0  0  0  0  0  0  0  0
   -9.5069   -4.2959   -2.4127 C   0  0  0  0  0  0  0  0  0  0  0  0
   -9.9533   -3.8085   -3.7541 C   0  0  0  0  0  0  0  0  0  0  0  0
   -8.3280   -4.9602   -2.2718 C   0  0  0  0  0  0  0  0  0  0  0  0
   -7.4680   -5.2168   -3.4662 C   0  0  0  0  0  0  0  0  0  0  0  0
   -7.9221   -5.3990   -1.0530 C   0  0  0  0  0  0  0  0  0  0  0  0
   -8.6963   -5.1865    0.0877 C   0  0  0  0  0  0  0  0  0  0  0  0
   -8.3331   -5.6119    1.3827 N   0  0  0  0  0  0  0  0  0  0  0  0
   -9.2630   -5.5278    2.4391 C   0  0  0  0  0  0  0  0  0  0  0  0
   -6.8684   -5.6012    1.7474 C   0  0  0  0  0  0  0  0  0  0  0  0
   -6.3089   -6.9006    2.4021 C   0  0  1  0  0  0  0  0  0  0  0  0
   -5.9777   -7.8505    1.3991 O   0  0  0  0  0  0  0  0  0  0  0  0
   -5.1287   -6.6379    3.3677 C   0  0  1  0  0  0  0  0  0  0  0  0
   -5.5756   -5.9066    4.5056 O   0  0  0  0  0  0  0  0  0  0  0  0
   -4.3072   -7.8695    3.8218 C   0  0  1  0  0  0  0  0  0  0  0  0
   -5.1794   -8.9925    3.8860 O   0  0  0  0  0  0  0  0  0  0  0  0
   -3.1394   -8.2008    2.8657 C   0  0  0  0  0  0  0  0  0  0  0  0
   -2.3571   -9.2976    3.3230 O   0  0  0  0  0  0  0  0  0  0  0  0
   -1.4086   -9.2041    4.5890 P   0  0  0  0  0  0  0  0  0  0  0  0
   -0.7323  -10.4971    4.8395 O   0  0  0  0  0  0  0  0  0  0  0  0
   -0.5883   -7.9747    4.5361 O   0  5  0  0  0  0  0  0  0  0  0  0
   -2.4191   -9.0109    5.8041 O   0  5  0  0  0  0  0  0  0  0  0  0
  1 18  1  0  0  0  0
  1  2  1  0  0  0  0
  2  4  1  0  0  0  0
  2  3  2  0  0  0  0
  4  5  1  0  0  0  0
  5  7  1  0  0  0  0
  5  6  2  0  0  0  0
  7 18  2  0  0  0  0
  7  8  1  0  0  0  0
  8  9  1  0  0  0  0
  9 10  2  0  0  0  0
  9 16  1  0  0  0  0
 10 11  1  0  0  0  0
 11 12  1  0  0  0  0
 11 13  2  0  0  0  0
 13 14  1  0  0  0  0
 13 15  1  0  0  0  0
 15 16  2  0  0  0  0
 16 17  1  0  0  0  0
 17 19  1  0  0  0  0
 17 18  1  0  0  0  0
 20 19  1  6  0  0  0
 20 22  1  0  0  0  0
 20 21  1  0  0  0  0
 22 24  1  0  0  0  0
 22 23  1  1  0  0  0
 24 26  1  6  0  0  0
 24 25  1  0  0  0  0
 26 27  1  0  0  0  0
 27 28  1  0  0  0  0
 28 30  1  0  0  0  0
 28 29  2  0  0  0  0
 28 31  1  0  0  0  0
M  CHG  2  30  -1  31  -1
M  END
>  <CHROM.1>
-131.18186315,83.03237404,66.65694450,-178.13414687,-32.19143619,60.02821146
177.44865603,-173.30732836,-70.38963337,179.32935550,-6.88062435,-6.48012263
2.30150078,2.61257371,0.39648824,-1.35625823

>  <Name>
1fmn_cryst

>  <RI>
0

>  <Rbt.Current_Directory>
/home/itssahil/PROJECTS/Mol_Feturizer/New_Systems/rnas/1fmn

>  <Rbt.Executable>
rbdock ($Id: //depot/dev/client3/rdock/2013.1/src/exe/rbdock.cxx#4 $)

>  <Rbt.Library>
libRbt.so (2013.1, Build901 2013/11/27)

>  <Rbt.Parameter_File>
/export/apps/rDock/src/rDock_2013.1_src/data/scripts/dock_solv.prm

>  <Rbt.Receptor>
prm/pocket_docking_3.prm

>  <SCORE>
-54.0668

>  <SCORE.INTER>
-48.9524

>  <SCORE.INTER.CONST>
1

>  <SCORE.INTER.POLAR>
-2.79246

>  <SCORE.INTER.ROT>
7

>  <SCORE.INTER.SOLV>
15.0805

>  <SCORE.INTER.VDW>
-36.6202

>  <SCORE.INTER.norm>
-1.57911

>  <SCORE.INTRA>
-5.11441

>  <SCORE.INTRA.DIHEDRAL>
-8.58631

>  <SCORE.INTRA.DIHEDRAL.0>
15.5708

>  <SCORE.INTRA.POLAR>
-0.39148

>  <SCORE.INTRA.POLAR.0>
-0.0677885

>  <SCORE.INTRA.REPUL>
0

>  <SCORE.INTRA.REPUL.0>
0

>  <SCORE.INTRA.SOLV>
-0.419485

>  <SCORE.INTRA.SOLV.lig_0>
-87.6316

>  <SCORE.INTRA.VDW>
0.719513

>  <SCORE.INTRA.VDW.0>
-2.87309

>  <SCORE.INTRA.norm>
-0.164981

>  <SCORE.RESTR>
0

>  <SCORE.RESTR.CAVITY>
0

>  <SCORE.RESTR.norm>
0

>  <SCORE.SYSTEM>
0

>  <SCORE.SYSTEM.CONST>
0

>  <SCORE.SYSTEM.DIHEDRAL>
0

>  <SCORE.SYSTEM.SOLV>
0

>  <SCORE.SYSTEM.norm>
0

>  <SCORE.heavy>
31

>  <SCORE.norm>
-1.74409

>  <SYMMETRIC_BONDS>
33 34 3

>  <RMSD>
1.433

$$$$
1fmn_cryst
 OpenBabel11021811393D
libRbt.so/2013.1/901 2013/11/27
 31 33  0  0  0  0  0  0  0  0999 V2000
   -8.7537   -6.1570    3.7587 N   0  0  0  0  0  0  0  0  0  0  0  0
   -9.7010   -6.1630    4.7558 C   0  0  0  0  0  0  0  0  0  0  0  0
   -9.4703   -6.6280    5.8725 O   0  0  0  0  0  0  0  0  0  0  0  0
  -10.9589   -5.6054    4.4149 N   0  0  0  0  0  0  0  0  0  0  0  0
  -11.3278   -5.0541    3.1682 C   0  0  0  0  0  0  0  0  0  0  0  0
  -12.4663   -4.5970    3.0065 O   0  0  0  0  0  0  0  0  0  0  0  0
  -10.2651   -5.0860    2.1608 C   0  0  0  0  0  0  0  0  0  0  0  0
  -10.5439   -4.5681    0.9205 N   0  0  0  0  0  0  0  0  0  0  0  0
   -9.6200   -4.7613   -0.0652 C   0  0  0  0  0  0  0  0  0  0  0  0
   -9.9696   -4.4085   -1.3566 C   0  0  0  0  0  0  0  0  0  0  0  0
   -9.1036   -4.5715   -2.3837 C   0  0  0  0  0  0  0  0  0  0  0  0
   -9.5299   -4.1711   -3.7601 C   0  0  0  0  0  0  0  0  0  0  0  0
   -7.8655   -5.0906   -2.1632 C   0  0  0  0  0  0  0  0  0  0  0  0
   -6.9183   -5.2735   -3.3040 C   0  0  0  0  0  0  0  0  0  0  0  0
   -7.4785   -5.4503   -0.9127 C   0  0  0  0  0  0  0  0  0  0  0  0
   -8.3326   -5.3024    0.1801 C   0  0  0  0  0  0  0  0  0  0  0  0
   -7.9935   -5.6520    1.5041 N   0  0  0  0  0  0  0  0  0  0  0  0
   -8.9828   -5.6516    2.5087 C   0  0  0  0  0  0  0  0  0  0  0  0
   -6.5616   -5.4623    1.9425 C   0  0  0  0  0  0  0  0  0  0  0  0
   -5.5217   -6.4694    1.3642 C   0  0  1  0  0  0  0  0  0  0  0  0
   -4.2289   -6.1891    1.8817 O   0  0  0  0  0  0  0  0  0  0  0  0
   -5.9240   -7.9489    1.5723 C   0  0  1  0  0  0  0  0  0  0  0  0
   -5.5861   -8.7186    0.4222 O   0  0  0  0  0  0  0  0  0  0  0  0
   -5.3928   -8.6468    2.8485 C   0  0  1  0  0  0  0  0  0  0  0  0
   -3.9773   -8.7546    2.7455 O   0  0  0  0  0  0  0  0  0  0  0  0
   -5.7403   -7.8795    4.1439 C   0  0  0  0  0  0  0  0  0  0  0  0
   -5.7078   -8.7145    5.2954 O   0  0  0  0  0  0  0  0  0  0  0  0
   -4.3870   -9.4338    5.7946 P   0  0  0  0  0  0  0  0  0  0  0  0
   -4.5229   -9.8706    7.2028 O   0  0  0  0  0  0  0  0  0  0  0  0
   -3.9160  -10.4134    4.7919 O   0  5  0  0  0  0  0  0  0  0  0  0
   -3.3057   -8.2654    5.8149 O   0  5  0  0  0  0  0  0  0  0  0  0
  1 18  1  0  0  0  0
  1  2  1  0  0  0  0
  2  4  1  0  0  0  0
  2  3  2  0  0  0  0
  4  5  1  0  0  0  0
  5  7  1  0  0  0  0
  5  6  2  0  0  0  0
  7 18  2  0  0  0  0
  7  8  1  0  0  0  0
  8  9  1  0  0  0  0
  9 10  2  0  0  0  0
  9 16  1  0  0  0  0
 10 11  1  0  0  0  0
 11 12  1  0  0  0  0
 11 13  2  0  0  0  0
 13 14  1  0  0  0  0
 13 15  1  0  0  0  0
 15 16  2  0  0  0  0
 16 17  1  0  0  0  0
 17 19  1  0  0  0  0
 17 18  1  0  0  0  0
 20 19  1  1  0  0  0
 20 22  1  0  0  0  0
 20 21  1  0  0  0  0
 22 24  1  0  0  0  0
 22 23  1  6  0  0  0
 24 26  1  1  0  0  0
 24 25  1  0  0  0  0
 26 27  1  0  0  0  0
 27 28  1  0  0  0  0
 28 30  1  0  0  0  0
 28 29  2  0  0  0  0
 28 31  1  0  0  0  0
M  CHG  2  30  -1  31  -1
M  END
>  <CHROM.1>
-72.63404870,-178.79081041,141.03051552,46.29200790,-66.39826498,-167.06972753
158.24289411,57.31700991,62.82768794,162.08413088,-7.31271523,-6.68985341
2.32130730,2.25218998,0.45925038,-1.27938647

>  <Name>
1fmn_cryst

>  <RI>
0

>  <Rbt.Current_Directory>
/home/itssahil/PROJECTS/Mol_Feturizer/New_Systems/rnas/1fmn

>  <Rbt.Executable>
rbdock ($Id: //depot/dev/client3/rdock/2013.1/src/exe/rbdock.cxx#4 $)

>  <Rbt.Library>
libRbt.so (2013.1, Build901 2013/11/27)

>  <Rbt.Parameter_File>
/export/apps/rDock/src/rDock_2013.1_src/data/scripts/dock_solv.prm

>  <Rbt.Receptor>
prm/pocket_docking_4.prm

>  <SCORE>
-54.7443

>  <SCORE.INTER>
-52.3909

>  <SCORE.INTER.CONST>
1

>  <SCORE.INTER.POLAR>
-3.00747

>  <SCORE.INTER.ROT>
7

>  <SCORE.INTER.SOLV>
19.1605

>  <SCORE.INTER.VDW>
-39.5558

>  <SCORE.INTER.norm>
-1.69003

>  <SCORE.INTRA>
-2.35345

>  <SCORE.INTRA.DIHEDRAL>
-6.1428

>  <SCORE.INTRA.DIHEDRAL.0>
15.5708

>  <SCORE.INTRA.POLAR>
-0.210079

>  <SCORE.INTRA.POLAR.0>
-0.0677885

>  <SCORE.INTRA.REPUL>
0

>  <SCORE.INTRA.REPUL.0>
0

>  <SCORE.INTRA.SOLV>
1.18047

>  <SCORE.INTRA.SOLV.lig_0>
-87.6316

>  <SCORE.INTRA.VDW>
0.841988

>  <SCORE.INTRA.VDW.0>
-2.87309

>  <SCORE.INTRA.norm>
-0.0759177

>  <SCORE.RESTR>
0

>  <SCORE.RESTR.CAVITY>
0

>  <SCORE.RESTR.norm>
0

>  <SCORE.SYSTEM>
0

>  <SCORE.SYSTEM.CONST>
0

>  <SCORE.SYSTEM.DIHEDRAL>
0

>  <SCORE.SYSTEM.SOLV>
0

>  <SCORE.SYSTEM.norm>
0

>  <SCORE.heavy>
31

>  <SCORE.norm>
-1.76595

>  <SYMMETRIC_BONDS>
33 34 3

>  <RMSD>
1.439

$$$$
1fmn_cryst
 OpenBabel11021811393D
libRbt.so/2013.1/901 2013/11/27
 31 33  0  0  0  0  0  0  0  0999 V2000
   -8.8036   -6.1208    3.7026 N   0  0  0  0  0  0  0  0  0  0  0  0
   -9.6760   -6.1270    4.7658 C   0  0  0  0  0  0  0  0  0  0  0  0
   -9.3835   -6.6387    5.8471 O   0  0  0  0  0  0  0  0  0  0  0  0
  -10.9326   -5.5125    4.5362 N   0  0  0  0  0  0  0  0  0  0  0  0
  -11.3689   -4.9050    3.3384 C   0  0  0  0  0  0  0  0  0  0  0  0
  -12.4975   -4.4015    3.2754 O   0  0  0  0  0  0  0  0  0  0  0  0
  -10.3837   -4.9405    2.2551 C   0  0  0  0  0  0  0  0  0  0  0  0
  -10.7309   -4.3699    1.0559 N   0  0  0  0  0  0  0  0  0  0  0  0
   -9.8888   -4.5622   -0.0007 C   0  0  0  0  0  0  0  0  0  0  0  0
  -10.3167   -4.1521   -1.2509 C   0  0  0  0  0  0  0  0  0  0  0  0
   -9.5341   -4.3107   -2.3435 C   0  0  0  0  0  0  0  0  0  0  0  0
  -10.0427   -3.8474   -3.6714 C   0  0  0  0  0  0  0  0  0  0  0  0
   -8.3044   -4.8819   -2.2313 C   0  0  0  0  0  0  0  0  0  0  0  0
   -7.4499   -5.0593   -3.4439 C   0  0  0  0  0  0  0  0  0  0  0  0
   -7.8424   -5.2987   -1.0248 C   0  0  0  0  0  0  0  0  0  0  0  0
   -8.6090   -5.1580    0.1320 C   0  0  0  0  0  0  0  0  0  0  0  0
   -8.1891   -5.5655    1.4155 N   0  0  0  0  0  0  0  0  0  0  0  0
   -9.1025   -5.5642    2.4896 C   0  0  0  0  0  0  0  0  0  0  0  0
   -6.7231   -5.4435    1.7536 C   0  0  0  0  0  0  0  0  0  0  0  0
   -6.0143   -6.7443    2.2391 C   0  0  1  0  0  0  0  0  0  0  0  0
   -5.4938   -7.4615    1.1289 O   0  0  0  0  0  0  0  0  0  0  0  0
   -4.9391   -6.4858    3.3213 C   0  0  1  0  0  0  0  0  0  0  0  0
   -5.4976   -5.7503    4.4060 O   0  0  0  0  0  0  0  0  0  0  0  0
   -4.1753   -7.7206    3.8594 C   0  0  1  0  0  0  0  0  0  0  0  0
   -3.5100   -8.3479    2.7687 O   0  0  0  0  0  0  0  0  0  0  0  0
   -3.1298   -7.3594    4.9384 C   0  0  0  0  0  0  0  0  0  0  0  0
   -2.4358   -8.5014    5.4265 O   0  0  0  0  0  0  0  0  0  0  0  0
   -1.3288   -8.4123    6.5570 P   0  0  0  0  0  0  0  0  0  0  0  0
   -0.1558   -7.6398    6.0886 O   0  0  0  0  0  0  0  0  0  0  0  0
   -1.9383   -8.0559    7.8564 O   0  5  0  0  0  0  0  0  0  0  0  0
   -0.8178   -9.9131    6.7037 O   0  5  0  0  0  0  0  0  0  0  0  0
  1 18  1  0  0  0  0
  1  2  1  0  0  0  0
  2  4  1  0  0  0  0
  2  3  2  0  0  0  0
  4  5  1  0  0  0  0
  5  7  1  0  0  0  0
  5  6  2  0  0  0  0
  7 18  2  0  0  0  0
  7  8  1  0  0  0  0
  8  9  1  0  0  0  0
  9 10  2  0  0  0  0
  9 16  1  0  0  0  0
 10 11  1  0  0  0  0
 11 12  1  0  0  0  0
 11 13  2  0  0  0  0
 13 14  1  0  0  0  0
 13 15  1  0  0  0  0
 15 16  2  0  0  0  0
 16 17  1  0  0  0  0
 17 19  1  0  0  0  0
 17 18  1  0  0  0  0
 20 19  1  6  0  0  0
 20 22  1  0  0  0  0
 20 21  1  0  0  0  0
 22 24  1  0  0  0  0
 22 23  1  1  0  0  0
 24 26  1  1  0  0  0
 24 25  1  0  0  0  0
 26 27  1  0  0  0  0
 27 28  1  0  0  0  0
 28 30  1  0  0  0  0
 28 29  2  0  0  0  0
 28 31  1  0  0  0  0
M  CHG  2  30  -1  31  -1
M  END
>  <CHROM.1>
-124.78832474,89.12671431,53.85637095,168.97011671,59.63516957,67.51275454
179.92109977,-175.79960558,-178.88422214,-64.86107390,-6.69155966,-6.27793820
2.73830742,2.47190503,0.30082042,-1.39442612

>  <Name>
1fmn_cryst

>  <RI>
0

>  <Rbt.Current_Directory>
/home/itssahil/PROJECTS/Mol_Feturizer/New_Systems/rnas/1fmn

>  <Rbt.Executable>
rbdock ($Id: //depot/dev/client3/rdock/2013.1/src/exe/rbdock.cxx#4 $)

>  <Rbt.Library>
libRbt.so (2013.1, Build901 2013/11/27)

>  <Rbt.Parameter_File>
/export/apps/rDock/src/rDock_2013.1_src/data/scripts/dock_solv.prm

>  <Rbt.Receptor>
prm/pocket_docking_7.prm

>  <SCORE>
-57.4211

>  <SCORE.INTER>
-48.8764

>  <SCORE.INTER.CONST>
1

>  <SCORE.INTER.POLAR>
-2.89597

>  <SCORE.INTER.ROT>
7

>  <SCORE.INTER.SOLV>
14.2128

>  <SCORE.INTER.VDW>
-35.9353

>  <SCORE.INTER.norm>
-1.57666

>  <SCORE.INTRA>
-8.54468

>  <SCORE.INTRA.DIHEDRAL>
-9.71539

>  <SCORE.INTRA.DIHEDRAL.0>
15.5708

>  <SCORE.INTRA.POLAR>
-0.664435

>  <SCORE.INTRA.POLAR.0>
-0.0677885

>  <SCORE.INTRA.REPUL>
0

>  <SCORE.INTRA.REPUL.0>
0

>  <SCORE.INTRA.SOLV>
-4.42095

>  <SCORE.INTRA.SOLV.lig_0>
-87.6316

>  <SCORE.INTRA.VDW>
0.782568

>  <SCORE.INTRA.VDW.0>
-2.87309

>  <SCORE.INTRA.norm>
-0.275635

>  <SCORE.RESTR>
0

>  <SCORE.RESTR.CAVITY>
0

>  <SCORE.RESTR.norm>
0

>  <SCORE.SYSTEM>
0

>  <SCORE.SYSTEM.CONST>
0

>  <SCORE.SYSTEM.DIHEDRAL>
0

>  <SCORE.SYSTEM.SOLV>
0

>  <SCORE.SYSTEM.norm>
0

>  <SCORE.heavy>
31

>  <SCORE.norm>
-1.85229

>  <SYMMETRIC_BONDS>
33 34 3

>  <RMSD>
1.443

$$$$
1fmn_cryst
 OpenBabel11021811393D
libRbt.so/2013.1/901 2013/11/27
 31 33  0  0  0  0  0  0  0  0999 V2000
   -8.6451   -6.2846    3.4872 N   0  0  0  0  0  0  0  0  0  0  0  0
   -9.4779   -6.2153    4.5795 C   0  0  0  0  0  0  0  0  0  0  0  0
   -9.2114   -6.7810    5.6404 O   0  0  0  0  0  0  0  0  0  0  0  0
  -10.6626   -5.4566    4.4049 N   0  0  0  0  0  0  0  0  0  0  0  0
  -11.0646   -4.7768    3.2343 C   0  0  0  0  0  0  0  0  0  0  0  0
  -12.1296   -4.1467    3.2196 O   0  0  0  0  0  0  0  0  0  0  0  0
  -10.1253   -4.8999    2.1173 C   0  0  0  0  0  0  0  0  0  0  0  0
  -10.4432   -4.2668    0.9416 N   0  0  0  0  0  0  0  0  0  0  0  0
   -9.6630   -4.5299   -0.1468 C   0  0  0  0  0  0  0  0  0  0  0  0
  -10.0812   -4.0459   -1.3737 C   0  0  0  0  0  0  0  0  0  0  0  0
   -9.3574   -4.2680   -2.4954 C   0  0  0  0  0  0  0  0  0  0  0  0
   -9.8519   -3.7202   -3.7961 C   0  0  0  0  0  0  0  0  0  0  0  0
   -8.1982   -4.9779   -2.4363 C   0  0  0  0  0  0  0  0  0  0  0  0
   -7.4090   -5.2243   -3.6807 C   0  0  0  0  0  0  0  0  0  0  0  0
   -7.7485   -5.4715   -1.2544 C   0  0  0  0  0  0  0  0  0  0  0  0
   -8.4564   -5.2704   -0.0695 C   0  0  0  0  0  0  0  0  0  0  0  0
   -8.0449   -5.7518    1.1910 N   0  0  0  0  0  0  0  0  0  0  0  0
   -8.9172   -5.6705    2.2958 C   0  0  0  0  0  0  0  0  0  0  0  0
   -6.5644   -5.8050    1.4805 C   0  0  0  0  0  0  0  0  0  0  0  0
   -5.9265   -7.2250    1.5649 C   0  0  1  0  0  0  0  0  0  0  0  0
   -6.7095   -8.1574    0.8331 O   0  0  0  0  0  0  0  0  0  0  0  0
   -4.4394   -7.2521    1.1387 C   0  0  1  0  0  0  0  0  0  0  0  0
   -4.2774   -6.6199   -0.1276 O   0  0  0  0  0  0  0  0  0  0  0  0
   -3.4108   -6.6837    2.1471 C   0  0  1  0  0  0  0  0  0  0  0  0
   -3.8217   -5.3721    2.5169 O   0  0  0  0  0  0  0  0  0  0  0  0
   -3.2813   -7.5431    3.4248 C   0  0  0  0  0  0  0  0  0  0  0  0
   -2.3218   -7.0206    4.3361 O   0  0  0  0  0  0  0  0  0  0  0  0
   -1.9303   -7.7575    5.6833 P   0  0  0  0  0  0  0  0  0  0  0  0
   -0.9800   -6.9432    6.4744 O   0  0  0  0  0  0  0  0  0  0  0  0
   -3.1352   -8.2909    6.3548 O   0  5  0  0  0  0  0  0  0  0  0  0
   -1.0989   -9.0236    5.1930 O   0  5  0  0  0  0  0  0  0  0  0  0
  1 18  1  0  0  0  0
  1  2  1  0  0  0  0
  2  4  1  0  0  0  0
  2  3  2  0  0  0  0
  4  5  1  0  0  0  0
  5  7  1  0  0  0  0
  5  6  2  0  0  0  0
  7 18  2  0  0  0  0
  7  8  1  0  0  0  0
  8  9  1  0  0  0  0
  9 10  2  0  0  0  0
  9 16  1  0  0  0  0
 10 11  1  0  0  0  0
 11 12  1  0  0  0  0
 11 13  2  0  0  0  0
 13 14  1  0  0  0  0
 13 15  1  0  0  0  0
 15 16  2  0  0  0  0
 16 17  1  0  0  0  0
 17 19  1  0  0  0  0
 17 18  1  0  0  0  0
 20 19  1  6  0  0  0
 20 22  1  0  0  0  0
 20 21  1  0  0  0  0
 22 24  1  0  0  0  0
 22 23  1  6  0  0  0
 24 26  1  1  0  0  0
 24 25  1  0  0  0  0
 26 27  1  0  0  0  0
 27 28  1  0  0  0  0
 28 30  1  0  0  0  0
 28 29  2  0  0  0  0
 28 31  1  0  0  0  0
M  CHG  2  30  -1  31  -1
M  END
>  <CHROM.1>
-109.96486922,23.90511851,-51.01426819,-30.48099018,-53.09622901,-166.28158528
179.26156152,-174.45202837,-176.14487897,-176.14999222,-6.67482353,-6.10794585
2.08405763,2.49935649,0.26919470,-1.40499599

>  <Name>
1fmn_cryst

>  <RI>
0

>  <Rbt.Current_Directory>
/home/itssahil/PROJECTS/Mol_Feturizer/New_Systems/rnas/1fmn

>  <Rbt.Executable>
rbdock ($Id: //depot/dev/client3/rdock/2013.1/src/exe/rbdock.cxx#4 $)

>  <Rbt.Library>
libRbt.so (2013.1, Build901 2013/11/27)

>  <Rbt.Parameter_File>
/export/apps/rDock/src/rDock_2013.1_src/data/scripts/dock_solv.prm

>  <Rbt.Receptor>
prm/pocket_docking_2.prm

>  <SCORE>
-51.1377

>  <SCORE.INTER>
-47.2893

>  <SCORE.INTER.CONST>
1

>  <SCORE.INTER.POLAR>
-2.67526

>  <SCORE.INTER.ROT>
7

>  <SCORE.INTER.SOLV>
16.04

>  <SCORE.INTER.VDW>
-36.222

>  <SCORE.INTER.norm>
-1.52546

>  <SCORE.INTRA>
-4.4456

>  <SCORE.INTRA.DIHEDRAL>
-4.43329

>  <SCORE.INTRA.DIHEDRAL.0>
15.5708

>  <SCORE.INTRA.POLAR>
-0.272636

>  <SCORE.INTRA.POLAR.0>
-0.0677885

>  <SCORE.INTRA.REPUL>
0

>  <SCORE.INTRA.REPUL.0>
0

>  <SCORE.INTRA.SOLV>
-4.2602

>  <SCORE.INTRA.SOLV.lig_0>
-87.6316

>  <SCORE.INTRA.VDW>
0.828106

>  <SCORE.INTRA.VDW.0>
-2.87309

>  <SCORE.INTRA.norm>
-0.143406

>  <SCORE.RESTR>
0.597277

>  <SCORE.RESTR.CAVITY>
0.597277

>  <SCORE.RESTR.norm>
0.019267

>  <SCORE.SYSTEM>
0

>  <SCORE.SYSTEM.CONST>
0

>  <SCORE.SYSTEM.DIHEDRAL>
0

>  <SCORE.SYSTEM.SOLV>
0

>  <SCORE.SYSTEM.norm>
0

>  <SCORE.heavy>
31

>  <SCORE.norm>
-1.6496

>  <SYMMETRIC_BONDS>
33 34 3

>  <RMSD>
1.444

$$$$
1fmn_cryst
 OpenBabel11021811393D
libRbt.so/2013.1/901 2013/11/27
 31 33  0  0  0  0  0  0  0  0999 V2000
   -8.6601   -6.0623    3.4799 N   0  0  0  0  0  0  0  0  0  0  0  0
   -9.4279   -6.1781    4.6151 C   0  0  0  0  0  0  0  0  0  0  0  0
   -8.9910   -6.6830    5.6499 O   0  0  0  0  0  0  0  0  0  0  0  0
  -10.7531   -5.6846    4.5165 N   0  0  0  0  0  0  0  0  0  0  0  0
  -11.3522   -5.0958    3.3813 C   0  0  0  0  0  0  0  0  0  0  0  0
  -12.5248   -4.7039    3.4338 O   0  0  0  0  0  0  0  0  0  0  0  0
  -10.4704   -5.0100    2.2150 C   0  0  0  0  0  0  0  0  0  0  0  0
  -10.9779   -4.4491    1.0695 N   0  0  0  0  0  0  0  0  0  0  0  0
  -10.2205   -4.5339   -0.0627 C   0  0  0  0  0  0  0  0  0  0  0  0
  -10.7973   -4.1395   -1.2569 C   0  0  0  0  0  0  0  0  0  0  0  0
  -10.1055   -4.1958   -2.4186 C   0  0  0  0  0  0  0  0  0  0  0  0
  -10.7743   -3.7546   -3.6813 C   0  0  0  0  0  0  0  0  0  0  0  0
   -8.8217   -4.6462   -2.4330 C   0  0  0  0  0  0  0  0  0  0  0  0
   -8.0676   -4.7115   -3.7211 C   0  0  0  0  0  0  0  0  0  0  0  0
   -8.2145   -5.0430   -1.2856 C   0  0  0  0  0  0  0  0  0  0  0  0
   -8.8829   -5.0043   -0.0620 C   0  0  0  0  0  0  0  0  0  0  0  0
   -8.3113   -5.3977    1.1662 N   0  0  0  0  0  0  0  0  0  0  0  0
   -9.1196   -5.5103    2.3160 C   0  0  0  0  0  0  0  0  0  0  0  0
   -6.8391   -5.1403    1.3775 C   0  0  0  0  0  0  0  0  0  0  0  0
   -5.9076   -6.3900    1.3525 C   0  0  1  0  0  0  0  0  0  0  0  0
   -5.7272   -6.8392    0.0170 O   0  0  0  0  0  0  0  0  0  0  0  0
   -4.5597   -6.1610    2.0770 C   0  0  1  0  0  0  0  0  0  0  0  0
   -3.9962   -4.9119    1.6874 O   0  0  0  0  0  0  0  0  0  0  0  0
   -4.5651   -6.2782    3.6210 C   0  0  1  0  0  0  0  0  0  0  0  0
   -5.7692   -5.6990    4.1114 O   0  0  0  0  0  0  0  0  0  0  0  0
   -4.4792   -7.7399    4.1147 C   0  0  0  0  0  0  0  0  0  0  0  0
   -3.7773   -7.8571    5.3466 O   0  0  0  0  0  0  0  0  0  0  0  0
   -3.4216   -9.2564    5.9998 P   0  0  0  0  0  0  0  0  0  0  0  0
   -4.5562   -9.7697    6.8006 O   0  0  0  0  0  0  0  0  0  0  0  0
   -2.7953  -10.1525    5.0038 O   0  5  0  0  0  0  0  0  0  0  0  0
   -2.2832   -8.9018    7.0548 O   0  5  0  0  0  0  0  0  0  0  0  0
  1 18  1  0  0  0  0
  1  2  1  0  0  0  0
  2  4  1  0  0  0  0
  2  3  2  0  0  0  0
  4  5  1  0  0  0  0
  5  7  1  0  0  0  0
  5  6  2  0  0  0  0
  7 18  2  0  0  0  0
  7  8  1  0  0  0  0
  8  9  1  0  0  0  0
  9 10  2  0  0  0  0
  9 16  1  0  0  0  0
 10 11  1  0  0  0  0
 11 12  1  0  0  0  0
 11 13  2  0  0  0  0
 13 14  1  0  0  0  0
 13 15  1  0  0  0  0
 15 16  2  0  0  0  0
 16 17  1  0  0  0  0
 17 19  1  0  0  0  0
 17 18  1  0  0  0  0
 20 19  1  6  0  0  0
 20 22  1  0  0  0  0
 20 21  1  0  0  0  0
 22 24  1  0  0  0  0
 22 23  1  1  0  0  0
 24 26  1  6  0  0  0
 24 25  1  0  0  0  0
 26 27  1  0  0  0  0
 27 28  1  0  0  0  0
 28 30  1  0  0  0  0
 28 29  2  0  0  0  0
 28 31  1  0  0  0  0
M  CHG  2  30  -1  31  -1
M  END
>  <CHROM.1>
-107.91445336,75.22618586,-46.01066407,63.43688123,-38.92184477,-54.54916065
147.65797406,-56.90886381,-173.78458464,-84.58876409,-7.29279481,-6.19000078
2.37544874,2.30705538,0.30650423,-1.26776704

>  <Name>
1fmn_cryst

>  <RI>
0

>  <Rbt.Current_Directory>
/home/itssahil/PROJECTS/Mol_Feturizer/New_Systems/rnas/1fmn

>  <Rbt.Executable>
rbdock ($Id: //depot/dev/client3/rdock/2013.1/src/exe/rbdock.cxx#4 $)

>  <Rbt.Library>
libRbt.so (2013.1, Build901 2013/11/27)

>  <Rbt.Parameter_File>
/export/apps/rDock/src/rDock_2013.1_src/data/scripts/dock_solv.prm

>  <Rbt.Receptor>
prm/pocket_docking_2.prm

>  <SCORE>
-57.3897

>  <SCORE.INTER>
-51.5566

>  <SCORE.INTER.CONST>
1

>  <SCORE.INTER.POLAR>
-3.54

>  <SCORE.INTER.ROT>
7

>  <SCORE.INTER.SOLV>
17.2851

>  <SCORE.INTER.VDW>
-36.5994

>  <SCORE.INTER.norm>
-1.66312

>  <SCORE.INTRA>
-7.48712

>  <SCORE.INTRA.DIHEDRAL>
-6.18062

>  <SCORE.INTRA.DIHEDRAL.0>
15.5708

>  <SCORE.INTRA.POLAR>
-0.702427

>  <SCORE.INTRA.POLAR.0>
-0.0677885

>  <SCORE.INTRA.REPUL>
0

>  <SCORE.INTRA.REPUL.0>
0

>  <SCORE.INTRA.SOLV>
-3.80853

>  <SCORE.INTRA.SOLV.lig_0>
-87.6316

>  <SCORE.INTRA.VDW>
-0.104295

>  <SCORE.INTRA.VDW.0>
-2.87309

>  <SCORE.INTRA.norm>
-0.24152

>  <SCORE.RESTR>
1.65407

>  <SCORE.RESTR.CAVITY>
1.65407

>  <SCORE.RESTR.norm>
0.053357

>  <SCORE.SYSTEM>
0

>  <SCORE.SYSTEM.CONST>
0

>  <SCORE.SYSTEM.DIHEDRAL>
0

>  <SCORE.SYSTEM.SOLV>
0

>  <SCORE.SYSTEM.norm>
0

>  <SCORE.heavy>
31

>  <SCORE.norm>
-1.85128

>  <SYMMETRIC_BONDS>
33 34 3

>  <RMSD>
1.449

$$$$
1fmn_cryst
 OpenBabel11021811393D
libRbt.so/2013.1/901 2013/11/27
 31 33  0  0  0  0  0  0  0  0999 V2000
   -9.0494   -6.1324    3.4724 N   0  0  0  0  0  0  0  0  0  0  0  0
   -9.7189   -6.2024    4.6718 C   0  0  0  0  0  0  0  0  0  0  0  0
   -9.2704   -6.8261    5.6343 O   0  0  0  0  0  0  0  0  0  0  0  0
  -10.9581   -5.5162    4.7275 N   0  0  0  0  0  0  0  0  0  0  0  0
  -11.5629   -4.7801    3.6851 C   0  0  0  0  0  0  0  0  0  0  0  0
  -12.6534   -4.2255    3.8713 O   0  0  0  0  0  0  0  0  0  0  0  0
  -10.7886   -4.7545    2.4421 C   0  0  0  0  0  0  0  0  0  0  0  0
  -11.3084   -4.0587    1.3791 N   0  0  0  0  0  0  0  0  0  0  0  0
  -10.6791   -4.1855    0.1747 C   0  0  0  0  0  0  0  0  0  0  0  0
  -11.2966   -3.6411   -0.9373 C   0  0  0  0  0  0  0  0  0  0  0  0
  -10.7302   -3.7284   -2.1633 C   0  0  0  0  0  0  0  0  0  0  0  0
  -11.4376   -3.1204   -3.3322 C   0  0  0  0  0  0  0  0  0  0  0  0
   -9.5357   -4.3592   -2.3253 C   0  0  0  0  0  0  0  0  0  0  0  0
   -8.9210   -4.4571   -3.6835 C   0  0  0  0  0  0  0  0  0  0  0  0
   -8.8929   -4.9076   -1.2629 C   0  0  0  0  0  0  0  0  0  0  0  0
   -9.4332   -4.8448    0.0215 C   0  0  0  0  0  0  0  0  0  0  0  0
   -8.8176   -5.3895    1.1679 N   0  0  0  0  0  0  0  0  0  0  0  0
   -9.5250   -5.4512    2.3860 C   0  0  0  0  0  0  0  0  0  0  0  0
   -7.3103   -5.3622    1.2435 C   0  0  0  0  0  0  0  0  0  0  0  0
   -6.5540   -6.3939    0.3526 C   0  0  1  0  0  0  0  0  0  0  0  0
   -6.3567   -5.8636   -0.9504 O   0  0  0  0  0  0  0  0  0  0  0  0
   -5.2326   -6.8928    0.9844 C   0  0  1  0  0  0  0  0  0  0  0  0
   -4.1314   -6.1405    0.4837 O   0  0  0  0  0  0  0  0  0  0  0  0
   -5.1727   -6.9496    2.5307 C   0  0  1  0  0  0  0  0  0  0  0  0
   -6.3558   -7.5844    3.0032 O   0  0  0  0  0  0  0  0  0  0  0  0
   -3.9463   -7.7277    3.0581 C   0  0  0  0  0  0  0  0  0  0  0  0
   -3.8456   -7.6867    4.4766 O   0  0  0  0  0  0  0  0  0  0  0  0
   -2.7492   -8.5004    5.2812 P   0  0  0  0  0  0  0  0  0  0  0  0
   -2.7859   -8.1560    6.7207 O   0  0  0  0  0  0  0  0  0  0  0  0
   -2.7707   -9.9274    4.8939 O   0  5  0  0  0  0  0  0  0  0  0  0
   -1.3715   -7.9146    4.7394 O   0  5  0  0  0  0  0  0  0  0  0  0
  1 18  1  0  0  0  0
  1  2  1  0  0  0  0
  2  4  1  0  0  0  0
  2  3  2  0  0  0  0
  4  5  1  0  0  0  0
  5  7  1  0  0  0  0
  5  6  2  0  0  0  0
  7 18  2  0  0  0  0
  7  8  1  0  0  0  0
  8  9  1  0  0  0  0
  9 10  2  0  0  0  0
  9 16  1  0  0  0  0
 10 11  1  0  0  0  0
 11 12  1  0  0  0  0
 11 13  2  0  0  0  0
 13 14  1  0  0  0  0
 13 15  1  0  0  0  0
 15 16  2  0  0  0  0
 16 17  1  0  0  0  0
 17 19  1  0  0  0  0
 17 18  1  0  0  0  0
 20 19  1  1  0  0  0
 20 22  1  0  0  0  0
 20 21  1  0  0  0  0
 22 24  1  0  0  0  0
 22 23  1  1  0  0  0
 24 26  1  6  0  0  0
 24 25  1  0  0  0  0
 26 27  1  0  0  0  0
 27 28  1  0  0  0  0
 28 30  1  0  0  0  0
 28 29  2  0  0  0  0
 28 31  1  0  0  0  0
M  CHG  2  30  -1  31  -1
M  END
>  <CHROM.1>
-74.94392821,86.36060832,-95.97575355,-172.07620080,47.33713936,58.79494026
175.50067340,175.49425074,174.87122205,173.84012547,-7.49615906,-6.03853819
2.05361214,2.49870961,0.34030842,-1.32398163

>  <Name>
1fmn_cryst

>  <RI>
0

>  <Rbt.Current_Directory>
/home/itssahil/PROJECTS/Mol_Feturizer/New_Systems/rnas/1fmn

>  <Rbt.Executable>
rbdock ($Id: //depot/dev/client3/rdock/2013.1/src/exe/rbdock.cxx#4 $)

>  <Rbt.Library>
libRbt.so (2013.1, Build901 2013/11/27)

>  <Rbt.Parameter_File>
/export/apps/rDock/src/rDock_2013.1_src/data/scripts/dock_solv.prm

>  <Rbt.Receptor>
prm/pocket_docking_2.prm

>  <SCORE>
-59.986

>  <SCORE.INTER>
-53.1047

>  <SCORE.INTER.CONST>
1

>  <SCORE.INTER.POLAR>
-3.26483

>  <SCORE.INTER.ROT>
7

>  <SCORE.INTER.SOLV>
17.4095

>  <SCORE.INTER.VDW>
-38.5902

>  <SCORE.INTER.norm>
-1.71306

>  <SCORE.INTRA>
-6.89291

>  <SCORE.INTRA.DIHEDRAL>
-6.73681

>  <SCORE.INTRA.DIHEDRAL.0>
15.5708

>  <SCORE.INTRA.POLAR>
-0.932211

>  <SCORE.INTRA.POLAR.0>
-0.0677885

>  <SCORE.INTRA.REPUL>
0

>  <SCORE.INTRA.REPUL.0>
0

>  <SCORE.INTRA.SOLV>
-3.38137

>  <SCORE.INTRA.SOLV.lig_0>
-87.6316

>  <SCORE.INTRA.VDW>
1.3357

>  <SCORE.INTRA.VDW.0>
-2.87309

>  <SCORE.INTRA.norm>
-0.222352

>  <SCORE.RESTR>
0.0116817

>  <SCORE.RESTR.CAVITY>
0.0116817

>  <SCORE.RESTR.norm>
0.00037683

>  <SCORE.SYSTEM>
0

>  <SCORE.SYSTEM.CONST>
0

>  <SCORE.SYSTEM.DIHEDRAL>
0

>  <SCORE.SYSTEM.SOLV>
0

>  <SCORE.SYSTEM.norm>
0

>  <SCORE.heavy>
31

>  <SCORE.norm>
-1.93503

>  <SYMMETRIC_BONDS>
33 34 3

>  <RMSD>
1.452

$$$$
1fmn_cryst
 OpenBabel11021811393D
libRbt.so/2013.1/901 2013/11/27
 31 33  0  0  0  0  0  0  0  0999 V2000
   -8.9358   -6.3404    3.6105 N   0  0  0  0  0  0  0  0  0  0  0  0
   -9.8197   -6.2388    4.6593 C   0  0  0  0  0  0  0  0  0  0  0  0
   -9.6276   -6.8112    5.7326 O   0  0  0  0  0  0  0  0  0  0  0  0
  -10.9660   -5.4386    4.4246 N   0  0  0  0  0  0  0  0  0  0  0  0
  -11.2837   -4.7474    3.2348 C   0  0  0  0  0  0  0  0  0  0  0  0
  -12.3232   -4.0796    3.1659 O   0  0  0  0  0  0  0  0  0  0  0  0
  -10.2941   -4.9067    2.1668 C   0  0  0  0  0  0  0  0  0  0  0  0
  -10.5293   -4.2653    0.9762 N   0  0  0  0  0  0  0  0  0  0  0  0
   -9.7050   -4.5588   -0.0712 C   0  0  0  0  0  0  0  0  0  0  0  0
  -10.0429   -4.0629   -1.3180 C   0  0  0  0  0  0  0  0  0  0  0  0
   -9.2718   -4.3134   -2.4015 C   0  0  0  0  0  0  0  0  0  0  0  0
   -9.6800   -3.7513   -3.7258 C   0  0  0  0  0  0  0  0  0  0  0  0
   -8.1433   -5.0643   -2.2834 C   0  0  0  0  0  0  0  0  0  0  0  0
   -7.3016   -5.3417   -3.4862 C   0  0  0  0  0  0  0  0  0  0  0  0
   -7.7720   -5.5710   -1.0800 C   0  0  0  0  0  0  0  0  0  0  0  0
   -8.5311   -5.3419    0.0675 C   0  0  0  0  0  0  0  0  0  0  0  0
   -8.2014   -5.8348    1.3474 N   0  0  0  0  0  0  0  0  0  0  0  0
   -9.1250   -5.7197    2.4066 C   0  0  0  0  0  0  0  0  0  0  0  0
   -6.7404   -5.9404    1.7115 C   0  0  0  0  0  0  0  0  0  0  0  0
   -6.2392   -7.3465    2.1609 C   0  0  1  0  0  0  0  0  0  0  0  0
   -5.9853   -8.1614    1.0254 O   0  0  0  0  0  0  0  0  0  0  0  0
   -5.0239   -7.2844    3.1166 C   0  0  1  0  0  0  0  0  0  0  0  0
   -4.9780   -8.4510    3.9329 O   0  0  0  0  0  0  0  0  0  0  0  0
   -3.6377   -7.0368    2.4724 C   0  0  1  0  0  0  0  0  0  0  0  0
   -3.7145   -5.8565    1.6806 O   0  0  0  0  0  0  0  0  0  0  0  0
   -2.5108   -6.8636    3.5154 C   0  0  0  0  0  0  0  0  0  0  0  0
   -2.3343   -8.0221    4.3221 O   0  0  0  0  0  0  0  0  0  0  0  0
   -1.2440   -8.1091    5.4689 P   0  0  0  0  0  0  0  0  0  0  0  0
    0.1231   -8.0939    4.9008 O   0  0  0  0  0  0  0  0  0  0  0  0
   -1.5653   -7.1708    6.5658 O   0  5  0  0  0  0  0  0  0  0  0  0
   -1.4398   -9.5722    6.0654 O   0  5  0  0  0  0  0  0  0  0  0  0
  1 18  1  0  0  0  0
  1  2  1  0  0  0  0
  2  4  1  0  0  0  0
  2  3  2  0  0  0  0
  4  5  1  0  0  0  0
  5  7  1  0  0  0  0
  5  6  2  0  0  0  0
  7 18  2  0  0  0  0
  7  8  1  0  0  0  0
  8  9  1  0  0  0  0
  9 10  2  0  0  0  0
  9 16  1  0  0  0  0
 10 11  1  0  0  0  0
 11 12  1  0  0  0  0
 11 13  2  0  0  0  0
 13 14  1  0  0  0  0
 13 15  1  0  0  0  0
 15 16  2  0  0  0  0
 16 17  1  0  0  0  0
 17 19  1  0  0  0  0
 17 18  1  0  0  0  0
 20 19  1  6  0  0  0
 20 22  1  0  0  0  0
 20 21  1  0  0  0  0
 22 24  1  0  0  0  0
 22 23  1  6  0  0  0
 24 26  1  1  0  0  0
 24 25  1  0  0  0  0
 26 27  1  0  0  0  0
 27 28  1  0  0  0  0
 28 30  1  0  0  0  0
 28 29  2  0  0  0  0
 28 31  1  0  0  0  0
M  CHG  2  30  -1  31  -1
M  END
>  <CHROM.1>
-124.09149590,80.93787793,154.42278028,61.72062200,54.14702294,-63.34376038
61.66190560,-66.13491858,179.98731910,-67.22203207,-6.62179923,-6.28999731
2.31529449,2.56220147,0.26852852,-1.35881450

>  <Name>
1fmn_cryst

>  <RI>
0

>  <Rbt.Current_Directory>
/home/itssahil/PROJECTS/Mol_Feturizer/New_Systems/rnas/1fmn

>  <Rbt.Executable>
rbdock ($Id: //depot/dev/client3/rdock/2013.1/src/exe/rbdock.cxx#4 $)

>  <Rbt.Library>
libRbt.so (2013.1, Build901 2013/11/27)

>  <Rbt.Parameter_File>
/export/apps/rDock/src/rDock_2013.1_src/data/scripts/dock_solv.prm

>  <Rbt.Receptor>
prm/pocket_docking_2.prm

>  <SCORE>
-50.3347

>  <SCORE.INTER>
-44.5932

>  <SCORE.INTER.CONST>
1

>  <SCORE.INTER.POLAR>
-1.95961

>  <SCORE.INTER.ROT>
7

>  <SCORE.INTER.SOLV>
14.4871

>  <SCORE.INTER.VDW>
-36.2925

>  <SCORE.INTER.norm>
-1.43849

>  <SCORE.INTRA>
-5.77797

>  <SCORE.INTRA.DIHEDRAL>
-9.38628

>  <SCORE.INTRA.DIHEDRAL.0>
15.5708

>  <SCORE.INTRA.POLAR>
0.0677885

>  <SCORE.INTRA.POLAR.0>
-0.0677885

>  <SCORE.INTRA.REPUL>
0.0283905

>  <SCORE.INTRA.REPUL.0>
0

>  <SCORE.INTRA.SOLV>
-4.33386

>  <SCORE.INTRA.SOLV.lig_0>
-87.6316

>  <SCORE.INTRA.VDW>
0.709671

>  <SCORE.INTRA.VDW.0>
-2.87309

>  <SCORE.INTRA.norm>
-0.186386

>  <SCORE.RESTR>
0.0364152

>  <SCORE.RESTR.CAVITY>
0.0364152

>  <SCORE.RESTR.norm>
0.00117468

>  <SCORE.SYSTEM>
0

>  <SCORE.SYSTEM.CONST>
0

>  <SCORE.SYSTEM.DIHEDRAL>
0

>  <SCORE.SYSTEM.SOLV>
0

>  <SCORE.SYSTEM.norm>
0

>  <SCORE.heavy>
31

>  <SCORE.norm>
-1.6237

>  <SYMMETRIC_BONDS>
33 34 3

>  <RMSD>
1.452

$$$$
1fmn_cryst
 OpenBabel11021811393D
libRbt.so/2013.1/901 2013/11/27
 31 33  0  0  0  0  0  0  0  0999 V2000
   -8.7026   -6.2059    3.6247 N   0  0  0  0  0  0  0  0  0  0  0  0
   -9.5349   -6.2348    4.7192 C   0  0  0  0  0  0  0  0  0  0  0  0
   -9.2033   -6.7701    5.7775 O   0  0  0  0  0  0  0  0  0  0  0  0
  -10.7982   -5.6144    4.5499 N   0  0  0  0  0  0  0  0  0  0  0  0
  -11.2777   -4.9806    3.3826 C   0  0  0  0  0  0  0  0  0  0  0  0
  -12.4071   -4.4750    3.3726 O   0  0  0  0  0  0  0  0  0  0  0  0
  -10.3335   -4.9931    2.2631 C   0  0  0  0  0  0  0  0  0  0  0  0
  -10.7241   -4.3963    1.0903 N   0  0  0  0  0  0  0  0  0  0  0  0
   -9.9221   -4.5660   -0.0008 C   0  0  0  0  0  0  0  0  0  0  0  0
  -10.3955   -4.1284   -1.2251 C   0  0  0  0  0  0  0  0  0  0  0  0
   -9.6543   -4.2636   -2.3492 C   0  0  0  0  0  0  0  0  0  0  0  0
  -10.2111   -3.7711   -3.6468 C   0  0  0  0  0  0  0  0  0  0  0  0
   -8.4221   -4.8380   -2.2952 C   0  0  0  0  0  0  0  0  0  0  0  0
   -7.6134   -4.9895   -3.5422 C   0  0  0  0  0  0  0  0  0  0  0  0
   -7.9163   -5.2814   -1.1160 C   0  0  0  0  0  0  0  0  0  0  0  0
   -8.6392   -5.1654    0.0712 C   0  0  0  0  0  0  0  0  0  0  0  0
   -8.1725   -5.6012    1.3291 N   0  0  0  0  0  0  0  0  0  0  0  0
   -9.0455   -5.6227    2.4361 C   0  0  0  0  0  0  0  0  0  0  0  0
   -6.6948   -5.4877    1.6150 C   0  0  0  0  0  0  0  0  0  0  0  0
   -5.9811   -6.7876    2.0955 C   0  0  1  0  0  0  0  0  0  0  0  0
   -6.8976   -7.8729    2.1083 O   0  0  0  0  0  0  0  0  0  0  0  0
   -4.7019   -7.1152    1.2891 C   0  0  1  0  0  0  0  0  0  0  0  0
   -4.9078   -6.8441   -0.0943 O   0  0  0  0  0  0  0  0  0  0  0  0
   -3.3847   -6.4548    1.7653 C   0  0  1  0  0  0  0  0  0  0  0  0
   -3.5216   -5.0430    1.6470 O   0  0  0  0  0  0  0  0  0  0  0  0
   -3.0331   -6.7994    3.2300 C   0  0  0  0  0  0  0  0  0  0  0  0
   -3.0453   -8.2005    3.4765 O   0  0  0  0  0  0  0  0  0  0  0  0
   -2.8206   -8.8184    4.9184 P   0  0  0  0  0  0  0  0  0  0  0  0
   -3.0355  -10.2832    4.9053 O   0  0  0  0  0  0  0  0  0  0  0  0
   -1.5791   -8.2904    5.5241 O   0  5  0  0  0  0  0  0  0  0  0  0
   -4.0214   -8.2207    5.7762 O   0  5  0  0  0  0  0  0  0  0  0  0
  1 18  1  0  0  0  0
  1  2  1  0  0  0  0
  2  4  1  0  0  0  0
  2  3  2  0  0  0  0
  4  5  1  0  0  0  0
  5  7  1  0  0  0  0
  5  6  2  0  0  0  0
  7 18  2  0  0  0  0
  7  8  1  0  0  0  0
  8  9  1  0  0  0  0
  9 10  2  0  0  0  0
  9 16  1  0  0  0  0
 10 11  1  0  0  0  0
 11 12  1  0  0  0  0
 11 13  2  0  0  0  0
 13 14  1  0  0  0  0
 13 15  1  0  0  0  0
 15 16  2  0  0  0  0
 16 17  1  0  0  0  0
 17 19  1  0  0  0  0
 17 18  1  0  0  0  0
 20 19  1  6  0  0  0
 20 22  1  0  0  0  0
 20 21  1  0  0  0  0
 22 24  1  0  0  0  0
 22 23  1  6  0  0  0
 24 26  1  1  0  0  0
 24 25  1  0  0  0  0
 26 27  1  0  0  0  0
 27 28  1  0  0  0  0
 28 30  1  0  0  0  0
 28 29  2  0  0  0  0
 28 31  1  0  0  0  0
M  CHG  2  30  -1  31  -1
M  END
>  <CHROM.1>
-126.94548187,2.71296443,-39.96066848,68.72807312,-62.62610368,-178.76465187
52.08186139,-61.06488753,-175.55522034,173.64760551,-7.00769807,-6.24760012
2.03220012,2.49937436,0.31024935,-1.28248849

>  <Name>
1fmn_cryst

>  <RI>
0

>  <Rbt.Current_Directory>
/home/itssahil/PROJECTS/Mol_Feturizer/New_Systems/rnas/1fmn

>  <Rbt.Executable>
rbdock ($Id: //depot/dev/client3/rdock/2013.1/src/exe/rbdock.cxx#4 $)

>  <Rbt.Library>
libRbt.so (2013.1, Build901 2013/11/27)

>  <Rbt.Parameter_File>
/export/apps/rDock/src/rDock_2013.1_src/data/scripts/dock_solv.prm

>  <Rbt.Receptor>
prm/pocket_docking_2.prm

>  <SCORE>
-55.3385

>  <SCORE.INTER>
-50.7592

>  <SCORE.INTER.CONST>
1

>  <SCORE.INTER.POLAR>
-2.99404

>  <SCORE.INTER.ROT>
7

>  <SCORE.INTER.SOLV>
16.1987

>  <SCORE.INTER.VDW>
-37.5256

>  <SCORE.INTER.norm>
-1.63739

>  <SCORE.INTRA>
-4.7237

>  <SCORE.INTRA.DIHEDRAL>
-6.21049

>  <SCORE.INTRA.DIHEDRAL.0>
15.5708

>  <SCORE.INTRA.POLAR>
-0.182254

>  <SCORE.INTRA.POLAR.0>
-0.0677885

>  <SCORE.INTRA.REPUL>
0

>  <SCORE.INTRA.REPUL.0>
0

>  <SCORE.INTRA.SOLV>
-3.09554

>  <SCORE.INTRA.SOLV.lig_0>
-87.6316

>  <SCORE.INTRA.VDW>
0.548979

>  <SCORE.INTRA.VDW.0>
-2.87309

>  <SCORE.INTRA.norm>
-0.152377

>  <SCORE.RESTR>
0.144434

>  <SCORE.RESTR.CAVITY>
0.144434

>  <SCORE.RESTR.norm>
0.00465915

>  <SCORE.SYSTEM>
0

>  <SCORE.SYSTEM.CONST>
0

>  <SCORE.SYSTEM.DIHEDRAL>
0

>  <SCORE.SYSTEM.SOLV>
0

>  <SCORE.SYSTEM.norm>
0

>  <SCORE.heavy>
31

>  <SCORE.norm>
-1.78511

>  <SYMMETRIC_BONDS>
33 34 3

>  <RMSD>
1.473

$$$$
1fmn_cryst
 OpenBabel11021811393D
libRbt.so/2013.1/901 2013/11/27
 31 33  0  0  0  0  0  0  0  0999 V2000
   -8.8479   -6.3759    3.5577 N   0  0  0  0  0  0  0  0  0  0  0  0
   -9.6695   -6.3230    4.6594 C   0  0  0  0  0  0  0  0  0  0  0  0
   -9.4008   -6.9185    5.7032 O   0  0  0  0  0  0  0  0  0  0  0  0
  -10.8455   -5.5447    4.5151 N   0  0  0  0  0  0  0  0  0  0  0  0
  -11.2493   -4.8306    3.3657 C   0  0  0  0  0  0  0  0  0  0  0  0
  -12.3058   -4.1864    3.3769 O   0  0  0  0  0  0  0  0  0  0  0  0
  -10.3221   -4.9381    2.2369 C   0  0  0  0  0  0  0  0  0  0  0  0
  -10.6425   -4.2716    1.0804 N   0  0  0  0  0  0  0  0  0  0  0  0
   -9.8760   -4.5177   -0.0216 C   0  0  0  0  0  0  0  0  0  0  0  0
  -10.2990   -3.9977   -1.2320 C   0  0  0  0  0  0  0  0  0  0  0  0
   -9.5887   -4.2012   -2.3658 C   0  0  0  0  0  0  0  0  0  0  0  0
  -10.0879   -3.6146   -3.6476 C   0  0  0  0  0  0  0  0  0  0  0  0
   -8.4386   -4.9275   -2.3355 C   0  0  0  0  0  0  0  0  0  0  0  0
   -7.6644   -5.1530   -3.5932 C   0  0  0  0  0  0  0  0  0  0  0  0
   -7.9846   -5.4564   -1.1706 C   0  0  0  0  0  0  0  0  0  0  0  0
   -8.6787   -5.2757    0.0257 C   0  0  0  0  0  0  0  0  0  0  0  0
   -8.2619   -5.7938    1.2698 N   0  0  0  0  0  0  0  0  0  0  0  0
   -9.1228   -5.7287    2.3846 C   0  0  0  0  0  0  0  0  0  0  0  0
   -6.7797   -5.8737    1.5436 C   0  0  0  0  0  0  0  0  0  0  0  0
   -6.1057   -7.2590    1.3050 C   0  0  1  0  0  0  0  0  0  0  0  0
   -5.1130   -7.1526    0.2946 O   0  0  0  0  0  0  0  0  0  0  0  0
   -5.5521   -7.8994    2.6002 C   0  0  1  0  0  0  0  0  0  0  0  0
   -6.4381   -7.6559    3.6888 O   0  0  0  0  0  0  0  0  0  0  0  0
   -5.1924   -9.4043    2.5397 C   0  0  1  0  0  0  0  0  0  0  0  0
   -4.6049   -9.6752    1.2718 O   0  0  0  0  0  0  0  0  0  0  0  0
   -4.2041   -9.8327    3.6475 C   0  0  0  0  0  0  0  0  0  0  0  0
   -4.7399   -9.6525    4.9531 O   0  0  0  0  0  0  0  0  0  0  0  0
   -3.8901   -9.8949    6.2685 P   0  0  0  0  0  0  0  0  0  0  0  0
   -3.4396  -11.3026    6.3549 O   0  0  0  0  0  0  0  0  0  0  0  0
   -2.8911   -8.8195    6.4494 O   0  5  0  0  0  0  0  0  0  0  0  0
   -4.9514   -9.7160    7.4417 O   0  5  0  0  0  0  0  0  0  0  0  0
  1 18  1  0  0  0  0
  1  2  1  0  0  0  0
  2  4  1  0  0  0  0
  2  3  2  0  0  0  0
  4  5  1  0  0  0  0
  5  7  1  0  0  0  0
  5  6  2  0  0  0  0
  7 18  2  0  0  0  0
  7  8  1  0  0  0  0
  8  9  1  0  0  0  0
  9 10  2  0  0  0  0
  9 16  1  0  0  0  0
 10 11  1  0  0  0  0
 11 12  1  0  0  0  0
 11 13  2  0  0  0  0
 13 14  1  0  0  0  0
 13 15  1  0  0  0  0
 15 16  2  0  0  0  0
 16 17  1  0  0  0  0
 17 19  1  0  0  0  0
 17 18  1  0  0  0  0
 20 19  1  1  0  0  0
 20 22  1  0  0  0  0
 20 21  1  0  0  0  0
 22 24  1  0  0  0  0
 22 23  1  1  0  0  0
 24 26  1  1  0  0  0
 24 25  1  0  0  0  0
 26 27  1  0  0  0  0
 27 28  1  0  0  0  0
 28 30  1  0  0  0  0
 28 29  2  0  0  0  0
 28 31  1  0  0  0  0
M  CHG  2  30  -1  31  -1
M  END
>  <CHROM.1>
-98.04333552,118.42006247,38.53682661,-79.10631965,38.51626137,174.84860049
62.31130070,-76.67318549,-174.57957304,-61.54625614,-7.39359794,-6.88365738
2.40901465,2.29474817,0.55154595,-1.30660765

>  <Name>
1fmn_cryst

>  <RI>
0

>  <Rbt.Current_Directory>
/home/itssahil/PROJECTS/Mol_Feturizer/New_Systems/rnas/1fmn

>  <Rbt.Executable>
rbdock ($Id: //depot/dev/client3/rdock/2013.1/src/exe/rbdock.cxx#4 $)

>  <Rbt.Library>
libRbt.so (2013.1, Build901 2013/11/27)

>  <Rbt.Parameter_File>
/export/apps/rDock/src/rDock_2013.1_src/data/scripts/dock_solv.prm

>  <Rbt.Receptor>
prm/pocket_docking_3.prm

>  <SCORE>
-68.304

>  <SCORE.INTER>
-60.1313

>  <SCORE.INTER.CONST>
1

>  <SCORE.INTER.POLAR>
-3.93185

>  <SCORE.INTER.ROT>
7

>  <SCORE.INTER.SOLV>
18.0201

>  <SCORE.INTER.VDW>
-41.2547

>  <SCORE.INTER.norm>
-1.93972

>  <SCORE.INTRA>
-8.17271

>  <SCORE.INTRA.DIHEDRAL>
-1.4424

>  <SCORE.INTRA.DIHEDRAL.0>
15.5708

>  <SCORE.INTRA.POLAR>
-1.70241

>  <SCORE.INTRA.POLAR.0>
-0.0677885

>  <SCORE.INTRA.REPUL>
0

>  <SCORE.INTRA.REPUL.0>
0

>  <SCORE.INTRA.SOLV>
-3.21448

>  <SCORE.INTRA.SOLV.lig_0>
-87.6316

>  <SCORE.INTRA.VDW>
-0.0560869

>  <SCORE.INTRA.VDW.0>
-2.87309

>  <SCORE.INTRA.norm>
-0.263636

>  <SCORE.RESTR>
0

>  <SCORE.RESTR.CAVITY>
0

>  <SCORE.RESTR.norm>
0

>  <SCORE.SYSTEM>
0

>  <SCORE.SYSTEM.CONST>
0

>  <SCORE.SYSTEM.DIHEDRAL>
0

>  <SCORE.SYSTEM.SOLV>
0

>  <SCORE.SYSTEM.norm>
0

>  <SCORE.heavy>
31

>  <SCORE.norm>
-2.20335

>  <SYMMETRIC_BONDS>
33 34 3

>  <RMSD>
1.478

$$$$
1fmn_cryst
 OpenBabel11021811393D
libRbt.so/2013.1/901 2013/11/27
 31 33  0  0  0  0  0  0  0  0999 V2000
   -8.8692   -6.1285    3.5556 N   0  0  0  0  0  0  0  0  0  0  0  0
   -9.5927   -6.2253    4.7212 C   0  0  0  0  0  0  0  0  0  0  0  0
   -9.1527   -6.8017    5.7166 O   0  0  0  0  0  0  0  0  0  0  0  0
  -10.8766   -5.6248    4.7020 N   0  0  0  0  0  0  0  0  0  0  0  0
  -11.4758   -4.9482    3.6170 C   0  0  0  0  0  0  0  0  0  0  0  0
  -12.6094   -4.4667    3.7380 O   0  0  0  0  0  0  0  0  0  0  0  0
  -10.6427   -4.8891    2.4138 C   0  0  0  0  0  0  0  0  0  0  0  0
  -11.1534   -4.2473    1.3131 N   0  0  0  0  0  0  0  0  0  0  0  0
  -10.4564   -4.3495    0.1442 C   0  0  0  0  0  0  0  0  0  0  0  0
  -11.0517   -3.8662   -1.0074 C   0  0  0  0  0  0  0  0  0  0  0  0
  -10.4190   -3.9337   -2.2017 C   0  0  0  0  0  0  0  0  0  0  0  0
  -11.1052   -3.3939   -3.4158 C   0  0  0  0  0  0  0  0  0  0  0  0
   -9.1779   -4.4837   -2.2920 C   0  0  0  0  0  0  0  0  0  0  0  0
   -8.4894   -4.5605   -3.6158 C   0  0  0  0  0  0  0  0  0  0  0  0
   -8.5545   -4.9702   -1.1886 C   0  0  0  0  0  0  0  0  0  0  0  0
   -9.1626   -4.9243    0.0659 C   0  0  0  0  0  0  0  0  0  0  0  0
   -8.5708   -5.4076    1.2517 N   0  0  0  0  0  0  0  0  0  0  0  0
   -9.3337   -5.4986    2.4340 C   0  0  0  0  0  0  0  0  0  0  0  0
   -7.0747   -5.2760    1.4018 C   0  0  0  0  0  0  0  0  0  0  0  0
   -6.2062   -6.2754    0.5789 C   0  0  1  0  0  0  0  0  0  0  0  0
   -6.1217   -5.8512   -0.7742 O   0  0  0  0  0  0  0  0  0  0  0  0
   -4.8108   -6.5252    1.1990 C   0  0  1  0  0  0  0  0  0  0  0  0
   -4.1729   -5.2860    1.4939 O   0  0  0  0  0  0  0  0  0  0  0  0
   -4.7494   -7.4568    2.4344 C   0  0  1  0  0  0  0  0  0  0  0  0
   -5.0819   -8.7769    2.0187 O   0  0  0  0  0  0  0  0  0  0  0  0
   -3.3560   -7.4816    3.1018 C   0  0  0  0  0  0  0  0  0  0  0  0
   -3.3028   -8.3645    4.2161 O   0  0  0  0  0  0  0  0  0  0  0  0
   -1.9902   -8.5776    5.0780 P   0  0  0  0  0  0  0  0  0  0  0  0
   -1.5454   -7.3037    5.6876 O   0  0  0  0  0  0  0  0  0  0  0  0
   -2.1231   -9.7686    5.9445 O   0  5  0  0  0  0  0  0  0  0  0  0
   -0.8816   -8.9394    3.9940 O   0  5  0  0  0  0  0  0  0  0  0  0
  1 18  1  0  0  0  0
  1  2  1  0  0  0  0
  2  4  1  0  0  0  0
  2  3  2  0  0  0  0
  4  5  1  0  0  0  0
  5  7  1  0  0  0  0
  5  6  2  0  0  0  0
  7 18  2  0  0  0  0
  7  8  1  0  0  0  0
  8  9  1  0  0  0  0
  9 10  2  0  0  0  0
  9 16  1  0  0  0  0
 10 11  1  0  0  0  0
 11 12  1  0  0  0  0
 11 13  2  0  0  0  0
 13 14  1  0  0  0  0
 13 15  1  0  0  0  0
 15 16  2  0  0  0  0
 16 17  1  0  0  0  0
 17 19  1  0  0  0  0
 17 18  1  0  0  0  0
 20 19  1  1  0  0  0
 20 22  1  0  0  0  0
 20 21  1  0  0  0  0
 22 24  1  0  0  0  0
 22 23  1  1  0  0  0
 24 26  1  6  0  0  0
 24 25  1  0  0  0  0
 26 27  1  0  0  0  0
 27 28  1  0  0  0  0
 28 30  1  0  0  0  0
 28 29  2  0  0  0  0
 28 31  1  0  0  0  0
M  CHG  2  30  -1  31  -1
M  END
>  <CHROM.1>
-75.44966837,78.85626592,-50.00564581,-166.55692868,67.71175418,-57.51837535
-178.61277841,58.27110190,179.97517899,59.98293423,-7.11272770,-6.13528411
2.02324339,2.56681415,0.31817491,-1.31192903

>  <Name>
1fmn_cryst

>  <RI>
0

>  <Rbt.Current_Directory>
/home/itssahil/PROJECTS/Mol_Feturizer/New_Systems/rnas/1fmn

>  <Rbt.Executable>
rbdock ($Id: //depot/dev/client3/rdock/2013.1/src/exe/rbdock.cxx#4 $)

>  <Rbt.Library>
libRbt.so (2013.1, Build901 2013/11/27)

>  <Rbt.Parameter_File>
/export/apps/rDock/src/rDock_2013.1_src/data/scripts/dock_solv.prm

>  <Rbt.Receptor>
prm/pocket_docking_3.prm

>  <SCORE>
-61.7712

>  <SCORE.INTER>
-55.9609

>  <SCORE.INTER.CONST>
1

>  <SCORE.INTER.POLAR>
-3.85607

>  <SCORE.INTER.ROT>
7

>  <SCORE.INTER.SOLV>
16.785

>  <SCORE.INTER.VDW>
-38.3154

>  <SCORE.INTER.norm>
-1.80519

>  <SCORE.INTRA>
-5.81031

>  <SCORE.INTRA.DIHEDRAL>
-10.7501

>  <SCORE.INTRA.DIHEDRAL.0>
15.5708

>  <SCORE.INTRA.POLAR>
0.0677885

>  <SCORE.INTRA.POLAR.0>
-0.0677885

>  <SCORE.INTRA.REPUL>
0

>  <SCORE.INTRA.REPUL.0>
0

>  <SCORE.INTRA.SOLV>
-4.85026

>  <SCORE.INTRA.SOLV.lig_0>
-87.6316

>  <SCORE.INTRA.VDW>
1.75936

>  <SCORE.INTRA.VDW.0>
-2.87309

>  <SCORE.INTRA.norm>
-0.187429

>  <SCORE.RESTR>
0

>  <SCORE.RESTR.CAVITY>
0

>  <SCORE.RESTR.norm>
0

>  <SCORE.SYSTEM>
0

>  <SCORE.SYSTEM.CONST>
0

>  <SCORE.SYSTEM.DIHEDRAL>
0

>  <SCORE.SYSTEM.SOLV>
0

>  <SCORE.SYSTEM.norm>
0

>  <SCORE.heavy>
31

>  <SCORE.norm>
-1.99262

>  <SYMMETRIC_BONDS>
33 34 3

>  <RMSD>
1.481

$$$$
1fmn_cryst
 OpenBabel11021811393D
libRbt.so/2013.1/901 2013/11/27
 31 33  0  0  0  0  0  0  0  0999 V2000
   -8.9738   -6.7394    3.7432 N   0  0  0  0  0  0  0  0  0  0  0  0
   -9.8319   -6.6724    4.8159 C   0  0  0  0  0  0  0  0  0  0  0  0
   -9.6478   -7.3294    5.8410 O   0  0  0  0  0  0  0  0  0  0  0  0
  -10.9422   -5.8042    4.6643 N   0  0  0  0  0  0  0  0  0  0  0  0
  -11.2481   -5.0146    3.5342 C   0  0  0  0  0  0  0  0  0  0  0  0
  -12.2551   -4.2954    3.5362 O   0  0  0  0  0  0  0  0  0  0  0  0
  -10.2877   -5.1427    2.4359 C   0  0  0  0  0  0  0  0  0  0  0  0
  -10.5136   -4.4065    1.2996 N   0  0  0  0  0  0  0  0  0  0  0  0
   -9.7244   -4.6620    0.2159 C   0  0  0  0  0  0  0  0  0  0  0  0
  -10.0611   -4.0618   -0.9845 C   0  0  0  0  0  0  0  0  0  0  0  0
   -9.3235   -4.2694   -2.1000 C   0  0  0  0  0  0  0  0  0  0  0  0
   -9.7286   -3.5943   -3.3714 C   0  0  0  0  0  0  0  0  0  0  0  0
   -8.2308   -5.0791   -2.0608 C   0  0  0  0  0  0  0  0  0  0  0  0
   -7.4262   -5.3081   -3.2986 C   0  0  0  0  0  0  0  0  0  0  0  0
   -7.8620   -5.6884   -0.9052 C   0  0  0  0  0  0  0  0  0  0  0  0
   -8.5875   -5.5074    0.2723 C   0  0  0  0  0  0  0  0  0  0  0  0
   -8.2582   -6.1066    1.5062 N   0  0  0  0  0  0  0  0  0  0  0  0
   -9.1551   -6.0251    2.5911 C   0  0  0  0  0  0  0  0  0  0  0  0
   -6.7975   -6.3070    1.8293 C   0  0  0  0  0  0  0  0  0  0  0  0
   -6.2819   -7.7781    1.8183 C   0  0  1  0  0  0  0  0  0  0  0  0
   -5.8982   -8.1523    0.5028 O   0  0  0  0  0  0  0  0  0  0  0  0
   -5.1576   -8.0384    2.8490 C   0  0  1  0  0  0  0  0  0  0  0  0
   -4.1166   -7.0778    2.6967 O   0  0  0  0  0  0  0  0  0  0  0  0
   -5.5778   -8.1290    4.3366 C   0  0  1  0  0  0  0  0  0  0  0  0
   -5.0165   -9.3138    4.8907 O   0  0  0  0  0  0  0  0  0  0  0  0
   -5.1054   -6.9174    5.1712 C   0  0  0  0  0  0  0  0  0  0  0  0
   -3.6877   -6.8386    5.2603 O   0  0  0  0  0  0  0  0  0  0  0  0
   -2.9428   -5.7033    6.0774 P   0  0  0  0  0  0  0  0  0  0  0  0
   -2.9838   -4.4146    5.3496 O   0  0  0  0  0  0  0  0  0  0  0  0
   -3.3544   -5.7277    7.4976 O   0  5  0  0  0  0  0  0  0  0  0  0
   -1.4172   -6.1580    6.0501 O   0  5  0  0  0  0  0  0  0  0  0  0
  1 18  1  0  0  0  0
  1  2  1  0  0  0  0
  2  4  1  0  0  0  0
  2  3  2  0  0  0  0
  4  5  1  0  0  0  0
  5  7  1  0  0  0  0
  5  6  2  0  0  0  0
  7 18  2  0  0  0  0
  7  8  1  0  0  0  0
  8  9  1  0  0  0  0
  9 10  2  0  0  0  0
  9 16  1  0  0  0  0
 10 11  1  0  0  0  0
 11 12  1  0  0  0  0
 11 13  2  0  0  0  0
 13 14  1  0  0  0  0
 13 15  1  0  0  0  0
 15 16  2  0  0  0  0
 16 17  1  0  0  0  0
 17 19  1  0  0  0  0
 17 18  1  0  0  0  0
 20 19  1  6  0  0  0
 20 22  1  0  0  0  0
 20 21  1  0  0  0  0
 22 24  1  0  0  0  0
 22 23  1  1  0  0  0
 24 26  1  1  0  0  0
 24 25  1  0  0  0  0
 26 27  1  0  0  0  0
 27 28  1  0  0  0  0
 28 30  1  0  0  0  0
 28 29  2  0  0  0  0
 28 31  1  0  0  0  0
M  CHG  2  30  -1  31  -1
M  END
>  <CHROM.1>
-109.45089847,86.26687133,-52.02562965,-156.21303963,129.92422132,-61.39890474
-64.79450762,-57.78981258,-179.02165388,-75.01903219,-7.12328400,-6.04562458
2.70771031,2.36266925,0.15536577,-1.44416681

>  <Name>
1fmn_cryst

>  <RI>
0

>  <Rbt.Current_Directory>
/home/itssahil/PROJECTS/Mol_Feturizer/New_Systems/rnas/1fmn

>  <Rbt.Executable>
rbdock ($Id: //depot/dev/client3/rdock/2013.1/src/exe/rbdock.cxx#4 $)

>  <Rbt.Library>
libRbt.so (2013.1, Build901 2013/11/27)

>  <Rbt.Parameter_File>
/export/apps/rDock/src/rDock_2013.1_src/data/scripts/dock_solv.prm

>  <Rbt.Receptor>
prm/pocket_docking_4.prm

>  <SCORE>
-56.4543

>  <SCORE.INTER>
-53.6963

>  <SCORE.INTER.CONST>
1

>  <SCORE.INTER.POLAR>
-3.50231

>  <SCORE.INTER.ROT>
7

>  <SCORE.INTER.SOLV>
16.8911

>  <SCORE.INTER.VDW>
-38.0202

>  <SCORE.INTER.norm>
-1.73214

>  <SCORE.INTRA>
-2.75805

>  <SCORE.INTRA.DIHEDRAL>
-3.09414

>  <SCORE.INTRA.DIHEDRAL.0>
15.5708

>  <SCORE.INTRA.POLAR>
0.0677885

>  <SCORE.INTRA.POLAR.0>
-0.0677885

>  <SCORE.INTRA.REPUL>
0

>  <SCORE.INTRA.REPUL.0>
0

>  <SCORE.INTRA.SOLV>
-4.17475

>  <SCORE.INTRA.SOLV.lig_0>
-87.6316

>  <SCORE.INTRA.VDW>
0.645909

>  <SCORE.INTRA.VDW.0>
-2.87309

>  <SCORE.INTRA.norm>
-0.0889695

>  <SCORE.RESTR>
0

>  <SCORE.RESTR.CAVITY>
0

>  <SCORE.RESTR.norm>
0

>  <SCORE.SYSTEM>
0

>  <SCORE.SYSTEM.CONST>
0

>  <SCORE.SYSTEM.DIHEDRAL>
0

>  <SCORE.SYSTEM.SOLV>
0

>  <SCORE.SYSTEM.norm>
0

>  <SCORE.heavy>
31

>  <SCORE.norm>
-1.82111

>  <SYMMETRIC_BONDS>
33 34 3

>  <RMSD>
1.489

$$$$
1fmn_cryst
 OpenBabel11021811393D
libRbt.so/2013.1/901 2013/11/27
 31 33  0  0  0  0  0  0  0  0999 V2000
   -8.6928   -6.1932    3.6066 N   0  0  0  0  0  0  0  0  0  0  0  0
   -9.4881   -6.2704    4.7260 C   0  0  0  0  0  0  0  0  0  0  0  0
   -9.0980   -6.7965    5.7688 O   0  0  0  0  0  0  0  0  0  0  0  0
  -10.7847   -5.7111    4.6013 N   0  0  0  0  0  0  0  0  0  0  0  0
  -11.3306   -5.0930    3.4549 C   0  0  0  0  0  0  0  0  0  0  0  0
  -12.4830   -4.6430    3.4842 O   0  0  0  0  0  0  0  0  0  0  0  0
  -10.4224   -5.0515    2.3066 C   0  0  0  0  0  0  0  0  0  0  0  0
  -10.8780   -4.4659    1.1517 N   0  0  0  0  0  0  0  0  0  0  0  0
  -10.1032   -4.5886    0.0349 C   0  0  0  0  0  0  0  0  0  0  0  0
  -10.6354   -4.1658   -1.1702 C   0  0  0  0  0  0  0  0  0  0  0  0
   -9.9240   -4.2566   -2.3179 C   0  0  0  0  0  0  0  0  0  0  0  0
  -10.5444   -3.7825   -3.5933 C   0  0  0  0  0  0  0  0  0  0  0  0
   -8.6644   -4.7707   -2.3070 C   0  0  0  0  0  0  0  0  0  0  0  0
   -7.8888   -4.8737   -3.5797 C   0  0  0  0  0  0  0  0  0  0  0  0
   -8.1010   -5.1974   -1.1480 C   0  0  0  0  0  0  0  0  0  0  0  0
   -8.7912   -5.1253    0.0620 C   0  0  0  0  0  0  0  0  0  0  0  0
   -8.2648   -5.5469    1.3010 N   0  0  0  0  0  0  0  0  0  0  0  0
   -9.1006   -5.6188    2.4343 C   0  0  0  0  0  0  0  0  0  0  0  0
   -6.7861   -5.3635    1.5421 C   0  0  0  0  0  0  0  0  0  0  0  0
   -5.9451   -6.6658    1.7063 C   0  0  1  0  0  0  0  0  0  0  0  0
   -6.1938   -7.5489    0.6218 O   0  0  0  0  0  0  0  0  0  0  0  0
   -4.4343   -6.3958    1.9027 C   0  0  1  0  0  0  0  0  0  0  0  0
   -4.1219   -5.0535    1.5418 O   0  0  0  0  0  0  0  0  0  0  0  0
   -3.8397   -6.7193    3.2954 C   0  0  1  0  0  0  0  0  0  0  0  0
   -4.3170   -5.7514    4.2235 O   0  0  0  0  0  0  0  0  0  0  0  0
   -4.2246   -8.1271    3.8028 C   0  0  0  0  0  0  0  0  0  0  0  0
   -3.1307   -9.0360    3.7659 O   0  0  0  0  0  0  0  0  0  0  0  0
   -1.8948   -8.9291    4.7520 P   0  0  0  0  0  0  0  0  0  0  0  0
   -1.0274   -7.7850    4.3904 O   0  0  0  0  0  0  0  0  0  0  0  0
   -2.3355   -9.0671    6.1569 O   0  5  0  0  0  0  0  0  0  0  0  0
   -1.0384  -10.2310    4.4261 O   0  5  0  0  0  0  0  0  0  0  0  0
  1 18  1  0  0  0  0
  1  2  1  0  0  0  0
  2  4  1  0  0  0  0
  2  3  2  0  0  0  0
  4  5  1  0  0  0  0
  5  7  1  0  0  0  0
  5  6  2  0  0  0  0
  7 18  2  0  0  0  0
  7  8  1  0  0  0  0
  8  9  1  0  0  0  0
  9 10  2  0  0  0  0
  9 16  1  0  0  0  0
 10 11  1  0  0  0  0
 11 12  1  0  0  0  0
 11 13  2  0  0  0  0
 13 14  1  0  0  0  0
 13 15  1  0  0  0  0
 15 16  2  0  0  0  0
 16 17  1  0  0  0  0
 17 19  1  0  0  0  0
 17 18  1  0  0  0  0
 20 19  1  6  0  0  0
 20 22  1  0  0  0  0
 20 21  1  0  0  0  0
 22 24  1  0  0  0  0
 22 23  1  1  0  0  0
 24 26  1  1  0  0  0
 24 25  1  0  0  0  0
 26 27  1  0  0  0  0
 27 28  1  0  0  0  0
 28 30  1  0  0  0  0
 28 29  2  0  0  0  0
 28 31  1  0  0  0  0
M  CHG  2  30  -1  31  -1
M  END
>  <CHROM.1>
-115.05680466,51.66085722,-15.15290479,62.07809389,-71.47007580,-69.74566040
107.53132578,60.53547581,70.63688802,-73.00190978,-6.88426469,-6.26954433
2.16764105,2.56266515,0.31560961,-1.31405202

>  <Name>
1fmn_cryst

>  <RI>
0

>  <Rbt.Current_Directory>
/home/itssahil/PROJECTS/Mol_Feturizer/New_Systems/rnas/1fmn

>  <Rbt.Executable>
rbdock ($Id: //depot/dev/client3/rdock/2013.1/src/exe/rbdock.cxx#4 $)

>  <Rbt.Library>
libRbt.so (2013.1, Build901 2013/11/27)

>  <Rbt.Parameter_File>
/export/apps/rDock/src/rDock_2013.1_src/data/scripts/dock_solv.prm

>  <Rbt.Receptor>
prm/pocket_docking_3.prm

>  <SCORE>
-52.3518

>  <SCORE.INTER>
-51.3459

>  <SCORE.INTER.CONST>
1

>  <SCORE.INTER.POLAR>
-3.19364

>  <SCORE.INTER.ROT>
7

>  <SCORE.INTER.SOLV>
15.1735

>  <SCORE.INTER.VDW>
-36.9096

>  <SCORE.INTER.norm>
-1.65632

>  <SCORE.INTRA>
-1.01708

>  <SCORE.INTRA.DIHEDRAL>
-2.05318

>  <SCORE.INTRA.DIHEDRAL.0>
15.5708

>  <SCORE.INTRA.POLAR>
0.0677885

>  <SCORE.INTRA.POLAR.0>
-0.0677885

>  <SCORE.INTRA.REPUL>
0.0198904

>  <SCORE.INTRA.REPUL.0>
0

>  <SCORE.INTRA.SOLV>
-2.60272

>  <SCORE.INTRA.SOLV.lig_0>
-87.6316

>  <SCORE.INTRA.VDW>
0.980942

>  <SCORE.INTRA.VDW.0>
-2.87309

>  <SCORE.INTRA.norm>
-0.0328089

>  <SCORE.RESTR>
0.0111392

>  <SCORE.RESTR.CAVITY>
0.0111392

>  <SCORE.RESTR.norm>
0.000359329

>  <SCORE.SYSTEM>
0

>  <SCORE.SYSTEM.CONST>
0

>  <SCORE.SYSTEM.DIHEDRAL>
0

>  <SCORE.SYSTEM.SOLV>
0

>  <SCORE.SYSTEM.norm>
0

>  <SCORE.heavy>
31

>  <SCORE.norm>
-1.68877

>  <SYMMETRIC_BONDS>
33 34 3

>  <RMSD>
1.500

$$$$
1fmn_cryst
 OpenBabel11021811393D
libRbt.so/2013.1/901 2013/11/27
 31 33  0  0  0  0  0  0  0  0999 V2000
   -9.0092   -6.1009    3.5753 N   0  0  0  0  0  0  0  0  0  0  0  0
   -9.8483   -6.0608    4.6643 C   0  0  0  0  0  0  0  0  0  0  0  0
   -9.5540   -6.5930    5.7351 O   0  0  0  0  0  0  0  0  0  0  0  0
  -11.0733   -5.3732    4.4741 N   0  0  0  0  0  0  0  0  0  0  0  0
  -11.5090   -4.7365    3.2913 C   0  0  0  0  0  0  0  0  0  0  0  0
  -12.6077   -4.1679    3.2635 O   0  0  0  0  0  0  0  0  0  0  0  0
  -10.5604   -4.8248    2.1789 C   0  0  0  0  0  0  0  0  0  0  0  0
  -10.9095   -4.2301    0.9920 N   0  0  0  0  0  0  0  0  0  0  0  0
  -10.1119   -4.4667   -0.0899 C   0  0  0  0  0  0  0  0  0  0  0  0
  -10.5524   -4.0273   -1.3258 C   0  0  0  0  0  0  0  0  0  0  0  0
   -9.8134   -4.2266   -2.4418 C   0  0  0  0  0  0  0  0  0  0  0  0
  -10.3336   -3.7291   -3.7526 C   0  0  0  0  0  0  0  0  0  0  0  0
   -8.6163   -4.8688   -2.3679 C   0  0  0  0  0  0  0  0  0  0  0  0
   -7.8101   -5.0907   -3.6061 C   0  0  0  0  0  0  0  0  0  0  0  0
   -8.1435   -5.3168   -1.1768 C   0  0  0  0  0  0  0  0  0  0  0  0
   -8.8656   -5.1364    0.0028 C   0  0  0  0  0  0  0  0  0  0  0  0
   -8.4320   -5.5730    1.2722 N   0  0  0  0  0  0  0  0  0  0  0  0
   -9.3113   -5.5229    2.3732 C   0  0  0  0  0  0  0  0  0  0  0  0
   -6.9519   -5.5378    1.5662 C   0  0  0  0  0  0  0  0  0  0  0  0
   -6.2324   -6.9174    1.6612 C   0  0  1  0  0  0  0  0  0  0  0  0
   -5.2344   -7.0191    0.6554 O   0  0  0  0  0  0  0  0  0  0  0  0
   -5.6704   -7.2167    3.0714 C   0  0  1  0  0  0  0  0  0  0  0  0
   -6.7362   -7.4298    3.9924 O   0  0  0  0  0  0  0  0  0  0  0  0
   -4.6379   -8.3651    3.1853 C   0  0  1  0  0  0  0  0  0  0  0  0
   -3.4956   -8.0209    2.4089 O   0  0  0  0  0  0  0  0  0  0  0  0
   -4.1892   -8.6300    4.6400 C   0  0  0  0  0  0  0  0  0  0  0  0
   -3.2702   -9.7118    4.7367 O   0  0  0  0  0  0  0  0  0  0  0  0
   -2.6505  -10.1883    6.1152 P   0  0  0  0  0  0  0  0  0  0  0  0
   -1.6851   -9.1924    6.6331 O   0  0  0  0  0  0  0  0  0  0  0  0
   -3.7103  -10.6838    7.0197 O   0  5  0  0  0  0  0  0  0  0  0  0
   -1.7775  -11.4589    5.7172 O   0  5  0  0  0  0  0  0  0  0  0  0
  1 18  1  0  0  0  0
  1  2  1  0  0  0  0
  2  4  1  0  0  0  0
  2  3  2  0  0  0  0
  4  5  1  0  0  0  0
  5  7  1  0  0  0  0
  5  6  2  0  0  0  0
  7 18  2  0  0  0  0
  7  8  1  0  0  0  0
  8  9  1  0  0  0  0
  9 10  2  0  0  0  0
  9 16  1  0  0  0  0
 10 11  1  0  0  0  0
 11 12  1  0  0  0  0
 11 13  2  0  0  0  0
 13 14  1  0  0  0  0
 13 15  1  0  0  0  0
 15 16  2  0  0  0  0
 16 17  1  0  0  0  0
 17 19  1  0  0  0  0
 17 18  1  0  0  0  0
 20 19  1  1  0  0  0
 20 22  1  0  0  0  0
 20 21  1  0  0  0  0
 22 24  1  0  0  0  0
 22 23  1  1  0  0  0
 24 26  1  1  0  0  0
 24 25  1  0  0  0  0
 26 27  1  0  0  0  0
 27 28  1  0  0  0  0
 28 30  1  0  0  0  0
 28 29  2  0  0  0  0
 28 31  1  0  0  0  0
M  CHG  2  30  -1  31  -1
M  END
>  <CHROM.1>
-109.35470052,118.10917467,68.91263987,-72.40506361,62.14833699,73.62530340
178.30943914,-174.73098748,179.79847431,-70.72615676,-7.19481085,-6.71963770
2.47792384,2.41244116,0.45823919,-1.29805844

>  <Name>
1fmn_cryst

>  <RI>
0

>  <Rbt.Current_Directory>
/home/itssahil/PROJECTS/Mol_Feturizer/New_Systems/rnas/1fmn

>  <Rbt.Executable>
rbdock ($Id: //depot/dev/client3/rdock/2013.1/src/exe/rbdock.cxx#4 $)

>  <Rbt.Library>
libRbt.so (2013.1, Build901 2013/11/27)

>  <Rbt.Parameter_File>
/export/apps/rDock/src/rDock_2013.1_src/data/scripts/dock_solv.prm

>  <Rbt.Receptor>
prm/pocket_docking_3.prm

>  <SCORE>
-59.85

>  <SCORE.INTER>
-52.393

>  <SCORE.INTER.CONST>
1

>  <SCORE.INTER.POLAR>
-3.04334

>  <SCORE.INTER.ROT>
7

>  <SCORE.INTER.SOLV>
14.3079

>  <SCORE.INTER.VDW>
-37.8202

>  <SCORE.INTER.norm>
-1.6901

>  <SCORE.INTRA>
-7.47246

>  <SCORE.INTRA.DIHEDRAL>
-5.77218

>  <SCORE.INTRA.DIHEDRAL.0>
15.5708

>  <SCORE.INTRA.POLAR>
-0.910113

>  <SCORE.INTRA.POLAR.0>
-0.0677885

>  <SCORE.INTRA.REPUL>
0

>  <SCORE.INTRA.REPUL.0>
0

>  <SCORE.INTRA.SOLV>
-3.70912

>  <SCORE.INTRA.SOLV.lig_0>
-87.6316

>  <SCORE.INTRA.VDW>
0.362584

>  <SCORE.INTRA.VDW.0>
-2.87309

>  <SCORE.INTRA.norm>
-0.241047

>  <SCORE.RESTR>
0.0155083

>  <SCORE.RESTR.CAVITY>
0.0155083

>  <SCORE.RESTR.norm>
0.000500268

>  <SCORE.SYSTEM>
0

>  <SCORE.SYSTEM.CONST>
0

>  <SCORE.SYSTEM.DIHEDRAL>
0

>  <SCORE.SYSTEM.SOLV>
0

>  <SCORE.SYSTEM.norm>
0

>  <SCORE.heavy>
31

>  <SCORE.norm>
-1.93064

>  <SYMMETRIC_BONDS>
33 34 3

>  <RMSD>
1.511

$$$$
1fmn_cryst
 OpenBabel11021811393D
libRbt.so/2013.1/901 2013/11/27
 31 33  0  0  0  0  0  0  0  0999 V2000
   -8.9033   -6.1533    3.5321 N   0  0  0  0  0  0  0  0  0  0  0  0
   -9.6703   -6.1966    4.6728 C   0  0  0  0  0  0  0  0  0  0  0  0
   -9.2832   -6.7568    5.6989 O   0  0  0  0  0  0  0  0  0  0  0  0
  -10.9345   -5.5605    4.5906 N   0  0  0  0  0  0  0  0  0  0  0  0
  -11.4746   -4.8982    3.4664 C   0  0  0  0  0  0  0  0  0  0  0  0
  -12.5970   -4.3814    3.5330 O   0  0  0  0  0  0  0  0  0  0  0  0
  -10.5978   -4.8968    2.2932 C   0  0  0  0  0  0  0  0  0  0  0  0
  -11.0498   -4.2721    1.1576 N   0  0  0  0  0  0  0  0  0  0  0  0
  -10.3150   -4.4272    0.0181 C   0  0  0  0  0  0  0  0  0  0  0  0
  -10.8546   -3.9598   -1.1672 C   0  0  0  0  0  0  0  0  0  0  0  0
  -10.1820   -4.0791   -2.3355 C   0  0  0  0  0  0  0  0  0  0  0  0
  -10.8084   -3.5545   -3.5880 C   0  0  0  0  0  0  0  0  0  0  0  0
   -8.9552   -4.6665   -2.3655 C   0  0  0  0  0  0  0  0  0  0  0  0
   -8.2226   -4.8002   -3.6607 C   0  0  0  0  0  0  0  0  0  0  0  0
   -8.3860   -5.1391   -1.2273 C   0  0  0  0  0  0  0  0  0  0  0  0
   -9.0368   -5.0405    0.0025 C   0  0  0  0  0  0  0  0  0  0  0  0
   -8.5020   -5.5067    1.2218 N   0  0  0  0  0  0  0  0  0  0  0  0
   -9.3088   -5.5424    2.3776 C   0  0  0  0  0  0  0  0  0  0  0  0
   -7.0089   -5.4135    1.4225 C   0  0  0  0  0  0  0  0  0  0  0  0
   -6.2138   -6.7513    1.3319 C   0  0  1  0  0  0  0  0  0  0  0  0
   -5.2936   -6.7014    0.2508 O   0  0  0  0  0  0  0  0  0  0  0  0
   -5.5284   -7.1451    2.6621 C   0  0  1  0  0  0  0  0  0  0  0  0
   -6.5063   -7.3688    3.6737 O   0  0  0  0  0  0  0  0  0  0  0  0
   -4.5374   -8.3340    2.6148 C   0  0  1  0  0  0  0  0  0  0  0  0
   -3.5636   -8.0675    1.6115 O   0  0  0  0  0  0  0  0  0  0  0  0
   -3.8142   -8.5695    3.9599 C   0  0  0  0  0  0  0  0  0  0  0  0
   -2.8383   -9.6016    3.8787 O   0  0  0  0  0  0  0  0  0  0  0  0
   -1.9208  -10.0109    5.1042 P   0  0  0  0  0  0  0  0  0  0  0  0
   -0.5050   -9.6653    4.8433 O   0  0  0  0  0  0  0  0  0  0  0  0
   -2.5315   -9.5787    6.3799 O   0  5  0  0  0  0  0  0  0  0  0  0
   -1.9768  -11.6020    5.1026 O   0  5  0  0  0  0  0  0  0  0  0  0
  1 18  1  0  0  0  0
  1  2  1  0  0  0  0
  2  4  1  0  0  0  0
  2  3  2  0  0  0  0
  4  5  1  0  0  0  0
  5  7  1  0  0  0  0
  5  6  2  0  0  0  0
  7 18  2  0  0  0  0
  7  8  1  0  0  0  0
  8  9  1  0  0  0  0
  9 10  2  0  0  0  0
  9 16  1  0  0  0  0
 10 11  1  0  0  0  0
 11 12  1  0  0  0  0
 11 13  2  0  0  0  0
 13 14  1  0  0  0  0
 13 15  1  0  0  0  0
 15 16  2  0  0  0  0
 16 17  1  0  0  0  0
 17 19  1  0  0  0  0
 17 18  1  0  0  0  0
 20 19  1  1  0  0  0
 20 22  1  0  0  0  0
 20 21  1  0  0  0  0
 22 24  1  0  0  0  0
 22 23  1  1  0  0  0
 24 26  1  1  0  0  0
 24 25  1  0  0  0  0
 26 27  1  0  0  0  0
 27 28  1  0  0  0  0
 28 30  1  0  0  0  0
 28 29  2  0  0  0  0
 28 31  1  0  0  0  0
M  CHG  2  30  -1  31  -1
M  END
>  <CHROM.1>
-106.01751984,117.52607285,62.86079856,170.80968793,54.32437857,73.50658902
-175.81788053,-176.81089448,177.94940555,-112.73445372,-7.08862094,-6.65801882
2.18993290,2.54467898,0.44020235,-1.29963011

>  <Name>
1fmn_cryst

>  <RI>
0

>  <Rbt.Current_Directory>
/home/itssahil/PROJECTS/Mol_Feturizer/New_Systems/rnas/1fmn

>  <Rbt.Executable>
rbdock ($Id: //depot/dev/client3/rdock/2013.1/src/exe/rbdock.cxx#4 $)

>  <Rbt.Library>
libRbt.so (2013.1, Build901 2013/11/27)

>  <Rbt.Parameter_File>
/export/apps/rDock/src/rDock_2013.1_src/data/scripts/dock_solv.prm

>  <Rbt.Receptor>
prm/pocket_docking_3.prm

>  <SCORE>
-55.9623

>  <SCORE.INTER>
-48.1118

>  <SCORE.INTER.CONST>
1

>  <SCORE.INTER.POLAR>
-2.14658

>  <SCORE.INTER.ROT>
7

>  <SCORE.INTER.SOLV>
14.5049

>  <SCORE.INTER.VDW>
-38.0209

>  <SCORE.INTER.norm>
-1.55199

>  <SCORE.INTRA>
-7.87287

>  <SCORE.INTRA.DIHEDRAL>
-4.21258

>  <SCORE.INTRA.DIHEDRAL.0>
15.5708

>  <SCORE.INTRA.POLAR>
-1.52

>  <SCORE.INTRA.POLAR.0>
-0.0677885

>  <SCORE.INTRA.REPUL>
0

>  <SCORE.INTRA.REPUL.0>
0

>  <SCORE.INTRA.SOLV>
-3.45871

>  <SCORE.INTRA.SOLV.lig_0>
-87.6316

>  <SCORE.INTRA.VDW>
1.13076

>  <SCORE.INTRA.VDW.0>
-2.87309

>  <SCORE.INTRA.norm>
-0.253964

>  <SCORE.RESTR>
0.0224199

>  <SCORE.RESTR.CAVITY>
0.0224199

>  <SCORE.RESTR.norm>
0.000723223

>  <SCORE.SYSTEM>
0

>  <SCORE.SYSTEM.CONST>
0

>  <SCORE.SYSTEM.DIHEDRAL>
0

>  <SCORE.SYSTEM.SOLV>
0

>  <SCORE.SYSTEM.norm>
0

>  <SCORE.heavy>
31

>  <SCORE.norm>
-1.80523

>  <SYMMETRIC_BONDS>
33 34 3

>  <RMSD>
1.520

$$$$
1fmn_cryst
 OpenBabel11021811393D
libRbt.so/2013.1/901 2013/11/27
 31 33  0  0  0  0  0  0  0  0999 V2000
   -8.7783   -6.1823    3.5025 N   0  0  0  0  0  0  0  0  0  0  0  0
   -9.5358   -6.2603    4.6478 C   0  0  0  0  0  0  0  0  0  0  0  0
   -9.1266   -6.8227    5.6641 O   0  0  0  0  0  0  0  0  0  0  0  0
  -10.8171   -5.6574    4.5821 N   0  0  0  0  0  0  0  0  0  0  0  0
  -11.3827   -4.9959    3.4700 C   0  0  0  0  0  0  0  0  0  0  0  0
  -12.5180   -4.5103    3.5506 O   0  0  0  0  0  0  0  0  0  0  0  0
  -10.5145   -4.9565    2.2910 C   0  0  0  0  0  0  0  0  0  0  0  0
  -10.9912   -4.3301    1.1665 N   0  0  0  0  0  0  0  0  0  0  0  0
  -10.2606   -4.4512    0.0201 C   0  0  0  0  0  0  0  0  0  0  0  0
  -10.8208   -3.9839   -1.1555 C   0  0  0  0  0  0  0  0  0  0  0  0
  -10.1536   -4.0705   -2.3297 C   0  0  0  0  0  0  0  0  0  0  0  0
  -10.8027   -3.5474   -3.5712 C   0  0  0  0  0  0  0  0  0  0  0  0
   -8.9117   -4.6244   -2.3754 C   0  0  0  0  0  0  0  0  0  0  0  0
   -8.1851   -4.7223   -3.6771 C   0  0  0  0  0  0  0  0  0  0  0  0
   -8.3221   -5.0956   -1.2470 C   0  0  0  0  0  0  0  0  0  0  0  0
   -8.9665   -5.0298   -0.0118 C   0  0  0  0  0  0  0  0  0  0  0  0
   -8.4109   -5.4966    1.1979 N   0  0  0  0  0  0  0  0  0  0  0  0
   -9.2082   -5.5683    2.3586 C   0  0  0  0  0  0  0  0  0  0  0  0
   -6.9194   -5.3658    1.3897 C   0  0  0  0  0  0  0  0  0  0  0  0
   -6.1541   -6.6690    1.7720 C   0  0  1  0  0  0  0  0  0  0  0  0
   -6.3971   -7.6807    0.8049 O   0  0  0  0  0  0  0  0  0  0  0  0
   -4.6422   -6.4414    2.0093 C   0  0  1  0  0  0  0  0  0  0  0  0
   -4.4440   -5.4542    3.0172 O   0  0  0  0  0  0  0  0  0  0  0  0
   -3.7855   -7.6930    2.3217 C   0  0  1  0  0  0  0  0  0  0  0  0
   -3.8591   -8.5771    1.2086 O   0  0  0  0  0  0  0  0  0  0  0  0
   -2.3020   -7.3558    2.5919 C   0  0  0  0  0  0  0  0  0  0  0  0
   -1.5583   -8.4873    3.0286 O   0  0  0  0  0  0  0  0  0  0  0  0
   -1.8020   -9.1828    4.4314 P   0  0  0  0  0  0  0  0  0  0  0  0
   -3.2051   -9.6378    4.5592 O   0  0  0  0  0  0  0  0  0  0  0  0
   -0.7167  -10.1408    4.7338 O   0  5  0  0  0  0  0  0  0  0  0  0
   -1.6452   -7.9912    5.4756 O   0  5  0  0  0  0  0  0  0  0  0  0
  1 18  1  0  0  0  0
  1  2  1  0  0  0  0
  2  4  1  0  0  0  0
  2  3  2  0  0  0  0
  4  5  1  0  0  0  0
  5  7  1  0  0  0  0
  5  6  2  0  0  0  0
  7 18  2  0  0  0  0
  7  8  1  0  0  0  0
  8  9  1  0  0  0  0
  9 10  2  0  0  0  0
  9 16  1  0  0  0  0
 10 11  1  0  0  0  0
 11 12  1  0  0  0  0
 11 13  2  0  0  0  0
 13 14  1  0  0  0  0
 13 15  1  0  0  0  0
 15 16  2  0  0  0  0
 16 17  1  0  0  0  0
 17 19  1  0  0  0  0
 17 18  1  0  0  0  0
 20 19  1  6  0  0  0
 20 22  1  0  0  0  0
 20 21  1  0  0  0  0
 22 24  1  0  0  0  0
 22 23  1  1  0  0  0
 24 26  1  6  0  0  0
 24 25  1  0  0  0  0
 26 27  1  0  0  0  0
 27 28  1  0  0  0  0
 28 30  1  0  0  0  0
 28 29  2  0  0  0  0
 28 31  1  0  0  0  0
M  CHG  2  30  -1  31  -1
M  END
>  <CHROM.1>
-126.61156411,56.02752373,56.63366104,56.77870542,61.42571126,-61.68156118
173.16714349,-55.78869788,-67.69877905,57.91826859,-6.89549350,-6.36702134
1.97696776,2.64149327,0.36337459,-1.32997950

>  <Name>
1fmn_cryst

>  <RI>
0

>  <Rbt.Current_Directory>
/home/itssahil/PROJECTS/Mol_Feturizer/New_Systems/rnas/1fmn

>  <Rbt.Executable>
rbdock ($Id: //depot/dev/client3/rdock/2013.1/src/exe/rbdock.cxx#4 $)

>  <Rbt.Library>
libRbt.so (2013.1, Build901 2013/11/27)

>  <Rbt.Parameter_File>
/export/apps/rDock/src/rDock_2013.1_src/data/scripts/dock_solv.prm

>  <Rbt.Receptor>
prm/pocket_docking_3.prm

>  <SCORE>
-56.4976

>  <SCORE.INTER>
-49.3844

>  <SCORE.INTER.CONST>
1

>  <SCORE.INTER.POLAR>
-2.68614

>  <SCORE.INTER.ROT>
7

>  <SCORE.INTER.SOLV>
14.7253

>  <SCORE.INTER.VDW>
-37.1442

>  <SCORE.INTER.norm>
-1.59305

>  <SCORE.INTRA>
-7.11316

>  <SCORE.INTRA.DIHEDRAL>
-12.4616

>  <SCORE.INTRA.DIHEDRAL.0>
15.5708

>  <SCORE.INTRA.POLAR>
-0.322233

>  <SCORE.INTRA.POLAR.0>
-0.0677885

>  <SCORE.INTRA.REPUL>
0

>  <SCORE.INTRA.REPUL.0>
0

>  <SCORE.INTRA.SOLV>
-1.67657

>  <SCORE.INTRA.SOLV.lig_0>
-87.6316

>  <SCORE.INTRA.VDW>
1.05149

>  <SCORE.INTRA.VDW.0>
-2.87309

>  <SCORE.INTRA.norm>
-0.229457

>  <SCORE.RESTR>
0

>  <SCORE.RESTR.CAVITY>
0

>  <SCORE.RESTR.norm>
0

>  <SCORE.SYSTEM>
0

>  <SCORE.SYSTEM.CONST>
0

>  <SCORE.SYSTEM.DIHEDRAL>
0

>  <SCORE.SYSTEM.SOLV>
0

>  <SCORE.SYSTEM.norm>
0

>  <SCORE.heavy>
31

>  <SCORE.norm>
-1.8225

>  <SYMMETRIC_BONDS>
33 34 3

>  <RMSD>
1.522

$$$$
1fmn_cryst
 OpenBabel11021811393D
libRbt.so/2013.1/901 2013/11/27
 31 33  0  0  0  0  0  0  0  0999 V2000
   -8.9696   -6.1669    3.3839 N   0  0  0  0  0  0  0  0  0  0  0  0
   -9.6391   -6.2268    4.5838 C   0  0  0  0  0  0  0  0  0  0  0  0
   -9.1930   -6.8466    5.5499 O   0  0  0  0  0  0  0  0  0  0  0  0
  -10.8753   -5.5350    4.6356 N   0  0  0  0  0  0  0  0  0  0  0  0
  -11.4772   -4.8026    3.5889 C   0  0  0  0  0  0  0  0  0  0  0  0
  -12.5652   -4.2423    3.7720 O   0  0  0  0  0  0  0  0  0  0  0  0
  -10.7031   -4.7878    2.3456 C   0  0  0  0  0  0  0  0  0  0  0  0
  -11.2201   -4.0963    1.2785 N   0  0  0  0  0  0  0  0  0  0  0  0
  -10.5917   -4.2330    0.0748 C   0  0  0  0  0  0  0  0  0  0  0  0
  -11.2072   -3.6927   -1.0404 C   0  0  0  0  0  0  0  0  0  0  0  0
  -10.6415   -3.7899   -2.2659 C   0  0  0  0  0  0  0  0  0  0  0  0
  -11.3464   -3.1859   -3.4384 C   0  0  0  0  0  0  0  0  0  0  0  0
   -9.4497   -4.4268   -2.4244 C   0  0  0  0  0  0  0  0  0  0  0  0
   -8.8357   -4.5355   -3.7821 C   0  0  0  0  0  0  0  0  0  0  0  0
   -8.8090   -4.9715   -1.3588 C   0  0  0  0  0  0  0  0  0  0  0  0
   -9.3487   -4.8986   -0.0747 C   0  0  0  0  0  0  0  0  0  0  0  0
   -8.7351   -5.4390    1.0748 N   0  0  0  0  0  0  0  0  0  0  0  0
   -9.4425   -5.4903    2.2934 C   0  0  0  0  0  0  0  0  0  0  0  0
   -7.2277   -5.4177    1.1499 C   0  0  0  0  0  0  0  0  0  0  0  0
   -6.4747   -6.4232    0.2269 C   0  0  1  0  0  0  0  0  0  0  0  0
   -6.2707   -5.8504   -1.0570 O   0  0  0  0  0  0  0  0  0  0  0  0
   -5.1579   -6.9505    0.8450 C   0  0  1  0  0  0  0  0  0  0  0  0
   -4.0501   -6.1939    0.3657 O   0  0  0  0  0  0  0  0  0  0  0  0
   -5.0994   -7.0506    2.3892 C   0  0  1  0  0  0  0  0  0  0  0  0
   -6.2997   -7.6645    2.8455 O   0  0  0  0  0  0  0  0  0  0  0  0
   -3.8951   -7.8767    2.8942 C   0  0  0  0  0  0  0  0  0  0  0  0
   -3.7484   -7.8149    4.3080 O   0  0  0  0  0  0  0  0  0  0  0  0
   -2.9655   -6.6459    5.0375 P   0  0  0  0  0  0  0  0  0  0  0  0
   -3.2943   -6.6097    6.4806 O   0  0  0  0  0  0  0  0  0  0  0  0
   -1.5424   -6.6413    4.6352 O   0  5  0  0  0  0  0  0  0  0  0  0
   -3.6043   -5.3233    4.4231 O   0  5  0  0  0  0  0  0  0  0  0  0
  1 18  1  0  0  0  0
  1  2  1  0  0  0  0
  2  4  1  0  0  0  0
  2  3  2  0  0  0  0
  4  5  1  0  0  0  0
  5  7  1  0  0  0  0
  5  6  2  0  0  0  0
  7 18  2  0  0  0  0
  7  8  1  0  0  0  0
  8  9  1  0  0  0  0
  9 10  2  0  0  0  0
  9 16  1  0  0  0  0
 10 11  1  0  0  0  0
 11 12  1  0  0  0  0
 11 13  2  0  0  0  0
 13 14  1  0  0  0  0
 13 15  1  0  0  0  0
 15 16  2  0  0  0  0
 16 17  1  0  0  0  0
 17 19  1  0  0  0  0
 17 18  1  0  0  0  0
 20 19  1  1  0  0  0
 20 22  1  0  0  0  0
 20 21  1  0  0  0  0
 22 24  1  0  0  0  0
 22 23  1  1  0  0  0
 24 26  1  6  0  0  0
 24 25  1  0  0  0  0
 26 27  1  0  0  0  0
 27 28  1  0  0  0  0
 28 30  1  0  0  0  0
 28 29  2  0  0  0  0
 28 31  1  0  0  0  0
M  CHG  2  30  -1  31  -1
M  END
>  <CHROM.1>
-72.81883140,86.67487383,-96.37632451,-168.35267031,46.21340236,-172.48165509
172.16567749,61.13471558,-85.18465654,163.56192737,-7.49459255,-5.70075603
1.91473754,2.51012680,0.24063039,-1.40664361

>  <Name>
1fmn_cryst

>  <RI>
0

>  <Rbt.Current_Directory>
/home/itssahil/PROJECTS/Mol_Feturizer/New_Systems/rnas/1fmn

>  <Rbt.Executable>
rbdock ($Id: //depot/dev/client3/rdock/2013.1/src/exe/rbdock.cxx#4 $)

>  <Rbt.Library>
libRbt.so (2013.1, Build901 2013/11/27)

>  <Rbt.Parameter_File>
/export/apps/rDock/src/rDock_2013.1_src/data/scripts/dock_solv.prm

>  <Rbt.Receptor>
prm/pocket_docking_3.prm

>  <SCORE>
-57.7033

>  <SCORE.INTER>
-53.6513

>  <SCORE.INTER.CONST>
1

>  <SCORE.INTER.POLAR>
-3.26735

>  <SCORE.INTER.ROT>
7

>  <SCORE.INTER.SOLV>
17.6668

>  <SCORE.INTER.VDW>
-39.032

>  <SCORE.INTER.norm>
-1.73069

>  <SCORE.INTRA>
-4.052

>  <SCORE.INTRA.DIHEDRAL>
-3.28917

>  <SCORE.INTRA.DIHEDRAL.0>
15.5708

>  <SCORE.INTRA.POLAR>
-0.932211

>  <SCORE.INTRA.POLAR.0>
-0.0677885

>  <SCORE.INTRA.REPUL>
0

>  <SCORE.INTRA.REPUL.0>
0

>  <SCORE.INTRA.SOLV>
-1.23842

>  <SCORE.INTRA.SOLV.lig_0>
-87.6316

>  <SCORE.INTRA.VDW>
1.38132

>  <SCORE.INTRA.VDW.0>
-2.87309

>  <SCORE.INTRA.norm>
-0.13071

>  <SCORE.RESTR>
0

>  <SCORE.RESTR.CAVITY>
0

>  <SCORE.RESTR.norm>
0

>  <SCORE.SYSTEM>
0

>  <SCORE.SYSTEM.CONST>
0

>  <SCORE.SYSTEM.DIHEDRAL>
0

>  <SCORE.SYSTEM.SOLV>
0

>  <SCORE.SYSTEM.norm>
0

>  <SCORE.heavy>
31

>  <SCORE.norm>
-1.8614

>  <SYMMETRIC_BONDS>
33 34 3

>  <RMSD>
1.530

$$$$
1fmn_cryst
 OpenBabel11021811393D
libRbt.so/2013.1/901 2013/11/27
 31 33  0  0  0  0  0  0  0  0999 V2000
   -8.7160   -6.1581    3.7157 N   0  0  0  0  0  0  0  0  0  0  0  0
   -9.5994   -6.1804    4.7696 C   0  0  0  0  0  0  0  0  0  0  0  0
   -9.3039   -6.6732    5.8588 O   0  0  0  0  0  0  0  0  0  0  0  0
  -10.8710   -5.6054    4.5207 N   0  0  0  0  0  0  0  0  0  0  0  0
  -11.3118   -5.0221    3.3126 C   0  0  0  0  0  0  0  0  0  0  0  0
  -12.4540   -4.5528    3.2327 O   0  0  0  0  0  0  0  0  0  0  0  0
  -10.3142   -5.0384    2.2403 C   0  0  0  0  0  0  0  0  0  0  0  0
  -10.6649   -4.4894    1.0321 N   0  0  0  0  0  0  0  0  0  0  0  0
   -9.8059   -4.6664   -0.0136 C   0  0  0  0  0  0  0  0  0  0  0  0
  -10.2320   -4.2807   -1.2722 C   0  0  0  0  0  0  0  0  0  0  0  0
   -9.4332   -4.4261   -2.3548 C   0  0  0  0  0  0  0  0  0  0  0  0
   -9.9406   -3.9903   -3.6923 C   0  0  0  0  0  0  0  0  0  0  0  0
   -8.1884   -4.9596   -2.2240 C   0  0  0  0  0  0  0  0  0  0  0  0
   -7.3158   -5.1229   -3.4256 C   0  0  0  0  0  0  0  0  0  0  0  0
   -7.7276   -5.3515   -1.0087 C   0  0  0  0  0  0  0  0  0  0  0  0
   -8.5107   -5.2228    0.1384 C   0  0  0  0  0  0  0  0  0  0  0  0
   -8.0930   -5.6060    1.4302 N   0  0  0  0  0  0  0  0  0  0  0  0
   -9.0179   -5.6218    2.4944 C   0  0  0  0  0  0  0  0  0  0  0  0
   -6.6350   -5.4375    1.7827 C   0  0  0  0  0  0  0  0  0  0  0  0
   -5.6091   -6.1226    0.8296 C   0  0  1  0  0  0  0  0  0  0  0  0
   -4.3361   -5.5049    0.9556 O   0  0  0  0  0  0  0  0  0  0  0  0
   -5.5330   -7.6567    1.0162 C   0  0  1  0  0  0  0  0  0  0  0  0
   -4.4671   -8.1959    0.2400 O   0  0  0  0  0  0  0  0  0  0  0  0
   -5.4448   -8.1824    2.4701 C   0  0  1  0  0  0  0  0  0  0  0  0
   -5.5376   -9.6024    2.4408 O   0  0  0  0  0  0  0  0  0  0  0  0
   -4.1292   -7.7843    3.1760 C   0  0  0  0  0  0  0  0  0  0  0  0
   -4.1557   -8.0615    4.5712 O   0  0  0  0  0  0  0  0  0  0  0  0
   -5.1010   -7.2874    5.5803 P   0  0  0  0  0  0  0  0  0  0  0  0
   -5.0074   -7.8642    6.9407 O   0  0  0  0  0  0  0  0  0  0  0  0
   -4.9492   -5.8252    5.4194 O   0  5  0  0  0  0  0  0  0  0  0  0
   -6.5672   -7.6397    5.0696 O   0  5  0  0  0  0  0  0  0  0  0  0
  1 18  1  0  0  0  0
  1  2  1  0  0  0  0
  2  4  1  0  0  0  0
  2  3  2  0  0  0  0
  4  5  1  0  0  0  0
  5  7  1  0  0  0  0
  5  6  2  0  0  0  0
  7 18  2  0  0  0  0
  7  8  1  0  0  0  0
  8  9  1  0  0  0  0
  9 10  2  0  0  0  0
  9 16  1  0  0  0  0
 10 11  1  0  0  0  0
 11 12  1  0  0  0  0
 11 13  2  0  0  0  0
 13 14  1  0  0  0  0
 13 15  1  0  0  0  0
 15 16  2  0  0  0  0
 16 17  1  0  0  0  0
 17 19  1  0  0  0  0
 17 18  1  0  0  0  0
 20 19  1  1  0  0  0
 20 22  1  0  0  0  0
 20 21  1  0  0  0  0
 22 24  1  0  0  0  0
 22 23  1  6  0  0  0
 24 26  1  6  0  0  0
 24 25  1  0  0  0  0
 26 27  1  0  0  0  0
 27 28  1  0  0  0  0
 28 30  1  0  0  0  0
 28 29  2  0  0  0  0
 28 31  1  0  0  0  0
M  CHG  2  30  -1  31  -1
M  END
>  <CHROM.1>
-54.97619040,158.35842207,-172.79835653,53.90486353,173.45773607,61.57632049
169.53486244,57.77935127,-67.50440732,174.88956186,-7.49971340,-6.18429232
2.15256202,0.94742227,-0.38816938,1.76538657

>  <Name>
1fmn_cryst

>  <RI>
0

>  <Rbt.Current_Directory>
/home/itssahil/PROJECTS/Mol_Feturizer/New_Systems/rnas/1fmn

>  <Rbt.Executable>
rbdock ($Id: //depot/dev/client3/rdock/2013.1/src/exe/rbdock.cxx#4 $)

>  <Rbt.Library>
libRbt.so (2013.1, Build901 2013/11/27)

>  <Rbt.Parameter_File>
/export/apps/rDock/src/rDock_2013.1_src/data/scripts/dock_solv.prm

>  <Rbt.Receptor>
prm/pocket_docking_4.prm

>  <SCORE>
-57.9376

>  <SCORE.INTER>
-50.1116

>  <SCORE.INTER.CONST>
1

>  <SCORE.INTER.POLAR>
-2.73483

>  <SCORE.INTER.ROT>
7

>  <SCORE.INTER.SOLV>
22.4187

>  <SCORE.INTER.VDW>
-40.0312

>  <SCORE.INTER.norm>
-1.6165

>  <SCORE.INTRA>
-7.82599

>  <SCORE.INTRA.DIHEDRAL>
-11.2593

>  <SCORE.INTRA.DIHEDRAL.0>
15.5708

>  <SCORE.INTRA.POLAR>
-1.24355

>  <SCORE.INTRA.POLAR.0>
-0.0677885

>  <SCORE.INTRA.REPUL>
0

>  <SCORE.INTRA.REPUL.0>
0

>  <SCORE.INTRA.SOLV>
3.31568

>  <SCORE.INTRA.SOLV.lig_0>
-87.6316

>  <SCORE.INTRA.VDW>
0.373906

>  <SCORE.INTRA.VDW.0>
-2.87309

>  <SCORE.INTRA.norm>
-0.252451

>  <SCORE.RESTR>
0

>  <SCORE.RESTR.CAVITY>
0

>  <SCORE.RESTR.norm>
0

>  <SCORE.SYSTEM>
0

>  <SCORE.SYSTEM.CONST>
0

>  <SCORE.SYSTEM.DIHEDRAL>
0

>  <SCORE.SYSTEM.SOLV>
0

>  <SCORE.SYSTEM.norm>
0

>  <SCORE.heavy>
31

>  <SCORE.norm>
-1.86895

>  <SYMMETRIC_BONDS>
33 34 3

>  <RMSD>
1.537

$$$$
1fmn_cryst
 OpenBabel11021811393D
libRbt.so/2013.1/901 2013/11/27
 31 33  0  0  0  0  0  0  0  0999 V2000
   -8.8041   -6.1555    3.6109 N   0  0  0  0  0  0  0  0  0  0  0  0
   -9.5800   -6.2100    4.7451 C   0  0  0  0  0  0  0  0  0  0  0  0
   -9.1921   -6.7620    5.7753 O   0  0  0  0  0  0  0  0  0  0  0  0
  -10.8541   -5.5957    4.6511 N   0  0  0  0  0  0  0  0  0  0  0  0
  -11.3957   -4.9444    3.5212 C   0  0  0  0  0  0  0  0  0  0  0  0
  -12.5273   -4.4467    3.5773 O   0  0  0  0  0  0  0  0  0  0  0  0
  -10.5091   -4.9300    2.3555 C   0  0  0  0  0  0  0  0  0  0  0  0
  -10.9621   -4.3148    1.2150 N   0  0  0  0  0  0  0  0  0  0  0  0
  -10.2150   -4.4591    0.0821 C   0  0  0  0  0  0  0  0  0  0  0  0
  -10.7523   -4.0029   -1.1086 C   0  0  0  0  0  0  0  0  0  0  0  0
  -10.0679   -4.1125   -2.2709 C   0  0  0  0  0  0  0  0  0  0  0  0
  -10.6925   -3.6006   -3.5295 C   0  0  0  0  0  0  0  0  0  0  0  0
   -8.8310   -4.6790   -2.2895 C   0  0  0  0  0  0  0  0  0  0  0  0
   -8.0854   -4.8023   -3.5782 C   0  0  0  0  0  0  0  0  0  0  0  0
   -8.2637   -5.1400   -1.1456 C   0  0  0  0  0  0  0  0  0  0  0  0
   -8.9265   -5.0507    0.0784 C   0  0  0  0  0  0  0  0  0  0  0  0
   -8.3943   -5.5058    1.3030 N   0  0  0  0  0  0  0  0  0  0  0  0
   -9.2101   -5.5534    2.4519 C   0  0  0  0  0  0  0  0  0  0  0  0
   -6.9047   -5.3868    1.5162 C   0  0  0  0  0  0  0  0  0  0  0  0
   -6.1338   -6.7176    1.7710 C   0  0  1  0  0  0  0  0  0  0  0  0
   -6.5110   -7.6933    0.8100 O   0  0  0  0  0  0  0  0  0  0  0  0
   -4.5994   -6.5305    1.8394 C   0  0  1  0  0  0  0  0  0  0  0  0
   -4.2580   -5.6356    2.8940 O   0  0  0  0  0  0  0  0  0  0  0  0
   -3.7404   -7.8150    1.9392 C   0  0  1  0  0  0  0  0  0  0  0  0
   -4.1171   -8.6907    0.8822 O   0  0  0  0  0  0  0  0  0  0  0  0
   -2.2241   -7.5354    1.8370 C   0  0  0  0  0  0  0  0  0  0  0  0
   -1.7074   -6.9079    3.0046 O   0  0  0  0  0  0  0  0  0  0  0  0
   -1.4583   -7.6919    4.3591 P   0  0  0  0  0  0  0  0  0  0  0  0
   -2.7371   -8.1521    4.9464 O   0  0  0  0  0  0  0  0  0  0  0  0
   -0.3594   -8.6688    4.2015 O   0  5  0  0  0  0  0  0  0  0  0  0
   -0.9154   -6.5700    5.3499 O   0  5  0  0  0  0  0  0  0  0  0  0
  1 18  1  0  0  0  0
  1  2  1  0  0  0  0
  2  4  1  0  0  0  0
  2  3  2  0  0  0  0
  4  5  1  0  0  0  0
  5  7  1  0  0  0  0
  5  6  2  0  0  0  0
  7 18  2  0  0  0  0
  7  8  1  0  0  0  0
  8  9  1  0  0  0  0
  9 10  2  0  0  0  0
  9 16  1  0  0  0  0
 10 11  1  0  0  0  0
 11 12  1  0  0  0  0
 11 13  2  0  0  0  0
 13 14  1  0  0  0  0
 13 15  1  0  0  0  0
 15 16  2  0  0  0  0
 16 17  1  0  0  0  0
 17 19  1  0  0  0  0
 17 18  1  0  0  0  0
 20 19  1  6  0  0  0
 20 22  1  0  0  0  0
 20 21  1  0  0  0  0
 22 24  1  0  0  0  0
 22 23  1  1  0  0  0
 24 26  1  6  0  0  0
 24 25  1  0  0  0  0
 26 27  1  0  0  0  0
 27 28  1  0  0  0  0
 28 30  1  0  0  0  0
 28 29  2  0  0  0  0
 28 31  1  0  0  0  0
M  CHG  2  30  -1  31  -1
M  END
>  <CHROM.1>
-119.98907391,47.84387047,59.82506930,64.14698850,52.71201180,176.39192876
72.17991072,-172.59362280,75.23160158,-66.10909281,-6.80533557,-6.08336933
1.95171023,2.71990369,0.27664200,-1.40272904

>  <Name>
1fmn_cryst

>  <RI>
0

>  <Rbt.Current_Directory>
/home/itssahil/PROJECTS/Mol_Feturizer/New_Systems/rnas/1fmn

>  <Rbt.Executable>
rbdock ($Id: //depot/dev/client3/rdock/2013.1/src/exe/rbdock.cxx#4 $)

>  <Rbt.Library>
libRbt.so (2013.1, Build901 2013/11/27)

>  <Rbt.Parameter_File>
/export/apps/rDock/src/rDock_2013.1_src/data/scripts/dock_solv.prm

>  <Rbt.Receptor>
prm/pocket_docking_5.prm

>  <SCORE>
-56.4734

>  <SCORE.INTER>
-49.3829

>  <SCORE.INTER.CONST>
1

>  <SCORE.INTER.POLAR>
-2.72395

>  <SCORE.INTER.ROT>
7

>  <SCORE.INTER.SOLV>
15.1639

>  <SCORE.INTER.VDW>
-37.1634

>  <SCORE.INTER.norm>
-1.593

>  <SCORE.INTRA>
-7.09049

>  <SCORE.INTRA.DIHEDRAL>
-10.2494

>  <SCORE.INTRA.DIHEDRAL.0>
15.5708

>  <SCORE.INTRA.POLAR>
-0.639207

>  <SCORE.INTRA.POLAR.0>
-0.0677885

>  <SCORE.INTRA.REPUL>
0

>  <SCORE.INTRA.REPUL.0>
0

>  <SCORE.INTRA.SOLV>
-0.940346

>  <SCORE.INTRA.SOLV.lig_0>
-87.6316

>  <SCORE.INTRA.VDW>
0.677712

>  <SCORE.INTRA.VDW.0>
-2.87309

>  <SCORE.INTRA.norm>
-0.228725

>  <SCORE.RESTR>
0

>  <SCORE.RESTR.CAVITY>
0

>  <SCORE.RESTR.norm>
0

>  <SCORE.SYSTEM>
0

>  <SCORE.SYSTEM.CONST>
0

>  <SCORE.SYSTEM.DIHEDRAL>
0

>  <SCORE.SYSTEM.SOLV>
0

>  <SCORE.SYSTEM.norm>
0

>  <SCORE.heavy>
31

>  <SCORE.norm>
-1.82172

>  <SYMMETRIC_BONDS>
33 34 3

>  <RMSD>
1.556

$$$$
1fmn_cryst
 OpenBabel11021811393D
libRbt.so/2013.1/901 2013/11/27
 31 33  0  0  0  0  0  0  0  0999 V2000
   -8.8284   -6.2684    3.5777 N   0  0  0  0  0  0  0  0  0  0  0  0
   -9.5970   -6.2695    4.7182 C   0  0  0  0  0  0  0  0  0  0  0  0
   -9.2451   -6.8567    5.7419 O   0  0  0  0  0  0  0  0  0  0  0  0
  -10.8200   -5.5572    4.6386 N   0  0  0  0  0  0  0  0  0  0  0  0
  -11.3183   -4.8584    3.5172 C   0  0  0  0  0  0  0  0  0  0  0  0
  -12.4071   -4.2744    3.5858 O   0  0  0  0  0  0  0  0  0  0  0  0
  -10.4427   -4.9056    2.3440 C   0  0  0  0  0  0  0  0  0  0  0  0
  -10.8554   -4.2498    1.2110 N   0  0  0  0  0  0  0  0  0  0  0  0
  -10.1311   -4.4446    0.0709 C   0  0  0  0  0  0  0  0  0  0  0  0
  -10.6407   -3.9402   -1.1125 C   0  0  0  0  0  0  0  0  0  0  0  0
   -9.9763   -4.0954   -2.2811 C   0  0  0  0  0  0  0  0  0  0  0  0
  -10.5692   -3.5283   -3.5315 C   0  0  0  0  0  0  0  0  0  0  0  0
   -8.7876   -4.7565   -2.3136 C   0  0  0  0  0  0  0  0  0  0  0  0
   -8.0643   -4.9293   -3.6094 C   0  0  0  0  0  0  0  0  0  0  0  0
   -8.2487   -5.2677   -1.1773 C   0  0  0  0  0  0  0  0  0  0  0  0
   -8.8927   -5.1348    0.0528 C   0  0  0  0  0  0  0  0  0  0  0  0
   -8.3877   -5.6378    1.2702 N   0  0  0  0  0  0  0  0  0  0  0  0
   -9.1955   -5.6291    2.4258 C   0  0  0  0  0  0  0  0  0  0  0  0
   -6.8918   -5.6368    1.4714 C   0  0  0  0  0  0  0  0  0  0  0  0
   -6.0717   -6.6085    0.5696 C   0  0  1  0  0  0  0  0  0  0  0  0
   -5.1784   -5.8741   -0.2554 O   0  0  0  0  0  0  0  0  0  0  0  0
   -5.3474   -7.7179    1.3688 C   0  0  1  0  0  0  0  0  0  0  0  0
   -6.2283   -8.8130    1.6022 O   0  0  0  0  0  0  0  0  0  0  0  0
   -4.0056   -8.2340    0.7934 C   0  0  1  0  0  0  0  0  0  0  0  0
   -3.0360   -7.1993    0.9172 O   0  0  0  0  0  0  0  0  0  0  0  0
   -3.4836   -9.4942    1.5193 C   0  0  0  0  0  0  0  0  0  0  0  0
   -3.7089   -9.4452    2.9232 O   0  0  0  0  0  0  0  0  0  0  0  0
   -2.7629   -8.6498    3.9151 P   0  0  0  0  0  0  0  0  0  0  0  0
   -1.5026   -9.3900    4.1511 O   0  0  0  0  0  0  0  0  0  0  0  0
   -2.6852   -7.2240    3.5305 O   0  5  0  0  0  0  0  0  0  0  0  0
   -3.5467   -8.6933    5.3003 O   0  5  0  0  0  0  0  0  0  0  0  0
  1 18  1  0  0  0  0
  1  2  1  0  0  0  0
  2  4  1  0  0  0  0
  2  3  2  0  0  0  0
  4  5  1  0  0  0  0
  5  7  1  0  0  0  0
  5  6  2  0  0  0  0
  7 18  2  0  0  0  0
  7  8  1  0  0  0  0
  8  9  1  0  0  0  0
  9 10  2  0  0  0  0
  9 16  1  0  0  0  0
 10 11  1  0  0  0  0
 11 12  1  0  0  0  0
 11 13  2  0  0  0  0
 13 14  1  0  0  0  0
 13 15  1  0  0  0  0
 15 16  2  0  0  0  0
 16 17  1  0  0  0  0
 17 19  1  0  0  0  0
 17 18  1  0  0  0  0
 20 19  1  1  0  0  0
 20 22  1  0  0  0  0
 20 21  1  0  0  0  0
 22 24  1  0  0  0  0
 22 23  1  6  0  0  0
 24 26  1  1  0  0  0
 24 25  1  0  0  0  0
 26 27  1  0  0  0  0
 27 28  1  0  0  0  0
 28 30  1  0  0  0  0
 28 29  2  0  0  0  0
 28 31  1  0  0  0  0
M  CHG  2  30  -1  31  -1
M  END
>  <CHROM.1>
-67.95069465,117.87296404,84.84427679,-63.69892475,69.21111523,64.63001392
-38.68008769,54.23307461,-81.11853595,-76.18544578,-7.12358775,-6.41737287
1.67859122,2.67784288,0.42070641,-1.31972376

>  <Name>
1fmn_cryst

>  <RI>
0

>  <Rbt.Current_Directory>
/home/itssahil/PROJECTS/Mol_Feturizer/New_Systems/rnas/1fmn

>  <Rbt.Executable>
rbdock ($Id: //depot/dev/client3/rdock/2013.1/src/exe/rbdock.cxx#4 $)

>  <Rbt.Library>
libRbt.so (2013.1, Build901 2013/11/27)

>  <Rbt.Parameter_File>
/export/apps/rDock/src/rDock_2013.1_src/data/scripts/dock_solv.prm

>  <Rbt.Receptor>
prm/pocket_docking_3.prm

>  <SCORE>
-59.6102

>  <SCORE.INTER>
-55.3975

>  <SCORE.INTER.CONST>
1

>  <SCORE.INTER.POLAR>
-3.34203

>  <SCORE.INTER.ROT>
7

>  <SCORE.INTER.SOLV>
17.2392

>  <SCORE.INTER.VDW>
-39.8046

>  <SCORE.INTER.norm>
-1.78702

>  <SCORE.INTRA>
-4.21269

>  <SCORE.INTRA.DIHEDRAL>
-2.52161

>  <SCORE.INTRA.DIHEDRAL.0>
15.5708

>  <SCORE.INTRA.POLAR>
-1.08926

>  <SCORE.INTRA.POLAR.0>
-0.0677885

>  <SCORE.INTRA.REPUL>
0

>  <SCORE.INTRA.REPUL.0>
0

>  <SCORE.INTRA.SOLV>
0.744638

>  <SCORE.INTRA.SOLV.lig_0>
-87.6316

>  <SCORE.INTRA.VDW>
0.379285

>  <SCORE.INTRA.VDW.0>
-2.87309

>  <SCORE.INTRA.norm>
-0.135893

>  <SCORE.RESTR>
0

>  <SCORE.RESTR.CAVITY>
0

>  <SCORE.RESTR.norm>
0

>  <SCORE.SYSTEM>
0

>  <SCORE.SYSTEM.CONST>
0

>  <SCORE.SYSTEM.DIHEDRAL>
0

>  <SCORE.SYSTEM.SOLV>
0

>  <SCORE.SYSTEM.norm>
0

>  <SCORE.heavy>
31

>  <SCORE.norm>
-1.92291

>  <SYMMETRIC_BONDS>
33 34 3

>  <RMSD>
1.580

$$$$
1fmn_cryst
 OpenBabel11021811393D
libRbt.so/2013.1/901 2013/11/27
 31 33  0  0  0  0  0  0  0  0999 V2000
   -8.7428   -6.1679    3.7115 N   0  0  0  0  0  0  0  0  0  0  0  0
   -9.6039   -6.1962    4.7835 C   0  0  0  0  0  0  0  0  0  0  0  0
   -9.2906   -6.7079    5.8590 O   0  0  0  0  0  0  0  0  0  0  0  0
  -10.8742   -5.6044    4.5701 N   0  0  0  0  0  0  0  0  0  0  0  0
  -11.3341   -4.9991    3.3801 C   0  0  0  0  0  0  0  0  0  0  0  0
  -12.4727   -4.5167    3.3313 O   0  0  0  0  0  0  0  0  0  0  0  0
  -10.3597   -5.0103    2.2866 C   0  0  0  0  0  0  0  0  0  0  0  0
  -10.7300   -4.4402    1.0941 N   0  0  0  0  0  0  0  0  0  0  0  0
   -9.8954   -4.6110    0.0280 C   0  0  0  0  0  0  0  0  0  0  0  0
  -10.3439   -4.2026   -1.2156 C   0  0  0  0  0  0  0  0  0  0  0  0
   -9.5697   -4.3406   -2.3170 C   0  0  0  0  0  0  0  0  0  0  0  0
  -10.1007   -3.8802   -3.6371 C   0  0  0  0  0  0  0  0  0  0  0  0
   -8.3284   -4.8890   -2.2204 C   0  0  0  0  0  0  0  0  0  0  0  0
   -7.4832   -5.0439   -3.4426 C   0  0  0  0  0  0  0  0  0  0  0  0
   -7.8461   -5.3032   -1.0210 C   0  0  0  0  0  0  0  0  0  0  0  0
   -8.6033   -5.1831    0.1443 C   0  0  0  0  0  0  0  0  0  0  0  0
   -8.1625   -5.5892    1.4213 N   0  0  0  0  0  0  0  0  0  0  0  0
   -9.0647   -5.6108    2.5046 C   0  0  0  0  0  0  0  0  0  0  0  0
   -6.6956   -5.4412    1.7450 C   0  0  0  0  0  0  0  0  0  0  0  0
   -5.8984   -6.7629    1.9632 C   0  0  1  0  0  0  0  0  0  0  0  0
   -5.8826   -7.5282    0.7665 O   0  0  0  0  0  0  0  0  0  0  0  0
   -4.4755   -6.5315    2.5252 C   0  0  1  0  0  0  0  0  0  0  0  0
   -3.9615   -5.2838    2.0686 O   0  0  0  0  0  0  0  0  0  0  0  0
   -4.3012   -6.6436    4.0598 C   0  0  1  0  0  0  0  0  0  0  0  0
   -5.3402   -5.8987    4.6856 O   0  0  0  0  0  0  0  0  0  0  0  0
   -4.3590   -8.1017    4.5680 C   0  0  0  0  0  0  0  0  0  0  0  0
   -4.0190   -8.2111    5.9451 O   0  0  0  0  0  0  0  0  0  0  0  0
   -3.9397   -9.6023    6.6997 P   0  0  0  0  0  0  0  0  0  0  0  0
   -3.3009   -9.4484    8.0265 O   0  0  0  0  0  0  0  0  0  0  0  0
   -5.2323  -10.3158    6.6148 O   0  5  0  0  0  0  0  0  0  0  0  0
   -2.9092  -10.4464    5.8276 O   0  5  0  0  0  0  0  0  0  0  0  0
  1 18  1  0  0  0  0
  1  2  1  0  0  0  0
  2  4  1  0  0  0  0
  2  3  2  0  0  0  0
  4  5  1  0  0  0  0
  5  7  1  0  0  0  0
  5  6  2  0  0  0  0
  7 18  2  0  0  0  0
  7  8  1  0  0  0  0
  8  9  1  0  0  0  0
  9 10  2  0  0  0  0
  9 16  1  0  0  0  0
 10 11  1  0  0  0  0
 11 12  1  0  0  0  0
 11 13  2  0  0  0  0
 13 14  1  0  0  0  0
 13 15  1  0  0  0  0
 15 16  2  0  0  0  0
 16 17  1  0  0  0  0
 17 19  1  0  0  0  0
 17 18  1  0  0  0  0
 20 19  1  6  0  0  0
 20 22  1  0  0  0  0
 20 21  1  0  0  0  0
 22 24  1  0  0  0  0
 22 23  1  1  0  0  0
 24 26  1  1  0  0  0
 24 25  1  0  0  0  0
 26 27  1  0  0  0  0
 27 28  1  0  0  0  0
 28 30  1  0  0  0  0
 28 29  2  0  0  0  0
 28 31  1  0  0  0  0
M  CHG  2  30  -1  31  -1
M  END
>  <CHROM.1>
-114.03734775,63.48457750,-30.92399906,-176.63165893,-47.07530812,-179.94704426
172.02194540,-179.69053408,-177.31130097,168.29440211,-7.26256419,-6.42121081
2.70742125,2.22298418,0.34687726,-1.25554702

>  <Name>
1fmn_cryst

>  <RI>
0

>  <Rbt.Current_Directory>
/home/itssahil/PROJECTS/Mol_Feturizer/New_Systems/rnas/1fmn

>  <Rbt.Executable>
rbdock ($Id: //depot/dev/client3/rdock/2013.1/src/exe/rbdock.cxx#4 $)

>  <Rbt.Library>
libRbt.so (2013.1, Build901 2013/11/27)

>  <Rbt.Parameter_File>
/export/apps/rDock/src/rDock_2013.1_src/data/scripts/dock_solv.prm

>  <Rbt.Receptor>
prm/pocket_docking_3.prm

>  <SCORE>
-54.5588

>  <SCORE.INTER>
-48.3657

>  <SCORE.INTER.CONST>
1

>  <SCORE.INTER.POLAR>
-2.75076

>  <SCORE.INTER.ROT>
7

>  <SCORE.INTER.SOLV>
18.5613

>  <SCORE.INTER.VDW>
-37.5284

>  <SCORE.INTER.norm>
-1.56019

>  <SCORE.INTRA>
-6.19431

>  <SCORE.INTRA.DIHEDRAL>
-9.5602

>  <SCORE.INTRA.DIHEDRAL.0>
15.5708

>  <SCORE.INTRA.POLAR>
0.0677885

>  <SCORE.INTRA.POLAR.0>
-0.0677885

>  <SCORE.INTRA.REPUL>
0

>  <SCORE.INTRA.REPUL.0>
0

>  <SCORE.INTRA.SOLV>
-4.49196

>  <SCORE.INTRA.SOLV.lig_0>
-87.6316

>  <SCORE.INTRA.VDW>
0.601289

>  <SCORE.INTRA.VDW.0>
-2.87309

>  <SCORE.INTRA.norm>
-0.199816

>  <SCORE.RESTR>
0.00128088

>  <SCORE.RESTR.CAVITY>
0.00128088

>  <SCORE.RESTR.norm>
4.13187e-05

>  <SCORE.SYSTEM>
0

>  <SCORE.SYSTEM.CONST>
0

>  <SCORE.SYSTEM.DIHEDRAL>
0

>  <SCORE.SYSTEM.SOLV>
0

>  <SCORE.SYSTEM.norm>
0

>  <SCORE.heavy>
31

>  <SCORE.norm>
-1.75996

>  <SYMMETRIC_BONDS>
33 34 3

>  <RMSD>
1.580

$$$$
1fmn_cryst
 OpenBabel11021811393D
libRbt.so/2013.1/901 2013/11/27
 31 33  0  0  0  0  0  0  0  0999 V2000
   -8.8697   -6.1390    3.3936 N   0  0  0  0  0  0  0  0  0  0  0  0
   -9.5769   -6.2352    4.5693 C   0  0  0  0  0  0  0  0  0  0  0  0
   -9.1293   -6.8238    5.5540 O   0  0  0  0  0  0  0  0  0  0  0  0
  -10.8536   -5.6190    4.5733 N   0  0  0  0  0  0  0  0  0  0  0  0
  -11.4605   -4.9276    3.5020 C   0  0  0  0  0  0  0  0  0  0  0  0
  -12.5861   -4.4333    3.6432 O   0  0  0  0  0  0  0  0  0  0  0  0
  -10.6447   -4.8702    2.2869 C   0  0  0  0  0  0  0  0  0  0  0  0
  -11.1638   -4.2146    1.1984 N   0  0  0  0  0  0  0  0  0  0  0  0
  -10.4855   -4.3171    0.0186 C   0  0  0  0  0  0  0  0  0  0  0  0
  -11.0920   -3.8186   -1.1208 C   0  0  0  0  0  0  0  0  0  0  0  0
  -10.4779   -3.8854   -2.3249 C   0  0  0  0  0  0  0  0  0  0  0  0
  -11.1755   -3.3288   -3.5249 C   0  0  0  0  0  0  0  0  0  0  0  0
   -9.2451   -4.4499   -2.4374 C   0  0  0  0  0  0  0  0  0  0  0  0
   -8.5775   -4.5257   -3.7718 C   0  0  0  0  0  0  0  0  0  0  0  0
   -8.6114   -4.9515   -1.3467 C   0  0  0  0  0  0  0  0  0  0  0  0
   -9.2002   -4.9071   -0.0831 C   0  0  0  0  0  0  0  0  0  0  0  0
   -8.5968   -5.4057    1.0905 N   0  0  0  0  0  0  0  0  0  0  0  0
   -9.3431   -5.4957    2.2834 C   0  0  0  0  0  0  0  0  0  0  0  0
   -7.0971   -5.2934    1.2190 C   0  0  0  0  0  0  0  0  0  0  0  0
   -6.2527   -6.2725    0.3481 C   0  0  1  0  0  0  0  0  0  0  0  0
   -6.1004   -5.7522   -0.9650 O   0  0  0  0  0  0  0  0  0  0  0  0
   -4.8939   -6.6423    0.9891 C   0  0  1  0  0  0  0  0  0  0  0  0
   -4.2043   -5.4647    1.3978 O   0  0  0  0  0  0  0  0  0  0  0  0
   -4.9224   -7.6664    2.1503 C   0  0  1  0  0  0  0  0  0  0  0  0
   -5.4734   -8.8845    1.6618 O   0  0  0  0  0  0  0  0  0  0  0  0
   -3.5212   -7.9535    2.7350 C   0  0  0  0  0  0  0  0  0  0  0  0
   -3.5539   -8.9285    3.7706 O   0  0  0  0  0  0  0  0  0  0  0  0
   -2.2624   -9.3608    4.5809 P   0  0  0  0  0  0  0  0  0  0  0  0
   -1.2928  -10.0516    3.7007 O   0  0  0  0  0  0  0  0  0  0  0  0
   -1.7817   -8.2480    5.4280 O   0  5  0  0  0  0  0  0  0  0  0  0
   -2.8001  -10.4780    5.5797 O   0  5  0  0  0  0  0  0  0  0  0  0
  1 18  1  0  0  0  0
  1  2  1  0  0  0  0
  2  4  1  0  0  0  0
  2  3  2  0  0  0  0
  4  5  1  0  0  0  0
  5  7  1  0  0  0  0
  5  6  2  0  0  0  0
  7 18  2  0  0  0  0
  7  8  1  0  0  0  0
  8  9  1  0  0  0  0
  9 10  2  0  0  0  0
  9 16  1  0  0  0  0
 10 11  1  0  0  0  0
 11 12  1  0  0  0  0
 11 13  2  0  0  0  0
 13 14  1  0  0  0  0
 13 15  1  0  0  0  0
 15 16  2  0  0  0  0
 16 17  1  0  0  0  0
 17 19  1  0  0  0  0
 17 18  1  0  0  0  0
 20 19  1  1  0  0  0
 20 22  1  0  0  0  0
 20 21  1  0  0  0  0
 22 24  1  0  0  0  0
 22 23  1  1  0  0  0
 24 26  1  6  0  0  0
 24 25  1  0  0  0  0
 26 27  1  0  0  0  0
 27 28  1  0  0  0  0
 28 30  1  0  0  0  0
 28 29  2  0  0  0  0
 28 31  1  0  0  0  0
M  CHG  2  30  -1  31  -1
M  END
>  <CHROM.1>
-73.89599545,83.32378322,-50.02248706,-163.75648680,60.20148944,-56.42802192
-178.03608564,59.85167141,-177.32055802,-65.89115389,-7.22728229,-6.32549600
1.80766443,2.55267537,0.39388327,-1.27529863

>  <Name>
1fmn_cryst

>  <RI>
0

>  <Rbt.Current_Directory>
/home/itssahil/PROJECTS/Mol_Feturizer/New_Systems/rnas/1fmn

>  <Rbt.Executable>
rbdock ($Id: //depot/dev/client3/rdock/2013.1/src/exe/rbdock.cxx#4 $)

>  <Rbt.Library>
libRbt.so (2013.1, Build901 2013/11/27)

>  <Rbt.Parameter_File>
/export/apps/rDock/src/rDock_2013.1_src/data/scripts/dock_solv.prm

>  <Rbt.Receptor>
prm/pocket_docking_4.prm

>  <SCORE>
-62.6139

>  <SCORE.INTER>
-56.4716

>  <SCORE.INTER.CONST>
1

>  <SCORE.INTER.POLAR>
-3.76763

>  <SCORE.INTER.ROT>
7

>  <SCORE.INTER.SOLV>
17.6166

>  <SCORE.INTER.VDW>
-39.2278

>  <SCORE.INTER.norm>
-1.82166

>  <SCORE.INTRA>
-6.14235

>  <SCORE.INTRA.DIHEDRAL>
-10.1254

>  <SCORE.INTRA.DIHEDRAL.0>
15.5708

>  <SCORE.INTRA.POLAR>
0.0677885

>  <SCORE.INTRA.POLAR.0>
-0.0677885

>  <SCORE.INTRA.REPUL>
0

>  <SCORE.INTRA.REPUL.0>
0

>  <SCORE.INTRA.SOLV>
-5.13956

>  <SCORE.INTRA.SOLV.lig_0>
-87.6316

>  <SCORE.INTRA.VDW>
1.25965

>  <SCORE.INTRA.VDW.0>
-2.87309

>  <SCORE.INTRA.norm>
-0.19814

>  <SCORE.RESTR>
0

>  <SCORE.RESTR.CAVITY>
0

>  <SCORE.RESTR.norm>
0

>  <SCORE.SYSTEM>
0

>  <SCORE.SYSTEM.CONST>
0

>  <SCORE.SYSTEM.DIHEDRAL>
0

>  <SCORE.SYSTEM.SOLV>
0

>  <SCORE.SYSTEM.norm>
0

>  <SCORE.heavy>
31

>  <SCORE.norm>
-2.0198

>  <SYMMETRIC_BONDS>
33 34 3

>  <RMSD>
1.585

$$$$
1fmn_cryst
 OpenBabel11021811393D
libRbt.so/2013.1/901 2013/11/27
 31 33  0  0  0  0  0  0  0  0999 V2000
   -9.2773   -6.2949    3.2540 N   0  0  0  0  0  0  0  0  0  0  0  0
   -9.9699   -6.3088    4.4421 C   0  0  0  0  0  0  0  0  0  0  0  0
   -9.5897   -6.9662    5.4116 O   0  0  0  0  0  0  0  0  0  0  0  0
  -11.1495   -5.5235    4.4776 N   0  0  0  0  0  0  0  0  0  0  0  0
  -11.6748   -4.7414    3.4257 C   0  0  0  0  0  0  0  0  0  0  0  0
  -12.7192   -4.0993    3.5941 O   0  0  0  0  0  0  0  0  0  0  0  0
  -10.8807   -4.7804    2.1957 C   0  0  0  0  0  0  0  0  0  0  0  0
  -11.3242   -4.0454    1.1245 N   0  0  0  0  0  0  0  0  0  0  0  0
  -10.6877   -4.2244   -0.0694 C   0  0  0  0  0  0  0  0  0  0  0  0
  -11.2402   -3.6324   -1.1913 C   0  0  0  0  0  0  0  0  0  0  0  0
  -10.6628   -3.7669   -2.4077 C   0  0  0  0  0  0  0  0  0  0  0  0
  -11.2987   -3.1041   -3.5879 C   0  0  0  0  0  0  0  0  0  0  0  0
   -9.5214   -4.4934   -2.5503 C   0  0  0  0  0  0  0  0  0  0  0  0
   -8.8944   -4.6425   -3.8982 C   0  0  0  0  0  0  0  0  0  0  0  0
   -8.9431   -5.0916   -1.4776 C   0  0  0  0  0  0  0  0  0  0  0  0
   -9.4976   -4.9835   -0.2023 C   0  0  0  0  0  0  0  0  0  0  0  0
   -8.9475   -5.5757    0.9539 N   0  0  0  0  0  0  0  0  0  0  0  0
   -9.6776   -5.5782    2.1601 C   0  0  0  0  0  0  0  0  0  0  0  0
   -7.4445   -5.6716    1.0543 C   0  0  0  0  0  0  0  0  0  0  0  0
   -6.8836   -6.7632    2.0155 C   0  0  1  0  0  0  0  0  0  0  0  0
   -6.1141   -7.7088    1.2863 O   0  0  0  0  0  0  0  0  0  0  0  0
   -6.1012   -6.1767    3.2147 C   0  0  1  0  0  0  0  0  0  0  0  0
   -6.6788   -4.9403    3.6235 O   0  0  0  0  0  0  0  0  0  0  0  0
   -5.9063   -7.0992    4.4431 C   0  0  1  0  0  0  0  0  0  0  0  0
   -7.0848   -7.8797    4.6103 O   0  0  0  0  0  0  0  0  0  0  0  0
   -4.6968   -8.0496    4.2971 C   0  0  0  0  0  0  0  0  0  0  0  0
   -4.0488   -8.2992    5.5389 O   0  0  0  0  0  0  0  0  0  0  0  0
   -2.8356   -9.3083    5.6841 P   0  0  0  0  0  0  0  0  0  0  0  0
   -3.3201  -10.6990    5.8365 O   0  0  0  0  0  0  0  0  0  0  0  0
   -1.7991   -9.0271    4.6675 O   0  5  0  0  0  0  0  0  0  0  0  0
   -2.1932   -8.9260    7.0898 O   0  5  0  0  0  0  0  0  0  0  0  0
  1 18  1  0  0  0  0
  1  2  1  0  0  0  0
  2  4  1  0  0  0  0
  2  3  2  0  0  0  0
  4  5  1  0  0  0  0
  5  7  1  0  0  0  0
  5  6  2  0  0  0  0
  7 18  2  0  0  0  0
  7  8  1  0  0  0  0
  8  9  1  0  0  0  0
  9 10  2  0  0  0  0
  9 16  1  0  0  0  0
 10 11  1  0  0  0  0
 11 12  1  0  0  0  0
 11 13  2  0  0  0  0
 13 14  1  0  0  0  0
 13 15  1  0  0  0  0
 15 16  2  0  0  0  0
 16 17  1  0  0  0  0
 17 19  1  0  0  0  0
 17 18  1  0  0  0  0
 20 19  1  6  0  0  0
 20 22  1  0  0  0  0
 20 21  1  0  0  0  0
 22 24  1  0  0  0  0
 22 23  1  1  0  0  0
 24 26  1  6  0  0  0
 24 25  1  0  0  0  0
 26 27  1  0  0  0  0
 27 28  1  0  0  0  0
 28 30  1  0  0  0  0
 28 29  2  0  0  0  0
 28 31  1  0  0  0  0
M  CHG  2  30  -1  31  -1
M  END
>  <CHROM.1>
-157.54697926,117.97329969,34.16350714,58.08248524,-36.70754267,46.46811716
145.97111921,-93.62745077,176.17847341,-83.62068965,-7.76239698,-6.29212386
2.49230429,2.40281889,0.40467401,-1.33062657

>  <Name>
1fmn_cryst

>  <RI>
0

>  <Rbt.Current_Directory>
/home/itssahil/PROJECTS/Mol_Feturizer/New_Systems/rnas/1fmn

>  <Rbt.Executable>
rbdock ($Id: //depot/dev/client3/rdock/2013.1/src/exe/rbdock.cxx#4 $)

>  <Rbt.Library>
libRbt.so (2013.1, Build901 2013/11/27)

>  <Rbt.Parameter_File>
/export/apps/rDock/src/rDock_2013.1_src/data/scripts/dock_solv.prm

>  <Rbt.Receptor>
prm/pocket_docking_2.prm

>  <SCORE>
-42.4294

>  <SCORE.INTER>
-51.8257

>  <SCORE.INTER.CONST>
1

>  <SCORE.INTER.POLAR>
-3.45845

>  <SCORE.INTER.ROT>
7

>  <SCORE.INTER.SOLV>
17.9504

>  <SCORE.INTER.VDW>
-37.2724

>  <SCORE.INTER.norm>
-1.6718

>  <SCORE.INTRA>
8.55032

>  <SCORE.INTRA.DIHEDRAL>
3.32711

>  <SCORE.INTRA.DIHEDRAL.0>
15.5708

>  <SCORE.INTRA.POLAR>
-0.506563

>  <SCORE.INTRA.POLAR.0>
-0.0677885

>  <SCORE.INTRA.REPUL>
0

>  <SCORE.INTRA.REPUL.0>
0

>  <SCORE.INTRA.SOLV>
-2.12191

>  <SCORE.INTRA.SOLV.lig_0>
-87.6316

>  <SCORE.INTRA.VDW>
9.67003

>  <SCORE.INTRA.VDW.0>
-2.87309

>  <SCORE.INTRA.norm>
0.275817

>  <SCORE.RESTR>
0.846035

>  <SCORE.RESTR.CAVITY>
0.846035

>  <SCORE.RESTR.norm>
0.0272915

>  <SCORE.SYSTEM>
0

>  <SCORE.SYSTEM.CONST>
0

>  <SCORE.SYSTEM.DIHEDRAL>
0

>  <SCORE.SYSTEM.SOLV>
0

>  <SCORE.SYSTEM.norm>
0

>  <SCORE.heavy>
31

>  <SCORE.norm>
-1.36869

>  <SYMMETRIC_BONDS>
33 34 3

>  <RMSD>
1.594

$$$$
1fmn_cryst
 OpenBabel11021811393D
libRbt.so/2013.1/901 2013/11/27
 31 33  0  0  0  0  0  0  0  0999 V2000
   -8.9924   -6.1450    3.4867 N   0  0  0  0  0  0  0  0  0  0  0  0
   -9.6868   -6.2270    4.6710 C   0  0  0  0  0  0  0  0  0  0  0  0
   -9.2455   -6.8371    5.6455 O   0  0  0  0  0  0  0  0  0  0  0  0
  -10.9426   -5.5700    4.6965 N   0  0  0  0  0  0  0  0  0  0  0  0
  -11.5409   -4.8514    3.6383 C   0  0  0  0  0  0  0  0  0  0  0  0
  -12.6480   -4.3220    3.7980 O   0  0  0  0  0  0  0  0  0  0  0  0
  -10.7397   -4.8114    2.4128 C   0  0  0  0  0  0  0  0  0  0  0  0
  -11.2516   -4.1312    1.3360 N   0  0  0  0  0  0  0  0  0  0  0  0
  -10.5927   -4.2469    0.1465 C   0  0  0  0  0  0  0  0  0  0  0  0
  -11.1976   -3.7205   -0.9811 C   0  0  0  0  0  0  0  0  0  0  0  0
  -10.6020   -3.7982   -2.1938 C   0  0  0  0  0  0  0  0  0  0  0  0
  -11.2969   -3.2104   -3.3804 C   0  0  0  0  0  0  0  0  0  0  0  0
   -9.3897   -4.4013   -2.3268 C   0  0  0  0  0  0  0  0  0  0  0  0
   -8.7425   -4.4888   -3.6705 C   0  0  0  0  0  0  0  0  0  0  0  0
   -8.7582   -4.9312   -1.2483 C   0  0  0  0  0  0  0  0  0  0  0  0
   -9.3286   -4.8772    0.0235 C   0  0  0  0  0  0  0  0  0  0  0  0
   -8.7263   -5.4038    1.1853 N   0  0  0  0  0  0  0  0  0  0  0  0
   -9.4592   -5.4785    2.3875 C   0  0  0  0  0  0  0  0  0  0  0  0
   -7.2221   -5.3409    1.2945 C   0  0  0  0  0  0  0  0  0  0  0  0
   -6.4213   -6.3360    0.4009 C   0  0  1  0  0  0  0  0  0  0  0  0
   -6.3437   -5.8451   -0.9299 O   0  0  0  0  0  0  0  0  0  0  0  0
   -5.0275   -6.6857    0.9748 C   0  0  1  0  0  0  0  0  0  0  0  0
   -4.2255   -5.5123    1.0721 O   0  0  0  0  0  0  0  0  0  0  0  0
   -4.9957   -7.4587    2.3161 C   0  0  1  0  0  0  0  0  0  0  0  0
   -5.7619   -8.6490    2.1671 O   0  0  0  0  0  0  0  0  0  0  0  0
   -3.5650   -7.8402    2.7579 C   0  0  0  0  0  0  0  0  0  0  0  0
   -3.3755   -7.7051    4.1615 O   0  0  0  0  0  0  0  0  0  0  0  0
   -4.0742   -8.6599    5.2158 P   0  0  0  0  0  0  0  0  0  0  0  0
   -4.4555   -7.9117    6.4352 O   0  0  0  0  0  0  0  0  0  0  0  0
   -5.0922   -9.5069    4.5576 O   0  5  0  0  0  0  0  0  0  0  0  0
   -2.9055   -9.6419    5.6681 O   0  5  0  0  0  0  0  0  0  0  0  0
  1 18  1  0  0  0  0
  1  2  1  0  0  0  0
  2  4  1  0  0  0  0
  2  3  2  0  0  0  0
  4  5  1  0  0  0  0
  5  7  1  0  0  0  0
  5  6  2  0  0  0  0
  7 18  2  0  0  0  0
  7  8  1  0  0  0  0
  8  9  1  0  0  0  0
  9 10  2  0  0  0  0
  9 16  1  0  0  0  0
 10 11  1  0  0  0  0
 11 12  1  0  0  0  0
 11 13  2  0  0  0  0
 13 14  1  0  0  0  0
 13 15  1  0  0  0  0
 15 16  2  0  0  0  0
 16 17  1  0  0  0  0
 17 19  1  0  0  0  0
 17 18  1  0  0  0  0
 20 19  1  1  0  0  0
 20 22  1  0  0  0  0
 20 21  1  0  0  0  0
 22 24  1  0  0  0  0
 22 23  1  1  0  0  0
 24 26  1  6  0  0  0
 24 25  1  0  0  0  0
 26 27  1  0  0  0  0
 27 28  1  0  0  0  0
 28 30  1  0  0  0  0
 28 29  2  0  0  0  0
 28 31  1  0  0  0  0
M  CHG  2  30  -1  31  -1
M  END
>  <CHROM.1>
-73.64076705,79.60418798,-61.42846590,-171.36247963,55.62973227,65.94738422
140.95564351,-177.20076070,69.23574428,-143.67796772,-7.67384089,-6.14003999
2.01934756,2.39855385,0.38070579,-1.27778098

>  <Name>
1fmn_cryst

>  <RI>
0

>  <Rbt.Current_Directory>
/home/itssahil/PROJECTS/Mol_Feturizer/New_Systems/rnas/1fmn

>  <Rbt.Executable>
rbdock ($Id: //depot/dev/client3/rdock/2013.1/src/exe/rbdock.cxx#4 $)

>  <Rbt.Library>
libRbt.so (2013.1, Build901 2013/11/27)

>  <Rbt.Parameter_File>
/export/apps/rDock/src/rDock_2013.1_src/data/scripts/dock_solv.prm

>  <Rbt.Receptor>
prm/pocket_docking_2.prm

>  <SCORE>
-58.3611

>  <SCORE.INTER>
-52.6869

>  <SCORE.INTER.CONST>
1

>  <SCORE.INTER.POLAR>
-2.99118

>  <SCORE.INTER.ROT>
7

>  <SCORE.INTER.SOLV>
20.2361

>  <SCORE.INTER.VDW>
-40.166

>  <SCORE.INTER.norm>
-1.69958

>  <SCORE.INTRA>
-5.68899

>  <SCORE.INTRA.DIHEDRAL>
-5.38945

>  <SCORE.INTRA.DIHEDRAL.0>
15.5708

>  <SCORE.INTRA.POLAR>
-1.26554

>  <SCORE.INTRA.POLAR.0>
-0.0677885

>  <SCORE.INTRA.REPUL>
0

>  <SCORE.INTRA.REPUL.0>
0

>  <SCORE.INTRA.SOLV>
-0.670155

>  <SCORE.INTRA.SOLV.lig_0>
-87.6316

>  <SCORE.INTRA.VDW>
1.64367

>  <SCORE.INTRA.VDW.0>
-2.87309

>  <SCORE.INTRA.norm>
-0.183516

>  <SCORE.RESTR>
0.0147053

>  <SCORE.RESTR.CAVITY>
0.0147053

>  <SCORE.RESTR.norm>
0.000474364

>  <SCORE.SYSTEM>
0

>  <SCORE.SYSTEM.CONST>
0

>  <SCORE.SYSTEM.DIHEDRAL>
0

>  <SCORE.SYSTEM.SOLV>
0

>  <SCORE.SYSTEM.norm>
0

>  <SCORE.heavy>
31

>  <SCORE.norm>
-1.88262

>  <SYMMETRIC_BONDS>
33 34 3

>  <RMSD>
1.594

$$$$
1fmn_cryst
 OpenBabel11021811393D
libRbt.so/2013.1/901 2013/11/27
 31 33  0  0  0  0  0  0  0  0999 V2000
   -8.8019   -6.1584    3.6754 N   0  0  0  0  0  0  0  0  0  0  0  0
   -9.6343   -6.2047    4.7693 C   0  0  0  0  0  0  0  0  0  0  0  0
   -9.2861   -6.7178    5.8332 O   0  0  0  0  0  0  0  0  0  0  0  0
  -10.9179   -5.6297    4.5924 N   0  0  0  0  0  0  0  0  0  0  0  0
  -11.4170   -5.0244    3.4182 C   0  0  0  0  0  0  0  0  0  0  0  0
  -12.5631   -4.5578    3.4019 O   0  0  0  0  0  0  0  0  0  0  0  0
  -10.4713   -5.0158    2.2998 C   0  0  0  0  0  0  0  0  0  0  0  0
  -10.8804   -4.4444    1.1207 N   0  0  0  0  0  0  0  0  0  0  0  0
  -10.0715   -4.5976    0.0323 C   0  0  0  0  0  0  0  0  0  0  0  0
  -10.5579   -4.1887   -1.1969 C   0  0  0  0  0  0  0  0  0  0  0  0
   -9.8108   -4.3097   -2.3187 C   0  0  0  0  0  0  0  0  0  0  0  0
  -10.3822   -3.8496   -3.6219 C   0  0  0  0  0  0  0  0  0  0  0  0
   -8.5598   -4.8411   -2.2576 C   0  0  0  0  0  0  0  0  0  0  0  0
   -7.7446   -4.9774   -3.5022 C   0  0  0  0  0  0  0  0  0  0  0  0
   -8.0408   -5.2551   -1.0735 C   0  0  0  0  0  0  0  0  0  0  0  0
   -8.7690   -5.1521    0.1117 C   0  0  0  0  0  0  0  0  0  0  0  0
   -8.2895   -5.5590    1.3744 N   0  0  0  0  0  0  0  0  0  0  0  0
   -9.1628   -5.5992    2.4806 C   0  0  0  0  0  0  0  0  0  0  0  0
   -6.8169   -5.3921    1.6608 C   0  0  0  0  0  0  0  0  0  0  0  0
   -6.0629   -6.6586    2.1684 C   0  0  1  0  0  0  0  0  0  0  0  0
   -5.5769   -7.4130    1.0672 O   0  0  0  0  0  0  0  0  0  0  0  0
   -4.9472   -6.3356    3.1907 C   0  0  1  0  0  0  0  0  0  0  0  0
   -5.4982   -5.6905    4.3351 O   0  0  0  0  0  0  0  0  0  0  0  0
   -4.0406   -7.5104    3.6332 C   0  0  1  0  0  0  0  0  0  0  0  0
   -3.3585   -8.0080    2.4872 O   0  0  0  0  0  0  0  0  0  0  0  0
   -2.9954   -7.0985    4.6942 C   0  0  0  0  0  0  0  0  0  0  0  0
   -3.5902   -6.7715    5.9445 O   0  0  0  0  0  0  0  0  0  0  0  0
   -2.7451   -6.2851    7.1937 P   0  0  0  0  0  0  0  0  0  0  0  0
   -1.9396   -5.0902    6.8542 O   0  0  0  0  0  0  0  0  0  0  0  0
   -3.5856   -6.2501    8.4100 O   0  5  0  0  0  0  0  0  0  0  0  0
   -1.6917   -7.4580    7.4164 O   0  5  0  0  0  0  0  0  0  0  0  0
  1 18  1  0  0  0  0
  1  2  1  0  0  0  0
  2  4  1  0  0  0  0
  2  3  2  0  0  0  0
  4  5  1  0  0  0  0
  5  7  1  0  0  0  0
  5  6  2  0  0  0  0
  7 18  2  0  0  0  0
  7  8  1  0  0  0  0
  8  9  1  0  0  0  0
  9 10  2  0  0  0  0
  9 16  1  0  0  0  0
 10 11  1  0  0  0  0
 11 12  1  0  0  0  0
 11 13  2  0  0  0  0
 13 14  1  0  0  0  0
 13 15  1  0  0  0  0
 15 16  2  0  0  0  0
 16 17  1  0  0  0  0
 17 19  1  0  0  0  0
 17 18  1  0  0  0  0
 20 19  1  6  0  0  0
 20 22  1  0  0  0  0
 20 21  1  0  0  0  0
 22 24  1  0  0  0  0
 22 23  1  1  0  0  0
 24 26  1  1  0  0  0
 24 25  1  0  0  0  0
 26 27  1  0  0  0  0
 27 28  1  0  0  0  0
 28 30  1  0  0  0  0
 28 29  2  0  0  0  0
 28 31  1  0  0  0  0
M  CHG  2  30  -1  31  -1
M  END
>  <CHROM.1>
-127.52101931,88.30050110,60.08285156,51.58442974,61.61415060,62.67792265
68.13546607,-58.43642603,-178.57138745,56.26486155,-7.04239170,-5.81180749
2.83785000,2.35776266,0.19507149,-1.49266485

>  <Name>
1fmn_cryst

>  <RI>
0

>  <Rbt.Current_Directory>
/home/itssahil/PROJECTS/Mol_Feturizer/New_Systems/rnas/1fmn

>  <Rbt.Executable>
rbdock ($Id: //depot/dev/client3/rdock/2013.1/src/exe/rbdock.cxx#4 $)

>  <Rbt.Library>
libRbt.so (2013.1, Build901 2013/11/27)

>  <Rbt.Parameter_File>
/export/apps/rDock/src/rDock_2013.1_src/data/scripts/dock_solv.prm

>  <Rbt.Receptor>
prm/pocket_docking_4.prm

>  <SCORE>
-56.732

>  <SCORE.INTER>
-49.353

>  <SCORE.INTER.CONST>
1

>  <SCORE.INTER.POLAR>
-2.86951

>  <SCORE.INTER.ROT>
7

>  <SCORE.INTER.SOLV>
14.3425

>  <SCORE.INTER.VDW>
-36.3845

>  <SCORE.INTER.norm>
-1.59203

>  <SCORE.INTRA>
-7.37899

>  <SCORE.INTRA.DIHEDRAL>
-10.3369

>  <SCORE.INTRA.DIHEDRAL.0>
15.5708

>  <SCORE.INTRA.POLAR>
-0.34709

>  <SCORE.INTRA.POLAR.0>
-0.0677885

>  <SCORE.INTRA.REPUL>
0

>  <SCORE.INTRA.REPUL.0>
0

>  <SCORE.INTRA.SOLV>
-3.65659

>  <SCORE.INTRA.SOLV.lig_0>
-87.6316

>  <SCORE.INTRA.VDW>
0.797867

>  <SCORE.INTRA.VDW.0>
-2.87309

>  <SCORE.INTRA.norm>
-0.238032

>  <SCORE.RESTR>
0

>  <SCORE.RESTR.CAVITY>
0

>  <SCORE.RESTR.norm>
0

>  <SCORE.SYSTEM>
0

>  <SCORE.SYSTEM.CONST>
0

>  <SCORE.SYSTEM.DIHEDRAL>
0

>  <SCORE.SYSTEM.SOLV>
0

>  <SCORE.SYSTEM.norm>
0

>  <SCORE.heavy>
31

>  <SCORE.norm>
-1.83006

>  <SYMMETRIC_BONDS>
33 34 3

>  <RMSD>
1.597

$$$$
1fmn_cryst
 OpenBabel11021811393D
libRbt.so/2013.1/901 2013/11/27
 31 33  0  0  0  0  0  0  0  0999 V2000
   -9.0752   -6.1833    3.5078 N   0  0  0  0  0  0  0  0  0  0  0  0
   -9.7506   -6.2532    4.7038 C   0  0  0  0  0  0  0  0  0  0  0  0
   -9.3065   -6.8762    5.6688 O   0  0  0  0  0  0  0  0  0  0  0  0
  -10.9904   -5.5676    4.7531 N   0  0  0  0  0  0  0  0  0  0  0  0
  -11.5904   -4.8323    3.7074 C   0  0  0  0  0  0  0  0  0  0  0  0
  -12.6820   -4.2782    3.8879 O   0  0  0  0  0  0  0  0  0  0  0  0
  -10.8100   -4.8068    2.4683 C   0  0  0  0  0  0  0  0  0  0  0  0
  -11.3248   -4.1117    1.4024 N   0  0  0  0  0  0  0  0  0  0  0  0
  -10.6895   -4.2387    0.2012 C   0  0  0  0  0  0  0  0  0  0  0  0
  -11.3017   -3.6951   -0.9142 C   0  0  0  0  0  0  0  0  0  0  0  0
  -10.7292   -3.7826   -2.1372 C   0  0  0  0  0  0  0  0  0  0  0  0
  -11.4311   -3.1754   -3.3099 C   0  0  0  0  0  0  0  0  0  0  0  0
   -9.5336   -4.4129   -2.2931 C   0  0  0  0  0  0  0  0  0  0  0  0
   -8.9121   -4.5110   -3.6482 C   0  0  0  0  0  0  0  0  0  0  0  0
   -8.8958   -4.9605   -1.2272 C   0  0  0  0  0  0  0  0  0  0  0  0
   -9.4425   -4.8974    0.0544 C   0  0  0  0  0  0  0  0  0  0  0  0
   -8.8323   -5.4413    1.2041 N   0  0  0  0  0  0  0  0  0  0  0  0
   -9.5457   -5.5029    2.4187 C   0  0  0  0  0  0  0  0  0  0  0  0
   -7.3254   -5.4131    1.2872 C   0  0  0  0  0  0  0  0  0  0  0  0
   -6.5624   -6.4021    0.3544 C   0  0  1  0  0  0  0  0  0  0  0  0
   -6.3709   -5.8179   -0.9262 O   0  0  0  0  0  0  0  0  0  0  0  0
   -5.2365   -6.9160    0.9642 C   0  0  1  0  0  0  0  0  0  0  0  0
   -4.4754   -5.8273    1.4790 O   0  0  0  0  0  0  0  0  0  0  0  0
   -5.3420   -8.0354    2.0289 C   0  0  1  0  0  0  0  0  0  0  0  0
   -5.0575   -9.2808    1.4012 O   0  0  0  0  0  0  0  0  0  0  0  0
   -4.3645   -7.8385    3.2093 C   0  0  0  0  0  0  0  0  0  0  0  0
   -4.3798   -8.9346    4.1162 O   0  0  0  0  0  0  0  0  0  0  0  0
   -3.6423   -8.8964    5.5183 P   0  0  0  0  0  0  0  0  0  0  0  0
   -2.2509   -8.4122    5.3707 O   0  0  0  0  0  0  0  0  0  0  0  0
   -4.5046   -8.2707    6.5439 O   0  5  0  0  0  0  0  0  0  0  0  0
   -3.5172  -10.4317    5.9208 O   0  5  0  0  0  0  0  0  0  0  0  0
  1 18  1  0  0  0  0
  1  2  1  0  0  0  0
  2  4  1  0  0  0  0
  2  3  2  0  0  0  0
  4  5  1  0  0  0  0
  5  7  1  0  0  0  0
  5  6  2  0  0  0  0
  7 18  2  0  0  0  0
  7  8  1  0  0  0  0
  8  9  1  0  0  0  0
  9 10  2  0  0  0  0
  9 16  1  0  0  0  0
 10 11  1  0  0  0  0
 11 12  1  0  0  0  0
 11 13  2  0  0  0  0
 13 14  1  0  0  0  0
 13 15  1  0  0  0  0
 15 16  2  0  0  0  0
 16 17  1  0  0  0  0
 17 19  1  0  0  0  0
 17 18  1  0  0  0  0
 20 19  1  1  0  0  0
 20 22  1  0  0  0  0
 20 21  1  0  0  0  0
 22 24  1  0  0  0  0
 22 23  1  1  0  0  0
 24 26  1  1  0  0  0
 24 25  1  0  0  0  0
 26 27  1  0  0  0  0
 27 28  1  0  0  0  0
 28 30  1  0  0  0  0
 28 29  2  0  0  0  0
 28 31  1  0  0  0  0
M  CHG  2  30  -1  31  -1
M  END
>  <CHROM.1>
-72.36476403,85.89235644,-48.06023776,-170.73103491,99.88613389,63.61367147
-174.44322588,-64.81389138,-170.50728943,-48.71995980,-7.68667536,-6.26431857
2.09127982,2.42393332,0.42390399,-1.30990674

>  <Name>
1fmn_cryst

>  <RI>
0

>  <Rbt.Current_Directory>
/home/itssahil/PROJECTS/Mol_Feturizer/New_Systems/rnas/1fmn

>  <Rbt.Executable>
rbdock ($Id: //depot/dev/client3/rdock/2013.1/src/exe/rbdock.cxx#4 $)

>  <Rbt.Library>
libRbt.so (2013.1, Build901 2013/11/27)

>  <Rbt.Parameter_File>
/export/apps/rDock/src/rDock_2013.1_src/data/scripts/dock_solv.prm

>  <Rbt.Receptor>
prm/pocket_docking_2.prm

>  <SCORE>
-62.0577

>  <SCORE.INTER>
-59.3521

>  <SCORE.INTER.CONST>
1

>  <SCORE.INTER.POLAR>
-4.06079

>  <SCORE.INTER.ROT>
7

>  <SCORE.INTER.SOLV>
18.7633

>  <SCORE.INTER.VDW>
-40.5532

>  <SCORE.INTER.norm>
-1.91458

>  <SCORE.INTRA>
-2.70805

>  <SCORE.INTRA.DIHEDRAL>
-5.57861

>  <SCORE.INTRA.DIHEDRAL.0>
15.5708

>  <SCORE.INTRA.POLAR>
0.0677885

>  <SCORE.INTRA.POLAR.0>
-0.0677885

>  <SCORE.INTRA.REPUL>
0

>  <SCORE.INTRA.REPUL.0>
0

>  <SCORE.INTRA.SOLV>
-5.31691

>  <SCORE.INTRA.SOLV.lig_0>
-87.6316

>  <SCORE.INTRA.VDW>
2.50923

>  <SCORE.INTRA.VDW.0>
-2.87309

>  <SCORE.INTRA.norm>
-0.0873565

>  <SCORE.RESTR>
0.00244354

>  <SCORE.RESTR.CAVITY>
0.00244354

>  <SCORE.RESTR.norm>
7.8824e-05

>  <SCORE.SYSTEM>
0

>  <SCORE.SYSTEM.CONST>
0

>  <SCORE.SYSTEM.DIHEDRAL>
0

>  <SCORE.SYSTEM.SOLV>
0

>  <SCORE.SYSTEM.norm>
0

>  <SCORE.heavy>
31

>  <SCORE.norm>
-2.00186

>  <SYMMETRIC_BONDS>
33 34 3

>  <RMSD>
1.604

$$$$
1fmn_cryst
 OpenBabel11021811393D
libRbt.so/2013.1/901 2013/11/27
 31 33  0  0  0  0  0  0  0  0999 V2000
   -8.7286   -6.1600    3.6912 N   0  0  0  0  0  0  0  0  0  0  0  0
   -9.5966   -6.1835    4.7578 C   0  0  0  0  0  0  0  0  0  0  0  0
   -9.2891   -6.6873    5.8385 O   0  0  0  0  0  0  0  0  0  0  0  0
  -10.8670   -5.5964    4.5322 N   0  0  0  0  0  0  0  0  0  0  0  0
  -11.3208   -5.0001    3.3353 C   0  0  0  0  0  0  0  0  0  0  0  0
  -12.4602   -4.5210    3.2760 O   0  0  0  0  0  0  0  0  0  0  0  0
  -10.3392   -5.0158    2.2483 C   0  0  0  0  0  0  0  0  0  0  0  0
  -10.7032   -4.4545    1.0497 N   0  0  0  0  0  0  0  0  0  0  0  0
   -9.8612   -4.6300   -0.0098 C   0  0  0  0  0  0  0  0  0  0  0  0
  -10.3026   -4.2309   -1.2589 C   0  0  0  0  0  0  0  0  0  0  0  0
   -9.5210   -4.3741   -2.3544 C   0  0  0  0  0  0  0  0  0  0  0  0
  -10.0445   -3.9236   -3.6808 C   0  0  0  0  0  0  0  0  0  0  0  0
   -8.2788   -4.9186   -2.2461 C   0  0  0  0  0  0  0  0  0  0  0  0
   -7.4253   -5.0793   -3.4618 C   0  0  0  0  0  0  0  0  0  0  0  0
   -7.8034   -5.3238   -1.0409 C   0  0  0  0  0  0  0  0  0  0  0  0
   -8.5684   -5.1980    0.1186 C   0  0  0  0  0  0  0  0  0  0  0  0
   -8.1349   -5.5947    1.4011 N   0  0  0  0  0  0  0  0  0  0  0  0
   -9.0441   -5.6115    2.4787 C   0  0  0  0  0  0  0  0  0  0  0  0
   -6.6706   -5.4407    1.7333 C   0  0  0  0  0  0  0  0  0  0  0  0
   -5.7084   -6.5095    1.1315 C   0  0  1  0  0  0  0  0  0  0  0  0
   -4.9851   -5.9577    0.0405 O   0  0  0  0  0  0  0  0  0  0  0  0
   -4.7740   -7.1513    2.1845 C   0  0  1  0  0  0  0  0  0  0  0  0
   -4.0780   -6.1404    2.9080 O   0  0  0  0  0  0  0  0  0  0  0  0
   -5.4160   -8.1579    3.1706 C   0  0  1  0  0  0  0  0  0  0  0  0
   -5.3730   -9.4531    2.5820 O   0  0  0  0  0  0  0  0  0  0  0  0
   -4.6943   -8.2078    4.5360 C   0  0  0  0  0  0  0  0  0  0  0  0
   -5.3869   -9.0067    5.4879 O   0  0  0  0  0  0  0  0  0  0  0  0
   -4.8746   -9.2046    6.9744 P   0  0  0  0  0  0  0  0  0  0  0  0
   -4.5626   -7.9015    7.6040 O   0  0  0  0  0  0  0  0  0  0  0  0
   -5.7442  -10.1529    7.7035 O   0  5  0  0  0  0  0  0  0  0  0  0
   -3.4721   -9.9367    6.7958 O   0  5  0  0  0  0  0  0  0  0  0  0
  1 18  1  0  0  0  0
  1  2  1  0  0  0  0
  2  4  1  0  0  0  0
  2  3  2  0  0  0  0
  4  5  1  0  0  0  0
  5  7  1  0  0  0  0
  5  6  2  0  0  0  0
  7 18  2  0  0  0  0
  7  8  1  0  0  0  0
  8  9  1  0  0  0  0
  9 10  2  0  0  0  0
  9 16  1  0  0  0  0
 10 11  1  0  0  0  0
 11 12  1  0  0  0  0
 11 13  2  0  0  0  0
 13 14  1  0  0  0  0
 13 15  1  0  0  0  0
 15 16  2  0  0  0  0
 16 17  1  0  0  0  0
 17 19  1  0  0  0  0
 17 18  1  0  0  0  0
 20 19  1  1  0  0  0
 20 22  1  0  0  0  0
 20 21  1  0  0  0  0
 22 24  1  0  0  0  0
 22 23  1  1  0  0  0
 24 26  1  1  0  0  0
 24 25  1  0  0  0  0
 26 27  1  0  0  0  0
 27 28  1  0  0  0  0
 28 30  1  0  0  0  0
 28 29  2  0  0  0  0
 28 31  1  0  0  0  0
M  CHG  2  30  -1  31  -1
M  END
>  <CHROM.1>
-77.07885780,104.57217316,-53.10231517,57.72104811,88.06356710,66.13863352
172.64156241,176.29169861,-178.92778391,49.98880321,-7.46159926,-6.50988316
2.61552401,1.03149999,-0.39169744,1.88583965

>  <Name>
1fmn_cryst

>  <RI>
0

>  <Rbt.Current_Directory>
/home/itssahil/PROJECTS/Mol_Feturizer/New_Systems/rnas/1fmn

>  <Rbt.Executable>
rbdock ($Id: //depot/dev/client3/rdock/2013.1/src/exe/rbdock.cxx#4 $)

>  <Rbt.Library>
libRbt.so (2013.1, Build901 2013/11/27)

>  <Rbt.Parameter_File>
/export/apps/rDock/src/rDock_2013.1_src/data/scripts/dock_solv.prm

>  <Rbt.Receptor>
prm/pocket_docking_4.prm

>  <SCORE>
-57.1706

>  <SCORE.INTER>
-53.3084

>  <SCORE.INTER.CONST>
1

>  <SCORE.INTER.POLAR>
-3.24815

>  <SCORE.INTER.ROT>
7

>  <SCORE.INTER.SOLV>
18.354

>  <SCORE.INTER.VDW>
-39.0965

>  <SCORE.INTER.norm>
-1.71963

>  <SCORE.INTRA>
-3.86213

>  <SCORE.INTRA.DIHEDRAL>
-6.09154

>  <SCORE.INTRA.DIHEDRAL.0>
15.5708

>  <SCORE.INTRA.POLAR>
0.0677885

>  <SCORE.INTRA.POLAR.0>
-0.0677885

>  <SCORE.INTRA.REPUL>
0

>  <SCORE.INTRA.REPUL.0>
0

>  <SCORE.INTRA.SOLV>
-5.19974

>  <SCORE.INTRA.SOLV.lig_0>
-87.6316

>  <SCORE.INTRA.VDW>
1.55303

>  <SCORE.INTRA.VDW.0>
-2.87309

>  <SCORE.INTRA.norm>
-0.124585

>  <SCORE.RESTR>
0

>  <SCORE.RESTR.CAVITY>
0

>  <SCORE.RESTR.norm>
0

>  <SCORE.SYSTEM>
0

>  <SCORE.SYSTEM.CONST>
0

>  <SCORE.SYSTEM.DIHEDRAL>
0

>  <SCORE.SYSTEM.SOLV>
0

>  <SCORE.SYSTEM.norm>
0

>  <SCORE.heavy>
31

>  <SCORE.norm>
-1.84421

>  <SYMMETRIC_BONDS>
33 34 3

>  <RMSD>
1.609

$$$$
1fmn_cryst
 OpenBabel11021811393D
libRbt.so/2013.1/901 2013/11/27
 31 33  0  0  0  0  0  0  0  0999 V2000
   -8.6662   -6.1782    3.6832 N   0  0  0  0  0  0  0  0  0  0  0  0
   -9.5539   -6.2048    4.7333 C   0  0  0  0  0  0  0  0  0  0  0  0
   -9.2618   -6.6998    5.8225 O   0  0  0  0  0  0  0  0  0  0  0  0
  -10.8255   -5.6316    4.4808 N   0  0  0  0  0  0  0  0  0  0  0  0
  -11.2625   -5.0461    3.2723 C   0  0  0  0  0  0  0  0  0  0  0  0
  -12.4053   -4.5787    3.1890 O   0  0  0  0  0  0  0  0  0  0  0  0
  -10.2605   -5.0578    2.2041 C   0  0  0  0  0  0  0  0  0  0  0  0
  -10.6074   -4.5064    0.9958 N   0  0  0  0  0  0  0  0  0  0  0  0
   -9.7438   -4.6791   -0.0468 C   0  0  0  0  0  0  0  0  0  0  0  0
  -10.1655   -4.2911   -1.3061 C   0  0  0  0  0  0  0  0  0  0  0  0
   -9.3620   -4.4322   -2.3859 C   0  0  0  0  0  0  0  0  0  0  0  0
   -9.8648   -3.9940   -3.7244 C   0  0  0  0  0  0  0  0  0  0  0  0
   -8.1168   -4.9637   -2.2513 C   0  0  0  0  0  0  0  0  0  0  0  0
   -7.2390   -5.1223   -3.4498 C   0  0  0  0  0  0  0  0  0  0  0  0
   -7.6602   -5.3578   -1.0352 C   0  0  0  0  0  0  0  0  0  0  0  0
   -8.4481   -5.2335    0.1091 C   0  0  0  0  0  0  0  0  0  0  0  0
   -8.0350   -5.6191    1.4016 N   0  0  0  0  0  0  0  0  0  0  0  0
   -8.9641   -5.6393    2.4619 C   0  0  0  0  0  0  0  0  0  0  0  0
   -6.5788   -5.4488    1.7604 C   0  0  0  0  0  0  0  0  0  0  0  0
   -5.7058   -6.7401    1.7410 C   0  0  1  0  0  0  0  0  0  0  0  0
   -5.1748   -6.9523    0.4406 O   0  0  0  0  0  0  0  0  0  0  0  0
   -4.6047   -6.7487    2.8281 C   0  0  1  0  0  0  0  0  0  0  0  0
   -3.9517   -5.4836    2.8790 O   0  0  0  0  0  0  0  0  0  0  0  0
   -5.0301   -7.1801    4.2531 C   0  0  1  0  0  0  0  0  0  0  0  0
   -6.0224   -6.2728    4.7199 O   0  0  0  0  0  0  0  0  0  0  0  0
   -5.6044   -8.6138    4.3025 C   0  0  0  0  0  0  0  0  0  0  0  0
   -5.6972   -9.1166    5.6301 O   0  0  0  0  0  0  0  0  0  0  0  0
   -4.4262   -9.3585    6.5451 P   0  0  0  0  0  0  0  0  0  0  0  0
   -3.4680  -10.2757    5.8872 O   0  0  0  0  0  0  0  0  0  0  0  0
   -3.9224   -8.0780    7.0867 O   0  5  0  0  0  0  0  0  0  0  0  0
   -5.0045  -10.1686    7.7877 O   0  5  0  0  0  0  0  0  0  0  0  0
  1 18  1  0  0  0  0
  1  2  1  0  0  0  0
  2  4  1  0  0  0  0
  2  3  2  0  0  0  0
  4  5  1  0  0  0  0
  5  7  1  0  0  0  0
  5  6  2  0  0  0  0
  7 18  2  0  0  0  0
  7  8  1  0  0  0  0
  8  9  1  0  0  0  0
  9 10  2  0  0  0  0
  9 16  1  0  0  0  0
 10 11  1  0  0  0  0
 11 12  1  0  0  0  0
 11 13  2  0  0  0  0
 13 14  1  0  0  0  0
 13 15  1  0  0  0  0
 15 16  2  0  0  0  0
 16 17  1  0  0  0  0
 17 19  1  0  0  0  0
 17 18  1  0  0  0  0
 20 19  1  6  0  0  0
 20 22  1  0  0  0  0
 20 21  1  0  0  0  0
 22 24  1  0  0  0  0
 22 23  1  1  0  0  0
 24 26  1  6  0  0  0
 24 25  1  0  0  0  0
 26 27  1  0  0  0  0
 27 28  1  0  0  0  0
 28 30  1  0  0  0  0
 28 29  2  0  0  0  0
 28 31  1  0  0  0  0
M  CHG  2  30  -1  31  -1
M  END
>  <CHROM.1>
-102.45443270,88.17567939,-44.39443052,-67.49468059,-60.84888854,67.27199585
166.14084654,-173.71811241,-63.70892915,-56.74897011,-7.37758835,-6.43929235
2.68065099,2.13275384,0.35767462,-1.25389828

>  <Name>
1fmn_cryst

>  <RI>
0

>  <Rbt.Current_Directory>
/home/itssahil/PROJECTS/Mol_Feturizer/New_Systems/rnas/1fmn

>  <Rbt.Executable>
rbdock ($Id: //depot/dev/client3/rdock/2013.1/src/exe/rbdock.cxx#4 $)

>  <Rbt.Library>
libRbt.so (2013.1, Build901 2013/11/27)

>  <Rbt.Parameter_File>
/export/apps/rDock/src/rDock_2013.1_src/data/scripts/dock_solv.prm

>  <Rbt.Receptor>
prm/pocket_docking_6.prm

>  <SCORE>
-60.8468

>  <SCORE.INTER>
-53.2267

>  <SCORE.INTER.CONST>
1

>  <SCORE.INTER.POLAR>
-3.1791

>  <SCORE.INTER.ROT>
7

>  <SCORE.INTER.SOLV>
16.6683

>  <SCORE.INTER.VDW>
-38.7102

>  <SCORE.INTER.norm>
-1.71699

>  <SCORE.INTRA>
-7.62007

>  <SCORE.INTRA.DIHEDRAL>
-8.0914

>  <SCORE.INTRA.DIHEDRAL.0>
15.5708

>  <SCORE.INTRA.POLAR>
-0.803183

>  <SCORE.INTRA.POLAR.0>
-0.0677885

>  <SCORE.INTRA.REPUL>
0

>  <SCORE.INTRA.REPUL.0>
0

>  <SCORE.INTRA.SOLV>
-0.585183

>  <SCORE.INTRA.SOLV.lig_0>
-87.6316

>  <SCORE.INTRA.VDW>
-0.550957

>  <SCORE.INTRA.VDW.0>
-2.87309

>  <SCORE.INTRA.norm>
-0.245809

>  <SCORE.RESTR>
0

>  <SCORE.RESTR.CAVITY>
0

>  <SCORE.RESTR.norm>
0

>  <SCORE.SYSTEM>
0

>  <SCORE.SYSTEM.CONST>
0

>  <SCORE.SYSTEM.DIHEDRAL>
0

>  <SCORE.SYSTEM.SOLV>
0

>  <SCORE.SYSTEM.norm>
0

>  <SCORE.heavy>
31

>  <SCORE.norm>
-1.9628

>  <SYMMETRIC_BONDS>
33 34 3

>  <RMSD>
1.616

$$$$
1fmn_cryst
 OpenBabel11021811393D
libRbt.so/2013.1/901 2013/11/27
 31 33  0  0  0  0  0  0  0  0999 V2000
   -8.6611   -6.2820    3.4065 N   0  0  0  0  0  0  0  0  0  0  0  0
   -9.4639   -6.2830    4.5232 C   0  0  0  0  0  0  0  0  0  0  0  0
   -9.1356   -6.8563    5.5625 O   0  0  0  0  0  0  0  0  0  0  0  0
  -10.6929   -5.5875    4.4000 N   0  0  0  0  0  0  0  0  0  0  0  0
  -11.1659   -4.9053    3.2576 C   0  0  0  0  0  0  0  0  0  0  0  0
  -12.2637   -4.3350    3.2879 O   0  0  0  0  0  0  0  0  0  0  0  0
  -10.2546   -4.9515    2.1119 C   0  0  0  0  0  0  0  0  0  0  0  0
  -10.6412   -4.3113    0.9609 N   0  0  0  0  0  0  0  0  0  0  0  0
   -9.8802   -4.5068   -0.1549 C   0  0  0  0  0  0  0  0  0  0  0  0
  -10.3601   -4.0197   -1.3578 C   0  0  0  0  0  0  0  0  0  0  0  0
   -9.6587   -4.1766   -2.5044 C   0  0  0  0  0  0  0  0  0  0  0  0
  -10.2206   -3.6285   -3.7773 C   0  0  0  0  0  0  0  0  0  0  0  0
   -8.4611   -4.8223   -2.4948 C   0  0  0  0  0  0  0  0  0  0  0  0
   -7.6967   -4.9972   -3.7664 C   0  0  0  0  0  0  0  0  0  0  0  0
   -7.9504   -5.3162   -1.3380 C   0  0  0  0  0  0  0  0  0  0  0  0
   -8.6330   -5.1808   -0.1292 C   0  0  0  0  0  0  0  0  0  0  0  0
   -8.1588   -5.6663    1.1075 N   0  0  0  0  0  0  0  0  0  0  0  0
   -9.0013   -5.6578    2.2381 C   0  0  0  0  0  0  0  0  0  0  0  0
   -6.6698   -5.6438    1.3538 C   0  0  0  0  0  0  0  0  0  0  0  0
   -5.8195   -6.6720    0.5475 C   0  0  1  0  0  0  0  0  0  0  0  0
   -5.2559   -6.0493   -0.5982 O   0  0  0  0  0  0  0  0  0  0  0  0
   -4.7499   -7.3868    1.4071 C   0  0  1  0  0  0  0  0  0  0  0  0
   -5.3584   -8.0086    2.5353 O   0  0  0  0  0  0  0  0  0  0  0  0
   -3.8282   -8.3976    0.6814 C   0  0  1  0  0  0  0  0  0  0  0  0
   -2.9213   -7.6697   -0.1393 O   0  0  0  0  0  0  0  0  0  0  0  0
   -3.0177   -9.2814    1.6559 C   0  0  0  0  0  0  0  0  0  0  0  0
   -2.4996   -8.5431    2.7561 O   0  0  0  0  0  0  0  0  0  0  0  0
   -1.7710   -9.2325    3.9830 P   0  0  0  0  0  0  0  0  0  0  0  0
   -2.1931  -10.6448    4.1229 O   0  0  0  0  0  0  0  0  0  0  0  0
   -0.3248   -8.9238    3.9710 O   0  5  0  0  0  0  0  0  0  0  0  0
   -2.3742   -8.4815    5.2506 O   0  5  0  0  0  0  0  0  0  0  0  0
  1 18  1  0  0  0  0
  1  2  1  0  0  0  0
  2  4  1  0  0  0  0
  2  3  2  0  0  0  0
  4  5  1  0  0  0  0
  5  7  1  0  0  0  0
  5  6  2  0  0  0  0
  7 18  2  0  0  0  0
  7  8  1  0  0  0  0
  8  9  1  0  0  0  0
  9 10  2  0  0  0  0
  9 16  1  0  0  0  0
 10 11  1  0  0  0  0
 11 12  1  0  0  0  0
 11 13  2  0  0  0  0
 13 14  1  0  0  0  0
 13 15  1  0  0  0  0
 15 16  2  0  0  0  0
 16 17  1  0  0  0  0
 17 19  1  0  0  0  0
 17 18  1  0  0  0  0
 20 19  1  1  0  0  0
 20 22  1  0  0  0  0
 20 21  1  0  0  0  0
 22 24  1  0  0  0  0
 22 23  1  1  0  0  0
 24 26  1  1  0  0  0
 24 25  1  0  0  0  0
 26 27  1  0  0  0  0
 27 28  1  0  0  0  0
 28 30  1  0  0  0  0
 28 29  2  0  0  0  0
 28 31  1  0  0  0  0
M  CHG  2  30  -1  31  -1
M  END
>  <CHROM.1>
-71.46503202,97.74979120,55.26186032,-137.81894265,72.17283678,-74.32418884
-41.90610064,-74.09367210,173.00056100,-23.87860244,-6.70949582,-6.53222259
1.55700086,2.68107063,0.41331746,-1.31713697

>  <Name>
1fmn_cryst

>  <RI>
0

>  <Rbt.Current_Directory>
/home/itssahil/PROJECTS/Mol_Feturizer/New_Systems/rnas/1fmn

>  <Rbt.Executable>
rbdock ($Id: //depot/dev/client3/rdock/2013.1/src/exe/rbdock.cxx#4 $)

>  <Rbt.Library>
libRbt.so (2013.1, Build901 2013/11/27)

>  <Rbt.Parameter_File>
/export/apps/rDock/src/rDock_2013.1_src/data/scripts/dock_solv.prm

>  <Rbt.Receptor>
prm/pocket_docking_3.prm

>  <SCORE>
-58.6403

>  <SCORE.INTER>
-57.8163

>  <SCORE.INTER.CONST>
1

>  <SCORE.INTER.POLAR>
-3.94326

>  <SCORE.INTER.ROT>
7

>  <SCORE.INTER.SOLV>
16.1503

>  <SCORE.INTER.VDW>
-39.0501

>  <SCORE.INTER.norm>
-1.86504

>  <SCORE.INTRA>
-0.85014

>  <SCORE.INTRA.DIHEDRAL>
1.11498

>  <SCORE.INTRA.DIHEDRAL.0>
15.5708

>  <SCORE.INTRA.POLAR>
0.0360549

>  <SCORE.INTRA.POLAR.0>
-0.0677885

>  <SCORE.INTRA.REPUL>
0.000229999

>  <SCORE.INTRA.REPUL.0>
0

>  <SCORE.INTRA.SOLV>
-3.6813

>  <SCORE.INTRA.SOLV.lig_0>
-87.6316

>  <SCORE.INTRA.VDW>
0.309283

>  <SCORE.INTRA.VDW.0>
-2.87309

>  <SCORE.INTRA.norm>
-0.0274239

>  <SCORE.RESTR>
0.026114

>  <SCORE.RESTR.CAVITY>
0.026114

>  <SCORE.RESTR.norm>
0.000842386

>  <SCORE.SYSTEM>
0

>  <SCORE.SYSTEM.CONST>
0

>  <SCORE.SYSTEM.DIHEDRAL>
0

>  <SCORE.SYSTEM.SOLV>
0

>  <SCORE.SYSTEM.norm>
0

>  <SCORE.heavy>
31

>  <SCORE.norm>
-1.89162

>  <SYMMETRIC_BONDS>
33 34 3

>  <RMSD>
1.617

$$$$
1fmn_cryst
 OpenBabel11021811393D
libRbt.so/2013.1/901 2013/11/27
 31 33  0  0  0  0  0  0  0  0999 V2000
   -8.7547   -6.0787    3.7273 N   0  0  0  0  0  0  0  0  0  0  0  0
   -9.6959   -6.0692    4.7302 C   0  0  0  0  0  0  0  0  0  0  0  0
   -9.4601   -6.5221    5.8508 O   0  0  0  0  0  0  0  0  0  0  0  0
  -10.9536   -5.5103    4.3906 N   0  0  0  0  0  0  0  0  0  0  0  0
  -11.3280   -4.9720    3.1399 C   0  0  0  0  0  0  0  0  0  0  0  0
  -12.4656   -4.5121    2.9798 O   0  0  0  0  0  0  0  0  0  0  0  0
  -10.2717   -5.0200    2.1264 C   0  0  0  0  0  0  0  0  0  0  0  0
  -10.5560   -4.5154    0.8819 N   0  0  0  0  0  0  0  0  0  0  0  0
   -9.6391   -4.7239   -0.1072 C   0  0  0  0  0  0  0  0  0  0  0  0
   -9.9953   -4.3846   -1.4004 C   0  0  0  0  0  0  0  0  0  0  0  0
   -9.1364   -4.5632   -2.4309 C   0  0  0  0  0  0  0  0  0  0  0  0
   -9.5695   -4.1771   -3.8092 C   0  0  0  0  0  0  0  0  0  0  0  0
   -7.8990   -5.0848   -2.2120 C   0  0  0  0  0  0  0  0  0  0  0  0
   -6.9597   -5.2850   -3.3564 C   0  0  0  0  0  0  0  0  0  0  0  0
   -7.5058   -5.4316   -0.9598 C   0  0  0  0  0  0  0  0  0  0  0  0
   -8.3524   -5.2674    0.1365 C   0  0  0  0  0  0  0  0  0  0  0  0
   -8.0065   -5.6030    1.4623 N   0  0  0  0  0  0  0  0  0  0  0  0
   -8.9896   -5.5869    2.4729 C   0  0  0  0  0  0  0  0  0  0  0  0
   -6.5712   -5.4142    1.8897 C   0  0  0  0  0  0  0  0  0  0  0  0
   -5.8243   -6.6887    2.3877 C   0  0  1  0  0  0  0  0  0  0  0  0
   -6.6065   -7.3652    3.3615 O   0  0  0  0  0  0  0  0  0  0  0  0
   -5.3860   -7.6273    1.2383 C   0  0  1  0  0  0  0  0  0  0  0  0
   -4.6342   -6.9027    0.2690 O   0  0  0  0  0  0  0  0  0  0  0  0
   -4.6276   -8.9170    1.6372 C   0  0  1  0  0  0  0  0  0  0  0  0
   -4.5899   -9.7834    0.5086 O   0  0  0  0  0  0  0  0  0  0  0  0
   -3.1799   -8.6449    2.1039 C   0  0  0  0  0  0  0  0  0  0  0  0
   -3.1303   -7.9552    3.3472 O   0  0  0  0  0  0  0  0  0  0  0  0
   -1.7686   -7.6006    4.0762 P   0  0  0  0  0  0  0  0  0  0  0  0
   -0.9903   -8.8259    4.3676 O   0  0  0  0  0  0  0  0  0  0  0  0
   -1.0905   -6.4763    3.3956 O   0  5  0  0  0  0  0  0  0  0  0  0
   -2.2332   -7.0453    5.4941 O   0  5  0  0  0  0  0  0  0  0  0  0
  1 18  1  0  0  0  0
  1  2  1  0  0  0  0
  2  4  1  0  0  0  0
  2  3  2  0  0  0  0
  4  5  1  0  0  0  0
  5  7  1  0  0  0  0
  5  6  2  0  0  0  0
  7 18  2  0  0  0  0
  7  8  1  0  0  0  0
  8  9  1  0  0  0  0
  9 10  2  0  0  0  0
  9 16  1  0  0  0  0
 10 11  1  0  0  0  0
 11 12  1  0  0  0  0
 11 13  2  0  0  0  0
 13 14  1  0  0  0  0
 13 15  1  0  0  0  0
 15 16  2  0  0  0  0
 16 17  1  0  0  0  0
 17 19  1  0  0  0  0
 17 18  1  0  0  0  0
 20 19  1  6  0  0  0
 20 22  1  0  0  0  0
 20 21  1  0  0  0  0
 22 24  1  0  0  0  0
 22 23  1  6  0  0  0
 24 26  1  6  0  0  0
 24 25  1  0  0  0  0
 26 27  1  0  0  0  0
 27 28  1  0  0  0  0
 28 30  1  0  0  0  0
 28 29  2  0  0  0  0
 28 31  1  0  0  0  0
M  CHG  2  30  -1  31  -1
M  END
>  <CHROM.1>
-120.68710622,-49.89477424,53.16336269,82.85909066,166.54546222,58.05999568
68.59785048,-66.29373815,177.66622493,-59.08535749,-6.76205367,-6.33739166
1.84109546,2.73588960,0.32853183,-1.42719876

>  <Name>
1fmn_cryst

>  <RI>
0

>  <Rbt.Current_Directory>
/home/itssahil/PROJECTS/Mol_Feturizer/New_Systems/rnas/1fmn

>  <Rbt.Executable>
rbdock ($Id: //depot/dev/client3/rdock/2013.1/src/exe/rbdock.cxx#4 $)

>  <Rbt.Library>
libRbt.so (2013.1, Build901 2013/11/27)

>  <Rbt.Parameter_File>
/export/apps/rDock/src/rDock_2013.1_src/data/scripts/dock_solv.prm

>  <Rbt.Receptor>
prm/pocket_docking_7.prm

>  <SCORE>
-60.5661

>  <SCORE.INTER>
-52.5195

>  <SCORE.INTER.CONST>
1

>  <SCORE.INTER.POLAR>
-3.25008

>  <SCORE.INTER.ROT>
7

>  <SCORE.INTER.SOLV>
17.148

>  <SCORE.INTER.VDW>
-38.162

>  <SCORE.INTER.norm>
-1.69418

>  <SCORE.INTRA>
-8.04668

>  <SCORE.INTRA.DIHEDRAL>
-9.06535

>  <SCORE.INTRA.DIHEDRAL.0>
15.5708

>  <SCORE.INTRA.POLAR>
-0.634781

>  <SCORE.INTRA.POLAR.0>
-0.0677885

>  <SCORE.INTRA.REPUL>
0

>  <SCORE.INTRA.REPUL.0>
0

>  <SCORE.INTRA.SOLV>
-3.70789

>  <SCORE.INTRA.SOLV.lig_0>
-87.6316

>  <SCORE.INTRA.VDW>
0.498191

>  <SCORE.INTRA.VDW.0>
-2.87309

>  <SCORE.INTRA.norm>
-0.25957

>  <SCORE.RESTR>
0

>  <SCORE.RESTR.CAVITY>
0

>  <SCORE.RESTR.norm>
0

>  <SCORE.SYSTEM>
0

>  <SCORE.SYSTEM.CONST>
0

>  <SCORE.SYSTEM.DIHEDRAL>
0

>  <SCORE.SYSTEM.SOLV>
0

>  <SCORE.SYSTEM.norm>
0

>  <SCORE.heavy>
31

>  <SCORE.norm>
-1.95375

>  <SYMMETRIC_BONDS>
33 34 3

>  <RMSD>
1.627

$$$$
1fmn_cryst
 OpenBabel11021811393D
libRbt.so/2013.1/901 2013/11/27
 31 33  0  0  0  0  0  0  0  0999 V2000
   -8.8704   -6.2392    3.5153 N   0  0  0  0  0  0  0  0  0  0  0  0
   -9.6221   -6.2414    4.6670 C   0  0  0  0  0  0  0  0  0  0  0  0
   -9.2573   -6.8334    5.6834 O   0  0  0  0  0  0  0  0  0  0  0  0
  -10.8435   -5.5245    4.6078 N   0  0  0  0  0  0  0  0  0  0  0  0
  -11.3557   -4.8201    3.4962 C   0  0  0  0  0  0  0  0  0  0  0  0
  -12.4413   -4.2324    3.5828 O   0  0  0  0  0  0  0  0  0  0  0  0
  -10.4976   -4.8664    2.3101 C   0  0  0  0  0  0  0  0  0  0  0  0
  -10.9246   -4.2052    1.1855 N   0  0  0  0  0  0  0  0  0  0  0  0
  -10.2179   -4.3987    0.0342 C   0  0  0  0  0  0  0  0  0  0  0  0
  -10.7430   -3.8885   -1.1398 C   0  0  0  0  0  0  0  0  0  0  0  0
  -10.0964   -4.0421   -2.3187 C   0  0  0  0  0  0  0  0  0  0  0  0
  -10.7055   -3.4686   -3.5582 C   0  0  0  0  0  0  0  0  0  0  0  0
   -8.9107   -4.7073   -2.3708 C   0  0  0  0  0  0  0  0  0  0  0  0
   -8.2071   -4.8782   -3.6777 C   0  0  0  0  0  0  0  0  0  0  0  0
   -8.3571   -5.2243   -1.2443 C   0  0  0  0  0  0  0  0  0  0  0  0
   -8.9823   -5.0933   -0.0044 C   0  0  0  0  0  0  0  0  0  0  0  0
   -8.4614   -5.6023    1.2037 N   0  0  0  0  0  0  0  0  0  0  0  0
   -9.2521   -5.5946    2.3711 C   0  0  0  0  0  0  0  0  0  0  0  0
   -6.9626   -5.6073    1.3828 C   0  0  0  0  0  0  0  0  0  0  0  0
   -6.2635   -6.9994    1.3247 C   0  0  1  0  0  0  0  0  0  0  0  0
   -5.0868   -6.9233    0.5325 O   0  0  0  0  0  0  0  0  0  0  0  0
   -5.9863   -7.6018    2.7227 C   0  0  1  0  0  0  0  0  0  0  0  0
   -5.5653   -8.9574    2.6012 O   0  0  0  0  0  0  0  0  0  0  0  0
   -5.0080   -6.8261    3.6387 C   0  0  1  0  0  0  0  0  0  0  0  0
   -5.3032   -5.4373    3.5375 O   0  0  0  0  0  0  0  0  0  0  0  0
   -5.1073   -7.2489    5.1216 C   0  0  0  0  0  0  0  0  0  0  0  0
   -4.8771   -8.6407    5.3064 O   0  0  0  0  0  0  0  0  0  0  0  0
   -4.9568   -9.3408    6.7258 P   0  0  0  0  0  0  0  0  0  0  0  0
   -3.9818   -8.7427    7.6658 O   0  0  0  0  0  0  0  0  0  0  0  0
   -6.3636   -9.4814    7.1595 O   0  5  0  0  0  0  0  0  0  0  0  0
   -4.4287  -10.8170    6.4485 O   0  5  0  0  0  0  0  0  0  0  0  0
  1 18  1  0  0  0  0
  1  2  1  0  0  0  0
  2  4  1  0  0  0  0
  2  3  2  0  0  0  0
  4  5  1  0  0  0  0
  5  7  1  0  0  0  0
  5  6  2  0  0  0  0
  7 18  2  0  0  0  0
  7  8  1  0  0  0  0
  8  9  1  0  0  0  0
  9 10  2  0  0  0  0
  9 16  1  0  0  0  0
 10 11  1  0  0  0  0
 11 12  1  0  0  0  0
 11 13  2  0  0  0  0
 13 14  1  0  0  0  0
 13 15  1  0  0  0  0
 15 16  2  0  0  0  0
 16 17  1  0  0  0  0
 17 19  1  0  0  0  0
 17 18  1  0  0  0  0
 20 19  1  1  0  0  0
 20 22  1  0  0  0  0
 20 21  1  0  0  0  0
 22 24  1  0  0  0  0
 22 23  1  6  0  0  0
 24 26  1  1  0  0  0
 24 25  1  0  0  0  0
 26 27  1  0  0  0  0
 27 28  1  0  0  0  0
 28 30  1  0  0  0  0
 28 29  2  0  0  0  0
 28 31  1  0  0  0  0
M  CHG  2  30  -1  31  -1
M  END
>  <CHROM.1>
-108.23139469,135.80705695,169.94840625,-82.47001546,42.46711051,65.52251198
57.28304443,-168.54566111,-178.39889011,-59.47843774,-7.75564789,-6.42171416
2.63313815,0.98093098,-0.44972454,1.85544596

>  <Name>
1fmn_cryst

>  <RI>
0

>  <Rbt.Current_Directory>
/home/itssahil/PROJECTS/Mol_Feturizer/New_Systems/rnas/1fmn

>  <Rbt.Executable>
rbdock ($Id: //depot/dev/client3/rdock/2013.1/src/exe/rbdock.cxx#4 $)

>  <Rbt.Library>
libRbt.so (2013.1, Build901 2013/11/27)

>  <Rbt.Parameter_File>
/export/apps/rDock/src/rDock_2013.1_src/data/scripts/dock_solv.prm

>  <Rbt.Receptor>
prm/pocket_docking_4.prm

>  <SCORE>
-55.3865

>  <SCORE.INTER>
-52.707

>  <SCORE.INTER.CONST>
1

>  <SCORE.INTER.POLAR>
-3.04334

>  <SCORE.INTER.ROT>
7

>  <SCORE.INTER.SOLV>
21.5159

>  <SCORE.INTER.VDW>
-40.4322

>  <SCORE.INTER.norm>
-1.70023

>  <SCORE.INTRA>
-2.67941

>  <SCORE.INTRA.DIHEDRAL>
-4.0034

>  <SCORE.INTRA.DIHEDRAL.0>
15.5708

>  <SCORE.INTRA.POLAR>
0.0677885

>  <SCORE.INTRA.POLAR.0>
-0.0677885

>  <SCORE.INTRA.REPUL>
0

>  <SCORE.INTRA.REPUL.0>
0

>  <SCORE.INTRA.SOLV>
-3.76422

>  <SCORE.INTRA.SOLV.lig_0>
-87.6316

>  <SCORE.INTRA.VDW>
0.973915

>  <SCORE.INTRA.VDW.0>
-2.87309

>  <SCORE.INTRA.norm>
-0.0864327

>  <SCORE.RESTR>
0

>  <SCORE.RESTR.CAVITY>
0

>  <SCORE.RESTR.norm>
0

>  <SCORE.SYSTEM>
0

>  <SCORE.SYSTEM.CONST>
0

>  <SCORE.SYSTEM.DIHEDRAL>
0

>  <SCORE.SYSTEM.SOLV>
0

>  <SCORE.SYSTEM.norm>
0

>  <SCORE.heavy>
31

>  <SCORE.norm>
-1.78666

>  <SYMMETRIC_BONDS>
33 34 3

>  <RMSD>
1.629

$$$$
1fmn_cryst
 OpenBabel11021811393D
libRbt.so/2013.1/901 2013/11/27
 31 33  0  0  0  0  0  0  0  0999 V2000
   -8.9937   -6.1453    3.4902 N   0  0  0  0  0  0  0  0  0  0  0  0
   -9.7152   -6.1822    4.6605 C   0  0  0  0  0  0  0  0  0  0  0  0
   -9.3094   -6.7778    5.6590 O   0  0  0  0  0  0  0  0  0  0  0  0
  -10.9556   -5.4962    4.6423 N   0  0  0  0  0  0  0  0  0  0  0  0
  -11.5141   -4.7907    3.5539 C   0  0  0  0  0  0  0  0  0  0  0  0
  -12.6117   -4.2325    3.6762 O   0  0  0  0  0  0  0  0  0  0  0  0
  -10.6860   -4.7993    2.3459 C   0  0  0  0  0  0  0  0  0  0  0  0
  -11.1585   -4.1346    1.2418 N   0  0  0  0  0  0  0  0  0  0  0  0
  -10.4770   -4.2946    0.0703 C   0  0  0  0  0  0  0  0  0  0  0  0
  -11.0451   -3.7827   -1.0829 C   0  0  0  0  0  0  0  0  0  0  0  0
  -10.4254   -3.9040   -2.2798 C   0  0  0  0  0  0  0  0  0  0  0  0
  -11.0807   -3.3302   -3.4954 C   0  0  0  0  0  0  0  0  0  0  0  0
   -9.2249   -4.5376   -2.3713 C   0  0  0  0  0  0  0  0  0  0  0  0
   -8.5511   -4.6731   -3.6978 C   0  0  0  0  0  0  0  0  0  0  0  0
   -8.6293   -5.0549   -1.2665 C   0  0  0  0  0  0  0  0  0  0  0  0
   -9.2256   -4.9564   -0.0094 C   0  0  0  0  0  0  0  0  0  0  0  0
   -8.6609   -5.4677    1.1779 N   0  0  0  0  0  0  0  0  0  0  0  0
   -9.4211   -5.4958    2.3650 C   0  0  0  0  0  0  0  0  0  0  0  0
   -7.1583   -5.4363    1.3188 C   0  0  0  0  0  0  0  0  0  0  0  0
   -6.4037   -6.7569    0.9773 C   0  0  1  0  0  0  0  0  0  0  0  0
   -5.4553   -6.5257   -0.0547 O   0  0  0  0  0  0  0  0  0  0  0  0
   -5.7651   -7.4322    2.2144 C   0  0  1  0  0  0  0  0  0  0  0  0
   -6.4803   -7.0775    3.3944 O   0  0  0  0  0  0  0  0  0  0  0  0
   -5.5750   -8.9678    2.1548 C   0  0  1  0  0  0  0  0  0  0  0  0
   -4.7843   -9.2787    1.0128 O   0  0  0  0  0  0  0  0  0  0  0  0
   -4.8799   -9.5382    3.4113 C   0  0  0  0  0  0  0  0  0  0  0  0
   -3.5135   -9.1518    3.4991 O   0  0  0  0  0  0  0  0  0  0  0  0
   -3.0588   -7.7237    4.0140 P   0  0  0  0  0  0  0  0  0  0  0  0
   -4.1238   -7.0901    4.8242 O   0  0  0  0  0  0  0  0  0  0  0  0
   -1.6883   -7.7808    4.5666 O   0  5  0  0  0  0  0  0  0  0  0  0
   -2.9643   -6.8552    2.6829 O   0  5  0  0  0  0  0  0  0  0  0  0
  1 18  1  0  0  0  0
  1  2  1  0  0  0  0
  2  4  1  0  0  0  0
  2  3  2  0  0  0  0
  4  5  1  0  0  0  0
  5  7  1  0  0  0  0
  5  6  2  0  0  0  0
  7 18  2  0  0  0  0
  7  8  1  0  0  0  0
  8  9  1  0  0  0  0
  9 10  2  0  0  0  0
  9 16  1  0  0  0  0
 10 11  1  0  0  0  0
 11 12  1  0  0  0  0
 11 13  2  0  0  0  0
 13 14  1  0  0  0  0
 13 15  1  0  0  0  0
 15 16  2  0  0  0  0
 16 17  1  0  0  0  0
 17 19  1  0  0  0  0
 17 18  1  0  0  0  0
 20 19  1  1  0  0  0
 20 22  1  0  0  0  0
 20 21  1  0  0  0  0
 22 24  1  0  0  0  0
 22 23  1  1  0  0  0
 24 26  1  1  0  0  0
 24 25  1  0  0  0  0
 26 27  1  0  0  0  0
 27 28  1  0  0  0  0
 28 30  1  0  0  0  0
 28 29  2  0  0  0  0
 28 31  1  0  0  0  0
M  CHG  2  30  -1  31  -1
M  END
>  <CHROM.1>
-97.85016045,122.11603090,26.43110661,63.57546427,57.08614746,-158.03608128
-69.15251653,-133.56103476,79.19154472,20.98864727,-7.52677223,-6.19487732
1.86910914,2.60613568,0.39848870,-1.36041374

>  <Name>
1fmn_cryst

>  <RI>
0

>  <Rbt.Current_Directory>
/home/itssahil/PROJECTS/Mol_Feturizer/New_Systems/rnas/1fmn

>  <Rbt.Executable>
rbdock ($Id: //depot/dev/client3/rdock/2013.1/src/exe/rbdock.cxx#4 $)

>  <Rbt.Library>
libRbt.so (2013.1, Build901 2013/11/27)

>  <Rbt.Parameter_File>
/export/apps/rDock/src/rDock_2013.1_src/data/scripts/dock_solv.prm

>  <Rbt.Receptor>
prm/pocket_docking_2.prm

>  <SCORE>
-55.7396

>  <SCORE.INTER>
-54.6686

>  <SCORE.INTER.CONST>
1

>  <SCORE.INTER.POLAR>
-3.25118

>  <SCORE.INTER.ROT>
7

>  <SCORE.INTER.SOLV>
17.0353

>  <SCORE.INTER.VDW>
-39.5536

>  <SCORE.INTER.norm>
-1.7635

>  <SCORE.INTRA>
-1.21561

>  <SCORE.INTRA.DIHEDRAL>
6.93214

>  <SCORE.INTRA.DIHEDRAL.0>
15.5708

>  <SCORE.INTRA.POLAR>
-2.06013

>  <SCORE.INTRA.POLAR.0>
-0.0677885

>  <SCORE.INTRA.REPUL>
0

>  <SCORE.INTRA.REPUL.0>
0

>  <SCORE.INTRA.SOLV>
5.56804

>  <SCORE.INTRA.SOLV.lig_0>
-87.6316

>  <SCORE.INTRA.VDW>
-0.461264

>  <SCORE.INTRA.VDW.0>
-2.87309

>  <SCORE.INTRA.norm>
-0.0392132

>  <SCORE.RESTR>
0.144613

>  <SCORE.RESTR.CAVITY>
0.144613

>  <SCORE.RESTR.norm>
0.00466493

>  <SCORE.SYSTEM>
0

>  <SCORE.SYSTEM.CONST>
0

>  <SCORE.SYSTEM.DIHEDRAL>
0

>  <SCORE.SYSTEM.SOLV>
0

>  <SCORE.SYSTEM.norm>
0

>  <SCORE.heavy>
31

>  <SCORE.norm>
-1.79805

>  <SYMMETRIC_BONDS>
33 34 3

>  <RMSD>
1.632

$$$$
1fmn_cryst
 OpenBabel11021811393D
libRbt.so/2013.1/901 2013/11/27
 31 33  0  0  0  0  0  0  0  0999 V2000
   -8.8924   -6.2032    3.5310 N   0  0  0  0  0  0  0  0  0  0  0  0
   -9.6466   -6.2284    4.6808 C   0  0  0  0  0  0  0  0  0  0  0  0
   -9.2619   -6.8002    5.7013 O   0  0  0  0  0  0  0  0  0  0  0  0
  -10.8947   -5.5596    4.6145 N   0  0  0  0  0  0  0  0  0  0  0  0
  -11.4308   -4.8816    3.4978 C   0  0  0  0  0  0  0  0  0  0  0  0
  -12.5386   -4.3361    3.5784 O   0  0  0  0  0  0  0  0  0  0  0  0
  -10.5684   -4.9011    2.3141 C   0  0  0  0  0  0  0  0  0  0  0  0
  -11.0176   -4.2631    1.1849 N   0  0  0  0  0  0  0  0  0  0  0  0
  -10.3008   -4.4353    0.0364 C   0  0  0  0  0  0  0  0  0  0  0  0
  -10.8421   -3.9522   -1.1417 C   0  0  0  0  0  0  0  0  0  0  0  0
  -10.1868   -4.0870   -2.3181 C   0  0  0  0  0  0  0  0  0  0  0  0
  -10.8144   -3.5443   -3.5623 C   0  0  0  0  0  0  0  0  0  0  0  0
   -8.9761   -4.7060   -2.3636 C   0  0  0  0  0  0  0  0  0  0  0  0
   -8.2629   -4.8566   -3.6677 C   0  0  0  0  0  0  0  0  0  0  0  0
   -8.4059   -5.1950   -1.2329 C   0  0  0  0  0  0  0  0  0  0  0  0
   -9.0391   -5.0816    0.0047 C   0  0  0  0  0  0  0  0  0  0  0  0
   -8.5021   -5.5635    1.2169 N   0  0  0  0  0  0  0  0  0  0  0  0
   -9.2957   -5.5801    2.3822 C   0  0  0  0  0  0  0  0  0  0  0  0
   -7.0048   -5.5094    1.3998 C   0  0  0  0  0  0  0  0  0  0  0  0
   -6.3089   -6.8434    1.8074 C   0  0  1  0  0  0  0  0  0  0  0  0
   -6.4186   -7.7934    0.7569 O   0  0  0  0  0  0  0  0  0  0  0  0
   -4.8444   -6.6517    2.2685 C   0  0  1  0  0  0  0  0  0  0  0  0
   -4.7684   -5.6291    3.2575 O   0  0  0  0  0  0  0  0  0  0  0  0
   -4.0923   -7.9142    2.7566 C   0  0  1  0  0  0  0  0  0  0  0  0
   -3.8571   -8.7587    1.6353 O   0  0  0  0  0  0  0  0  0  0  0  0
   -2.7384   -7.5878    3.4261 C   0  0  0  0  0  0  0  0  0  0  0  0
   -2.1102   -8.7416    3.9722 O   0  0  0  0  0  0  0  0  0  0  0  0
   -0.8203   -8.6612    4.8893 P   0  0  0  0  0  0  0  0  0  0  0  0
   -0.9955   -7.6546    5.9609 O   0  0  0  0  0  0  0  0  0  0  0  0
   -0.3587  -10.0164    5.2597 O   0  5  0  0  0  0  0  0  0  0  0  0
    0.2936   -8.0623    3.9221 O   0  5  0  0  0  0  0  0  0  0  0  0
  1 18  1  0  0  0  0
  1  2  1  0  0  0  0
  2  4  1  0  0  0  0
  2  3  2  0  0  0  0
  4  5  1  0  0  0  0
  5  7  1  0  0  0  0
  5  6  2  0  0  0  0
  7 18  2  0  0  0  0
  7  8  1  0  0  0  0
  8  9  1  0  0  0  0
  9 10  2  0  0  0  0
  9 16  1  0  0  0  0
 10 11  1  0  0  0  0
 11 12  1  0  0  0  0
 11 13  2  0  0  0  0
 13 14  1  0  0  0  0
 13 15  1  0  0  0  0
 15 16  2  0  0  0  0
 16 17  1  0  0  0  0
 17 19  1  0  0  0  0
 17 18  1  0  0  0  0
 20 19  1  6  0  0  0
 20 22  1  0  0  0  0
 20 21  1  0  0  0  0
 22 24  1  0  0  0  0
 22 23  1  1  0  0  0
 24 26  1  6  0  0  0
 24 25  1  0  0  0  0
 26 27  1  0  0  0  0
 27 28  1  0  0  0  0
 28 30  1  0  0  0  0
 28 29  2  0  0  0  0
 28 31  1  0  0  0  0
M  CHG  2  30  -1  31  -1
M  END
>  <CHROM.1>
-127.21510409,65.93270451,50.74157221,57.20186366,69.60960215,57.93850264
174.95424641,-175.60360203,-171.08296925,48.69727283,-6.76999848,-6.31419621
2.13876902,2.66431576,0.32615589,-1.38663907

>  <Name>
1fmn_cryst

>  <RI>
0

>  <Rbt.Current_Directory>
/home/itssahil/PROJECTS/Mol_Feturizer/New_Systems/rnas/1fmn

>  <Rbt.Executable>
rbdock ($Id: //depot/dev/client3/rdock/2013.1/src/exe/rbdock.cxx#4 $)

>  <Rbt.Library>
libRbt.so (2013.1, Build901 2013/11/27)

>  <Rbt.Parameter_File>
/export/apps/rDock/src/rDock_2013.1_src/data/scripts/dock_solv.prm

>  <Rbt.Receptor>
prm/pocket_docking_3.prm

>  <SCORE>
-55.2324

>  <SCORE.INTER>
-48.3701

>  <SCORE.INTER.CONST>
1

>  <SCORE.INTER.POLAR>
-2.59342

>  <SCORE.INTER.ROT>
7

>  <SCORE.INTER.SOLV>
14.5565

>  <SCORE.INTER.VDW>
-36.7208

>  <SCORE.INTER.norm>
-1.56033

>  <SCORE.INTRA>
-6.86234

>  <SCORE.INTRA.DIHEDRAL>
-11.8746

>  <SCORE.INTRA.DIHEDRAL.0>
15.5708

>  <SCORE.INTRA.POLAR>
0.0677885

>  <SCORE.INTRA.POLAR.0>
-0.0677885

>  <SCORE.INTRA.REPUL>
0

>  <SCORE.INTRA.REPUL.0>
0

>  <SCORE.INTRA.SOLV>
-4.79552

>  <SCORE.INTRA.SOLV.lig_0>
-87.6316

>  <SCORE.INTRA.VDW>
1.24222

>  <SCORE.INTRA.VDW.0>
-2.87309

>  <SCORE.INTRA.norm>
-0.221366

>  <SCORE.RESTR>
0

>  <SCORE.RESTR.CAVITY>
0

>  <SCORE.RESTR.norm>
0

>  <SCORE.SYSTEM>
0

>  <SCORE.SYSTEM.CONST>
0

>  <SCORE.SYSTEM.DIHEDRAL>
0

>  <SCORE.SYSTEM.SOLV>
0

>  <SCORE.SYSTEM.norm>
0

>  <SCORE.heavy>
31

>  <SCORE.norm>
-1.78169

>  <SYMMETRIC_BONDS>
33 34 3

>  <RMSD>
1.635

$$$$
1fmn_cryst
 OpenBabel11021811393D
libRbt.so/2013.1/901 2013/11/27
 31 33  0  0  0  0  0  0  0  0999 V2000
   -8.7635   -6.1330    3.3492 N   0  0  0  0  0  0  0  0  0  0  0  0
   -9.5074   -6.2202    4.5027 C   0  0  0  0  0  0  0  0  0  0  0  0
   -9.0730   -6.7609    5.5202 O   0  0  0  0  0  0  0  0  0  0  0  0
  -10.8054   -5.6534    4.4439 N   0  0  0  0  0  0  0  0  0  0  0  0
  -11.3997   -5.0188    3.3311 C   0  0  0  0  0  0  0  0  0  0  0  0
  -12.5471   -4.5637    3.4184 O   0  0  0  0  0  0  0  0  0  0  0  0
  -10.5445   -4.9674    2.1432 C   0  0  0  0  0  0  0  0  0  0  0  0
  -11.0491   -4.3656    1.0174 N   0  0  0  0  0  0  0  0  0  0  0  0
  -10.3267   -4.4781   -0.1349 C   0  0  0  0  0  0  0  0  0  0  0  0
  -10.9109   -4.0381   -1.3094 C   0  0  0  0  0  0  0  0  0  0  0  0
  -10.2530   -4.1182   -2.4893 C   0  0  0  0  0  0  0  0  0  0  0  0
  -10.9283   -3.6256   -3.7293 C   0  0  0  0  0  0  0  0  0  0  0  0
   -8.9969   -4.6383   -2.5420 C   0  0  0  0  0  0  0  0  0  0  0  0
   -8.2806   -4.7293   -3.8500 C   0  0  0  0  0  0  0  0  0  0  0  0
   -8.3836   -5.0818   -1.4151 C   0  0  0  0  0  0  0  0  0  0  0  0
   -9.0176   -5.0214   -0.1742 C   0  0  0  0  0  0  0  0  0  0  0  0
   -8.4375   -5.4606    1.0344 N   0  0  0  0  0  0  0  0  0  0  0  0
   -9.2212   -5.5424    2.2036 C   0  0  0  0  0  0  0  0  0  0  0  0
   -6.9484   -5.2871    1.2100 C   0  0  0  0  0  0  0  0  0  0  0  0
   -6.1570   -6.5428    1.6864 C   0  0  1  0  0  0  0  0  0  0  0  0
   -6.4803   -7.6623    0.8740 O   0  0  0  0  0  0  0  0  0  0  0  0
   -4.6302   -6.3061    1.7707 C   0  0  1  0  0  0  0  0  0  0  0  0
   -4.0997   -6.0411    0.4754 O   0  0  0  0  0  0  0  0  0  0  0  0
   -4.1421   -5.2291    2.7706 C   0  0  1  0  0  0  0  0  0  0  0  0
   -4.8703   -4.0300    2.5305 O   0  0  0  0  0  0  0  0  0  0  0  0
   -4.3389   -5.6435    4.2462 C   0  0  0  0  0  0  0  0  0  0  0  0
   -3.5632   -6.7829    4.5988 O   0  0  0  0  0  0  0  0  0  0  0  0
   -3.5331   -7.3772    6.0675 P   0  0  0  0  0  0  0  0  0  0  0  0
   -4.8920   -7.7653    6.5087 O   0  0  0  0  0  0  0  0  0  0  0  0
   -2.4353   -8.3577    6.2106 O   0  5  0  0  0  0  0  0  0  0  0  0
   -3.1333   -6.1291    6.9714 O   0  5  0  0  0  0  0  0  0  0  0  0
  1 18  1  0  0  0  0
  1  2  1  0  0  0  0
  2  4  1  0  0  0  0
  2  3  2  0  0  0  0
  4  5  1  0  0  0  0
  5  7  1  0  0  0  0
  5  6  2  0  0  0  0
  7 18  2  0  0  0  0
  7  8  1  0  0  0  0
  8  9  1  0  0  0  0
  9 10  2  0  0  0  0
  9 16  1  0  0  0  0
 10 11  1  0  0  0  0
 11 12  1  0  0  0  0
 11 13  2  0  0  0  0
 13 14  1  0  0  0  0
 13 15  1  0  0  0  0
 15 16  2  0  0  0  0
 16 17  1  0  0  0  0
 17 19  1  0  0  0  0
 17 18  1  0  0  0  0
 20 19  1  6  0  0  0
 20 22  1  0  0  0  0
 20 21  1  0  0  0  0
 22 24  1  0  0  0  0
 22 23  1  6  0  0  0
 24 26  1  1  0  0  0
 24 25  1  0  0  0  0
 26 27  1  0  0  0  0
 27 28  1  0  0  0  0
 28 30  1  0  0  0  0
 28 29  2  0  0  0  0
 28 31  1  0  0  0  0
M  CHG  2  30  -1  31  -1
M  END
>  <CHROM.1>
-130.41899926,50.54988829,-64.19880170,62.90573750,-51.38966168,-173.43812860
63.92673524,-63.53409105,177.33057865,58.58897570,-7.37208363,-5.71434366
2.23907913,2.33155986,0.17001967,-1.36320852

>  <Name>
1fmn_cryst

>  <RI>
0

>  <Rbt.Current_Directory>
/home/itssahil/PROJECTS/Mol_Feturizer/New_Systems/rnas/1fmn

>  <Rbt.Executable>
rbdock ($Id: //depot/dev/client3/rdock/2013.1/src/exe/rbdock.cxx#4 $)

>  <Rbt.Library>
libRbt.so (2013.1, Build901 2013/11/27)

>  <Rbt.Parameter_File>
/export/apps/rDock/src/rDock_2013.1_src/data/scripts/dock_solv.prm

>  <Rbt.Receptor>
prm/pocket_docking_8.prm

>  <SCORE>
-61.8167

>  <SCORE.INTER>
-55.1059

>  <SCORE.INTER.CONST>
1

>  <SCORE.INTER.POLAR>
-3.89304

>  <SCORE.INTER.ROT>
7

>  <SCORE.INTER.SOLV>
17.2995

>  <SCORE.INTER.VDW>
-37.7936

>  <SCORE.INTER.norm>
-1.77761

>  <SCORE.INTRA>
-6.71076

>  <SCORE.INTRA.DIHEDRAL>
-12.3051

>  <SCORE.INTRA.DIHEDRAL.0>
15.5708

>  <SCORE.INTRA.POLAR>
0.0677885

>  <SCORE.INTRA.POLAR.0>
-0.0677885

>  <SCORE.INTRA.REPUL>
0

>  <SCORE.INTRA.REPUL.0>
0

>  <SCORE.INTRA.SOLV>
-4.26126

>  <SCORE.INTRA.SOLV.lig_0>
-87.6316

>  <SCORE.INTRA.VDW>
1.34192

>  <SCORE.INTRA.VDW.0>
-2.87309

>  <SCORE.INTRA.norm>
-0.216476

>  <SCORE.RESTR>
0

>  <SCORE.RESTR.CAVITY>
0

>  <SCORE.RESTR.norm>
0

>  <SCORE.SYSTEM>
0

>  <SCORE.SYSTEM.CONST>
0

>  <SCORE.SYSTEM.DIHEDRAL>
0

>  <SCORE.SYSTEM.SOLV>
0

>  <SCORE.SYSTEM.norm>
0

>  <SCORE.heavy>
31

>  <SCORE.norm>
-1.99409

>  <SYMMETRIC_BONDS>
33 34 3

>  <RMSD>
1.635

$$$$
1fmn_cryst
 OpenBabel11021811393D
libRbt.so/2013.1/901 2013/11/27
 31 33  0  0  0  0  0  0  0  0999 V2000
   -8.7500   -6.2067    3.6058 N   0  0  0  0  0  0  0  0  0  0  0  0
   -9.5374   -6.2746    4.7314 C   0  0  0  0  0  0  0  0  0  0  0  0
   -9.1504   -6.8171    5.7669 O   0  0  0  0  0  0  0  0  0  0  0  0
  -10.8222   -5.6858    4.6218 N   0  0  0  0  0  0  0  0  0  0  0  0
  -11.3638   -5.0472    3.4847 C   0  0  0  0  0  0  0  0  0  0  0  0
  -12.5056   -4.5720    3.5271 O   0  0  0  0  0  0  0  0  0  0  0  0
  -10.4646   -5.0172    2.3290 C   0  0  0  0  0  0  0  0  0  0  0  0
  -10.9167   -4.4131    1.1824 N   0  0  0  0  0  0  0  0  0  0  0  0
  -10.1542   -4.5444    0.0581 C   0  0  0  0  0  0  0  0  0  0  0  0
  -10.6869   -4.1009   -1.1393 C   0  0  0  0  0  0  0  0  0  0  0  0
   -9.9873   -4.1989   -2.2936 C   0  0  0  0  0  0  0  0  0  0  0  0
  -10.6076   -3.7015   -3.5602 C   0  0  0  0  0  0  0  0  0  0  0  0
   -8.7394   -4.7408   -2.2972 C   0  0  0  0  0  0  0  0  0  0  0  0
   -7.9769   -4.8515   -3.5773 C   0  0  0  0  0  0  0  0  0  0  0  0
   -8.1759   -5.1886   -1.1462 C   0  0  0  0  0  0  0  0  0  0  0  0
   -8.8542   -5.1103    0.0701 C   0  0  0  0  0  0  0  0  0  0  0  0
   -8.3270   -5.5528    1.3015 N   0  0  0  0  0  0  0  0  0  0  0  0
   -9.1547   -5.6147    2.4413 C   0  0  0  0  0  0  0  0  0  0  0  0
   -6.8426   -5.4040    1.5313 C   0  0  0  0  0  0  0  0  0  0  0  0
   -5.9447   -6.5784    1.0364 C   0  0  1  0  0  0  0  0  0  0  0  0
   -4.6084   -6.1310    0.8575 O   0  0  0  0  0  0  0  0  0  0  0  0
   -6.0233   -7.8302    1.9424 C   0  0  1  0  0  0  0  0  0  0  0  0
   -5.3545   -8.9274    1.3271 O   0  0  0  0  0  0  0  0  0  0  0  0
   -5.5375   -7.6692    3.4039 C   0  0  1  0  0  0  0  0  0  0  0  0
   -6.5277   -8.2142    4.2691 O   0  0  0  0  0  0  0  0  0  0  0  0
   -4.1937   -8.3824    3.6743 C   0  0  0  0  0  0  0  0  0  0  0  0
   -4.3036   -9.7985    3.5911 O   0  0  0  0  0  0  0  0  0  0  0  0
   -3.0736  -10.7684    3.8307 P   0  0  0  0  0  0  0  0  0  0  0  0
   -2.4509  -10.5166    5.1501 O   0  0  0  0  0  0  0  0  0  0  0  0
   -3.4272  -12.1579    3.4684 O   0  5  0  0  0  0  0  0  0  0  0  0
   -2.0006  -10.2895    2.7564 O   0  5  0  0  0  0  0  0  0  0  0  0
  1 18  1  0  0  0  0
  1  2  1  0  0  0  0
  2  4  1  0  0  0  0
  2  3  2  0  0  0  0
  4  5  1  0  0  0  0
  5  7  1  0  0  0  0
  5  6  2  0  0  0  0
  7 18  2  0  0  0  0
  7  8  1  0  0  0  0
  8  9  1  0  0  0  0
  9 10  2  0  0  0  0
  9 16  1  0  0  0  0
 10 11  1  0  0  0  0
 11 12  1  0  0  0  0
 11 13  2  0  0  0  0
 13 14  1  0  0  0  0
 13 15  1  0  0  0  0
 15 16  2  0  0  0  0
 16 17  1  0  0  0  0
 17 19  1  0  0  0  0
 17 18  1  0  0  0  0
 20 19  1  1  0  0  0
 20 22  1  0  0  0  0
 20 21  1  0  0  0  0
 22 24  1  0  0  0  0
 22 23  1  6  0  0  0
 24 26  1  6  0  0  0
 24 25  1  0  0  0  0
 26 27  1  0  0  0  0
 27 28  1  0  0  0  0
 28 30  1  0  0  0  0
 28 29  2  0  0  0  0
 28 31  1  0  0  0  0
M  CHG  2  30  -1  31  -1
M  END
>  <CHROM.1>
-87.53914098,158.75484371,170.82619424,-53.56550023,131.27149011,-72.10821952
-67.04592445,171.83159812,-179.78136455,55.34634980,-7.31861938,-6.87015533
1.96769122,2.54753726,0.54827620,-1.24413729

>  <Name>
1fmn_cryst

>  <RI>
0

>  <Rbt.Current_Directory>
/home/itssahil/PROJECTS/Mol_Feturizer/New_Systems/rnas/1fmn

>  <Rbt.Executable>
rbdock ($Id: //depot/dev/client3/rdock/2013.1/src/exe/rbdock.cxx#4 $)

>  <Rbt.Library>
libRbt.so (2013.1, Build901 2013/11/27)

>  <Rbt.Parameter_File>
/export/apps/rDock/src/rDock_2013.1_src/data/scripts/dock_solv.prm

>  <Rbt.Receptor>
prm/pocket_docking_6.prm

>  <SCORE>
-61.3592

>  <SCORE.INTER>
-56.2671

>  <SCORE.INTER.CONST>
1

>  <SCORE.INTER.POLAR>
-3.45369

>  <SCORE.INTER.ROT>
7

>  <SCORE.INTER.SOLV>
20.3425

>  <SCORE.INTER.VDW>
-41.0466

>  <SCORE.INTER.norm>
-1.81507

>  <SCORE.INTRA>
-5.09207

>  <SCORE.INTRA.DIHEDRAL>
-5.00656

>  <SCORE.INTRA.DIHEDRAL.0>
15.5708

>  <SCORE.INTRA.POLAR>
-0.625055

>  <SCORE.INTRA.POLAR.0>
-0.0677885

>  <SCORE.INTRA.REPUL>
0

>  <SCORE.INTRA.REPUL.0>
0

>  <SCORE.INTRA.SOLV>
-2.77274

>  <SCORE.INTRA.SOLV.lig_0>
-87.6316

>  <SCORE.INTRA.VDW>
0.922763

>  <SCORE.INTRA.VDW.0>
-2.87309

>  <SCORE.INTRA.norm>
-0.16426

>  <SCORE.RESTR>
0

>  <SCORE.RESTR.CAVITY>
0

>  <SCORE.RESTR.norm>
0

>  <SCORE.SYSTEM>
0

>  <SCORE.SYSTEM.CONST>
0

>  <SCORE.SYSTEM.DIHEDRAL>
0

>  <SCORE.SYSTEM.SOLV>
0

>  <SCORE.SYSTEM.norm>
0

>  <SCORE.heavy>
31

>  <SCORE.norm>
-1.97933

>  <SYMMETRIC_BONDS>
33 34 3

>  <RMSD>
1.646

$$$$
1fmn_cryst
 OpenBabel11021811393D
libRbt.so/2013.1/901 2013/11/27
 31 33  0  0  0  0  0  0  0  0999 V2000
   -8.7695   -6.1814    3.4804 N   0  0  0  0  0  0  0  0  0  0  0  0
   -9.5256   -6.2521    4.6271 C   0  0  0  0  0  0  0  0  0  0  0  0
   -9.1164   -6.8108    5.6454 O   0  0  0  0  0  0  0  0  0  0  0  0
  -10.8054   -5.6462    4.5605 N   0  0  0  0  0  0  0  0  0  0  0  0
  -11.3708   -4.9883    3.4462 C   0  0  0  0  0  0  0  0  0  0  0  0
  -12.5048   -4.4993    3.5261 O   0  0  0  0  0  0  0  0  0  0  0  0
  -10.5043   -4.9566    2.2658 C   0  0  0  0  0  0  0  0  0  0  0  0
  -10.9809   -4.3341    1.1390 N   0  0  0  0  0  0  0  0  0  0  0  0
  -10.2523   -4.4624   -0.0078 C   0  0  0  0  0  0  0  0  0  0  0  0
  -10.8129   -3.9990   -1.1848 C   0  0  0  0  0  0  0  0  0  0  0  0
  -10.1476   -4.0929   -2.3595 C   0  0  0  0  0  0  0  0  0  0  0  0
  -10.7971   -3.5738   -3.6025 C   0  0  0  0  0  0  0  0  0  0  0  0
   -8.9073   -4.6502   -2.4044 C   0  0  0  0  0  0  0  0  0  0  0  0
   -8.1828   -4.7560   -3.7067 C   0  0  0  0  0  0  0  0  0  0  0  0
   -8.3173   -5.1177   -1.2748 C   0  0  0  0  0  0  0  0  0  0  0  0
   -8.9598   -5.0446   -0.0389 C   0  0  0  0  0  0  0  0  0  0  0  0
   -8.4036   -5.5072    1.1722 N   0  0  0  0  0  0  0  0  0  0  0  0
   -9.1995   -5.5715    2.3343 C   0  0  0  0  0  0  0  0  0  0  0  0
   -6.9115   -5.3795    1.3612 C   0  0  0  0  0  0  0  0  0  0  0  0
   -6.0395   -6.5358    0.7843 C   0  0  1  0  0  0  0  0  0  0  0  0
   -4.7605   -6.0440    0.4097 O   0  0  0  0  0  0  0  0  0  0  0  0
   -5.9400   -7.7557    1.7309 C   0  0  1  0  0  0  0  0  0  0  0  0
   -5.1881   -8.7976    1.1155 O   0  0  0  0  0  0  0  0  0  0  0  0
   -5.4044   -7.4923    3.1597 C   0  0  1  0  0  0  0  0  0  0  0  0
   -5.5040   -8.6998    3.9066 O   0  0  0  0  0  0  0  0  0  0  0  0
   -3.9338   -7.0183    3.1742 C   0  0  0  0  0  0  0  0  0  0  0  0
   -3.0600   -7.9381    2.5304 O   0  0  0  0  0  0  0  0  0  0  0  0
   -1.4823   -7.7977    2.5786 P   0  0  0  0  0  0  0  0  0  0  0  0
   -0.9849   -7.8971    3.9696 O   0  0  0  0  0  0  0  0  0  0  0  0
   -0.8520   -8.6402    1.5394 O   0  5  0  0  0  0  0  0  0  0  0  0
   -1.2244   -6.2884    2.1423 O   0  5  0  0  0  0  0  0  0  0  0  0
  1 18  1  0  0  0  0
  1  2  1  0  0  0  0
  2  4  1  0  0  0  0
  2  3  2  0  0  0  0
  4  5  1  0  0  0  0
  5  7  1  0  0  0  0
  5  6  2  0  0  0  0
  7 18  2  0  0  0  0
  7  8  1  0  0  0  0
  8  9  1  0  0  0  0
  9 10  2  0  0  0  0
  9 16  1  0  0  0  0
 10 11  1  0  0  0  0
 11 12  1  0  0  0  0
 11 13  2  0  0  0  0
 13 14  1  0  0  0  0
 13 15  1  0  0  0  0
 15 16  2  0  0  0  0
 16 17  1  0  0  0  0
 17 19  1  0  0  0  0
 17 18  1  0  0  0  0
 20 19  1  1  0  0  0
 20 22  1  0  0  0  0
 20 21  1  0  0  0  0
 22 24  1  0  0  0  0
 22 23  1  6  0  0  0
 24 26  1  6  0  0  0
 24 25  1  0  0  0  0
 26 27  1  0  0  0  0
 27 28  1  0  0  0  0
 28 30  1  0  0  0  0
 28 29  2  0  0  0  0
 28 31  1  0  0  0  0
M  CHG  2  30  -1  31  -1
M  END
>  <CHROM.1>
-85.48179074,150.66325925,177.06668234,55.06765542,174.72122607,73.34880336
-56.95428791,-62.23373159,-171.27771777,62.05538478,-6.98880926,-6.17168859
1.59501619,2.80666929,0.29745831,-1.30281393

>  <Name>
1fmn_cryst

>  <RI>
0

>  <Rbt.Current_Directory>
/home/itssahil/PROJECTS/Mol_Feturizer/New_Systems/rnas/1fmn

>  <Rbt.Executable>
rbdock ($Id: //depot/dev/client3/rdock/2013.1/src/exe/rbdock.cxx#4 $)

>  <Rbt.Library>
libRbt.so (2013.1, Build901 2013/11/27)

>  <Rbt.Parameter_File>
/export/apps/rDock/src/rDock_2013.1_src/data/scripts/dock_solv.prm

>  <Rbt.Receptor>
prm/pocket_docking_5.prm

>  <SCORE>
-56.2958

>  <SCORE.INTER>
-48.9435

>  <SCORE.INTER.CONST>
1

>  <SCORE.INTER.POLAR>
-2.20283

>  <SCORE.INTER.ROT>
7

>  <SCORE.INTER.SOLV>
16.3257

>  <SCORE.INTER.VDW>
-38.9948

>  <SCORE.INTER.norm>
-1.57882

>  <SCORE.INTRA>
-7.35232

>  <SCORE.INTRA.DIHEDRAL>
-8.88076

>  <SCORE.INTRA.DIHEDRAL.0>
15.5708

>  <SCORE.INTRA.POLAR>
-0.562501

>  <SCORE.INTRA.POLAR.0>
-0.0677885

>  <SCORE.INTRA.REPUL>
0

>  <SCORE.INTRA.REPUL.0>
0

>  <SCORE.INTRA.SOLV>
-2.81742

>  <SCORE.INTRA.SOLV.lig_0>
-87.6316

>  <SCORE.INTRA.VDW>
0.409273

>  <SCORE.INTRA.VDW.0>
-2.87309

>  <SCORE.INTRA.norm>
-0.237172

>  <SCORE.RESTR>
0

>  <SCORE.RESTR.CAVITY>
0

>  <SCORE.RESTR.norm>
0

>  <SCORE.SYSTEM>
0

>  <SCORE.SYSTEM.CONST>
0

>  <SCORE.SYSTEM.DIHEDRAL>
0

>  <SCORE.SYSTEM.SOLV>
0

>  <SCORE.SYSTEM.norm>
0

>  <SCORE.heavy>
31

>  <SCORE.norm>
-1.81599

>  <SYMMETRIC_BONDS>
33 34 3

>  <RMSD>
1.653

$$$$
1fmn_cryst
 OpenBabel11021811393D
libRbt.so/2013.1/901 2013/11/27
 31 33  0  0  0  0  0  0  0  0999 V2000
   -8.8343   -6.2459    3.6384 N   0  0  0  0  0  0  0  0  0  0  0  0
   -9.6290   -6.2433    4.7608 C   0  0  0  0  0  0  0  0  0  0  0  0
   -9.2937   -6.8138    5.7994 O   0  0  0  0  0  0  0  0  0  0  0  0
  -10.8585   -5.5474    4.6445 N   0  0  0  0  0  0  0  0  0  0  0  0
  -11.3393   -4.8682    3.5035 C   0  0  0  0  0  0  0  0  0  0  0  0
  -12.4365   -4.2972    3.5400 O   0  0  0  0  0  0  0  0  0  0  0  0
  -10.4362   -4.9183    2.3515 C   0  0  0  0  0  0  0  0  0  0  0  0
  -10.8307   -4.2811    1.2015 N   0  0  0  0  0  0  0  0  0  0  0  0
  -10.0778   -4.4802    0.0807 C   0  0  0  0  0  0  0  0  0  0  0  0
  -10.5661   -3.9964   -1.1201 C   0  0  0  0  0  0  0  0  0  0  0  0
   -9.8730   -4.1570   -2.2712 C   0  0  0  0  0  0  0  0  0  0  0  0
  -10.4437   -3.6122   -3.5416 C   0  0  0  0  0  0  0  0  0  0  0  0
   -8.6758   -4.8033   -2.2683 C   0  0  0  0  0  0  0  0  0  0  0  0
   -7.9205   -4.9822   -3.5449 C   0  0  0  0  0  0  0  0  0  0  0  0
   -8.1571   -5.2942   -1.1138 C   0  0  0  0  0  0  0  0  0  0  0  0
   -8.8309   -5.1549    0.0995 C   0  0  0  0  0  0  0  0  0  0  0  0
   -8.3481   -5.6371    1.3341 N   0  0  0  0  0  0  0  0  0  0  0  0
   -9.1825   -5.6249    2.4706 C   0  0  0  0  0  0  0  0  0  0  0  0
   -6.8574   -5.6148    1.5696 C   0  0  0  0  0  0  0  0  0  0  0  0
   -6.1145   -6.9783    1.4309 C   0  0  1  0  0  0  0  0  0  0  0  0
   -5.1796   -6.9197    0.3629 O   0  0  0  0  0  0  0  0  0  0  0  0
   -5.4620   -7.4547    2.7505 C   0  0  1  0  0  0  0  0  0  0  0  0
   -6.4530   -7.6145    3.7614 O   0  0  0  0  0  0  0  0  0  0  0  0
   -4.5754   -8.7222    2.6763 C   0  0  1  0  0  0  0  0  0  0  0  0
   -3.5102   -8.4728    1.7658 O   0  0  0  0  0  0  0  0  0  0  0  0
   -3.9776   -9.1203    4.0444 C   0  0  0  0  0  0  0  0  0  0  0  0
   -4.9770   -9.4861    4.9885 O   0  0  0  0  0  0  0  0  0  0  0  0
   -4.6388   -9.8703    6.4882 P   0  0  0  0  0  0  0  0  0  0  0  0
   -3.8962   -8.7790    7.1589 O   0  0  0  0  0  0  0  0  0  0  0  0
   -5.8273  -10.4362    7.1621 O   0  5  0  0  0  0  0  0  0  0  0  0
   -3.5982  -11.0668    6.3457 O   0  5  0  0  0  0  0  0  0  0  0  0
  1 18  1  0  0  0  0
  1  2  1  0  0  0  0
  2  4  1  0  0  0  0
  2  3  2  0  0  0  0
  4  5  1  0  0  0  0
  5  7  1  0  0  0  0
  5  6  2  0  0  0  0
  7 18  2  0  0  0  0
  7  8  1  0  0  0  0
  8  9  1  0  0  0  0
  9 10  2  0  0  0  0
  9 16  1  0  0  0  0
 10 11  1  0  0  0  0
 11 12  1  0  0  0  0
 11 13  2  0  0  0  0
 13 14  1  0  0  0  0
 13 15  1  0  0  0  0
 15 16  2  0  0  0  0
 16 17  1  0  0  0  0
 17 19  1  0  0  0  0
 17 18  1  0  0  0  0
 20 19  1  1  0  0  0
 20 22  1  0  0  0  0
 20 21  1  0  0  0  0
 22 24  1  0  0  0  0
 22 23  1  1  0  0  0
 24 26  1  1  0  0  0
 24 25  1  0  0  0  0
 26 27  1  0  0  0  0
 27 28  1  0  0  0  0
 28 30  1  0  0  0  0
 28 29  2  0  0  0  0
 28 31  1  0  0  0  0
M  CHG  2  30  -1  31  -1
M  END
>  <CHROM.1>
-102.83567451,116.88316742,59.83720879,-78.70850290,59.71114660,73.42139145
64.04165225,-48.95024639,-177.02944065,56.46361448,-7.53442539,-6.73498380
2.53832095,2.23583009,0.49281326,-1.25333834

>  <Name>
1fmn_cryst

>  <RI>
0

>  <Rbt.Current_Directory>
/home/itssahil/PROJECTS/Mol_Feturizer/New_Systems/rnas/1fmn

>  <Rbt.Executable>
rbdock ($Id: //depot/dev/client3/rdock/2013.1/src/exe/rbdock.cxx#4 $)

>  <Rbt.Library>
libRbt.so (2013.1, Build901 2013/11/27)

>  <Rbt.Parameter_File>
/export/apps/rDock/src/rDock_2013.1_src/data/scripts/dock_solv.prm

>  <Rbt.Receptor>
prm/pocket_docking_8.prm

>  <SCORE>
-62.9897

>  <SCORE.INTER>
-53.6513

>  <SCORE.INTER.CONST>
1

>  <SCORE.INTER.POLAR>
-2.96157

>  <SCORE.INTER.ROT>
7

>  <SCORE.INTER.SOLV>
20.2609

>  <SCORE.INTER.VDW>
-40.916

>  <SCORE.INTER.norm>
-1.73069

>  <SCORE.INTRA>
-9.33836

>  <SCORE.INTRA.DIHEDRAL>
-4.67045

>  <SCORE.INTRA.DIHEDRAL.0>
15.5708

>  <SCORE.INTRA.POLAR>
-1.70055

>  <SCORE.INTRA.POLAR.0>
-0.0677885

>  <SCORE.INTRA.REPUL>
0

>  <SCORE.INTRA.REPUL.0>
0

>  <SCORE.INTRA.SOLV>
-3.05224

>  <SCORE.INTRA.SOLV.lig_0>
-87.6316

>  <SCORE.INTRA.VDW>
0.30486

>  <SCORE.INTRA.VDW.0>
-2.87309

>  <SCORE.INTRA.norm>
-0.301237

>  <SCORE.RESTR>
0

>  <SCORE.RESTR.CAVITY>
0

>  <SCORE.RESTR.norm>
0

>  <SCORE.SYSTEM>
0

>  <SCORE.SYSTEM.CONST>
0

>  <SCORE.SYSTEM.DIHEDRAL>
0

>  <SCORE.SYSTEM.SOLV>
0

>  <SCORE.SYSTEM.norm>
0

>  <SCORE.heavy>
31

>  <SCORE.norm>
-2.03193

>  <SYMMETRIC_BONDS>
33 34 3

>  <RMSD>
1.653

$$$$
1fmn_cryst
 OpenBabel11021811393D
libRbt.so/2013.1/901 2013/11/27
 31 33  0  0  0  0  0  0  0  0999 V2000
   -8.8311   -6.1798    3.7452 N   0  0  0  0  0  0  0  0  0  0  0  0
   -9.7738   -6.1818    4.7465 C   0  0  0  0  0  0  0  0  0  0  0  0
   -9.5468   -6.6662    5.8557 O   0  0  0  0  0  0  0  0  0  0  0  0
  -11.0226   -5.5962    4.4192 N   0  0  0  0  0  0  0  0  0  0  0  0
  -11.3868   -5.0211    3.1820 C   0  0  0  0  0  0  0  0  0  0  0  0
  -12.5173   -4.5407    3.0319 O   0  0  0  0  0  0  0  0  0  0  0  0
  -10.3294   -5.0590    2.1692 C   0  0  0  0  0  0  0  0  0  0  0  0
  -10.6040   -4.5191    0.9374 N   0  0  0  0  0  0  0  0  0  0  0  0
   -9.6884   -4.7160   -0.0553 C   0  0  0  0  0  0  0  0  0  0  0  0
  -10.0372   -4.3391   -1.3401 C   0  0  0  0  0  0  0  0  0  0  0  0
   -9.1791   -4.5041   -2.3734 C   0  0  0  0  0  0  0  0  0  0  0  0
   -9.6039   -4.0771   -3.7422 C   0  0  0  0  0  0  0  0  0  0  0  0
   -7.9499   -5.0492   -2.1658 C   0  0  0  0  0  0  0  0  0  0  0  0
   -7.0114   -5.2341   -3.3136 C   0  0  0  0  0  0  0  0  0  0  0  0
   -7.5640   -5.4331   -0.9222 C   0  0  0  0  0  0  0  0  0  0  0  0
   -8.4102   -5.2842    0.1765 C   0  0  0  0  0  0  0  0  0  0  0  0
   -8.0718   -5.6581    1.4940 N   0  0  0  0  0  0  0  0  0  0  0  0
   -9.0563   -5.6531    2.5032 C   0  0  0  0  0  0  0  0  0  0  0  0
   -6.6347   -5.5012    1.9282 C   0  0  0  0  0  0  0  0  0  0  0  0
   -5.5813   -5.3433    0.7899 C   0  0  1  0  0  0  0  0  0  0  0  0
   -4.5300   -4.4861    1.2116 O   0  0  0  0  0  0  0  0  0  0  0  0
   -5.0514   -6.6959    0.2570 C   0  0  1  0  0  0  0  0  0  0  0  0
   -3.7301   -6.5418   -0.2529 O   0  0  0  0  0  0  0  0  0  0  0  0
   -5.1046   -7.9010    1.2279 C   0  0  1  0  0  0  0  0  0  0  0  0
   -4.5959   -9.0455    0.5517 O   0  0  0  0  0  0  0  0  0  0  0  0
   -4.2789   -7.6754    2.5143 C   0  0  0  0  0  0  0  0  0  0  0  0
   -4.4115   -8.7475    3.4402 O   0  0  0  0  0  0  0  0  0  0  0  0
   -3.7642   -8.7152    4.8863 P   0  0  0  0  0  0  0  0  0  0  0  0
   -4.0670   -7.4387    5.5726 O   0  0  0  0  0  0  0  0  0  0  0  0
   -4.0239   -9.9829    5.6021 O   0  5  0  0  0  0  0  0  0  0  0  0
   -2.1987   -8.6814    4.5982 O   0  5  0  0  0  0  0  0  0  0  0  0
  1 18  1  0  0  0  0
  1  2  1  0  0  0  0
  2  4  1  0  0  0  0
  2  3  2  0  0  0  0
  4  5  1  0  0  0  0
  5  7  1  0  0  0  0
  5  6  2  0  0  0  0
  7 18  2  0  0  0  0
  7  8  1  0  0  0  0
  8  9  1  0  0  0  0
  9 10  2  0  0  0  0
  9 16  1  0  0  0  0
 10 11  1  0  0  0  0
 11 12  1  0  0  0  0
 11 13  2  0  0  0  0
 13 14  1  0  0  0  0
 13 15  1  0  0  0  0
 15 16  2  0  0  0  0
 16 17  1  0  0  0  0
 17 19  1  0  0  0  0
 17 18  1  0  0  0  0
 20 19  1  1  0  0  0
 20 22  1  0  0  0  0
 20 21  1  0  0  0  0
 22 24  1  0  0  0  0
 22 23  1  1  0  0  0
 24 26  1  1  0  0  0
 24 25  1  0  0  0  0
 26 27  1  0  0  0  0
 27 28  1  0  0  0  0
 28 30  1  0  0  0  0
 28 29  2  0  0  0  0
 28 31  1  0  0  0  0
M  CHG  2  30  -1  31  -1
M  END
>  <CHROM.1>
-17.39727052,146.29515945,-152.17803157,-167.84695882,179.16673477,-152.92895235
175.80245798,-171.25881132,-174.93818751,48.39695307,-7.10204992,-6.31742281
1.83797973,2.46083846,0.37450425,-1.27563572

>  <Name>
1fmn_cryst

>  <RI>
0

>  <Rbt.Current_Directory>
/home/itssahil/PROJECTS/Mol_Feturizer/New_Systems/rnas/1fmn

>  <Rbt.Executable>
rbdock ($Id: //depot/dev/client3/rdock/2013.1/src/exe/rbdock.cxx#4 $)

>  <Rbt.Library>
libRbt.so (2013.1, Build901 2013/11/27)

>  <Rbt.Parameter_File>
/export/apps/rDock/src/rDock_2013.1_src/data/scripts/dock_solv.prm

>  <Rbt.Receptor>
prm/pocket_docking_2.prm

>  <SCORE>
-57.6291

>  <SCORE.INTER>
-58.3893

>  <SCORE.INTER.CONST>
1

>  <SCORE.INTER.POLAR>
-4.13285

>  <SCORE.INTER.ROT>
7

>  <SCORE.INTER.SOLV>
21.0945

>  <SCORE.INTER.VDW>
-40.4482

>  <SCORE.INTER.norm>
-1.88353

>  <SCORE.INTRA>
0.452404

>  <SCORE.INTRA.DIHEDRAL>
-4.30989

>  <SCORE.INTRA.DIHEDRAL.0>
15.5708

>  <SCORE.INTRA.POLAR>
0.0677885

>  <SCORE.INTRA.POLAR.0>
-0.0677885

>  <SCORE.INTRA.REPUL>
0

>  <SCORE.INTRA.REPUL.0>
0

>  <SCORE.INTRA.SOLV>
-4.96852

>  <SCORE.INTRA.SOLV.lig_0>
-87.6316

>  <SCORE.INTRA.VDW>
4.86113

>  <SCORE.INTRA.VDW.0>
-2.87309

>  <SCORE.INTRA.norm>
0.0145937

>  <SCORE.RESTR>
0.307844

>  <SCORE.RESTR.CAVITY>
0.307844

>  <SCORE.RESTR.norm>
0.00993044

>  <SCORE.SYSTEM>
0

>  <SCORE.SYSTEM.CONST>
0

>  <SCORE.SYSTEM.DIHEDRAL>
0

>  <SCORE.SYSTEM.SOLV>
0

>  <SCORE.SYSTEM.norm>
0

>  <SCORE.heavy>
31

>  <SCORE.norm>
-1.859

>  <SYMMETRIC_BONDS>
33 34 3

>  <RMSD>
1.657

$$$$
1fmn_cryst
 OpenBabel11021811393D
libRbt.so/2013.1/901 2013/11/27
 31 33  0  0  0  0  0  0  0  0999 V2000
   -9.1169   -6.1125    3.2776 N   0  0  0  0  0  0  0  0  0  0  0  0
   -9.7428   -6.1745    4.5007 C   0  0  0  0  0  0  0  0  0  0  0  0
   -9.2780   -6.8216    5.4397 O   0  0  0  0  0  0  0  0  0  0  0  0
  -10.9572   -5.4515    4.6095 N   0  0  0  0  0  0  0  0  0  0  0  0
  -11.5776   -4.6864    3.5976 C   0  0  0  0  0  0  0  0  0  0  0  0
  -12.6427   -4.1008    3.8299 O   0  0  0  0  0  0  0  0  0  0  0  0
  -10.8500   -4.6715    2.3265 C   0  0  0  0  0  0  0  0  0  0  0  0
  -11.3875   -3.9492    1.2904 N   0  0  0  0  0  0  0  0  0  0  0  0
  -10.8080   -4.0826    0.0620 C   0  0  0  0  0  0  0  0  0  0  0  0
  -11.4496   -3.5080   -1.0209 C   0  0  0  0  0  0  0  0  0  0  0  0
  -10.9325   -3.5998   -2.2681 C   0  0  0  0  0  0  0  0  0  0  0  0
  -11.6640   -2.9583   -3.4038 C   0  0  0  0  0  0  0  0  0  0  0  0
   -9.7649   -4.2651   -2.4810 C   0  0  0  0  0  0  0  0  0  0  0  0
   -9.2048   -4.3675   -3.8623 C   0  0  0  0  0  0  0  0  0  0  0  0
   -9.1000   -4.8439   -1.4487 C   0  0  0  0  0  0  0  0  0  0  0  0
   -9.5897   -4.7780   -0.1443 C   0  0  0  0  0  0  0  0  0  0  0  0
   -8.9486   -5.3531    0.9730 N   0  0  0  0  0  0  0  0  0  0  0  0
   -9.6115   -5.4059    2.2163 C   0  0  0  0  0  0  0  0  0  0  0  0
   -7.4395   -5.3726    0.9918 C   0  0  0  0  0  0  0  0  0  0  0  0
   -6.7474   -6.3421   -0.0138 C   0  0  1  0  0  0  0  0  0  0  0  0
   -6.5412   -5.6903   -1.2589 O   0  0  0  0  0  0  0  0  0  0  0  0
   -5.4443   -6.9667    0.5393 C   0  0  1  0  0  0  0  0  0  0  0  0
   -4.3314   -6.5739   -0.2586 O   0  0  0  0  0  0  0  0  0  0  0  0
   -5.1313   -6.7243    2.0364 C   0  0  1  0  0  0  0  0  0  0  0  0
   -6.2199   -7.2184    2.8088 O   0  0  0  0  0  0  0  0  0  0  0  0
   -3.8338   -7.4228    2.5015 C   0  0  0  0  0  0  0  0  0  0  0  0
   -3.5939   -7.2524    3.8935 O   0  0  0  0  0  0  0  0  0  0  0  0
   -2.3405   -7.8831    4.6300 P   0  0  0  0  0  0  0  0  0  0  0  0
   -1.0847   -7.5383    3.9255 O   0  0  0  0  0  0  0  0  0  0  0  0
   -2.4211   -7.6502    6.0881 O   0  5  0  0  0  0  0  0  0  0  0  0
   -2.5287   -9.4500    4.4202 O   0  5  0  0  0  0  0  0  0  0  0  0
  1 18  1  0  0  0  0
  1  2  1  0  0  0  0
  2  4  1  0  0  0  0
  2  3  2  0  0  0  0
  4  5  1  0  0  0  0
  5  7  1  0  0  0  0
  5  6  2  0  0  0  0
  7 18  2  0  0  0  0
  7  8  1  0  0  0  0
  8  9  1  0  0  0  0
  9 10  2  0  0  0  0
  9 16  1  0  0  0  0
 10 11  1  0  0  0  0
 11 12  1  0  0  0  0
 11 13  2  0  0  0  0
 13 14  1  0  0  0  0
 13 15  1  0  0  0  0
 15 16  2  0  0  0  0
 16 17  1  0  0  0  0
 17 19  1  0  0  0  0
 17 18  1  0  0  0  0
 20 19  1  1  0  0  0
 20 22  1  0  0  0  0
 20 21  1  0  0  0  0
 22 24  1  0  0  0  0
 22 23  1  6  0  0  0
 24 26  1  1  0  0  0
 24 25  1  0  0  0  0
 26 27  1  0  0  0  0
 27 28  1  0  0  0  0
 28 30  1  0  0  0  0
 28 29  2  0  0  0  0
 28 31  1  0  0  0  0
M  CHG  2  30  -1  31  -1
M  END
>  <CHROM.1>
-70.51089995,88.32101587,-117.64748882,-172.34283038,57.63777712,-63.77556200
-176.87153287,59.39892031,179.22164039,51.65577861,-7.50830820,-5.87668344
1.73618725,2.58953705,0.32449285,-1.35998397

>  <Name>
1fmn_cryst

>  <RI>
0

>  <Rbt.Current_Directory>
/home/itssahil/PROJECTS/Mol_Feturizer/New_Systems/rnas/1fmn

>  <Rbt.Executable>
rbdock ($Id: //depot/dev/client3/rdock/2013.1/src/exe/rbdock.cxx#4 $)

>  <Rbt.Library>
libRbt.so (2013.1, Build901 2013/11/27)

>  <Rbt.Parameter_File>
/export/apps/rDock/src/rDock_2013.1_src/data/scripts/dock_solv.prm

>  <Rbt.Receptor>
prm/pocket_docking_3.prm

>  <SCORE>
-64.5968

>  <SCORE.INTER>
-59.4138

>  <SCORE.INTER.CONST>
1

>  <SCORE.INTER.POLAR>
-4.58753

>  <SCORE.INTER.ROT>
7

>  <SCORE.INTER.SOLV>
18.2641

>  <SCORE.INTER.VDW>
-38.6721

>  <SCORE.INTER.norm>
-1.91657

>  <SCORE.INTRA>
-5.18308

>  <SCORE.INTRA.DIHEDRAL>
-5.73649

>  <SCORE.INTRA.DIHEDRAL.0>
15.5708

>  <SCORE.INTRA.POLAR>
-0.932211

>  <SCORE.INTRA.POLAR.0>
-0.0677885

>  <SCORE.INTRA.REPUL>
0

>  <SCORE.INTRA.REPUL.0>
0

>  <SCORE.INTRA.SOLV>
-3.39864

>  <SCORE.INTRA.SOLV.lig_0>
-87.6316

>  <SCORE.INTRA.VDW>
2.55401

>  <SCORE.INTRA.VDW.0>
-2.87309

>  <SCORE.INTRA.norm>
-0.167196

>  <SCORE.RESTR>
0

>  <SCORE.RESTR.CAVITY>
0

>  <SCORE.RESTR.norm>
0

>  <SCORE.SYSTEM>
0

>  <SCORE.SYSTEM.CONST>
0

>  <SCORE.SYSTEM.DIHEDRAL>
0

>  <SCORE.SYSTEM.SOLV>
0

>  <SCORE.SYSTEM.norm>
0

>  <SCORE.heavy>
31

>  <SCORE.norm>
-2.08377

>  <SYMMETRIC_BONDS>
33 34 3

>  <RMSD>
1.657

$$$$
1fmn_cryst
 OpenBabel11021811393D
libRbt.so/2013.1/901 2013/11/27
 31 33  0  0  0  0  0  0  0  0999 V2000
   -8.8403   -6.1484    3.7549 N   0  0  0  0  0  0  0  0  0  0  0  0
   -9.6636   -6.1996    4.8554 C   0  0  0  0  0  0  0  0  0  0  0  0
   -9.3082   -6.7213    5.9127 O   0  0  0  0  0  0  0  0  0  0  0  0
  -10.9466   -5.6190    4.6934 N   0  0  0  0  0  0  0  0  0  0  0  0
  -11.4536   -5.0038    3.5278 C   0  0  0  0  0  0  0  0  0  0  0  0
  -12.5981   -4.5332    3.5244 O   0  0  0  0  0  0  0  0  0  0  0  0
  -10.5174   -4.9906    2.4015 C   0  0  0  0  0  0  0  0  0  0  0  0
  -10.9345   -4.4096    1.2299 N   0  0  0  0  0  0  0  0  0  0  0  0
  -10.1353   -4.5579    0.1335 C   0  0  0  0  0  0  0  0  0  0  0  0
  -10.6307   -4.1388   -1.0885 C   0  0  0  0  0  0  0  0  0  0  0  0
   -9.8936   -4.2545   -2.2175 C   0  0  0  0  0  0  0  0  0  0  0  0
  -10.4744   -3.7833   -3.5125 C   0  0  0  0  0  0  0  0  0  0  0  0
   -8.6439   -4.7905   -2.1707 C   0  0  0  0  0  0  0  0  0  0  0  0
   -7.8398   -4.9209   -3.4231 C   0  0  0  0  0  0  0  0  0  0  0  0
   -8.1164   -5.2146   -0.9940 C   0  0  0  0  0  0  0  0  0  0  0  0
   -8.8341   -5.1173    0.1980 C   0  0  0  0  0  0  0  0  0  0  0  0
   -8.3454   -5.5347    1.4538 N   0  0  0  0  0  0  0  0  0  0  0  0
   -9.2094   -5.5797    2.5671 C   0  0  0  0  0  0  0  0  0  0  0  0
   -6.8699   -5.3748    1.7288 C   0  0  0  0  0  0  0  0  0  0  0  0
   -6.0480   -6.6906    1.8817 C   0  0  1  0  0  0  0  0  0  0  0  0
   -6.1503   -7.4717    0.6996 O   0  0  0  0  0  0  0  0  0  0  0  0
   -4.5764   -6.4465    2.2928 C   0  0  1  0  0  0  0  0  0  0  0  0
   -3.9890   -5.4532    1.4574 O   0  0  0  0  0  0  0  0  0  0  0  0
   -4.3110   -6.1084    3.7804 C   0  0  1  0  0  0  0  0  0  0  0  0
   -5.1752   -5.0430    4.1601 O   0  0  0  0  0  0  0  0  0  0  0  0
   -4.5555   -7.3075    4.7238 C   0  0  0  0  0  0  0  0  0  0  0  0
   -4.1671   -7.0321    6.0645 O   0  0  0  0  0  0  0  0  0  0  0  0
   -4.3633   -8.0724    7.2438 P   0  0  0  0  0  0  0  0  0  0  0  0
   -3.9531   -7.4858    8.5398 O   0  0  0  0  0  0  0  0  0  0  0  0
   -5.6875   -8.7240    7.1491 O   0  5  0  0  0  0  0  0  0  0  0  0
   -3.2886   -9.2046    6.9309 O   0  5  0  0  0  0  0  0  0  0  0  0
  1 18  1  0  0  0  0
  1  2  1  0  0  0  0
  2  4  1  0  0  0  0
  2  3  2  0  0  0  0
  4  5  1  0  0  0  0
  5  7  1  0  0  0  0
  5  6  2  0  0  0  0
  7 18  2  0  0  0  0
  7  8  1  0  0  0  0
  8  9  1  0  0  0  0
  9 10  2  0  0  0  0
  9 16  1  0  0  0  0
 10 11  1  0  0  0  0
 11 12  1  0  0  0  0
 11 13  2  0  0  0  0
 13 14  1  0  0  0  0
 13 15  1  0  0  0  0
 15 16  2  0  0  0  0
 16 17  1  0  0  0  0
 17 19  1  0  0  0  0
 17 18  1  0  0  0  0
 20 19  1  6  0  0  0
 20 22  1  0  0  0  0
 20 21  1  0  0  0  0
 22 24  1  0  0  0  0
 22 23  1  6  0  0  0
 24 26  1  1  0  0  0
 24 25  1  0  0  0  0
 26 27  1  0  0  0  0
 27 28  1  0  0  0  0
 28 30  1  0  0  0  0
 28 29  2  0  0  0  0
 28 31  1  0  0  0  0
M  CHG  2  30  -1  31  -1
M  END
>  <CHROM.1>
-113.17303882,59.00652249,-49.03011766,-56.18061265,-51.09266773,-169.41880489
173.41978337,-151.35138399,177.58382275,-176.25757888,-7.47925936,-6.00902108
2.81201173,0.96197165,-0.23726710,1.80933697

>  <Name>
1fmn_cryst

>  <RI>
0

>  <Rbt.Current_Directory>
/home/itssahil/PROJECTS/Mol_Feturizer/New_Systems/rnas/1fmn

>  <Rbt.Executable>
rbdock ($Id: //depot/dev/client3/rdock/2013.1/src/exe/rbdock.cxx#4 $)

>  <Rbt.Library>
libRbt.so (2013.1, Build901 2013/11/27)

>  <Rbt.Parameter_File>
/export/apps/rDock/src/rDock_2013.1_src/data/scripts/dock_solv.prm

>  <Rbt.Receptor>
prm/pocket_docking_3.prm

>  <SCORE>
-55.0291

>  <SCORE.INTER>
-49.1831

>  <SCORE.INTER.CONST>
1

>  <SCORE.INTER.POLAR>
-2.79134

>  <SCORE.INTER.ROT>
7

>  <SCORE.INTER.SOLV>
16.323

>  <SCORE.INTER.VDW>
-37.1919

>  <SCORE.INTER.norm>
-1.58655

>  <SCORE.INTRA>
-5.92104

>  <SCORE.INTRA.DIHEDRAL>
-7.95836

>  <SCORE.INTRA.DIHEDRAL.0>
15.5708

>  <SCORE.INTRA.POLAR>
0.0677885

>  <SCORE.INTRA.POLAR.0>
-0.0677885

>  <SCORE.INTRA.REPUL>
0.00820205

>  <SCORE.INTRA.REPUL.0>
0

>  <SCORE.INTRA.SOLV>
-4.52511

>  <SCORE.INTRA.SOLV.lig_0>
-87.6316

>  <SCORE.INTRA.VDW>
0.0492061

>  <SCORE.INTRA.VDW.0>
-2.87309

>  <SCORE.INTRA.norm>
-0.191001

>  <SCORE.RESTR>
0.0749697

>  <SCORE.RESTR.CAVITY>
0.0749697

>  <SCORE.RESTR.norm>
0.00241838

>  <SCORE.SYSTEM>
0

>  <SCORE.SYSTEM.CONST>
0

>  <SCORE.SYSTEM.DIHEDRAL>
0

>  <SCORE.SYSTEM.SOLV>
0

>  <SCORE.SYSTEM.norm>
0

>  <SCORE.heavy>
31

>  <SCORE.norm>
-1.77513

>  <SYMMETRIC_BONDS>
33 34 3

>  <RMSD>
1.658

$$$$
1fmn_cryst
 OpenBabel11021811393D
libRbt.so/2013.1/901 2013/11/27
 31 33  0  0  0  0  0  0  0  0999 V2000
   -8.9622   -6.1685    3.4798 N   0  0  0  0  0  0  0  0  0  0  0  0
   -9.6622   -6.2146    4.6628 C   0  0  0  0  0  0  0  0  0  0  0  0
   -9.2387   -6.8191    5.6486 O   0  0  0  0  0  0  0  0  0  0  0  0
  -10.9019   -5.5273    4.6732 N   0  0  0  0  0  0  0  0  0  0  0  0
  -11.4794   -4.8119    3.6013 C   0  0  0  0  0  0  0  0  0  0  0  0
  -12.5739   -4.2536    3.7485 O   0  0  0  0  0  0  0  0  0  0  0  0
  -10.6737   -4.8111    2.3782 C   0  0  0  0  0  0  0  0  0  0  0  0
  -11.1656   -4.1365    1.2887 N   0  0  0  0  0  0  0  0  0  0  0  0
  -10.5059   -4.2872    0.1035 C   0  0  0  0  0  0  0  0  0  0  0  0
  -11.0945   -3.7650   -1.0345 C   0  0  0  0  0  0  0  0  0  0  0  0
  -10.4971   -3.8767   -2.2437 C   0  0  0  0  0  0  0  0  0  0  0  0
  -11.1739   -3.2918   -3.4421 C   0  0  0  0  0  0  0  0  0  0  0  0
   -9.2992   -4.5108   -2.3626 C   0  0  0  0  0  0  0  0  0  0  0  0
   -8.6500   -4.6356   -3.7024 C   0  0  0  0  0  0  0  0  0  0  0  0
   -8.6841   -5.0381   -1.2734 C   0  0  0  0  0  0  0  0  0  0  0  0
   -9.2570   -4.9496   -0.0047 C   0  0  0  0  0  0  0  0  0  0  0  0
   -8.6711   -5.4716    1.1676 N   0  0  0  0  0  0  0  0  0  0  0  0
   -9.4095   -5.5090    2.3682 C   0  0  0  0  0  0  0  0  0  0  0  0
   -7.1662   -5.4429    1.2811 C   0  0  0  0  0  0  0  0  0  0  0  0
   -6.4086   -6.6989    0.7532 C   0  0  1  0  0  0  0  0  0  0  0  0
   -5.3749   -6.3075   -0.1392 O   0  0  0  0  0  0  0  0  0  0  0  0
   -5.8852   -7.6159    1.8842 C   0  0  1  0  0  0  0  0  0  0  0  0
   -6.9233   -7.8840    2.8222 O   0  0  0  0  0  0  0  0  0  0  0  0
   -5.2073   -8.9405    1.4553 C   0  0  1  0  0  0  0  0  0  0  0  0
   -4.1969   -8.6391    0.4991 O   0  0  0  0  0  0  0  0  0  0  0  0
   -4.5629   -9.6981    2.6379 C   0  0  0  0  0  0  0  0  0  0  0  0
   -3.8520   -8.8325    3.5150 O   0  0  0  0  0  0  0  0  0  0  0  0
   -2.4359   -9.2032    4.1222 P   0  0  0  0  0  0  0  0  0  0  0  0
   -1.4577   -9.4864    3.0475 O   0  0  0  0  0  0  0  0  0  0  0  0
   -2.0601   -8.2498    5.1884 O   0  5  0  0  0  0  0  0  0  0  0  0
   -2.6889  -10.5992    4.8447 O   0  5  0  0  0  0  0  0  0  0  0  0
  1 18  1  0  0  0  0
  1  2  1  0  0  0  0
  2  4  1  0  0  0  0
  2  3  2  0  0  0  0
  4  5  1  0  0  0  0
  5  7  1  0  0  0  0
  5  6  2  0  0  0  0
  7 18  2  0  0  0  0
  7  8  1  0  0  0  0
  8  9  1  0  0  0  0
  9 10  2  0  0  0  0
  9 16  1  0  0  0  0
 10 11  1  0  0  0  0
 11 12  1  0  0  0  0
 11 13  2  0  0  0  0
 13 14  1  0  0  0  0
 13 15  1  0  0  0  0
 15 16  2  0  0  0  0
 16 17  1  0  0  0  0
 17 19  1  0  0  0  0
 17 18  1  0  0  0  0
 20 19  1  1  0  0  0
 20 22  1  0  0  0  0
 20 21  1  0  0  0  0
 22 24  1  0  0  0  0
 22 23  1  1  0  0  0
 24 26  1  1  0  0  0
 24 25  1  0  0  0  0
 26 27  1  0  0  0  0
 27 28  1  0  0  0  0
 28 30  1  0  0  0  0
 28 29  2  0  0  0  0
 28 31  1  0  0  0  0
M  CHG  2  30  -1  31  -1
M  END
>  <CHROM.1>
-90.72998977,129.10053764,49.29706047,-63.02109965,52.13718530,-172.44834999
-43.10062397,60.86659419,-137.59006005,57.11714767,-7.38760147,-6.52108215
1.81882183,2.63307099,0.46909367,-1.32413931

>  <Name>
1fmn_cryst

>  <RI>
0

>  <Rbt.Current_Directory>
/home/itssahil/PROJECTS/Mol_Feturizer/New_Systems/rnas/1fmn

>  <Rbt.Executable>
rbdock ($Id: //depot/dev/client3/rdock/2013.1/src/exe/rbdock.cxx#4 $)

>  <Rbt.Library>
libRbt.so (2013.1, Build901 2013/11/27)

>  <Rbt.Parameter_File>
/export/apps/rDock/src/rDock_2013.1_src/data/scripts/dock_solv.prm

>  <Rbt.Receptor>
prm/pocket_docking_3.prm

>  <SCORE>
-54.9113

>  <SCORE.INTER>
-50.812

>  <SCORE.INTER.CONST>
1

>  <SCORE.INTER.POLAR>
-2.14891

>  <SCORE.INTER.ROT>
7

>  <SCORE.INTER.SOLV>
18.2143

>  <SCORE.INTER.VDW>
-41.0497

>  <SCORE.INTER.norm>
-1.6391

>  <SCORE.INTRA>
-4.09934

>  <SCORE.INTRA.DIHEDRAL>
-0.286778

>  <SCORE.INTRA.DIHEDRAL.0>
15.5708

>  <SCORE.INTRA.POLAR>
-0.932211

>  <SCORE.INTRA.POLAR.0>
-0.0677885

>  <SCORE.INTRA.REPUL>
0

>  <SCORE.INTRA.REPUL.0>
0

>  <SCORE.INTRA.SOLV>
-2.19519

>  <SCORE.INTRA.SOLV.lig_0>
-87.6316

>  <SCORE.INTRA.VDW>
0.311163

>  <SCORE.INTRA.VDW.0>
-2.87309

>  <SCORE.INTRA.norm>
-0.132237

>  <SCORE.RESTR>
0

>  <SCORE.RESTR.CAVITY>
0

>  <SCORE.RESTR.norm>
0

>  <SCORE.SYSTEM>
0

>  <SCORE.SYSTEM.CONST>
0

>  <SCORE.SYSTEM.DIHEDRAL>
0

>  <SCORE.SYSTEM.SOLV>
0

>  <SCORE.SYSTEM.norm>
0

>  <SCORE.heavy>
31

>  <SCORE.norm>
-1.77133

>  <SYMMETRIC_BONDS>
33 34 3

>  <RMSD>
1.658

$$$$
1fmn_cryst
 OpenBabel11021811393D
libRbt.so/2013.1/901 2013/11/27
 31 33  0  0  0  0  0  0  0  0999 V2000
   -8.6059   -6.1846    3.8289 N   0  0  0  0  0  0  0  0  0  0  0  0
   -9.5023   -6.2432    4.8704 C   0  0  0  0  0  0  0  0  0  0  0  0
   -9.1965   -6.7071    5.9694 O   0  0  0  0  0  0  0  0  0  0  0  0
  -10.7994   -5.7410    4.5968 N   0  0  0  0  0  0  0  0  0  0  0  0
  -11.2533   -5.1961    3.3757 C   0  0  0  0  0  0  0  0  0  0  0  0
  -12.4180   -4.7905    3.2742 O   0  0  0  0  0  0  0  0  0  0  0  0
  -10.2406   -5.1699    2.3179 C   0  0  0  0  0  0  0  0  0  0  0  0
  -10.6027   -4.6542    1.0984 N   0  0  0  0  0  0  0  0  0  0  0  0
   -9.7201   -4.7958    0.0672 C   0  0  0  0  0  0  0  0  0  0  0  0
  -10.1479   -4.4478   -1.2018 C   0  0  0  0  0  0  0  0  0  0  0  0
   -9.3265   -4.5615   -2.2712 C   0  0  0  0  0  0  0  0  0  0  0  0
   -9.8370   -4.1688   -3.6209 C   0  0  0  0  0  0  0  0  0  0  0  0
   -8.0567   -5.0250   -2.1165 C   0  0  0  0  0  0  0  0  0  0  0  0
   -7.1589   -5.1539   -3.3037 C   0  0  0  0  0  0  0  0  0  0  0  0
   -7.5933   -5.3778   -0.8903 C   0  0  0  0  0  0  0  0  0  0  0  0
   -8.3990   -5.2792    0.2440 C   0  0  0  0  0  0  0  0  0  0  0  0
   -7.9802   -5.6247    1.5460 N   0  0  0  0  0  0  0  0  0  0  0  0
   -8.9184   -5.6790    2.5972 C   0  0  0  0  0  0  0  0  0  0  0  0
   -6.5389   -5.3733    1.9171 C   0  0  0  0  0  0  0  0  0  0  0  0
   -5.4656   -5.8830    0.9079 C   0  0  1  0  0  0  0  0  0  0  0  0
   -4.3115   -5.0566    0.9620 O   0  0  0  0  0  0  0  0  0  0  0  0
   -5.1190   -7.3799    1.0901 C   0  0  1  0  0  0  0  0  0  0  0  0
   -6.1080   -8.1948    0.4676 O   0  0  0  0  0  0  0  0  0  0  0  0
   -3.7066   -7.8317    0.6438 C   0  0  1  0  0  0  0  0  0  0  0  0
   -3.2421   -6.9316   -0.3562 O   0  0  0  0  0  0  0  0  0  0  0  0
   -2.6867   -7.8552    1.8044 C   0  0  0  0  0  0  0  0  0  0  0  0
   -3.0599   -8.7593    2.8375 O   0  0  0  0  0  0  0  0  0  0  0  0
   -2.2866   -8.8488    4.2178 P   0  0  0  0  0  0  0  0  0  0  0  0
   -0.8429   -9.0943    3.9999 O   0  0  0  0  0  0  0  0  0  0  0  0
   -2.6895   -7.7434    5.1137 O   0  5  0  0  0  0  0  0  0  0  0  0
   -2.8491  -10.1832    4.8796 O   0  5  0  0  0  0  0  0  0  0  0  0
  1 18  1  0  0  0  0
  1  2  1  0  0  0  0
  2  4  1  0  0  0  0
  2  3  2  0  0  0  0
  4  5  1  0  0  0  0
  5  7  1  0  0  0  0
  5  6  2  0  0  0  0
  7 18  2  0  0  0  0
  7  8  1  0  0  0  0
  8  9  1  0  0  0  0
  9 10  2  0  0  0  0
  9 16  1  0  0  0  0
 10 11  1  0  0  0  0
 11 12  1  0  0  0  0
 11 13  2  0  0  0  0
 13 14  1  0  0  0  0
 13 15  1  0  0  0  0
 15 16  2  0  0  0  0
 16 17  1  0  0  0  0
 17 19  1  0  0  0  0
 17 18  1  0  0  0  0
 20 19  1  1  0  0  0
 20 22  1  0  0  0  0
 20 21  1  0  0  0  0
 22 24  1  0  0  0  0
 22 23  1  6  0  0  0
 24 26  1  1  0  0  0
 24 25  1  0  0  0  0
 26 27  1  0  0  0  0
 27 28  1  0  0  0  0
 28 30  1  0  0  0  0
 28 29  2  0  0  0  0
 28 31  1  0  0  0  0
M  CHG  2  30  -1  31  -1
M  END
>  <CHROM.1>
-48.77168767,150.08872327,80.33627912,64.39703662,-25.41113998,174.68901465
61.03538468,-72.32252029,-172.38215615,-55.04708472,-6.72873621,-6.43077947
1.74425899,2.69663537,0.35564296,-1.30703812

>  <Name>
1fmn_cryst

>  <RI>
0

>  <Rbt.Current_Directory>
/home/itssahil/PROJECTS/Mol_Feturizer/New_Systems/rnas/1fmn

>  <Rbt.Executable>
rbdock ($Id: //depot/dev/client3/rdock/2013.1/src/exe/rbdock.cxx#4 $)

>  <Rbt.Library>
libRbt.so (2013.1, Build901 2013/11/27)

>  <Rbt.Parameter_File>
/export/apps/rDock/src/rDock_2013.1_src/data/scripts/dock_solv.prm

>  <Rbt.Receptor>
prm/pocket_docking_3.prm

>  <SCORE>
-58.5315

>  <SCORE.INTER>
-55.2678

>  <SCORE.INTER.CONST>
1

>  <SCORE.INTER.POLAR>
-4.11775

>  <SCORE.INTER.ROT>
7

>  <SCORE.INTER.SOLV>
19.2816

>  <SCORE.INTER.VDW>
-37.8133

>  <SCORE.INTER.norm>
-1.78283

>  <SCORE.INTRA>
-3.26371

>  <SCORE.INTRA.DIHEDRAL>
-5.67374

>  <SCORE.INTRA.DIHEDRAL.0>
15.5708

>  <SCORE.INTRA.POLAR>
0.0677885

>  <SCORE.INTRA.POLAR.0>
-0.0677885

>  <SCORE.INTRA.REPUL>
0

>  <SCORE.INTRA.REPUL.0>
0

>  <SCORE.INTRA.SOLV>
-4.39518

>  <SCORE.INTRA.SOLV.lig_0>
-87.6316

>  <SCORE.INTRA.VDW>
1.54027

>  <SCORE.INTRA.VDW.0>
-2.87309

>  <SCORE.INTRA.norm>
-0.105281

>  <SCORE.RESTR>
0

>  <SCORE.RESTR.CAVITY>
0

>  <SCORE.RESTR.norm>
0

>  <SCORE.SYSTEM>
0

>  <SCORE.SYSTEM.CONST>
0

>  <SCORE.SYSTEM.DIHEDRAL>
0

>  <SCORE.SYSTEM.SOLV>
0

>  <SCORE.SYSTEM.norm>
0

>  <SCORE.heavy>
31

>  <SCORE.norm>
-1.88811

>  <SYMMETRIC_BONDS>
33 34 3

>  <RMSD>
1.674

$$$$
1fmn_cryst
 OpenBabel11021811393D
libRbt.so/2013.1/901 2013/11/27
 31 33  0  0  0  0  0  0  0  0999 V2000
   -9.0058   -6.1677    3.4970 N   0  0  0  0  0  0  0  0  0  0  0  0
   -9.6931   -6.2456    4.6858 C   0  0  0  0  0  0  0  0  0  0  0  0
   -9.2526   -6.8646    5.6550 O   0  0  0  0  0  0  0  0  0  0  0  0
  -10.9406   -5.5734    4.7223 N   0  0  0  0  0  0  0  0  0  0  0  0
  -11.5373   -4.8438    3.6708 C   0  0  0  0  0  0  0  0  0  0  0  0
  -12.6367   -4.3015    3.8401 O   0  0  0  0  0  0  0  0  0  0  0  0
  -10.7441   -4.8090    2.4400 C   0  0  0  0  0  0  0  0  0  0  0  0
  -11.2550   -4.1187    1.3692 N   0  0  0  0  0  0  0  0  0  0  0  0
  -10.6057   -4.2379    0.1748 C   0  0  0  0  0  0  0  0  0  0  0  0
  -11.2118   -3.7001   -0.9467 C   0  0  0  0  0  0  0  0  0  0  0  0
  -10.6255   -3.7805   -2.1637 C   0  0  0  0  0  0  0  0  0  0  0  0
  -11.3213   -3.1800   -3.3434 C   0  0  0  0  0  0  0  0  0  0  0  0
   -9.4216   -4.3978   -2.3072 C   0  0  0  0  0  0  0  0  0  0  0  0
   -8.7847   -4.4882   -3.6557 C   0  0  0  0  0  0  0  0  0  0  0  0
   -8.7893   -4.9394   -1.2350 C   0  0  0  0  0  0  0  0  0  0  0  0
   -9.3502   -4.8831    0.0408 C   0  0  0  0  0  0  0  0  0  0  0  0
   -8.7464   -5.4213    1.1966 N   0  0  0  0  0  0  0  0  0  0  0  0
   -9.4720   -5.4915    2.4035 C   0  0  0  0  0  0  0  0  0  0  0  0
   -7.2409   -5.3771    1.2956 C   0  0  0  0  0  0  0  0  0  0  0  0
   -6.4585   -6.3811    0.3956 C   0  0  1  0  0  0  0  0  0  0  0  0
   -6.3917   -5.8942   -0.9371 O   0  0  0  0  0  0  0  0  0  0  0  0
   -5.0614   -6.7410    0.9548 C   0  0  1  0  0  0  0  0  0  0  0  0
   -4.3767   -5.5620    1.3683 O   0  0  0  0  0  0  0  0  0  0  0  0
   -5.0092   -7.8031    2.0804 C   0  0  1  0  0  0  0  0  0  0  0  0
   -5.5960   -9.0044    1.5921 O   0  0  0  0  0  0  0  0  0  0  0  0
   -3.5705   -8.1090    2.5540 C   0  0  0  0  0  0  0  0  0  0  0  0
   -3.5410   -9.0074    3.6568 O   0  0  0  0  0  0  0  0  0  0  0  0
   -4.1430   -8.6410    5.0762 P   0  0  0  0  0  0  0  0  0  0  0  0
   -3.5188   -7.4108    5.6136 O   0  0  0  0  0  0  0  0  0  0  0  0
   -5.6187   -8.7358    5.0567 O   0  5  0  0  0  0  0  0  0  0  0  0
   -3.6354   -9.8207    6.0172 O   0  5  0  0  0  0  0  0  0  0  0  0
  1 18  1  0  0  0  0
  1  2  1  0  0  0  0
  2  4  1  0  0  0  0
  2  3  2  0  0  0  0
  4  5  1  0  0  0  0
  5  7  1  0  0  0  0
  5  6  2  0  0  0  0
  7 18  2  0  0  0  0
  7  8  1  0  0  0  0
  8  9  1  0  0  0  0
  9 10  2  0  0  0  0
  9 16  1  0  0  0  0
 10 11  1  0  0  0  0
 11 12  1  0  0  0  0
 11 13  2  0  0  0  0
 13 14  1  0  0  0  0
 13 15  1  0  0  0  0
 15 16  2  0  0  0  0
 16 17  1  0  0  0  0
 17 19  1  0  0  0  0
 17 18  1  0  0  0  0
 20 19  1  1  0  0  0
 20 22  1  0  0  0  0
 20 21  1  0  0  0  0
 22 24  1  0  0  0  0
 22 23  1  1  0  0  0
 24 26  1  6  0  0  0
 24 25  1  0  0  0  0
 26 27  1  0  0  0  0
 27 28  1  0  0  0  0
 28 30  1  0  0  0  0
 28 29  2  0  0  0  0
 28 31  1  0  0  0  0
M  CHG  2  30  -1  31  -1
M  END
>  <CHROM.1>
-73.79204945,79.20547287,-46.26791974,59.42253181,58.44195343,68.66069815
175.43958680,-175.44536682,-64.77729079,-57.04726375,-7.70724559,-6.18236902
1.98241106,2.41931499,0.40980094,-1.28616316

>  <Name>
1fmn_cryst

>  <RI>
0

>  <Rbt.Current_Directory>
/home/itssahil/PROJECTS/Mol_Feturizer/New_Systems/rnas/1fmn

>  <Rbt.Executable>
rbdock ($Id: //depot/dev/client3/rdock/2013.1/src/exe/rbdock.cxx#4 $)

>  <Rbt.Library>
libRbt.so (2013.1, Build901 2013/11/27)

>  <Rbt.Parameter_File>
/export/apps/rDock/src/rDock_2013.1_src/data/scripts/dock_solv.prm

>  <Rbt.Receptor>
prm/pocket_docking_2.prm

>  <SCORE>
-52.2954

>  <SCORE.INTER>
-47.9706

>  <SCORE.INTER.CONST>
1

>  <SCORE.INTER.POLAR>
-2.11385

>  <SCORE.INTER.ROT>
7

>  <SCORE.INTER.SOLV>
20.6656

>  <SCORE.INTER.VDW>
-40.0894

>  <SCORE.INTER.norm>
-1.54744

>  <SCORE.INTRA>
-4.32482

>  <SCORE.INTRA.DIHEDRAL>
-10.824

>  <SCORE.INTRA.DIHEDRAL.0>
15.5708

>  <SCORE.INTRA.POLAR>
0.0677885

>  <SCORE.INTRA.POLAR.0>
-0.0677885

>  <SCORE.INTRA.REPUL>
0

>  <SCORE.INTRA.REPUL.0>
0

>  <SCORE.INTRA.SOLV>
-1.60227

>  <SCORE.INTRA.SOLV.lig_0>
-87.6316

>  <SCORE.INTRA.VDW>
1.65785

>  <SCORE.INTRA.VDW.0>
-2.87309

>  <SCORE.INTRA.norm>
-0.13951

>  <SCORE.RESTR>
0

>  <SCORE.RESTR.CAVITY>
0

>  <SCORE.RESTR.norm>
0

>  <SCORE.SYSTEM>
0

>  <SCORE.SYSTEM.CONST>
0

>  <SCORE.SYSTEM.DIHEDRAL>
0

>  <SCORE.SYSTEM.SOLV>
0

>  <SCORE.SYSTEM.norm>
0

>  <SCORE.heavy>
31

>  <SCORE.norm>
-1.68695

>  <SYMMETRIC_BONDS>
33 34 3

>  <RMSD>
1.676

$$$$
1fmn_cryst
 OpenBabel11021811393D
libRbt.so/2013.1/901 2013/11/27
 31 33  0  0  0  0  0  0  0  0999 V2000
   -8.9673   -6.1962    3.4346 N   0  0  0  0  0  0  0  0  0  0  0  0
   -9.7677   -6.3119    4.5471 C   0  0  0  0  0  0  0  0  0  0  0  0
   -9.3699   -6.8419    5.5851 O   0  0  0  0  0  0  0  0  0  0  0  0
  -11.0787   -5.7876    4.4210 N   0  0  0  0  0  0  0  0  0  0  0  0
  -11.6340   -5.1687    3.2796 C   0  0  0  0  0  0  0  0  0  0  0  0
  -12.7988   -4.7517    3.3071 O   0  0  0  0  0  0  0  0  0  0  0  0
  -10.7196   -5.0850    2.1386 C   0  0  0  0  0  0  0  0  0  0  0  0
  -11.1837   -4.4960    0.9889 N   0  0  0  0  0  0  0  0  0  0  0  0
  -10.3982   -4.5806   -0.1239 C   0  0  0  0  0  0  0  0  0  0  0  0
  -10.9339   -4.1556   -1.3267 C   0  0  0  0  0  0  0  0  0  0  0  0
  -10.2125   -4.2098   -2.4704 C   0  0  0  0  0  0  0  0  0  0  0  0
  -10.8374   -3.7350   -3.7434 C   0  0  0  0  0  0  0  0  0  0  0  0
   -8.9390   -4.6883   -2.4578 C   0  0  0  0  0  0  0  0  0  0  0  0
   -8.1521   -4.7511   -3.7262 C   0  0  0  0  0  0  0  0  0  0  0  0
   -8.3716   -5.1157   -1.3009 C   0  0  0  0  0  0  0  0  0  0  0  0
   -9.0717   -5.0805   -0.0950 C   0  0  0  0  0  0  0  0  0  0  0  0
   -8.5421   -5.5049    1.1416 N   0  0  0  0  0  0  0  0  0  0  0  0
   -9.3832   -5.6167    2.2677 C   0  0  0  0  0  0  0  0  0  0  0  0
   -7.0708   -5.2835    1.3959 C   0  0  0  0  0  0  0  0  0  0  0  0
   -6.0901   -6.2616    0.6806 C   0  0  1  0  0  0  0  0  0  0  0  0
   -6.0243   -5.9613   -0.7063 O   0  0  0  0  0  0  0  0  0  0  0  0
   -4.6882   -6.3062    1.3338 C   0  0  1  0  0  0  0  0  0  0  0  0
   -4.1618   -4.9887    1.4629 O   0  0  0  0  0  0  0  0  0  0  0  0
   -4.5671   -7.0568    2.6828 C   0  0  1  0  0  0  0  0  0  0  0  0
   -4.8778   -8.4284    2.4633 O   0  0  0  0  0  0  0  0  0  0  0  0
   -3.1546   -6.9597    3.3018 C   0  0  0  0  0  0  0  0  0  0  0  0
   -3.1459   -7.2777    4.6884 O   0  0  0  0  0  0  0  0  0  0  0  0
   -3.9548   -6.4411    5.7640 P   0  0  0  0  0  0  0  0  0  0  0  0
   -3.0865   -6.0634    6.9022 O   0  0  0  0  0  0  0  0  0  0  0  0
   -4.7597   -5.3882    5.1077 O   0  5  0  0  0  0  0  0  0  0  0  0
   -4.9956   -7.4915    6.3542 O   0  5  0  0  0  0  0  0  0  0  0  0
  1 18  1  0  0  0  0
  1  2  1  0  0  0  0
  2  4  1  0  0  0  0
  2  3  2  0  0  0  0
  4  5  1  0  0  0  0
  5  7  1  0  0  0  0
  5  6  2  0  0  0  0
  7 18  2  0  0  0  0
  7  8  1  0  0  0  0
  8  9  1  0  0  0  0
  9 10  2  0  0  0  0
  9 16  1  0  0  0  0
 10 11  1  0  0  0  0
 11 12  1  0  0  0  0
 11 13  2  0  0  0  0
 13 14  1  0  0  0  0
 13 15  1  0  0  0  0
 15 16  2  0  0  0  0
 16 17  1  0  0  0  0
 17 19  1  0  0  0  0
 17 18  1  0  0  0  0
 20 19  1  1  0  0  0
 20 22  1  0  0  0  0
 20 21  1  0  0  0  0
 22 24  1  0  0  0  0
 22 23  1  1  0  0  0
 24 26  1  6  0  0  0
 24 25  1  0  0  0  0
 26 27  1  0  0  0  0
 27 28  1  0  0  0  0
 28 30  1  0  0  0  0
 28 29  2  0  0  0  0
 28 31  1  0  0  0  0
M  CHG  2  30  -1  31  -1
M  END
>  <CHROM.1>
-76.42743116,73.33715078,-52.39822712,-159.55968810,63.46369579,-55.77953586
161.91777428,-64.28117220,-61.75623776,-129.78144546,-7.49722014,-5.74969686
2.09937658,2.35736290,0.17064808,-1.39681788

>  <Name>
1fmn_cryst

>  <RI>
0

>  <Rbt.Current_Directory>
/home/itssahil/PROJECTS/Mol_Feturizer/New_Systems/rnas/1fmn

>  <Rbt.Executable>
rbdock ($Id: //depot/dev/client3/rdock/2013.1/src/exe/rbdock.cxx#4 $)

>  <Rbt.Library>
libRbt.so (2013.1, Build901 2013/11/27)

>  <Rbt.Parameter_File>
/export/apps/rDock/src/rDock_2013.1_src/data/scripts/dock_solv.prm

>  <Rbt.Receptor>
prm/pocket_docking_4.prm

>  <SCORE>
-61.2071

>  <SCORE.INTER>
-58.9049

>  <SCORE.INTER.CONST>
1

>  <SCORE.INTER.POLAR>
-4.67744

>  <SCORE.INTER.ROT>
7

>  <SCORE.INTER.SOLV>
19.6913

>  <SCORE.INTER.VDW>
-38.5089

>  <SCORE.INTER.norm>
-1.90016

>  <SCORE.INTRA>
-2.3022

>  <SCORE.INTRA.DIHEDRAL>
-7.12387

>  <SCORE.INTRA.DIHEDRAL.0>
15.5708

>  <SCORE.INTRA.POLAR>
0.0677885

>  <SCORE.INTRA.POLAR.0>
-0.0677885

>  <SCORE.INTRA.REPUL>
0

>  <SCORE.INTRA.REPUL.0>
0

>  <SCORE.INTRA.SOLV>
-1.02699

>  <SCORE.INTRA.SOLV.lig_0>
-87.6316

>  <SCORE.INTRA.VDW>
1.54275

>  <SCORE.INTRA.VDW.0>
-2.87309

>  <SCORE.INTRA.norm>
-0.0742646

>  <SCORE.RESTR>
0

>  <SCORE.RESTR.CAVITY>
0

>  <SCORE.RESTR.norm>
0

>  <SCORE.SYSTEM>
0

>  <SCORE.SYSTEM.CONST>
0

>  <SCORE.SYSTEM.DIHEDRAL>
0

>  <SCORE.SYSTEM.SOLV>
0

>  <SCORE.SYSTEM.norm>
0

>  <SCORE.heavy>
31

>  <SCORE.norm>
-1.97442

>  <SYMMETRIC_BONDS>
33 34 3

>  <RMSD>
1.689

$$$$
1fmn_cryst
 OpenBabel11021811393D
libRbt.so/2013.1/901 2013/11/27
 31 33  0  0  0  0  0  0  0  0999 V2000
   -9.1080   -6.8179    3.6530 N   0  0  0  0  0  0  0  0  0  0  0  0
   -9.9173   -6.7073    4.7595 C   0  0  0  0  0  0  0  0  0  0  0  0
   -9.7541   -7.4065    5.7600 O   0  0  0  0  0  0  0  0  0  0  0  0
  -10.9522   -5.7425    4.6728 N   0  0  0  0  0  0  0  0  0  0  0  0
  -11.2289   -4.8978    3.5755 C   0  0  0  0  0  0  0  0  0  0  0  0
  -12.1685   -4.0946    3.6345 O   0  0  0  0  0  0  0  0  0  0  0  0
  -10.3240   -5.0773    2.4379 C   0  0  0  0  0  0  0  0  0  0  0  0
  -10.5260   -4.2926    1.3300 N   0  0  0  0  0  0  0  0  0  0  0  0
   -9.8020   -4.5845    0.2105 C   0  0  0  0  0  0  0  0  0  0  0  0
  -10.1285   -3.9238   -0.9606 C   0  0  0  0  0  0  0  0  0  0  0  0
   -9.4530   -4.1627   -2.1086 C   0  0  0  0  0  0  0  0  0  0  0  0
   -9.8436   -3.4195   -3.3461 C   0  0  0  0  0  0  0  0  0  0  0  0
   -8.4346   -5.0646   -2.1321 C   0  0  0  0  0  0  0  0  0  0  0  0
   -7.6987   -5.3272   -3.4055 C   0  0  0  0  0  0  0  0  0  0  0  0
   -8.0786   -5.7360   -1.0072 C   0  0  0  0  0  0  0  0  0  0  0  0
   -8.7422   -5.5263    0.2016 C   0  0  0  0  0  0  0  0  0  0  0  0
   -8.4218   -6.1863    1.4065 N   0  0  0  0  0  0  0  0  0  0  0  0
   -9.2680   -6.0583    2.5270 C   0  0  0  0  0  0  0  0  0  0  0  0
   -6.9734   -6.5212    1.6677 C   0  0  0  0  0  0  0  0  0  0  0  0
   -5.9422   -5.3809    1.4100 C   0  0  1  0  0  0  0  0  0  0  0  0
   -5.9121   -4.4893    2.5155 O   0  0  0  0  0  0  0  0  0  0  0  0
   -4.5324   -5.9039    1.0452 C   0  0  1  0  0  0  0  0  0  0  0  0
   -3.5609   -4.8800    1.2385 O   0  0  0  0  0  0  0  0  0  0  0  0
   -4.0681   -7.2087    1.7379 C   0  0  1  0  0  0  0  0  0  0  0  0
   -2.8266   -7.6043    1.1650 O   0  0  0  0  0  0  0  0  0  0  0  0
   -3.8831   -7.0481    3.2635 C   0  0  0  0  0  0  0  0  0  0  0  0
   -3.4469   -8.2499    3.8875 O   0  0  0  0  0  0  0  0  0  0  0  0
   -3.2327   -8.3733    5.4529 P   0  0  0  0  0  0  0  0  0  0  0  0
   -2.1102   -7.5185    5.9018 O   0  0  0  0  0  0  0  0  0  0  0  0
   -4.5251   -8.2764    6.1651 O   0  5  0  0  0  0  0  0  0  0  0  0
   -2.7301   -9.8713    5.6480 O   0  5  0  0  0  0  0  0  0  0  0  0
  1 18  1  0  0  0  0
  1  2  1  0  0  0  0
  2  4  1  0  0  0  0
  2  3  2  0  0  0  0
  4  5  1  0  0  0  0
  5  7  1  0  0  0  0
  5  6  2  0  0  0  0
  7 18  2  0  0  0  0
  7  8  1  0  0  0  0
  8  9  1  0  0  0  0
  9 10  2  0  0  0  0
  9 16  1  0  0  0  0
 10 11  1  0  0  0  0
 11 12  1  0  0  0  0
 11 13  2  0  0  0  0
 13 14  1  0  0  0  0
 13 15  1  0  0  0  0
 15 16  2  0  0  0  0
 16 17  1  0  0  0  0
 17 19  1  0  0  0  0
 17 18  1  0  0  0  0
 20 19  1  1  0  0  0
 20 22  1  0  0  0  0
 20 21  1  0  0  0  0
 22 24  1  0  0  0  0
 22 23  1  1  0  0  0
 24 26  1  1  0  0  0
 24 25  1  0  0  0  0
 26 27  1  0  0  0  0
 27 28  1  0  0  0  0
 28 30  1  0  0  0  0
 28 29  2  0  0  0  0
 28 31  1  0  0  0  0
M  CHG  2  30  -1  31  -1
M  END
>  <CHROM.1>
46.79756220,80.61780255,-161.56309308,58.06286209,173.48572896,58.31788285
-179.55889228,60.74709192,-177.64545576,-66.35581329,-7.03676294,-6.15194119
2.24896328,2.45912203,0.26160970,-1.24965571

>  <Name>
1fmn_cryst

>  <RI>
0

>  <Rbt.Current_Directory>
/home/itssahil/PROJECTS/Mol_Feturizer/New_Systems/rnas/1fmn

>  <Rbt.Executable>
rbdock ($Id: //depot/dev/client3/rdock/2013.1/src/exe/rbdock.cxx#4 $)

>  <Rbt.Library>
libRbt.so (2013.1, Build901 2013/11/27)

>  <Rbt.Parameter_File>
/export/apps/rDock/src/rDock_2013.1_src/data/scripts/dock_solv.prm

>  <Rbt.Receptor>
prm/pocket_docking_2.prm

>  <SCORE>
-47.7982

>  <SCORE.INTER>
-41.9509

>  <SCORE.INTER.CONST>
1

>  <SCORE.INTER.POLAR>
-2.04852

>  <SCORE.INTER.ROT>
7

>  <SCORE.INTER.SOLV>
16.1219

>  <SCORE.INTER.VDW>
-34.7795

>  <SCORE.INTER.norm>
-1.35325

>  <SCORE.INTRA>
-6.44307

>  <SCORE.INTRA.DIHEDRAL>
-10.7766

>  <SCORE.INTRA.DIHEDRAL.0>
15.5708

>  <SCORE.INTRA.POLAR>
0.0671487

>  <SCORE.INTRA.POLAR.0>
-0.0677885

>  <SCORE.INTRA.REPUL>
0

>  <SCORE.INTRA.REPUL.0>
0

>  <SCORE.INTRA.SOLV>
-5.18939

>  <SCORE.INTRA.SOLV.lig_0>
-87.6316

>  <SCORE.INTRA.VDW>
1.3116

>  <SCORE.INTRA.VDW.0>
-2.87309

>  <SCORE.INTRA.norm>
-0.207841

>  <SCORE.RESTR>
0.595732

>  <SCORE.RESTR.CAVITY>
0.595732

>  <SCORE.RESTR.norm>
0.0192171

>  <SCORE.SYSTEM>
0

>  <SCORE.SYSTEM.CONST>
0

>  <SCORE.SYSTEM.DIHEDRAL>
0

>  <SCORE.SYSTEM.SOLV>
0

>  <SCORE.SYSTEM.norm>
0

>  <SCORE.heavy>
31

>  <SCORE.norm>
-1.54188

>  <SYMMETRIC_BONDS>
33 34 3

>  <RMSD>
1.692

$$$$
1fmn_cryst
 OpenBabel11021811393D
libRbt.so/2013.1/901 2013/11/27
 31 33  0  0  0  0  0  0  0  0999 V2000
   -8.7983   -6.2343    3.7614 N   0  0  0  0  0  0  0  0  0  0  0  0
   -9.6498   -6.2321    4.8414 C   0  0  0  0  0  0  0  0  0  0  0  0
   -9.3543   -6.7747    5.9067 O   0  0  0  0  0  0  0  0  0  0  0  0
  -10.8889   -5.5711    4.6487 N   0  0  0  0  0  0  0  0  0  0  0  0
  -11.3271   -4.9257    3.4715 C   0  0  0  0  0  0  0  0  0  0  0  0
  -12.4388   -4.3832    3.4406 O   0  0  0  0  0  0  0  0  0  0  0  0
  -10.3647   -4.9729    2.3685 C   0  0  0  0  0  0  0  0  0  0  0  0
  -10.7152   -4.3673    1.1875 N   0  0  0  0  0  0  0  0  0  0  0  0
   -9.9005   -4.5669    0.1109 C   0  0  0  0  0  0  0  0  0  0  0  0
  -10.3381   -4.1180   -1.1225 C   0  0  0  0  0  0  0  0  0  0  0  0
   -9.5825   -4.2812   -2.2333 C   0  0  0  0  0  0  0  0  0  0  0  0
  -10.1004   -3.7748   -3.5416 C   0  0  0  0  0  0  0  0  0  0  0  0
   -8.3711   -4.8957   -2.1564 C   0  0  0  0  0  0  0  0  0  0  0  0
   -7.5465   -5.0778   -3.3889 C   0  0  0  0  0  0  0  0  0  0  0  0
   -7.9005   -5.3516   -0.9675 C   0  0  0  0  0  0  0  0  0  0  0  0
   -8.6395   -5.2081    0.2067 C   0  0  0  0  0  0  0  0  0  0  0  0
   -8.2092   -5.6549    1.4737 N   0  0  0  0  0  0  0  0  0  0  0  0
   -9.1013   -5.6440    2.5655 C   0  0  0  0  0  0  0  0  0  0  0  0
   -6.7336   -5.5891    1.7848 C   0  0  0  0  0  0  0  0  0  0  0  0
   -5.9723   -6.9490    1.8186 C   0  0  1  0  0  0  0  0  0  0  0  0
   -4.9746   -6.9766    0.8078 O   0  0  0  0  0  0  0  0  0  0  0  0
   -5.3975   -7.2920    3.2136 C   0  0  1  0  0  0  0  0  0  0  0  0
   -4.8097   -8.5896    3.1997 O   0  0  0  0  0  0  0  0  0  0  0  0
   -4.4108   -6.2730    3.8349 C   0  0  1  0  0  0  0  0  0  0  0  0
   -5.1528   -5.1425    4.2791 O   0  0  0  0  0  0  0  0  0  0  0  0
   -3.6213   -6.8509    5.0309 C   0  0  0  0  0  0  0  0  0  0  0  0
   -4.3663   -6.8144    6.2424 O   0  0  0  0  0  0  0  0  0  0  0  0
   -4.0910   -5.7518    7.3854 P   0  0  0  0  0  0  0  0  0  0  0  0
   -5.3047   -5.5289    8.2035 O   0  0  0  0  0  0  0  0  0  0  0  0
   -2.8165   -6.0466    8.0752 O   0  5  0  0  0  0  0  0  0  0  0  0
   -3.8600   -4.3926    6.5891 O   0  5  0  0  0  0  0  0  0  0  0  0
  1 18  1  0  0  0  0
  1  2  1  0  0  0  0
  2  4  1  0  0  0  0
  2  3  2  0  0  0  0
  4  5  1  0  0  0  0
  5  7  1  0  0  0  0
  5  6  2  0  0  0  0
  7 18  2  0  0  0  0
  7  8  1  0  0  0  0
  8  9  1  0  0  0  0
  9 10  2  0  0  0  0
  9 16  1  0  0  0  0
 10 11  1  0  0  0  0
 11 12  1  0  0  0  0
 11 13  2  0  0  0  0
 13 14  1  0  0  0  0
 13 15  1  0  0  0  0
 15 16  2  0  0  0  0
 16 17  1  0  0  0  0
 17 19  1  0  0  0  0
 17 18  1  0  0  0  0
 20 19  1  1  0  0  0
 20 22  1  0  0  0  0
 20 21  1  0  0  0  0
 22 24  1  0  0  0  0
 22 23  1  6  0  0  0
 24 26  1  1  0  0  0
 24 25  1  0  0  0  0
 26 27  1  0  0  0  0
 27 28  1  0  0  0  0
 28 30  1  0  0  0  0
 28 29  2  0  0  0  0
 28 31  1  0  0  0  0
M  CHG  2  30  -1  31  -1
M  END
>  <CHROM.1>
-107.38508688,117.32445163,175.40360044,-174.48574960,74.13665733,64.47198938
-81.61935898,172.94008771,-104.12767596,154.72520646,-7.31643231,-5.65941660
2.93693775,2.20371042,0.20920959,-1.53148954

>  <Name>
1fmn_cryst

>  <RI>
0

>  <Rbt.Current_Directory>
/home/itssahil/PROJECTS/Mol_Feturizer/New_Systems/rnas/1fmn

>  <Rbt.Executable>
rbdock ($Id: //depot/dev/client3/rdock/2013.1/src/exe/rbdock.cxx#4 $)

>  <Rbt.Library>
libRbt.so (2013.1, Build901 2013/11/27)

>  <Rbt.Parameter_File>
/export/apps/rDock/src/rDock_2013.1_src/data/scripts/dock_solv.prm

>  <Rbt.Receptor>
prm/pocket_docking_5.prm

>  <SCORE>
-54.4307

>  <SCORE.INTER>
-53.2652

>  <SCORE.INTER.CONST>
1

>  <SCORE.INTER.POLAR>
-3.63246

>  <SCORE.INTER.ROT>
7

>  <SCORE.INTER.SOLV>
19.885

>  <SCORE.INTER.VDW>
-38.297

>  <SCORE.INTER.norm>
-1.71823

>  <SCORE.INTRA>
-1.16541

>  <SCORE.INTRA.DIHEDRAL>
1.53188

>  <SCORE.INTRA.DIHEDRAL.0>
15.5708

>  <SCORE.INTRA.POLAR>
-0.686184

>  <SCORE.INTRA.POLAR.0>
-0.0677885

>  <SCORE.INTRA.REPUL>
0

>  <SCORE.INTRA.REPUL.0>
0

>  <SCORE.INTRA.SOLV>
-0.44482

>  <SCORE.INTRA.SOLV.lig_0>
-87.6316

>  <SCORE.INTRA.VDW>
0.624087

>  <SCORE.INTRA.VDW.0>
-2.87309

>  <SCORE.INTRA.norm>
-0.0375937

>  <SCORE.RESTR>
0

>  <SCORE.RESTR.CAVITY>
0

>  <SCORE.RESTR.norm>
0

>  <SCORE.SYSTEM>
0

>  <SCORE.SYSTEM.CONST>
0

>  <SCORE.SYSTEM.DIHEDRAL>
0

>  <SCORE.SYSTEM.SOLV>
0

>  <SCORE.SYSTEM.norm>
0

>  <SCORE.heavy>
31

>  <SCORE.norm>
-1.75583

>  <SYMMETRIC_BONDS>
33 34 3

>  <RMSD>
1.692

$$$$
1fmn_cryst
 OpenBabel11021811393D
libRbt.so/2013.1/901 2013/11/27
 31 33  0  0  0  0  0  0  0  0999 V2000
   -8.9247   -6.2595    3.5863 N   0  0  0  0  0  0  0  0  0  0  0  0
   -9.7761   -6.1885    4.6641 C   0  0  0  0  0  0  0  0  0  0  0  0
   -9.5299   -6.7560    5.7289 O   0  0  0  0  0  0  0  0  0  0  0  0
  -10.9551   -5.4259    4.4696 N   0  0  0  0  0  0  0  0  0  0  0  0
  -11.3345   -4.7437    3.2928 C   0  0  0  0  0  0  0  0  0  0  0  0
  -12.3970   -4.1101    3.2602 O   0  0  0  0  0  0  0  0  0  0  0  0
  -10.3763   -4.8688    2.1922 C   0  0  0  0  0  0  0  0  0  0  0  0
  -10.6717   -4.2336    1.0117 N   0  0  0  0  0  0  0  0  0  0  0  0
   -9.8735   -4.4984   -0.0632 C   0  0  0  0  0  0  0  0  0  0  0  0
  -10.2686   -4.0119   -1.2967 C   0  0  0  0  0  0  0  0  0  0  0  0
   -9.5262   -4.2353   -2.4059 C   0  0  0  0  0  0  0  0  0  0  0  0
   -9.9963   -3.6848   -3.7144 C   0  0  0  0  0  0  0  0  0  0  0  0
   -8.3705   -4.9490   -2.3272 C   0  0  0  0  0  0  0  0  0  0  0  0
   -7.5606   -5.1968   -3.5580 C   0  0  0  0  0  0  0  0  0  0  0  0
   -7.9430   -5.4452   -1.1382 C   0  0  0  0  0  0  0  0  0  0  0  0
   -8.6707   -5.2428    0.0344 C   0  0  0  0  0  0  0  0  0  0  0  0
   -8.2828   -5.7266    1.3015 N   0  0  0  0  0  0  0  0  0  0  0  0
   -9.1739   -5.6435    2.3910 C   0  0  0  0  0  0  0  0  0  0  0  0
   -6.8078   -5.7849    1.6166 C   0  0  0  0  0  0  0  0  0  0  0  0
   -6.1333   -7.1867    1.5145 C   0  0  1  0  0  0  0  0  0  0  0  0
   -5.1105   -7.1669    0.5289 O   0  0  0  0  0  0  0  0  0  0  0  0
   -5.6213   -7.7180    2.8745 C   0  0  1  0  0  0  0  0  0  0  0  0
   -6.6798   -7.7349    3.8278 O   0  0  0  0  0  0  0  0  0  0  0  0
   -4.8987   -9.0875    2.8647 C   0  0  1  0  0  0  0  0  0  0  0  0
   -3.8636   -9.0425    1.8888 O   0  0  0  0  0  0  0  0  0  0  0  0
   -4.2777   -9.4509    4.2322 C   0  0  0  0  0  0  0  0  0  0  0  0
   -3.5197  -10.6539    4.1823 O   0  0  0  0  0  0  0  0  0  0  0  0
   -2.6921  -11.1965    5.4200 P   0  0  0  0  0  0  0  0  0  0  0  0
   -2.0518  -12.4927    5.1004 O   0  0  0  0  0  0  0  0  0  0  0  0
   -1.8612  -10.1212    6.0033 O   0  5  0  0  0  0  0  0  0  0  0  0
   -3.8095  -11.5306    6.5038 O   0  5  0  0  0  0  0  0  0  0  0  0
  1 18  1  0  0  0  0
  1  2  1  0  0  0  0
  2  4  1  0  0  0  0
  2  3  2  0  0  0  0
  4  5  1  0  0  0  0
  5  7  1  0  0  0  0
  5  6  2  0  0  0  0
  7 18  2  0  0  0  0
  7  8  1  0  0  0  0
  8  9  1  0  0  0  0
  9 10  2  0  0  0  0
  9 16  1  0  0  0  0
 10 11  1  0  0  0  0
 11 12  1  0  0  0  0
 11 13  2  0  0  0  0
 13 14  1  0  0  0  0
 13 15  1  0  0  0  0
 15 16  2  0  0  0  0
 16 17  1  0  0  0  0
 17 19  1  0  0  0  0
 17 18  1  0  0  0  0
 20 19  1  1  0  0  0
 20 22  1  0  0  0  0
 20 21  1  0  0  0  0
 22 24  1  0  0  0  0
 22 23  1  1  0  0  0
 24 26  1  1  0  0  0
 24 25  1  0  0  0  0
 26 27  1  0  0  0  0
 27 28  1  0  0  0  0
 28 30  1  0  0  0  0
 28 29  2  0  0  0  0
 28 31  1  0  0  0  0
M  CHG  2  30  -1  31  -1
M  END
>  <CHROM.1>
-101.67682850,118.80346669,55.26104641,-74.72989046,52.44528390,-170.58017425
-174.93683479,-176.99818090,175.48350354,177.54772836,-7.13199726,-7.08304116
2.30209766,2.43472857,0.55957602,-1.24986851

>  <Name>
1fmn_cryst

>  <RI>
0

>  <Rbt.Current_Directory>
/home/itssahil/PROJECTS/Mol_Feturizer/New_Systems/rnas/1fmn

>  <Rbt.Executable>
rbdock ($Id: //depot/dev/client3/rdock/2013.1/src/exe/rbdock.cxx#4 $)

>  <Rbt.Library>
libRbt.so (2013.1, Build901 2013/11/27)

>  <Rbt.Parameter_File>
/export/apps/rDock/src/rDock_2013.1_src/data/scripts/dock_solv.prm

>  <Rbt.Receptor>
prm/pocket_docking_4.prm

>  <SCORE>
-60.8057

>  <SCORE.INTER>
-53.4722

>  <SCORE.INTER.CONST>
1

>  <SCORE.INTER.POLAR>
-2.93631

>  <SCORE.INTER.ROT>
7

>  <SCORE.INTER.SOLV>
16.9589

>  <SCORE.INTER.VDW>
-39.7801

>  <SCORE.INTER.norm>
-1.72491

>  <SCORE.INTRA>
-7.33352

>  <SCORE.INTRA.DIHEDRAL>
-5.68552

>  <SCORE.INTRA.DIHEDRAL.0>
15.5708

>  <SCORE.INTRA.POLAR>
-0.935808

>  <SCORE.INTRA.POLAR.0>
-0.0677885

>  <SCORE.INTRA.REPUL>
0

>  <SCORE.INTRA.REPUL.0>
0

>  <SCORE.INTRA.SOLV>
-3.41224

>  <SCORE.INTRA.SOLV.lig_0>
-87.6316

>  <SCORE.INTRA.VDW>
0.397109

>  <SCORE.INTRA.VDW.0>
-2.87309

>  <SCORE.INTRA.norm>
-0.236565

>  <SCORE.RESTR>
0

>  <SCORE.RESTR.CAVITY>
0

>  <SCORE.RESTR.norm>
0

>  <SCORE.SYSTEM>
0

>  <SCORE.SYSTEM.CONST>
0

>  <SCORE.SYSTEM.DIHEDRAL>
0

>  <SCORE.SYSTEM.SOLV>
0

>  <SCORE.SYSTEM.norm>
0

>  <SCORE.heavy>
31

>  <SCORE.norm>
-1.96147

>  <SYMMETRIC_BONDS>
33 34 3

>  <RMSD>
1.697

$$$$
1fmn_cryst
 OpenBabel11021811393D
libRbt.so/2013.1/901 2013/11/27
 31 33  0  0  0  0  0  0  0  0999 V2000
   -9.0862   -6.1333    3.6673 N   0  0  0  0  0  0  0  0  0  0  0  0
   -9.9367   -6.2275    4.7441 C   0  0  0  0  0  0  0  0  0  0  0  0
   -9.5816   -6.7209    5.8150 O   0  0  0  0  0  0  0  0  0  0  0  0
  -11.2469   -5.7261    4.5410 N   0  0  0  0  0  0  0  0  0  0  0  0
  -11.7557   -5.1492    3.3567 C   0  0  0  0  0  0  0  0  0  0  0  0
  -12.9258   -4.7483    3.3170 O   0  0  0  0  0  0  0  0  0  0  0  0
  -10.7896   -5.0861    2.2577 C   0  0  0  0  0  0  0  0  0  0  0  0
  -11.2064   -4.5379    1.0703 N   0  0  0  0  0  0  0  0  0  0  0  0
  -10.3682   -4.6441   -0.0014 C   0  0  0  0  0  0  0  0  0  0  0  0
  -10.8520   -4.2625   -1.2403 C   0  0  0  0  0  0  0  0  0  0  0  0
  -10.0767   -4.3401   -2.3468 C   0  0  0  0  0  0  0  0  0  0  0  0
  -10.6468   -3.9121   -3.6614 C   0  0  0  0  0  0  0  0  0  0  0  0
   -8.7991   -4.7997   -2.2601 C   0  0  0  0  0  0  0  0  0  0  0  0
   -7.9524   -4.8886   -3.4879 C   0  0  0  0  0  0  0  0  0  0  0  0
   -8.2815   -5.1846   -1.0656 C   0  0  0  0  0  0  0  0  0  0  0  0
   -9.0382   -5.1239    0.1046 C   0  0  0  0  0  0  0  0  0  0  0  0
   -8.5621   -5.5040    1.3769 N   0  0  0  0  0  0  0  0  0  0  0  0
   -9.4540   -5.5945    2.4652 C   0  0  0  0  0  0  0  0  0  0  0  0
   -7.1075   -5.2540    1.6930 C   0  0  0  0  0  0  0  0  0  0  0  0
   -6.0679   -5.9461    0.7601 C   0  0  1  0  0  0  0  0  0  0  0  0
   -5.1238   -4.9950    0.2889 O   0  0  0  0  0  0  0  0  0  0  0  0
   -5.3841   -7.1717    1.4116 C   0  0  1  0  0  0  0  0  0  0  0  0
   -6.3521   -8.1699    1.7216 O   0  0  0  0  0  0  0  0  0  0  0  0
   -4.2008   -7.8064    0.6404 C   0  0  1  0  0  0  0  0  0  0  0  0
   -3.7961   -6.9041   -0.3833 O   0  0  0  0  0  0  0  0  0  0  0  0
   -2.9854   -8.1098    1.5450 C   0  0  0  0  0  0  0  0  0  0  0  0
   -3.3294   -8.9174    2.6646 O   0  0  0  0  0  0  0  0  0  0  0  0
   -2.2942   -9.2826    3.8075 P   0  0  0  0  0  0  0  0  0  0  0  0
   -1.9933  -10.7323    3.8046 O   0  0  0  0  0  0  0  0  0  0  0  0
   -1.1669   -8.3255    3.8150 O   0  5  0  0  0  0  0  0  0  0  0  0
   -3.1074   -9.0204    5.1510 O   0  5  0  0  0  0  0  0  0  0  0  0
  1 18  1  0  0  0  0
  1  2  1  0  0  0  0
  2  4  1  0  0  0  0
  2  3  2  0  0  0  0
  4  5  1  0  0  0  0
  5  7  1  0  0  0  0
  5  6  2  0  0  0  0
  7 18  2  0  0  0  0
  7  8  1  0  0  0  0
  8  9  1  0  0  0  0
  9 10  2  0  0  0  0
  9 16  1  0  0  0  0
 10 11  1  0  0  0  0
 11 12  1  0  0  0  0
 11 13  2  0  0  0  0
 13 14  1  0  0  0  0
 13 15  1  0  0  0  0
 15 16  2  0  0  0  0
 16 17  1  0  0  0  0
 17 19  1  0  0  0  0
 17 18  1  0  0  0  0
 20 19  1  1  0  0  0
 20 22  1  0  0  0  0
 20 21  1  0  0  0  0
 22 24  1  0  0  0  0
 22 23  1  6  0  0  0
 24 26  1  1  0  0  0
 24 25  1  0  0  0  0
 26 27  1  0  0  0  0
 27 28  1  0  0  0  0
 28 30  1  0  0  0  0
 28 29  2  0  0  0  0
 28 31  1  0  0  0  0
M  CHG  2  30  -1  31  -1
M  END
>  <CHROM.1>
-59.33931916,128.96139740,61.68643982,-45.78989854,13.64921356,63.43817413
54.59236617,-80.26269784,-175.21749906,-113.39962026,-7.18229520,-6.42991285
1.62304456,2.71191060,0.37373921,-1.26451074

>  <Name>
1fmn_cryst

>  <RI>
0

>  <Rbt.Current_Directory>
/home/itssahil/PROJECTS/Mol_Feturizer/New_Systems/rnas/1fmn

>  <Rbt.Executable>
rbdock ($Id: //depot/dev/client3/rdock/2013.1/src/exe/rbdock.cxx#4 $)

>  <Rbt.Library>
libRbt.so (2013.1, Build901 2013/11/27)

>  <Rbt.Parameter_File>
/export/apps/rDock/src/rDock_2013.1_src/data/scripts/dock_solv.prm

>  <Rbt.Receptor>
prm/pocket_docking_3.prm

>  <SCORE>
-58.8178

>  <SCORE.INTER>
-59.2191

>  <SCORE.INTER.CONST>
1

>  <SCORE.INTER.POLAR>
-4.8851

>  <SCORE.INTER.ROT>
7

>  <SCORE.INTER.SOLV>
19.5732

>  <SCORE.INTER.VDW>
-37.9868

>  <SCORE.INTER.norm>
-1.91029

>  <SCORE.INTRA>
0.378001

>  <SCORE.INTRA.DIHEDRAL>
0.607225

>  <SCORE.INTRA.DIHEDRAL.0>
15.5708

>  <SCORE.INTRA.POLAR>
0.0677885

>  <SCORE.INTRA.POLAR.0>
-0.0677885

>  <SCORE.INTRA.REPUL>
0

>  <SCORE.INTRA.REPUL.0>
0

>  <SCORE.INTRA.SOLV>
-4.37042

>  <SCORE.INTRA.SOLV.lig_0>
-87.6316

>  <SCORE.INTRA.VDW>
2.02912

>  <SCORE.INTRA.VDW.0>
-2.87309

>  <SCORE.INTRA.norm>
0.0121936

>  <SCORE.RESTR>
0.0232282

>  <SCORE.RESTR.CAVITY>
0.0232282

>  <SCORE.RESTR.norm>
0.000749296

>  <SCORE.SYSTEM>
0

>  <SCORE.SYSTEM.CONST>
0

>  <SCORE.SYSTEM.DIHEDRAL>
0

>  <SCORE.SYSTEM.SOLV>
0

>  <SCORE.SYSTEM.norm>
0

>  <SCORE.heavy>
31

>  <SCORE.norm>
-1.89735

>  <SYMMETRIC_BONDS>
33 34 3

>  <RMSD>
1.701

$$$$
1fmn_cryst
 OpenBabel11021811393D
libRbt.so/2013.1/901 2013/11/27
 31 33  0  0  0  0  0  0  0  0999 V2000
   -8.8870   -6.2056    3.5431 N   0  0  0  0  0  0  0  0  0  0  0  0
   -9.6469   -6.2258    4.6892 C   0  0  0  0  0  0  0  0  0  0  0  0
   -9.2718   -6.8019    5.7109 O   0  0  0  0  0  0  0  0  0  0  0  0
  -10.8891   -5.5466    4.6178 N   0  0  0  0  0  0  0  0  0  0  0  0
  -11.4141   -4.8629    3.4993 C   0  0  0  0  0  0  0  0  0  0  0  0
  -12.5177   -4.3081    3.5754 O   0  0  0  0  0  0  0  0  0  0  0  0
  -10.5462   -4.8882    2.3198 C   0  0  0  0  0  0  0  0  0  0  0  0
  -10.9847   -4.2451    1.1892 N   0  0  0  0  0  0  0  0  0  0  0  0
  -10.2638   -4.4220    0.0439 C   0  0  0  0  0  0  0  0  0  0  0  0
  -10.7955   -3.9331   -1.1362 C   0  0  0  0  0  0  0  0  0  0  0  0
  -10.1358   -4.0720   -2.3096 C   0  0  0  0  0  0  0  0  0  0  0  0
  -10.7528   -3.5226   -3.5562 C   0  0  0  0  0  0  0  0  0  0  0  0
   -8.9301   -4.7010   -2.3501 C   0  0  0  0  0  0  0  0  0  0  0  0
   -8.2119   -4.8561   -3.6509 C   0  0  0  0  0  0  0  0  0  0  0  0
   -8.3694   -5.1961   -1.2172 C   0  0  0  0  0  0  0  0  0  0  0  0
   -9.0075   -5.0788    0.0175 C   0  0  0  0  0  0  0  0  0  0  0  0
   -8.4804   -5.5665    1.2316 N   0  0  0  0  0  0  0  0  0  0  0  0
   -9.2796   -5.5779    2.3932 C   0  0  0  0  0  0  0  0  0  0  0  0
   -6.9835   -5.5251    1.4218 C   0  0  0  0  0  0  0  0  0  0  0  0
   -6.3046   -6.8583    1.8597 C   0  0  1  0  0  0  0  0  0  0  0  0
   -6.6067   -7.8895    0.9306 O   0  0  0  0  0  0  0  0  0  0  0  0
   -4.7824   -6.7179    2.0992 C   0  0  1  0  0  0  0  0  0  0  0  0
   -4.5152   -5.5899    2.9273 O   0  0  0  0  0  0  0  0  0  0  0  0
   -4.0416   -7.9621    2.6480 C   0  0  1  0  0  0  0  0  0  0  0  0
   -2.6461   -7.6823    2.6664 O   0  0  0  0  0  0  0  0  0  0  0  0
   -4.4901   -8.3497    4.0750 C   0  0  0  0  0  0  0  0  0  0  0  0
   -3.9162   -9.5765    4.5106 O   0  0  0  0  0  0  0  0  0  0  0  0
   -4.1428  -10.1585    5.9670 P   0  0  0  0  0  0  0  0  0  0  0  0
   -5.5349   -9.9306    6.4167 O   0  0  0  0  0  0  0  0  0  0  0  0
   -3.5769  -11.5203    6.0780 O   0  5  0  0  0  0  0  0  0  0  0  0
   -3.2405   -9.2268    6.8903 O   0  5  0  0  0  0  0  0  0  0  0  0
  1 18  1  0  0  0  0
  1  2  1  0  0  0  0
  2  4  1  0  0  0  0
  2  3  2  0  0  0  0
  4  5  1  0  0  0  0
  5  7  1  0  0  0  0
  5  6  2  0  0  0  0
  7 18  2  0  0  0  0
  7  8  1  0  0  0  0
  8  9  1  0  0  0  0
  9 10  2  0  0  0  0
  9 16  1  0  0  0  0
 10 11  1  0  0  0  0
 11 12  1  0  0  0  0
 11 13  2  0  0  0  0
 13 14  1  0  0  0  0
 13 15  1  0  0  0  0
 15 16  2  0  0  0  0
 16 17  1  0  0  0  0
 17 19  1  0  0  0  0
 17 18  1  0  0  0  0
 20 19  1  6  0  0  0
 20 22  1  0  0  0  0
 20 21  1  0  0  0  0
 22 24  1  0  0  0  0
 22 23  1  1  0  0  0
 24 26  1  1  0  0  0
 24 25  1  0  0  0  0
 26 27  1  0  0  0  0
 27 28  1  0  0  0  0
 28 30  1  0  0  0  0
 28 29  2  0  0  0  0
 28 31  1  0  0  0  0
M  CHG  2  30  -1  31  -1
M  END
>  <CHROM.1>
-128.43556232,56.35769914,48.71565716,-177.72345539,173.98280127,56.47611670
173.37896764,-175.56360050,176.26615667,38.86638782,-7.44226771,-6.60534412
2.43337979,2.32461112,0.42785164,-1.23144064

>  <Name>
1fmn_cryst

>  <RI>
0

>  <Rbt.Current_Directory>
/home/itssahil/PROJECTS/Mol_Feturizer/New_Systems/rnas/1fmn

>  <Rbt.Executable>
rbdock ($Id: //depot/dev/client3/rdock/2013.1/src/exe/rbdock.cxx#4 $)

>  <Rbt.Library>
libRbt.so (2013.1, Build901 2013/11/27)

>  <Rbt.Parameter_File>
/export/apps/rDock/src/rDock_2013.1_src/data/scripts/dock_solv.prm

>  <Rbt.Receptor>
prm/pocket_docking_3.prm

>  <SCORE>
-54.5396

>  <SCORE.INTER>
-47.3617

>  <SCORE.INTER.CONST>
1

>  <SCORE.INTER.POLAR>
-2.14554

>  <SCORE.INTER.ROT>
7

>  <SCORE.INTER.SOLV>
20.5718

>  <SCORE.INTER.VDW>
-39.5466

>  <SCORE.INTER.norm>
-1.5278

>  <SCORE.INTRA>
-7.17792

>  <SCORE.INTRA.DIHEDRAL>
-11.9184

>  <SCORE.INTRA.DIHEDRAL.0>
15.5708

>  <SCORE.INTRA.POLAR>
0.0677885

>  <SCORE.INTRA.POLAR.0>
-0.0677885

>  <SCORE.INTRA.REPUL>
0

>  <SCORE.INTRA.REPUL.0>
0

>  <SCORE.INTRA.SOLV>
-5.11556

>  <SCORE.INTRA.SOLV.lig_0>
-87.6316

>  <SCORE.INTRA.VDW>
1.10855

>  <SCORE.INTRA.VDW.0>
-2.87309

>  <SCORE.INTRA.norm>
-0.231546

>  <SCORE.RESTR>
0

>  <SCORE.RESTR.CAVITY>
0

>  <SCORE.RESTR.norm>
0

>  <SCORE.SYSTEM>
0

>  <SCORE.SYSTEM.CONST>
0

>  <SCORE.SYSTEM.DIHEDRAL>
0

>  <SCORE.SYSTEM.SOLV>
0

>  <SCORE.SYSTEM.norm>
0

>  <SCORE.heavy>
31

>  <SCORE.norm>
-1.75934

>  <SYMMETRIC_BONDS>
33 34 3

>  <RMSD>
1.707

$$$$
1fmn_cryst
 OpenBabel11021811393D
libRbt.so/2013.1/901 2013/11/27
 31 33  0  0  0  0  0  0  0  0999 V2000
   -8.9924   -6.1439    3.5583 N   0  0  0  0  0  0  0  0  0  0  0  0
   -9.7780   -6.1574    4.6871 C   0  0  0  0  0  0  0  0  0  0  0  0
   -9.4197   -6.7148    5.7251 O   0  0  0  0  0  0  0  0  0  0  0  0
  -11.0262   -5.4943    4.5779 N   0  0  0  0  0  0  0  0  0  0  0  0
  -11.5335   -4.8325    3.4382 C   0  0  0  0  0  0  0  0  0  0  0  0
  -12.6450   -4.2901    3.4813 O   0  0  0  0  0  0  0  0  0  0  0  0
  -10.6386   -4.8637    2.2792 C   0  0  0  0  0  0  0  0  0  0  0  0
  -11.0587   -4.2416    1.1299 N   0  0  0  0  0  0  0  0  0  0  0  0
  -10.3097   -4.4256    0.0039 C   0  0  0  0  0  0  0  0  0  0  0  0
  -10.8200   -3.9595   -1.1947 C   0  0  0  0  0  0  0  0  0  0  0  0
  -10.1320   -4.1067   -2.3508 C   0  0  0  0  0  0  0  0  0  0  0  0
  -10.7267   -3.5821   -3.6186 C   0  0  0  0  0  0  0  0  0  0  0  0
   -8.9183   -4.7216   -2.3550 C   0  0  0  0  0  0  0  0  0  0  0  0
   -8.1688   -4.8859   -3.6369 C   0  0  0  0  0  0  0  0  0  0  0  0
   -8.3779   -5.1941   -1.2028 C   0  0  0  0  0  0  0  0  0  0  0  0
   -9.0455   -5.0675    0.0153 C   0  0  0  0  0  0  0  0  0  0  0  0
   -8.5406   -5.5320    1.2479 N   0  0  0  0  0  0  0  0  0  0  0  0
   -9.3660   -5.5369    2.3910 C   0  0  0  0  0  0  0  0  0  0  0  0
   -7.0491   -5.4699    1.4714 C   0  0  0  0  0  0  0  0  0  0  0  0
   -6.3345   -6.8265    1.7527 C   0  0  1  0  0  0  0  0  0  0  0  0
   -5.4009   -7.1110    0.7205 O   0  0  0  0  0  0  0  0  0  0  0  0
   -5.6891   -6.8965    3.1572 C   0  0  1  0  0  0  0  0  0  0  0  0
   -6.1908   -5.8501    3.9835 O   0  0  0  0  0  0  0  0  0  0  0  0
   -5.7827   -8.2494    3.9048 C   0  0  1  0  0  0  0  0  0  0  0  0
   -5.2231   -9.2611    3.0747 O   0  0  0  0  0  0  0  0  0  0  0  0
   -5.0335   -8.2441    5.2562 C   0  0  0  0  0  0  0  0  0  0  0  0
   -4.9242   -9.5448    5.8221 O   0  0  0  0  0  0  0  0  0  0  0  0
   -4.2074   -9.8180    7.2088 P   0  0  0  0  0  0  0  0  0  0  0  0
   -4.9259   -9.1479    8.3164 O   0  0  0  0  0  0  0  0  0  0  0  0
   -3.8707  -11.2513    7.3481 O   0  5  0  0  0  0  0  0  0  0  0  0
   -2.8205   -9.0477    7.0748 O   0  5  0  0  0  0  0  0  0  0  0  0
  1 18  1  0  0  0  0
  1  2  1  0  0  0  0
  2  4  1  0  0  0  0
  2  3  2  0  0  0  0
  4  5  1  0  0  0  0
  5  7  1  0  0  0  0
  5  6  2  0  0  0  0
  7 18  2  0  0  0  0
  7  8  1  0  0  0  0
  8  9  1  0  0  0  0
  9 10  2  0  0  0  0
  9 16  1  0  0  0  0
 10 11  1  0  0  0  0
 11 12  1  0  0  0  0
 11 13  2  0  0  0  0
 13 14  1  0  0  0  0
 13 15  1  0  0  0  0
 15 16  2  0  0  0  0
 16 17  1  0  0  0  0
 17 19  1  0  0  0  0
 17 18  1  0  0  0  0
 20 19  1  6  0  0  0
 20 22  1  0  0  0  0
 20 21  1  0  0  0  0
 22 24  1  0  0  0  0
 22 23  1  1  0  0  0
 24 26  1  1  0  0  0
 24 25  1  0  0  0  0
 26 27  1  0  0  0  0
 27 28  1  0  0  0  0
 28 30  1  0  0  0  0
 28 29  2  0  0  0  0
 28 31  1  0  0  0  0
M  CHG  2  30  -1  31  -1
M  END
>  <CHROM.1>
-120.35818397,116.90909123,15.02346071,-63.76038392,55.75621374,-68.29026598
-169.65954477,-172.60734027,-179.69510224,63.83823162,-7.70013005,-6.57339923
2.81094697,2.21614838,0.47267769,-1.30621113

>  <Name>
1fmn_cryst

>  <RI>
0

>  <Rbt.Current_Directory>
/home/itssahil/PROJECTS/Mol_Feturizer/New_Systems/rnas/1fmn

>  <Rbt.Executable>
rbdock ($Id: //depot/dev/client3/rdock/2013.1/src/exe/rbdock.cxx#4 $)

>  <Rbt.Library>
libRbt.so (2013.1, Build901 2013/11/27)

>  <Rbt.Parameter_File>
/export/apps/rDock/src/rDock_2013.1_src/data/scripts/dock_solv.prm

>  <Rbt.Receptor>
prm/pocket_docking_7.prm

>  <SCORE>
-63.5737

>  <SCORE.INTER>
-60.7457

>  <SCORE.INTER.CONST>
1

>  <SCORE.INTER.POLAR>
-4.20178

>  <SCORE.INTER.ROT>
7

>  <SCORE.INTER.SOLV>
16.6474

>  <SCORE.INTER.VDW>
-40.307

>  <SCORE.INTER.norm>
-1.95954

>  <SCORE.INTRA>
-2.828

>  <SCORE.INTRA.DIHEDRAL>
-2.34012

>  <SCORE.INTRA.DIHEDRAL.0>
15.5708

>  <SCORE.INTRA.POLAR>
-0.382702

>  <SCORE.INTRA.POLAR.0>
-0.0677885

>  <SCORE.INTRA.REPUL>
0

>  <SCORE.INTRA.REPUL.0>
0

>  <SCORE.INTRA.SOLV>
-3.72739

>  <SCORE.INTRA.SOLV.lig_0>
-87.6316

>  <SCORE.INTRA.VDW>
1.50694

>  <SCORE.INTRA.VDW.0>
-2.87309

>  <SCORE.INTRA.norm>
-0.0912257

>  <SCORE.RESTR>
0

>  <SCORE.RESTR.CAVITY>
0

>  <SCORE.RESTR.norm>
0

>  <SCORE.SYSTEM>
0

>  <SCORE.SYSTEM.CONST>
0

>  <SCORE.SYSTEM.DIHEDRAL>
0

>  <SCORE.SYSTEM.SOLV>
0

>  <SCORE.SYSTEM.norm>
0

>  <SCORE.heavy>
31

>  <SCORE.norm>
-2.05076

>  <SYMMETRIC_BONDS>
33 34 3

>  <RMSD>
1.712

$$$$
1fmn_cryst
 OpenBabel11021811393D
libRbt.so/2013.1/901 2013/11/27
 31 33  0  0  0  0  0  0  0  0999 V2000
   -8.7035   -6.2166    3.6168 N   0  0  0  0  0  0  0  0  0  0  0  0
   -9.5486   -6.2383    4.7016 C   0  0  0  0  0  0  0  0  0  0  0  0
   -9.2265   -6.7599    5.7697 O   0  0  0  0  0  0  0  0  0  0  0  0
  -10.8135   -5.6277    4.5105 N   0  0  0  0  0  0  0  0  0  0  0  0
  -11.2829   -5.0099    3.3305 C   0  0  0  0  0  0  0  0  0  0  0  0
  -12.4151   -4.5113    3.3015 O   0  0  0  0  0  0  0  0  0  0  0  0
  -10.3253   -5.0290    2.2224 C   0  0  0  0  0  0  0  0  0  0  0  0
  -10.7055   -4.4477    1.0385 N   0  0  0  0  0  0  0  0  0  0  0  0
   -9.8895   -4.6246   -0.0410 C   0  0  0  0  0  0  0  0  0  0  0  0
  -10.3510   -4.2036   -1.2756 C   0  0  0  0  0  0  0  0  0  0  0  0
   -9.5956   -4.3468   -2.3893 C   0  0  0  0  0  0  0  0  0  0  0  0
  -10.1398   -3.8721   -3.6989 C   0  0  0  0  0  0  0  0  0  0  0  0
   -8.3607   -4.9130   -2.3143 C   0  0  0  0  0  0  0  0  0  0  0  0
   -7.5364   -5.0734   -3.5499 C   0  0  0  0  0  0  0  0  0  0  0  0
   -7.8663   -5.3401   -1.1243 C   0  0  0  0  0  0  0  0  0  0  0  0
   -8.6040   -5.2154    0.0529 C   0  0  0  0  0  0  0  0  0  0  0  0
   -8.1498   -5.6343    1.3210 N   0  0  0  0  0  0  0  0  0  0  0  0
   -9.0357   -5.6488    2.4178 C   0  0  0  0  0  0  0  0  0  0  0  0
   -6.6762   -5.5085    1.6231 C   0  0  0  0  0  0  0  0  0  0  0  0
   -5.8827   -6.8428    1.7651 C   0  0  1  0  0  0  0  0  0  0  0  0
   -6.7250   -7.9471    1.4670 O   0  0  0  0  0  0  0  0  0  0  0  0
   -4.5760   -6.8667    0.9367 C   0  0  1  0  0  0  0  0  0  0  0  0
   -4.8157   -6.3713   -0.3773 O   0  0  0  0  0  0  0  0  0  0  0  0
   -3.3438   -6.1579    1.5508 C   0  0  1  0  0  0  0  0  0  0  0  0
   -3.7088   -4.8203    1.8723 O   0  0  0  0  0  0  0  0  0  0  0  0
   -2.8240   -6.8527    2.8294 C   0  0  0  0  0  0  0  0  0  0  0  0
   -1.7414   -6.1500    3.4279 O   0  0  0  0  0  0  0  0  0  0  0  0
   -1.0125   -6.6571    4.7404 P   0  0  0  0  0  0  0  0  0  0  0  0
   -0.5907   -8.0692    4.5988 O   0  0  0  0  0  0  0  0  0  0  0  0
   -0.0183   -5.6641    5.2013 O   0  5  0  0  0  0  0  0  0  0  0  0
   -2.1691   -6.6671    5.8345 O   0  5  0  0  0  0  0  0  0  0  0  0
  1 18  1  0  0  0  0
  1  2  1  0  0  0  0
  2  4  1  0  0  0  0
  2  3  2  0  0  0  0
  4  5  1  0  0  0  0
  5  7  1  0  0  0  0
  5  6  2  0  0  0  0
  7 18  2  0  0  0  0
  7  8  1  0  0  0  0
  8  9  1  0  0  0  0
  9 10  2  0  0  0  0
  9 16  1  0  0  0  0
 10 11  1  0  0  0  0
 11 12  1  0  0  0  0
 11 13  2  0  0  0  0
 13 14  1  0  0  0  0
 13 15  1  0  0  0  0
 15 16  2  0  0  0  0
 16 17  1  0  0  0  0
 17 19  1  0  0  0  0
 17 18  1  0  0  0  0
 20 19  1  6  0  0  0
 20 22  1  0  0  0  0
 20 21  1  0  0  0  0
 22 24  1  0  0  0  0
 22 23  1  6  0  0  0
 24 26  1  1  0  0  0
 24 25  1  0  0  0  0
 26 27  1  0  0  0  0
 27 28  1  0  0  0  0
 28 30  1  0  0  0  0
 28 29  2  0  0  0  0
 28 31  1  0  0  0  0
M  CHG  2  30  -1  31  -1
M  END
>  <CHROM.1>
-111.62537690,4.64366481,-45.53015085,58.56950716,-54.20043341,-62.57556050
-176.58160529,65.75556930,-179.24733872,51.66535929,-6.60878410,-5.79441122
1.92195899,2.68304718,0.13478974,-1.41354765

>  <Name>
1fmn_cryst

>  <RI>
0

>  <Rbt.Current_Directory>
/home/itssahil/PROJECTS/Mol_Feturizer/New_Systems/rnas/1fmn

>  <Rbt.Executable>
rbdock ($Id: //depot/dev/client3/rdock/2013.1/src/exe/rbdock.cxx#4 $)

>  <Rbt.Library>
libRbt.so (2013.1, Build901 2013/11/27)

>  <Rbt.Parameter_File>
/export/apps/rDock/src/rDock_2013.1_src/data/scripts/dock_solv.prm

>  <Rbt.Receptor>
prm/pocket_docking_4.prm

>  <SCORE>
-58.6704

>  <SCORE.INTER>
-54.1334

>  <SCORE.INTER.CONST>
1

>  <SCORE.INTER.POLAR>
-3.4176

>  <SCORE.INTER.ROT>
7

>  <SCORE.INTER.SOLV>
16.3121

>  <SCORE.INTER.VDW>
-38.401

>  <SCORE.INTER.norm>
-1.74624

>  <SCORE.INTRA>
-4.53694

>  <SCORE.INTRA.DIHEDRAL>
-6.77228

>  <SCORE.INTRA.DIHEDRAL.0>
15.5708

>  <SCORE.INTRA.POLAR>
0.0677885

>  <SCORE.INTRA.POLAR.0>
-0.0677885

>  <SCORE.INTRA.REPUL>
0

>  <SCORE.INTRA.REPUL.0>
0

>  <SCORE.INTRA.SOLV>
-3.62117

>  <SCORE.INTRA.SOLV.lig_0>
-87.6316

>  <SCORE.INTRA.VDW>
0.429306

>  <SCORE.INTRA.VDW.0>
-2.87309

>  <SCORE.INTRA.norm>
-0.146353

>  <SCORE.RESTR>
0

>  <SCORE.RESTR.CAVITY>
0

>  <SCORE.RESTR.norm>
0

>  <SCORE.SYSTEM>
0

>  <SCORE.SYSTEM.CONST>
0

>  <SCORE.SYSTEM.DIHEDRAL>
0

>  <SCORE.SYSTEM.SOLV>
0

>  <SCORE.SYSTEM.norm>
0

>  <SCORE.heavy>
31

>  <SCORE.norm>
-1.89259

>  <SYMMETRIC_BONDS>
33 34 3

>  <RMSD>
1.715

$$$$
1fmn_cryst
 OpenBabel11021811393D
libRbt.so/2013.1/901 2013/11/27
 31 33  0  0  0  0  0  0  0  0999 V2000
   -8.9681   -6.1129    3.3654 N   0  0  0  0  0  0  0  0  0  0  0  0
   -9.6327   -6.1961    4.5666 C   0  0  0  0  0  0  0  0  0  0  0  0
   -9.1654   -6.8036    5.5305 O   0  0  0  0  0  0  0  0  0  0  0  0
  -10.8898   -5.5433    4.6225 N   0  0  0  0  0  0  0  0  0  0  0  0
  -11.5165   -4.8279    3.5787 C   0  0  0  0  0  0  0  0  0  0  0  0
  -12.6211   -4.3021    3.7652 O   0  0  0  0  0  0  0  0  0  0  0  0
  -10.7460   -4.7864    2.3338 C   0  0  0  0  0  0  0  0  0  0  0  0
  -11.2867   -4.1092    1.2693 N   0  0  0  0  0  0  0  0  0  0  0  0
  -10.6569   -4.2238    0.0639 C   0  0  0  0  0  0  0  0  0  0  0  0
  -11.2913   -3.7007   -1.0488 C   0  0  0  0  0  0  0  0  0  0  0  0
  -10.7256   -3.7776   -2.2758 C   0  0  0  0  0  0  0  0  0  0  0  0
  -11.4516   -3.1935   -3.4454 C   0  0  0  0  0  0  0  0  0  0  0  0
   -9.5149   -4.3767   -2.4381 C   0  0  0  0  0  0  0  0  0  0  0  0
   -8.9008   -4.4634   -3.7973 C   0  0  0  0  0  0  0  0  0  0  0  0
   -8.8551   -4.9034   -1.3750 C   0  0  0  0  0  0  0  0  0  0  0  0
   -9.3941   -4.8499   -0.0896 C   0  0  0  0  0  0  0  0  0  0  0  0
   -8.7614   -5.3733    1.0575 N   0  0  0  0  0  0  0  0  0  0  0  0
   -9.4642   -5.4492    2.2774 C   0  0  0  0  0  0  0  0  0  0  0  0
   -7.2553   -5.3051    1.1294 C   0  0  0  0  0  0  0  0  0  0  0  0
   -6.4747   -6.4020    0.3435 C   0  0  1  0  0  0  0  0  0  0  0  0
   -5.8726   -5.8398   -0.8138 O   0  0  0  0  0  0  0  0  0  0  0  0
   -5.4532   -7.1684    1.2173 C   0  0  1  0  0  0  0  0  0  0  0  0
   -6.1180   -8.1500    2.0072 O   0  0  0  0  0  0  0  0  0  0  0  0
   -4.2468   -7.8080    0.4871 C   0  0  1  0  0  0  0  0  0  0  0  0
   -3.4735   -6.7671   -0.0999 O   0  0  0  0  0  0  0  0  0  0  0  0
   -3.3396   -8.6310    1.4290 C   0  0  0  0  0  0  0  0  0  0  0  0
   -3.3906   -8.1687    2.7735 O   0  0  0  0  0  0  0  0  0  0  0  0
   -2.5477   -8.8324    3.9399 P   0  0  0  0  0  0  0  0  0  0  0  0
   -2.7890  -10.2918    4.0021 O   0  0  0  0  0  0  0  0  0  0  0  0
   -1.1513   -8.3461    3.9158 O   0  5  0  0  0  0  0  0  0  0  0  0
   -3.2017   -8.2370    5.2638 O   0  5  0  0  0  0  0  0  0  0  0  0
  1 18  1  0  0  0  0
  1  2  1  0  0  0  0
  2  4  1  0  0  0  0
  2  3  2  0  0  0  0
  4  5  1  0  0  0  0
  5  7  1  0  0  0  0
  5  6  2  0  0  0  0
  7 18  2  0  0  0  0
  7  8  1  0  0  0  0
  8  9  1  0  0  0  0
  9 10  2  0  0  0  0
  9 16  1  0  0  0  0
 10 11  1  0  0  0  0
 11 12  1  0  0  0  0
 11 13  2  0  0  0  0
 13 14  1  0  0  0  0
 13 15  1  0  0  0  0
 15 16  2  0  0  0  0
 16 17  1  0  0  0  0
 17 19  1  0  0  0  0
 17 18  1  0  0  0  0
 20 19  1  1  0  0  0
 20 22  1  0  0  0  0
 20 21  1  0  0  0  0
 22 24  1  0  0  0  0
 22 23  1  6  0  0  0
 24 26  1  1  0  0  0
 24 25  1  0  0  0  0
 26 27  1  0  0  0  0
 27 28  1  0  0  0  0
 28 30  1  0  0  0  0
 28 29  2  0  0  0  0
 28 31  1  0  0  0  0
M  CHG  2  30  -1  31  -1
M  END
>  <CHROM.1>
-80.34282443,107.21995847,78.96730381,-64.41402201,63.36483866,-169.52659809
-27.21778036,61.38408352,-179.61861762,-53.47882145,-7.35783732,-6.22227078
1.57448300,2.66889042,0.40093914,-1.31077566

>  <Name>
1fmn_cryst

>  <RI>
0

>  <Rbt.Current_Directory>
/home/itssahil/PROJECTS/Mol_Feturizer/New_Systems/rnas/1fmn

>  <Rbt.Executable>
rbdock ($Id: //depot/dev/client3/rdock/2013.1/src/exe/rbdock.cxx#4 $)

>  <Rbt.Library>
libRbt.so (2013.1, Build901 2013/11/27)

>  <Rbt.Parameter_File>
/export/apps/rDock/src/rDock_2013.1_src/data/scripts/dock_solv.prm

>  <Rbt.Receptor>
prm/pocket_docking_3.prm

>  <SCORE>
-55.662

>  <SCORE.INTER>
-51.9549

>  <SCORE.INTER.CONST>
1

>  <SCORE.INTER.POLAR>
-2.81574

>  <SCORE.INTER.ROT>
7

>  <SCORE.INTER.SOLV>
18.9599

>  <SCORE.INTER.VDW>
-39.8374

>  <SCORE.INTER.norm>
-1.67596

>  <SCORE.INTRA>
-3.70706

>  <SCORE.INTRA.DIHEDRAL>
-3.59808

>  <SCORE.INTRA.DIHEDRAL.0>
15.5708

>  <SCORE.INTRA.POLAR>
-0.457098

>  <SCORE.INTRA.POLAR.0>
-0.0677885

>  <SCORE.INTRA.REPUL>
0

>  <SCORE.INTRA.REPUL.0>
0

>  <SCORE.INTRA.SOLV>
-3.76457

>  <SCORE.INTRA.SOLV.lig_0>
-87.6316

>  <SCORE.INTRA.VDW>
1.5284

>  <SCORE.INTRA.VDW.0>
-2.87309

>  <SCORE.INTRA.norm>
-0.119583

>  <SCORE.RESTR>
0

>  <SCORE.RESTR.CAVITY>
0

>  <SCORE.RESTR.norm>
0

>  <SCORE.SYSTEM>
0

>  <SCORE.SYSTEM.CONST>
0

>  <SCORE.SYSTEM.DIHEDRAL>
0

>  <SCORE.SYSTEM.SOLV>
0

>  <SCORE.SYSTEM.norm>
0

>  <SCORE.heavy>
31

>  <SCORE.norm>
-1.79555

>  <SYMMETRIC_BONDS>
33 34 3

>  <RMSD>
1.719

$$$$
1fmn_cryst
 OpenBabel11021811393D
libRbt.so/2013.1/901 2013/11/27
 31 33  0  0  0  0  0  0  0  0999 V2000
   -8.9999   -6.0781    3.6582 N   0  0  0  0  0  0  0  0  0  0  0  0
   -9.9050   -6.0098    4.6915 C   0  0  0  0  0  0  0  0  0  0  0  0
   -9.6858   -6.5286    5.7866 O   0  0  0  0  0  0  0  0  0  0  0  0
  -11.1060   -5.3096    4.4142 N   0  0  0  0  0  0  0  0  0  0  0  0
  -11.4578   -4.6863    3.1969 C   0  0  0  0  0  0  0  0  0  0  0  0
  -12.5447   -4.1041    3.0914 O   0  0  0  0  0  0  0  0  0  0  0  0
  -10.4427   -4.8045    2.1478 C   0  0  0  0  0  0  0  0  0  0  0  0
  -10.7083   -4.2243    0.9325 N   0  0  0  0  0  0  0  0  0  0  0  0
   -9.8479   -4.4884   -0.0934 C   0  0  0  0  0  0  0  0  0  0  0  0
  -10.2039   -4.0631   -1.3610 C   0  0  0  0  0  0  0  0  0  0  0  0
   -9.3992   -4.2897   -2.4252 C   0  0  0  0  0  0  0  0  0  0  0  0
   -9.8292   -3.8065   -3.7735 C   0  0  0  0  0  0  0  0  0  0  0  0
   -8.2181   -4.9461   -2.2665 C   0  0  0  0  0  0  0  0  0  0  0  0
   -7.3390   -5.1980   -3.4480 C   0  0  0  0  0  0  0  0  0  0  0  0
   -7.8272   -5.3810   -1.0414 C   0  0  0  0  0  0  0  0  0  0  0  0
   -8.6193   -5.1726    0.0876 C   0  0  0  0  0  0  0  0  0  0  0  0
   -8.2722   -5.5944    1.3882 N   0  0  0  0  0  0  0  0  0  0  0  0
   -9.2180   -5.5155    2.4309 C   0  0  0  0  0  0  0  0  0  0  0  0
   -6.8131   -5.5736    1.7742 C   0  0  0  0  0  0  0  0  0  0  0  0
   -6.1737   -6.9483    2.1371 C   0  0  1  0  0  0  0  0  0  0  0  0
   -5.0608   -7.2083    1.2935 O   0  0  0  0  0  0  0  0  0  0  0  0
   -5.8107   -7.0758    3.6358 C   0  0  1  0  0  0  0  0  0  0  0  0
   -6.9257   -7.5681    4.3734 O   0  0  0  0  0  0  0  0  0  0  0  0
   -4.5448   -7.8972    3.9829 C   0  0  1  0  0  0  0  0  0  0  0  0
   -3.4238   -7.2798    3.3599 O   0  0  0  0  0  0  0  0  0  0  0  0
   -4.2824   -7.9865    5.5030 C   0  0  0  0  0  0  0  0  0  0  0  0
   -4.2504   -6.7074    6.1250 O   0  0  0  0  0  0  0  0  0  0  0  0
   -4.1634   -6.5211    7.6963 P   0  0  0  0  0  0  0  0  0  0  0  0
   -5.4712   -6.1060    8.2527 O   0  0  0  0  0  0  0  0  0  0  0  0
   -3.4598   -7.6634    8.3185 O   0  5  0  0  0  0  0  0  0  0  0  0
   -3.2069   -5.2609    7.8745 O   0  5  0  0  0  0  0  0  0  0  0  0
  1 18  1  0  0  0  0
  1  2  1  0  0  0  0
  2  4  1  0  0  0  0
  2  3  2  0  0  0  0
  4  5  1  0  0  0  0
  5  7  1  0  0  0  0
  5  6  2  0  0  0  0
  7 18  2  0  0  0  0
  7  8  1  0  0  0  0
  8  9  1  0  0  0  0
  9 10  2  0  0  0  0
  9 16  1  0  0  0  0
 10 11  1  0  0  0  0
 11 12  1  0  0  0  0
 11 13  2  0  0  0  0
 13 14  1  0  0  0  0
 13 15  1  0  0  0  0
 15 16  2  0  0  0  0
 16 17  1  0  0  0  0
 17 19  1  0  0  0  0
 17 18  1  0  0  0  0
 20 19  1  1  0  0  0
 20 22  1  0  0  0  0
 20 21  1  0  0  0  0
 22 24  1  0  0  0  0
 22 23  1  1  0  0  0
 24 26  1  1  0  0  0
 24 25  1  0  0  0  0
 26 27  1  0  0  0  0
 27 28  1  0  0  0  0
 28 30  1  0  0  0  0
 28 29  2  0  0  0  0
 28 31  1  0  0  0  0
M  CHG  2  30  -1  31  -1
M  END
>  <CHROM.1>
-117.94955352,122.34166887,87.85335541,-59.30937891,60.41217930,73.35129269
-53.21892794,-51.49893843,172.86333056,-105.01048831,-7.40344317,-5.88524466
2.97799202,2.17700800,0.28418999,-1.48050852

>  <Name>
1fmn_cryst

>  <RI>
0

>  <Rbt.Current_Directory>
/home/itssahil/PROJECTS/Mol_Feturizer/New_Systems/rnas/1fmn

>  <Rbt.Executable>
rbdock ($Id: //depot/dev/client3/rdock/2013.1/src/exe/rbdock.cxx#4 $)

>  <Rbt.Library>
libRbt.so (2013.1, Build901 2013/11/27)

>  <Rbt.Parameter_File>
/export/apps/rDock/src/rDock_2013.1_src/data/scripts/dock_solv.prm

>  <Rbt.Receptor>
prm/pocket_docking_6.prm

>  <SCORE>
-58.4936

>  <SCORE.INTER>
-50.9742

>  <SCORE.INTER.CONST>
1

>  <SCORE.INTER.POLAR>
-2.95544

>  <SCORE.INTER.ROT>
7

>  <SCORE.INTER.SOLV>
16.9337

>  <SCORE.INTER.VDW>
-38.0425

>  <SCORE.INTER.norm>
-1.64433

>  <SCORE.INTRA>
-7.51946

>  <SCORE.INTRA.DIHEDRAL>
-2.52229

>  <SCORE.INTRA.DIHEDRAL.0>
15.5708

>  <SCORE.INTRA.POLAR>
-1.67477

>  <SCORE.INTRA.POLAR.0>
-0.0677885

>  <SCORE.INTRA.REPUL>
0

>  <SCORE.INTRA.REPUL.0>
0

>  <SCORE.INTRA.SOLV>
-3.16963

>  <SCORE.INTRA.SOLV.lig_0>
-87.6316

>  <SCORE.INTRA.VDW>
1.02072

>  <SCORE.INTRA.VDW.0>
-2.87309

>  <SCORE.INTRA.norm>
-0.242563

>  <SCORE.RESTR>
0

>  <SCORE.RESTR.CAVITY>
0

>  <SCORE.RESTR.norm>
0

>  <SCORE.SYSTEM>
0

>  <SCORE.SYSTEM.CONST>
0

>  <SCORE.SYSTEM.DIHEDRAL>
0

>  <SCORE.SYSTEM.SOLV>
0

>  <SCORE.SYSTEM.norm>
0

>  <SCORE.heavy>
31

>  <SCORE.norm>
-1.88689

>  <SYMMETRIC_BONDS>
33 34 3

>  <RMSD>
1.722

$$$$
1fmn_cryst
 OpenBabel11021811393D
libRbt.so/2013.1/901 2013/11/27
 31 33  0  0  0  0  0  0  0  0999 V2000
   -8.9140   -6.2256    3.5631 N   0  0  0  0  0  0  0  0  0  0  0  0
   -9.6813   -6.2289    4.7045 C   0  0  0  0  0  0  0  0  0  0  0  0
   -9.3273   -6.8165    5.7272 O   0  0  0  0  0  0  0  0  0  0  0  0
  -10.9054   -5.5183    4.6270 N   0  0  0  0  0  0  0  0  0  0  0  0
  -11.4060   -4.8192    3.5068 C   0  0  0  0  0  0  0  0  0  0  0  0
  -12.4957   -4.2368    3.5773 O   0  0  0  0  0  0  0  0  0  0  0  0
  -10.5318   -4.8641    2.3326 C   0  0  0  0  0  0  0  0  0  0  0  0
  -10.9468   -4.2077    1.2007 N   0  0  0  0  0  0  0  0  0  0  0  0
  -10.2236   -4.4004    0.0595 C   0  0  0  0  0  0  0  0  0  0  0  0
  -10.7354   -3.8957   -1.1228 C   0  0  0  0  0  0  0  0  0  0  0  0
  -10.0721   -4.0489   -2.2924 C   0  0  0  0  0  0  0  0  0  0  0  0
  -10.6673   -3.4815   -3.5415 C   0  0  0  0  0  0  0  0  0  0  0  0
   -8.8825   -4.7082   -2.3269 C   0  0  0  0  0  0  0  0  0  0  0  0
   -8.1604   -4.8786   -3.6236 C   0  0  0  0  0  0  0  0  0  0  0  0
   -8.3415   -5.2196   -1.1917 C   0  0  0  0  0  0  0  0  0  0  0  0
   -8.9842   -5.0888    0.0393 C   0  0  0  0  0  0  0  0  0  0  0  0
   -8.4770   -5.5922    1.2556 N   0  0  0  0  0  0  0  0  0  0  0  0
   -9.2835   -5.5857    2.4122 C   0  0  0  0  0  0  0  0  0  0  0  0
   -6.9809   -5.5892    1.4550 C   0  0  0  0  0  0  0  0  0  0  0  0
   -6.2686   -6.9732    1.3693 C   0  0  1  0  0  0  0  0  0  0  0  0
   -5.1937   -6.9137    0.4424 O   0  0  0  0  0  0  0  0  0  0  0  0
   -5.8198   -7.5149    2.7474 C   0  0  1  0  0  0  0  0  0  0  0  0
   -5.7601   -8.9380    2.7226 O   0  0  0  0  0  0  0  0  0  0  0  0
   -4.5049   -6.9422    3.3312 C   0  0  1  0  0  0  0  0  0  0  0  0
   -3.4375   -7.2831    2.4534 O   0  0  0  0  0  0  0  0  0  0  0  0
   -4.5389   -5.4066    3.5000 C   0  0  0  0  0  0  0  0  0  0  0  0
   -3.5988   -4.9448    4.4629 O   0  0  0  0  0  0  0  0  0  0  0  0
   -2.0405   -5.1997    4.3291 P   0  0  0  0  0  0  0  0  0  0  0  0
   -1.7240   -6.6368    4.4929 O   0  0  0  0  0  0  0  0  0  0  0  0
   -1.4939   -4.4836    3.1563 O   0  5  0  0  0  0  0  0  0  0  0  0
   -1.4292   -4.4814    5.6117 O   0  5  0  0  0  0  0  0  0  0  0  0
  1 18  1  0  0  0  0
  1  2  1  0  0  0  0
  2  4  1  0  0  0  0
  2  3  2  0  0  0  0
  4  5  1  0  0  0  0
  5  7  1  0  0  0  0
  5  6  2  0  0  0  0
  7 18  2  0  0  0  0
  7  8  1  0  0  0  0
  8  9  1  0  0  0  0
  9 10  2  0  0  0  0
  9 16  1  0  0  0  0
 10 11  1  0  0  0  0
 11 12  1  0  0  0  0
 11 13  2  0  0  0  0
 13 14  1  0  0  0  0
 13 15  1  0  0  0  0
 15 16  2  0  0  0  0
 16 17  1  0  0  0  0
 17 19  1  0  0  0  0
 17 18  1  0  0  0  0
 20 19  1  1  0  0  0
 20 22  1  0  0  0  0
 20 21  1  0  0  0  0
 22 24  1  0  0  0  0
 22 23  1  6  0  0  0
 24 26  1  6  0  0  0
 24 25  1  0  0  0  0
 26 27  1  0  0  0  0
 27 28  1  0  0  0  0
 28 30  1  0  0  0  0
 28 29  2  0  0  0  0
 28 31  1  0  0  0  0
M  CHG  2  30  -1  31  -1
M  END
>  <CHROM.1>
-106.54358823,127.40479888,153.33746700,-80.43151450,-62.48807491,60.39919620
157.69792960,50.96955773,59.28347047,-68.19897316,-7.07550980,-5.55032514
2.07952335,2.64681246,0.08312583,-1.41905111

>  <Name>
1fmn_cryst

>  <RI>
0

>  <Rbt.Current_Directory>
/home/itssahil/PROJECTS/Mol_Feturizer/New_Systems/rnas/1fmn

>  <Rbt.Executable>
rbdock ($Id: //depot/dev/client3/rdock/2013.1/src/exe/rbdock.cxx#4 $)

>  <Rbt.Library>
libRbt.so (2013.1, Build901 2013/11/27)

>  <Rbt.Parameter_File>
/export/apps/rDock/src/rDock_2013.1_src/data/scripts/dock_solv.prm

>  <Rbt.Receptor>
prm/pocket_docking_4.prm

>  <SCORE>
-55.11

>  <SCORE.INTER>
-52.1767

>  <SCORE.INTER.CONST>
1

>  <SCORE.INTER.POLAR>
-3.00383

>  <SCORE.INTER.ROT>
7

>  <SCORE.INTER.SOLV>
15.0595

>  <SCORE.INTER.VDW>
-38.0582

>  <SCORE.INTER.norm>
-1.68312

>  <SCORE.INTRA>
-2.93328

>  <SCORE.INTRA.DIHEDRAL>
-1.85976

>  <SCORE.INTRA.DIHEDRAL.0>
15.5708

>  <SCORE.INTRA.POLAR>
-0.717061

>  <SCORE.INTRA.POLAR.0>
-0.0677885

>  <SCORE.INTRA.REPUL>
0

>  <SCORE.INTRA.REPUL.0>
0

>  <SCORE.INTRA.SOLV>
0.332869

>  <SCORE.INTRA.SOLV.lig_0>
-87.6316

>  <SCORE.INTRA.VDW>
0.268178

>  <SCORE.INTRA.VDW.0>
-2.87309

>  <SCORE.INTRA.norm>
-0.0946218

>  <SCORE.RESTR>
0

>  <SCORE.RESTR.CAVITY>
0

>  <SCORE.RESTR.norm>
0

>  <SCORE.SYSTEM>
0

>  <SCORE.SYSTEM.CONST>
0

>  <SCORE.SYSTEM.DIHEDRAL>
0

>  <SCORE.SYSTEM.SOLV>
0

>  <SCORE.SYSTEM.norm>
0

>  <SCORE.heavy>
31

>  <SCORE.norm>
-1.77774

>  <SYMMETRIC_BONDS>
33 34 3

>  <RMSD>
1.729

$$$$
1fmn_cryst
 OpenBabel11021811393D
libRbt.so/2013.1/901 2013/11/27
 31 33  0  0  0  0  0  0  0  0999 V2000
   -8.9788   -6.8768    3.7747 N   0  0  0  0  0  0  0  0  0  0  0  0
   -9.8678   -6.8269    4.8229 C   0  0  0  0  0  0  0  0  0  0  0  0
   -9.7054   -7.4886    5.8487 O   0  0  0  0  0  0  0  0  0  0  0  0
  -10.9835   -5.9706    4.6452 N   0  0  0  0  0  0  0  0  0  0  0  0
  -11.2664   -5.1770    3.5118 C   0  0  0  0  0  0  0  0  0  0  0  0
  -12.2814   -4.4695    3.4897 O   0  0  0  0  0  0  0  0  0  0  0  0
  -10.2735   -5.2866    2.4406 C   0  0  0  0  0  0  0  0  0  0  0  0
  -10.4756   -4.5455    1.3030 N   0  0  0  0  0  0  0  0  0  0  0  0
   -9.6528   -4.7845    0.2408 C   0  0  0  0  0  0  0  0  0  0  0  0
   -9.9622   -4.1803   -0.9649 C   0  0  0  0  0  0  0  0  0  0  0  0
   -9.1907   -4.3718   -2.0601 C   0  0  0  0  0  0  0  0  0  0  0  0
   -9.5673   -3.6929   -3.3383 C   0  0  0  0  0  0  0  0  0  0  0  0
   -8.0902   -5.1690   -1.9949 C   0  0  0  0  0  0  0  0  0  0  0  0
   -7.2480   -5.3804   -3.2107 C   0  0  0  0  0  0  0  0  0  0  0  0
   -7.7474   -5.7818   -0.8331 C   0  0  0  0  0  0  0  0  0  0  0  0
   -8.5082   -5.6171    0.3242 C   0  0  0  0  0  0  0  0  0  0  0  0
   -8.2072   -6.2207    1.5632 N   0  0  0  0  0  0  0  0  0  0  0  0
   -9.1356   -6.1569    2.6225 C   0  0  0  0  0  0  0  0  0  0  0  0
   -6.7540   -6.4063    1.9267 C   0  0  0  0  0  0  0  0  0  0  0  0
   -6.1297   -5.3226    2.8572 C   0  0  1  0  0  0  0  0  0  0  0  0
   -7.1449   -4.6958    3.6282 O   0  0  0  0  0  0  0  0  0  0  0  0
   -4.9799   -5.8648    3.7393 C   0  0  1  0  0  0  0  0  0  0  0  0
   -4.6967   -4.9527    4.7964 O   0  0  0  0  0  0  0  0  0  0  0  0
   -5.1475   -7.2953    4.3081 C   0  0  1  0  0  0  0  0  0  0  0  0
   -4.6282   -8.2200    3.3588 O   0  0  0  0  0  0  0  0  0  0  0  0
   -4.4145   -7.4987    5.6531 C   0  0  0  0  0  0  0  0  0  0  0  0
   -3.0368   -7.1517    5.5791 O   0  0  0  0  0  0  0  0  0  0  0  0
   -2.0042   -7.4945    6.7312 P   0  0  0  0  0  0  0  0  0  0  0  0
   -0.6659   -6.9411    6.4235 O   0  0  0  0  0  0  0  0  0  0  0  0
   -2.5951   -7.2212    8.0591 O   0  5  0  0  0  0  0  0  0  0  0  0
   -1.8424   -9.0754    6.6348 O   0  5  0  0  0  0  0  0  0  0  0  0
  1 18  1  0  0  0  0
  1  2  1  0  0  0  0
  2  4  1  0  0  0  0
  2  3  2  0  0  0  0
  4  5  1  0  0  0  0
  5  7  1  0  0  0  0
  5  6  2  0  0  0  0
  7 18  2  0  0  0  0
  7  8  1  0  0  0  0
  8  9  1  0  0  0  0
  9 10  2  0  0  0  0
  9 16  1  0  0  0  0
 10 11  1  0  0  0  0
 11 12  1  0  0  0  0
 11 13  2  0  0  0  0
 13 14  1  0  0  0  0
 13 15  1  0  0  0  0
 15 16  2  0  0  0  0
 16 17  1  0  0  0  0
 17 19  1  0  0  0  0
 17 18  1  0  0  0  0
 20 19  1  1  0  0  0
 20 22  1  0  0  0  0
 20 21  1  0  0  0  0
 22 24  1  0  0  0  0
 22 23  1  1  0  0  0
 24 26  1  1  0  0  0
 24 25  1  0  0  0  0
 26 27  1  0  0  0  0
 27 28  1  0  0  0  0
 28 30  1  0  0  0  0
 28 29  2  0  0  0  0
 28 31  1  0  0  0  0
M  CHG  2  30  -1  31  -1
M  END
>  <CHROM.1>
97.54624770,24.65960299,-164.57524987,62.26316693,88.35171413,-168.85696996
-54.16135451,-61.57203831,-169.27424380,-176.41635665,-6.92725128,-6.10379518
3.06727345,2.38002901,0.15451584,-1.34976186

>  <Name>
1fmn_cryst

>  <RI>
0

>  <Rbt.Current_Directory>
/home/itssahil/PROJECTS/Mol_Feturizer/New_Systems/rnas/1fmn

>  <Rbt.Executable>
rbdock ($Id: //depot/dev/client3/rdock/2013.1/src/exe/rbdock.cxx#4 $)

>  <Rbt.Library>
libRbt.so (2013.1, Build901 2013/11/27)

>  <Rbt.Parameter_File>
/export/apps/rDock/src/rDock_2013.1_src/data/scripts/dock_solv.prm

>  <Rbt.Receptor>
prm/pocket_docking_4.prm

>  <SCORE>
-51.5615

>  <SCORE.INTER>
-49.1226

>  <SCORE.INTER.CONST>
1

>  <SCORE.INTER.POLAR>
-3.19999

>  <SCORE.INTER.ROT>
7

>  <SCORE.INTER.SOLV>
16.3764

>  <SCORE.INTER.VDW>
-35.8072

>  <SCORE.INTER.norm>
-1.5846

>  <SCORE.INTRA>
-2.43892

>  <SCORE.INTRA.DIHEDRAL>
-6.0364

>  <SCORE.INTRA.DIHEDRAL.0>
15.5708

>  <SCORE.INTRA.POLAR>
-0.513621

>  <SCORE.INTRA.POLAR.0>
-0.0677885

>  <SCORE.INTRA.REPUL>
0

>  <SCORE.INTRA.REPUL.0>
0

>  <SCORE.INTRA.SOLV>
-2.63313

>  <SCORE.INTRA.SOLV.lig_0>
-87.6316

>  <SCORE.INTRA.VDW>
3.64216

>  <SCORE.INTRA.VDW.0>
-2.87309

>  <SCORE.INTRA.norm>
-0.0786747

>  <SCORE.RESTR>
0

>  <SCORE.RESTR.CAVITY>
0

>  <SCORE.RESTR.norm>
0

>  <SCORE.SYSTEM>
0

>  <SCORE.SYSTEM.CONST>
0

>  <SCORE.SYSTEM.DIHEDRAL>
0

>  <SCORE.SYSTEM.SOLV>
0

>  <SCORE.SYSTEM.norm>
0

>  <SCORE.heavy>
31

>  <SCORE.norm>
-1.66327

>  <SYMMETRIC_BONDS>
33 34 3

>  <RMSD>
1.744

$$$$
1fmn_cryst
 OpenBabel11021811393D
libRbt.so/2013.1/901 2013/11/27
 31 33  0  0  0  0  0  0  0  0999 V2000
   -8.9822   -6.1667    3.5516 N   0  0  0  0  0  0  0  0  0  0  0  0
   -9.6698   -6.2082    4.7419 C   0  0  0  0  0  0  0  0  0  0  0  0
   -9.2441   -6.8226    5.7206 O   0  0  0  0  0  0  0  0  0  0  0  0
  -10.8999   -5.5041    4.7686 N   0  0  0  0  0  0  0  0  0  0  0  0
  -11.4791   -4.7765    3.7059 C   0  0  0  0  0  0  0  0  0  0  0  0
  -12.5642   -4.2039    3.8673 O   0  0  0  0  0  0  0  0  0  0  0  0
  -10.6866   -4.7815    2.4742 C   0  0  0  0  0  0  0  0  0  0  0  0
  -11.1811   -4.0957    1.3928 N   0  0  0  0  0  0  0  0  0  0  0  0
  -10.5363   -4.2504    0.1999 C   0  0  0  0  0  0  0  0  0  0  0  0
  -11.1299   -3.7154   -0.9296 C   0  0  0  0  0  0  0  0  0  0  0  0
  -10.5471   -3.8302   -2.1455 C   0  0  0  0  0  0  0  0  0  0  0  0
  -11.2288   -3.2311   -3.3342 C   0  0  0  0  0  0  0  0  0  0  0  0
   -9.3594   -4.4800   -2.2800 C   0  0  0  0  0  0  0  0  0  0  0  0
   -8.7265   -4.6080   -3.6273 C   0  0  0  0  0  0  0  0  0  0  0  0
   -8.7398   -5.0202   -1.1997 C   0  0  0  0  0  0  0  0  0  0  0  0
   -9.2978   -4.9293    0.0755 C   0  0  0  0  0  0  0  0  0  0  0  0
   -8.7065   -5.4641    1.2393 N   0  0  0  0  0  0  0  0  0  0  0  0
   -9.4323   -5.4965    2.4476 C   0  0  0  0  0  0  0  0  0  0  0  0
   -7.2002   -5.4564    1.3366 C   0  0  0  0  0  0  0  0  0  0  0  0
   -6.4506   -6.5769    0.5537 C   0  0  1  0  0  0  0  0  0  0  0  0
   -5.6556   -6.0064   -0.4760 O   0  0  0  0  0  0  0  0  0  0  0  0
   -5.6307   -7.5169    1.4692 C   0  0  1  0  0  0  0  0  0  0  0  0
   -5.0930   -8.5974    0.7122 O   0  0  0  0  0  0  0  0  0  0  0  0
   -4.5156   -6.8657    2.3238 C   0  0  1  0  0  0  0  0  0  0  0  0
   -5.1150   -5.9103    3.1921 O   0  0  0  0  0  0  0  0  0  0  0  0
   -3.7333   -7.8903    3.1758 C   0  0  0  0  0  0  0  0  0  0  0  0
   -2.6234   -7.3048    3.8462 O   0  0  0  0  0  0  0  0  0  0  0  0
   -1.3499   -6.7579    3.0778 P   0  0  0  0  0  0  0  0  0  0  0  0
   -0.7522   -7.8124    2.2277 O   0  0  0  0  0  0  0  0  0  0  0  0
   -1.6324   -5.4376    2.4745 O   0  5  0  0  0  0  0  0  0  0  0  0
   -0.2918   -6.4977    4.2386 O   0  5  0  0  0  0  0  0  0  0  0  0
  1 18  1  0  0  0  0
  1  2  1  0  0  0  0
  2  4  1  0  0  0  0
  2  3  2  0  0  0  0
  4  5  1  0  0  0  0
  5  7  1  0  0  0  0
  5  6  2  0  0  0  0
  7 18  2  0  0  0  0
  7  8  1  0  0  0  0
  8  9  1  0  0  0  0
  9 10  2  0  0  0  0
  9 16  1  0  0  0  0
 10 11  1  0  0  0  0
 11 12  1  0  0  0  0
 11 13  2  0  0  0  0
 13 14  1  0  0  0  0
 13 15  1  0  0  0  0
 15 16  2  0  0  0  0
 16 17  1  0  0  0  0
 17 19  1  0  0  0  0
 17 18  1  0  0  0  0
 20 19  1  1  0  0  0
 20 22  1  0  0  0  0
 20 21  1  0  0  0  0
 22 24  1  0  0  0  0
 22 23  1  6  0  0  0
 24 26  1  1  0  0  0
 24 25  1  0  0  0  0
 26 27  1  0  0  0  0
 27 28  1  0  0  0  0
 28 30  1  0  0  0  0
 28 29  2  0  0  0  0
 28 31  1  0  0  0  0
M  CHG  2  30  -1  31  -1
M  END
>  <CHROM.1>
-79.17009651,115.40466545,173.68806570,-158.15756593,60.79319825,-169.92070796
173.75345108,-176.09069236,-67.64387251,-55.80934488,-7.08677487,-5.78200527
1.69695374,2.82418435,0.23301615,-1.37971469

>  <Name>
1fmn_cryst

>  <RI>
0

>  <Rbt.Current_Directory>
/home/itssahil/PROJECTS/Mol_Feturizer/New_Systems/rnas/1fmn

>  <Rbt.Executable>
rbdock ($Id: //depot/dev/client3/rdock/2013.1/src/exe/rbdock.cxx#4 $)

>  <Rbt.Library>
libRbt.so (2013.1, Build901 2013/11/27)

>  <Rbt.Parameter_File>
/export/apps/rDock/src/rDock_2013.1_src/data/scripts/dock_solv.prm

>  <Rbt.Receptor>
prm/pocket_docking_4.prm

>  <SCORE>
-54.6594

>  <SCORE.INTER>
-52.1523

>  <SCORE.INTER.CONST>
1

>  <SCORE.INTER.POLAR>
-3.03518

>  <SCORE.INTER.ROT>
7

>  <SCORE.INTER.SOLV>
17.4221

>  <SCORE.INTER.VDW>
-38.725

>  <SCORE.INTER.norm>
-1.68233

>  <SCORE.INTRA>
-2.50718

>  <SCORE.INTRA.DIHEDRAL>
-4.86626

>  <SCORE.INTRA.DIHEDRAL.0>
15.5708

>  <SCORE.INTRA.POLAR>
0.0677885

>  <SCORE.INTRA.POLAR.0>
-0.0677885

>  <SCORE.INTRA.REPUL>
0

>  <SCORE.INTRA.REPUL.0>
0

>  <SCORE.INTRA.SOLV>
-1.92061

>  <SCORE.INTRA.SOLV.lig_0>
-87.6316

>  <SCORE.INTRA.VDW>
0.655778

>  <SCORE.INTRA.VDW.0>
-2.87309

>  <SCORE.INTRA.norm>
-0.0808767

>  <SCORE.RESTR>
0

>  <SCORE.RESTR.CAVITY>
0

>  <SCORE.RESTR.norm>
0

>  <SCORE.SYSTEM>
0

>  <SCORE.SYSTEM.CONST>
0

>  <SCORE.SYSTEM.DIHEDRAL>
0

>  <SCORE.SYSTEM.SOLV>
0

>  <SCORE.SYSTEM.norm>
0

>  <SCORE.heavy>
31

>  <SCORE.norm>
-1.76321

>  <SYMMETRIC_BONDS>
33 34 3

>  <RMSD>
1.747

$$$$
1fmn_cryst
 OpenBabel11021811393D
libRbt.so/2013.1/901 2013/11/27
 31 33  0  0  0  0  0  0  0  0999 V2000
   -8.9650   -6.1075    3.3993 N   0  0  0  0  0  0  0  0  0  0  0  0
   -9.6484   -6.2087    4.5885 C   0  0  0  0  0  0  0  0  0  0  0  0
   -9.1829   -6.8052    5.5601 O   0  0  0  0  0  0  0  0  0  0  0  0
  -10.9224   -5.5880    4.6226 N   0  0  0  0  0  0  0  0  0  0  0  0
  -11.5485   -4.8876    3.5683 C   0  0  0  0  0  0  0  0  0  0  0  0
  -12.6691   -4.3901    3.7356 O   0  0  0  0  0  0  0  0  0  0  0  0
  -10.7574   -4.8253    2.3372 C   0  0  0  0  0  0  0  0  0  0  0  0
  -11.2962   -4.1608    1.2637 N   0  0  0  0  0  0  0  0  0  0  0  0
  -10.6426   -4.2582    0.0696 C   0  0  0  0  0  0  0  0  0  0  0  0
  -11.2704   -3.7502   -1.0539 C   0  0  0  0  0  0  0  0  0  0  0  0
  -10.6813   -3.8115   -2.2707 C   0  0  0  0  0  0  0  0  0  0  0  0
  -11.4011   -3.2447   -3.4526 C   0  0  0  0  0  0  0  0  0  0  0  0
   -9.4531   -4.3796   -2.4120 C   0  0  0  0  0  0  0  0  0  0  0  0
   -8.8132   -4.4493   -3.7602 C   0  0  0  0  0  0  0  0  0  0  0  0
   -8.7991   -4.8906   -1.3377 C   0  0  0  0  0  0  0  0  0  0  0  0
   -9.3619   -4.8521   -0.0620 C   0  0  0  0  0  0  0  0  0  0  0  0
   -8.7365   -5.3605    1.0958 N   0  0  0  0  0  0  0  0  0  0  0  0
   -9.4585   -5.4554    2.3031 C   0  0  0  0  0  0  0  0  0  0  0  0
   -7.2340   -5.2543    1.1943 C   0  0  0  0  0  0  0  0  0  0  0  0
   -6.4113   -6.2587    0.3314 C   0  0  1  0  0  0  0  0  0  0  0  0
   -6.3345   -5.8015   -1.0114 O   0  0  0  0  0  0  0  0  0  0  0  0
   -5.0152   -6.5692    0.9216 C   0  0  1  0  0  0  0  0  0  0  0  0
   -4.2632   -5.3681    1.0684 O   0  0  0  0  0  0  0  0  0  0  0  0
   -4.9762   -7.3801    2.2403 C   0  0  1  0  0  0  0  0  0  0  0  0
   -6.0207   -6.9122    3.0865 O   0  0  0  0  0  0  0  0  0  0  0  0
   -5.1575   -8.8986    2.0195 C   0  0  0  0  0  0  0  0  0  0  0  0
   -5.1792   -9.6267    3.2416 O   0  0  0  0  0  0  0  0  0  0  0  0
   -4.0890   -9.4303    4.3748 P   0  0  0  0  0  0  0  0  0  0  0  0
   -4.1541  -10.5274    5.3669 O   0  0  0  0  0  0  0  0  0  0  0  0
   -2.7777   -9.0880    3.7829 O   0  5  0  0  0  0  0  0  0  0  0  0
   -4.5795   -8.1283    5.1488 O   0  5  0  0  0  0  0  0  0  0  0  0
  1 18  1  0  0  0  0
  1  2  1  0  0  0  0
  2  4  1  0  0  0  0
  2  3  2  0  0  0  0
  4  5  1  0  0  0  0
  5  7  1  0  0  0  0
  5  6  2  0  0  0  0
  7 18  2  0  0  0  0
  7  8  1  0  0  0  0
  8  9  1  0  0  0  0
  9 10  2  0  0  0  0
  9 16  1  0  0  0  0
 10 11  1  0  0  0  0
 11 12  1  0  0  0  0
 11 13  2  0  0  0  0
 13 14  1  0  0  0  0
 13 15  1  0  0  0  0
 15 16  2  0  0  0  0
 16 17  1  0  0  0  0
 17 19  1  0  0  0  0
 17 18  1  0  0  0  0
 20 19  1  1  0  0  0
 20 22  1  0  0  0  0
 20 21  1  0  0  0  0
 22 24  1  0  0  0  0
 22 23  1  1  0  0  0
 24 26  1  6  0  0  0
 24 25  1  0  0  0  0
 26 27  1  0  0  0  0
 27 28  1  0  0  0  0
 28 30  1  0  0  0  0
 28 29  2  0  0  0  0
 28 31  1  0  0  0  0
M  CHG  2  30  -1  31  -1
M  END
>  <CHROM.1>
-75.61539060,80.55058422,-57.88680070,-169.89123505,-40.41177740,66.99654643
-177.40196668,-165.49350679,-48.90862868,-165.96857578,-7.77691708,-6.23329911
1.80471844,2.42432173,0.43634222,-1.23162100

>  <Name>
1fmn_cryst

>  <RI>
0

>  <Rbt.Current_Directory>
/home/itssahil/PROJECTS/Mol_Feturizer/New_Systems/rnas/1fmn

>  <Rbt.Executable>
rbdock ($Id: //depot/dev/client3/rdock/2013.1/src/exe/rbdock.cxx#4 $)

>  <Rbt.Library>
libRbt.so (2013.1, Build901 2013/11/27)

>  <Rbt.Parameter_File>
/export/apps/rDock/src/rDock_2013.1_src/data/scripts/dock_solv.prm

>  <Rbt.Receptor>
prm/pocket_docking_2.prm

>  <SCORE>
-62.2066

>  <SCORE.INTER>
-54.5496

>  <SCORE.INTER.CONST>
1

>  <SCORE.INTER.POLAR>
-3.00909

>  <SCORE.INTER.ROT>
7

>  <SCORE.INTER.SOLV>
20.3398

>  <SCORE.INTER.VDW>
-41.3828

>  <SCORE.INTER.norm>
-1.75967

>  <SCORE.INTRA>
-7.6632

>  <SCORE.INTRA.DIHEDRAL>
-7.88552

>  <SCORE.INTRA.DIHEDRAL.0>
15.5708

>  <SCORE.INTRA.POLAR>
-1.70926

>  <SCORE.INTRA.POLAR.0>
-0.0677885

>  <SCORE.INTRA.REPUL>
0

>  <SCORE.INTRA.REPUL.0>
0

>  <SCORE.INTRA.SOLV>
1.84526

>  <SCORE.INTRA.SOLV.lig_0>
-87.6316

>  <SCORE.INTRA.VDW>
1.16842

>  <SCORE.INTRA.VDW.0>
-2.87309

>  <SCORE.INTRA.norm>
-0.2472

>  <SCORE.RESTR>
0.00621461

>  <SCORE.RESTR.CAVITY>
0.00621461

>  <SCORE.RESTR.norm>
0.000200471

>  <SCORE.SYSTEM>
0

>  <SCORE.SYSTEM.CONST>
0

>  <SCORE.SYSTEM.DIHEDRAL>
0

>  <SCORE.SYSTEM.SOLV>
0

>  <SCORE.SYSTEM.norm>
0

>  <SCORE.heavy>
31

>  <SCORE.norm>
-2.00667

>  <SYMMETRIC_BONDS>
33 34 3

>  <RMSD>
1.754

$$$$
1fmn_cryst
 OpenBabel11021811393D
libRbt.so/2013.1/901 2013/11/27
 31 33  0  0  0  0  0  0  0  0999 V2000
   -8.8921   -6.0263    3.3846 N   0  0  0  0  0  0  0  0  0  0  0  0
   -9.6827   -6.1337    4.5048 C   0  0  0  0  0  0  0  0  0  0  0  0
   -9.2624   -6.6174    5.5564 O   0  0  0  0  0  0  0  0  0  0  0  0
  -11.0111   -5.6576    4.3702 N   0  0  0  0  0  0  0  0  0  0  0  0
  -11.5925   -5.0936    3.2134 C   0  0  0  0  0  0  0  0  0  0  0  0
  -12.7704   -4.7150    3.2347 O   0  0  0  0  0  0  0  0  0  0  0  0
  -10.6869   -5.0153    2.0650 C   0  0  0  0  0  0  0  0  0  0  0  0
  -11.1761   -4.4784    0.9002 N   0  0  0  0  0  0  0  0  0  0  0  0
  -10.3936   -4.5716   -0.2140 C   0  0  0  0  0  0  0  0  0  0  0  0
  -10.9491   -4.2026   -1.4263 C   0  0  0  0  0  0  0  0  0  0  0  0
  -10.2318   -4.2686   -2.5720 C   0  0  0  0  0  0  0  0  0  0  0  0
  -10.8784   -3.8549   -3.8555 C   0  0  0  0  0  0  0  0  0  0  0  0
   -8.9429   -4.7037   -2.5520 C   0  0  0  0  0  0  0  0  0  0  0  0
   -8.1606   -4.7800   -3.8225 C   0  0  0  0  0  0  0  0  0  0  0  0
   -8.3560   -5.0755   -1.3857 C   0  0  0  0  0  0  0  0  0  0  0  0
   -9.0510   -5.0259   -0.1774 C   0  0  0  0  0  0  0  0  0  0  0  0
   -8.5014   -5.3935    1.0687 N   0  0  0  0  0  0  0  0  0  0  0  0
   -9.3328   -5.4979    2.2026 C   0  0  0  0  0  0  0  0  0  0  0  0
   -7.0371   -5.1153    1.3073 C   0  0  0  0  0  0  0  0  0  0  0  0
   -6.2496   -6.1949    2.1100 C   0  0  1  0  0  0  0  0  0  0  0  0
   -5.9729   -7.3154    1.2819 O   0  0  0  0  0  0  0  0  0  0  0  0
   -4.9728   -5.6415    2.7866 C   0  0  1  0  0  0  0  0  0  0  0  0
   -5.0836   -4.2334    2.9724 O   0  0  0  0  0  0  0  0  0  0  0  0
   -4.5328   -6.3148    4.1098 C   0  0  1  0  0  0  0  0  0  0  0  0
   -5.6168   -6.2486    5.0298 O   0  0  0  0  0  0  0  0  0  0  0  0
   -4.1253   -7.7941    3.9268 C   0  0  0  0  0  0  0  0  0  0  0  0
   -3.6584   -8.3826    5.1350 O   0  0  0  0  0  0  0  0  0  0  0  0
   -2.9527   -9.8008    5.1798 P   0  0  0  0  0  0  0  0  0  0  0  0
   -1.6570   -9.7694    4.4640 O   0  0  0  0  0  0  0  0  0  0  0  0
   -2.9920  -10.3595    6.5485 O   0  5  0  0  0  0  0  0  0  0  0  0
   -3.9034  -10.7234    4.2969 O   0  5  0  0  0  0  0  0  0  0  0  0
  1 18  1  0  0  0  0
  1  2  1  0  0  0  0
  2  4  1  0  0  0  0
  2  3  2  0  0  0  0
  4  5  1  0  0  0  0
  5  7  1  0  0  0  0
  5  6  2  0  0  0  0
  7 18  2  0  0  0  0
  7  8  1  0  0  0  0
  8  9  1  0  0  0  0
  9 10  2  0  0  0  0
  9 16  1  0  0  0  0
 10 11  1  0  0  0  0
 11 12  1  0  0  0  0
 11 13  2  0  0  0  0
 13 14  1  0  0  0  0
 13 15  1  0  0  0  0
 15 16  2  0  0  0  0
 16 17  1  0  0  0  0
 17 19  1  0  0  0  0
 17 18  1  0  0  0  0
 20 19  1  6  0  0  0
 20 22  1  0  0  0  0
 20 21  1  0  0  0  0
 22 24  1  0  0  0  0
 22 23  1  1  0  0  0
 24 26  1  6  0  0  0
 24 25  1  0  0  0  0
 26 27  1  0  0  0  0
 27 28  1  0  0  0  0
 28 30  1  0  0  0  0
 28 29  2  0  0  0  0
 28 31  1  0  0  0  0
M  CHG  2  30  -1  31  -1
M  END
>  <CHROM.1>
-142.03622032,76.14307332,23.05660430,63.76206207,-56.08849330,-174.08868926
176.99827694,75.91276198,-169.41256889,65.56554289,-7.37939620,-6.32339261
2.29557913,2.41831736,0.38790406,-1.30304913

>  <Name>
1fmn_cryst

>  <RI>
0

>  <Rbt.Current_Directory>
/home/itssahil/PROJECTS/Mol_Feturizer/New_Systems/rnas/1fmn

>  <Rbt.Executable>
rbdock ($Id: //depot/dev/client3/rdock/2013.1/src/exe/rbdock.cxx#4 $)

>  <Rbt.Library>
libRbt.so (2013.1, Build901 2013/11/27)

>  <Rbt.Parameter_File>
/export/apps/rDock/src/rDock_2013.1_src/data/scripts/dock_solv.prm

>  <Rbt.Receptor>
prm/pocket_docking_8.prm

>  <SCORE>
-52.596

>  <SCORE.INTER>
-50.8786

>  <SCORE.INTER.CONST>
1

>  <SCORE.INTER.POLAR>
-3.65883

>  <SCORE.INTER.ROT>
7

>  <SCORE.INTER.SOLV>
18.4143

>  <SCORE.INTER.VDW>
-36.1278

>  <SCORE.INTER.norm>
-1.64125

>  <SCORE.INTRA>
-1.71731

>  <SCORE.INTRA.DIHEDRAL>
-7.22954

>  <SCORE.INTRA.DIHEDRAL.0>
15.5708

>  <SCORE.INTRA.POLAR>
0.0677885

>  <SCORE.INTRA.POLAR.0>
-0.0677885

>  <SCORE.INTRA.REPUL>
0.00380798

>  <SCORE.INTRA.REPUL.0>
0

>  <SCORE.INTRA.SOLV>
-3.86134

>  <SCORE.INTRA.SOLV.lig_0>
-87.6316

>  <SCORE.INTRA.VDW>
3.57861

>  <SCORE.INTRA.VDW.0>
-2.87309

>  <SCORE.INTRA.norm>
-0.0553972

>  <SCORE.RESTR>
0

>  <SCORE.RESTR.CAVITY>
0

>  <SCORE.RESTR.norm>
0

>  <SCORE.SYSTEM>
0

>  <SCORE.SYSTEM.CONST>
0

>  <SCORE.SYSTEM.DIHEDRAL>
0

>  <SCORE.SYSTEM.SOLV>
0

>  <SCORE.SYSTEM.norm>
0

>  <SCORE.heavy>
31

>  <SCORE.norm>
-1.69664

>  <SYMMETRIC_BONDS>
33 34 3

>  <RMSD>
1.765

$$$$
1fmn_cryst
 OpenBabel11021811393D
libRbt.so/2013.1/901 2013/11/27
 31 33  0  0  0  0  0  0  0  0999 V2000
   -8.6799   -6.1540    3.4665 N   0  0  0  0  0  0  0  0  0  0  0  0
   -9.4654   -6.2387    4.5923 C   0  0  0  0  0  0  0  0  0  0  0  0
   -9.0702   -6.7816    5.6245 O   0  0  0  0  0  0  0  0  0  0  0  0
  -10.7581   -5.6667    4.4869 N   0  0  0  0  0  0  0  0  0  0  0  0
  -11.3092   -5.0293    3.3537 C   0  0  0  0  0  0  0  0  0  0  0  0
  -12.4573   -4.5697    3.3996 O   0  0  0  0  0  0  0  0  0  0  0  0
  -10.4114   -4.9808    2.1975 C   0  0  0  0  0  0  0  0  0  0  0  0
  -10.8726   -4.3765    1.0545 N   0  0  0  0  0  0  0  0  0  0  0  0
  -10.1093   -4.4914   -0.0710 C   0  0  0  0  0  0  0  0  0  0  0  0
  -10.6489   -4.0486   -1.2656 C   0  0  0  0  0  0  0  0  0  0  0  0
   -9.9490   -4.1308   -2.4209 C   0  0  0  0  0  0  0  0  0  0  0  0
  -10.5770   -3.6350   -3.6843 C   0  0  0  0  0  0  0  0  0  0  0  0
   -8.6939   -4.6559   -2.4284 C   0  0  0  0  0  0  0  0  0  0  0  0
   -7.9310   -4.7492   -3.7096 C   0  0  0  0  0  0  0  0  0  0  0  0
   -8.1236   -5.1023   -1.2803 C   0  0  0  0  0  0  0  0  0  0  0  0
   -8.8018   -5.0398   -0.0631 C   0  0  0  0  0  0  0  0  0  0  0  0
   -8.2676   -5.4818    1.1655 N   0  0  0  0  0  0  0  0  0  0  0  0
   -9.0935   -5.5611    2.3055 C   0  0  0  0  0  0  0  0  0  0  0  0
   -6.7852   -5.3143    1.3949 C   0  0  0  0  0  0  0  0  0  0  0  0
   -5.9828   -6.6131    1.7104 C   0  0  1  0  0  0  0  0  0  0  0  0
   -6.4462   -7.6836    0.8998 O   0  0  0  0  0  0  0  0  0  0  0  0
   -4.4507   -6.4244    1.6057 C   0  0  1  0  0  0  0  0  0  0  0  0
   -4.0518   -6.3751    0.2390 O   0  0  0  0  0  0  0  0  0  0  0  0
   -3.8373   -5.2301    2.3772 C   0  0  1  0  0  0  0  0  0  0  0  0
   -4.1818   -5.3587    3.7522 O   0  0  0  0  0  0  0  0  0  0  0  0
   -2.2985   -5.1597    2.2545 C   0  0  0  0  0  0  0  0  0  0  0  0
   -1.6721   -6.4013    2.5549 O   0  0  0  0  0  0  0  0  0  0  0  0
   -1.6532   -7.0202    4.0136 P   0  0  0  0  0  0  0  0  0  0  0  0
   -1.2135   -6.0156    5.0084 O   0  0  0  0  0  0  0  0  0  0  0  0
   -2.8960   -7.7780    4.2746 O   0  5  0  0  0  0  0  0  0  0  0  0
   -0.4821   -8.0970    3.9514 O   0  5  0  0  0  0  0  0  0  0  0  0
  1 18  1  0  0  0  0
  1  2  1  0  0  0  0
  2  4  1  0  0  0  0
  2  3  2  0  0  0  0
  4  5  1  0  0  0  0
  5  7  1  0  0  0  0
  5  6  2  0  0  0  0
  7 18  2  0  0  0  0
  7  8  1  0  0  0  0
  8  9  1  0  0  0  0
  9 10  2  0  0  0  0
  9 16  1  0  0  0  0
 10 11  1  0  0  0  0
 11 12  1  0  0  0  0
 11 13  2  0  0  0  0
 13 14  1  0  0  0  0
 13 15  1  0  0  0  0
 15 16  2  0  0  0  0
 16 17  1  0  0  0  0
 17 19  1  0  0  0  0
 17 18  1  0  0  0  0
 20 19  1  6  0  0  0
 20 22  1  0  0  0  0
 20 21  1  0  0  0  0
 22 24  1  0  0  0  0
 22 23  1  6  0  0  0
 24 26  1  1  0  0  0
 24 25  1  0  0  0  0
 26 27  1  0  0  0  0
 27 28  1  0  0  0  0
 28 30  1  0  0  0  0
 28 29  2  0  0  0  0
 28 31  1  0  0  0  0
M  CHG  2  30  -1  31  -1
M  END
>  <CHROM.1>
-122.38767253,40.08513594,-75.52840547,68.42268295,57.14708781,-168.72474653
-50.40021297,-61.81883498,-68.46939638,-49.30406666,-6.76561884,-5.72723049
1.81161807,2.70969543,0.16241357,-1.36755793

>  <Name>
1fmn_cryst

>  <RI>
0

>  <Rbt.Current_Directory>
/home/itssahil/PROJECTS/Mol_Feturizer/New_Systems/rnas/1fmn

>  <Rbt.Executable>
rbdock ($Id: //depot/dev/client3/rdock/2013.1/src/exe/rbdock.cxx#4 $)

>  <Rbt.Library>
libRbt.so (2013.1, Build901 2013/11/27)

>  <Rbt.Parameter_File>
/export/apps/rDock/src/rDock_2013.1_src/data/scripts/dock_solv.prm

>  <Rbt.Receptor>
prm/pocket_docking_4.prm

>  <SCORE>
-55.0685

>  <SCORE.INTER>
-51.4337

>  <SCORE.INTER.CONST>
1

>  <SCORE.INTER.POLAR>
-3.19108

>  <SCORE.INTER.ROT>
7

>  <SCORE.INTER.SOLV>
15.6601

>  <SCORE.INTER.VDW>
-37.1389

>  <SCORE.INTER.norm>
-1.65915

>  <SCORE.INTRA>
-3.63474

>  <SCORE.INTRA.DIHEDRAL>
-8.88196

>  <SCORE.INTRA.DIHEDRAL.0>
15.5708

>  <SCORE.INTRA.POLAR>
0.064942

>  <SCORE.INTRA.POLAR.0>
-0.0677885

>  <SCORE.INTRA.REPUL>
0

>  <SCORE.INTRA.REPUL.0>
0

>  <SCORE.INTRA.SOLV>
0.896771

>  <SCORE.INTRA.SOLV.lig_0>
-87.6316

>  <SCORE.INTRA.VDW>
0.137054

>  <SCORE.INTRA.VDW.0>
-2.87309

>  <SCORE.INTRA.norm>
-0.11725

>  <SCORE.RESTR>
0

>  <SCORE.RESTR.CAVITY>
0

>  <SCORE.RESTR.norm>
0

>  <SCORE.SYSTEM>
0

>  <SCORE.SYSTEM.CONST>
0

>  <SCORE.SYSTEM.DIHEDRAL>
0

>  <SCORE.SYSTEM.SOLV>
0

>  <SCORE.SYSTEM.norm>
0

>  <SCORE.heavy>
31

>  <SCORE.norm>
-1.7764

>  <SYMMETRIC_BONDS>
33 34 3

>  <RMSD>
1.772

$$$$
1fmn_cryst
 OpenBabel11021811393D
libRbt.so/2013.1/901 2013/11/27
 31 33  0  0  0  0  0  0  0  0999 V2000
   -8.8081   -6.3814    3.5173 N   0  0  0  0  0  0  0  0  0  0  0  0
   -9.6242   -6.3184    4.6226 C   0  0  0  0  0  0  0  0  0  0  0  0
   -9.3602   -6.9204    5.6639 O   0  0  0  0  0  0  0  0  0  0  0  0
  -10.7886   -5.5218    4.4849 N   0  0  0  0  0  0  0  0  0  0  0  0
  -11.1862   -4.7989    3.3388 C   0  0  0  0  0  0  0  0  0  0  0  0
  -12.2326   -4.1386    3.3560 O   0  0  0  0  0  0  0  0  0  0  0  0
  -10.2655   -4.9181    2.2060 C   0  0  0  0  0  0  0  0  0  0  0  0
  -10.5804   -4.2441    1.0523 N   0  0  0  0  0  0  0  0  0  0  0  0
   -9.8224   -4.4995   -0.0535 C   0  0  0  0  0  0  0  0  0  0  0  0
  -10.2424   -3.9702   -1.2609 C   0  0  0  0  0  0  0  0  0  0  0  0
   -9.5401   -4.1820   -2.3981 C   0  0  0  0  0  0  0  0  0  0  0  0
  -10.0356   -3.5849   -3.6765 C   0  0  0  0  0  0  0  0  0  0  0  0
   -8.4012   -4.9260   -2.3743 C   0  0  0  0  0  0  0  0  0  0  0  0
   -7.6357   -5.1605   -3.6357 C   0  0  0  0  0  0  0  0  0  0  0  0
   -7.9505   -5.4644   -1.2125 C   0  0  0  0  0  0  0  0  0  0  0  0
   -8.6367   -5.2758   -0.0129 C   0  0  0  0  0  0  0  0  0  0  0  0
   -8.2228   -5.8031    1.2283 N   0  0  0  0  0  0  0  0  0  0  0  0
   -9.0779   -5.7274    2.3468 C   0  0  0  0  0  0  0  0  0  0  0  0
   -6.7408   -5.9064    1.4957 C   0  0  0  0  0  0  0  0  0  0  0  0
   -6.1297   -7.3401    1.4604 C   0  0  1  0  0  0  0  0  0  0  0  0
   -6.9074   -8.1830    0.6222 O   0  0  0  0  0  0  0  0  0  0  0  0
   -4.6318   -7.3555    1.0730 C   0  0  1  0  0  0  0  0  0  0  0  0
   -3.8701   -6.6088    2.0174 O   0  0  0  0  0  0  0  0  0  0  0  0
   -3.9801   -8.7422    0.8486 C   0  0  1  0  0  0  0  0  0  0  0  0
   -2.6066   -8.5470    0.5302 O   0  0  0  0  0  0  0  0  0  0  0  0
   -4.0778   -9.6614    2.0868 C   0  0  0  0  0  0  0  0  0  0  0  0
   -3.4167   -9.1157    3.2223 O   0  0  0  0  0  0  0  0  0  0  0  0
   -3.3564   -9.8621    4.6189 P   0  0  0  0  0  0  0  0  0  0  0  0
   -4.6818   -9.8569    5.2787 O   0  0  0  0  0  0  0  0  0  0  0  0
   -2.6333  -11.1460    4.4930 O   0  5  0  0  0  0  0  0  0  0  0  0
   -2.4342   -8.9195    5.5109 O   0  5  0  0  0  0  0  0  0  0  0  0
  1 18  1  0  0  0  0
  1  2  1  0  0  0  0
  2  4  1  0  0  0  0
  2  3  2  0  0  0  0
  4  5  1  0  0  0  0
  5  7  1  0  0  0  0
  5  6  2  0  0  0  0
  7 18  2  0  0  0  0
  7  8  1  0  0  0  0
  8  9  1  0  0  0  0
  9 10  2  0  0  0  0
  9 16  1  0  0  0  0
 10 11  1  0  0  0  0
 11 12  1  0  0  0  0
 11 13  2  0  0  0  0
 13 14  1  0  0  0  0
 13 15  1  0  0  0  0
 15 16  2  0  0  0  0
 16 17  1  0  0  0  0
 17 19  1  0  0  0  0
 17 18  1  0  0  0  0
 20 19  1  6  0  0  0
 20 22  1  0  0  0  0
 20 21  1  0  0  0  0
 22 24  1  0  0  0  0
 22 23  1  1  0  0  0
 24 26  1  1  0  0  0
 24 25  1  0  0  0  0
 26 27  1  0  0  0  0
 27 28  1  0  0  0  0
 28 30  1  0  0  0  0
 28 29  2  0  0  0  0
 28 31  1  0  0  0  0
M  CHG  2  30  -1  31  -1
M  END
>  <CHROM.1>
-106.93514605,26.28257512,60.53331284,178.57768108,-178.83610689,-59.03708176
-61.00411465,-172.87178969,-179.50683869,-71.31063550,-7.05990438,-6.78057830
1.83070079,2.55022895,0.50210437,-1.28141797

>  <Name>
1fmn_cryst

>  <RI>
0

>  <Rbt.Current_Directory>
/home/itssahil/PROJECTS/Mol_Feturizer/New_Systems/rnas/1fmn

>  <Rbt.Executable>
rbdock ($Id: //depot/dev/client3/rdock/2013.1/src/exe/rbdock.cxx#4 $)

>  <Rbt.Library>
libRbt.so (2013.1, Build901 2013/11/27)

>  <Rbt.Parameter_File>
/export/apps/rDock/src/rDock_2013.1_src/data/scripts/dock_solv.prm

>  <Rbt.Receptor>
prm/pocket_docking_4.prm

>  <SCORE>
-57.0708

>  <SCORE.INTER>
-50.6747

>  <SCORE.INTER.CONST>
1

>  <SCORE.INTER.POLAR>
-2.88156

>  <SCORE.INTER.ROT>
7

>  <SCORE.INTER.SOLV>
19.0751

>  <SCORE.INTER.VDW>
-38.803

>  <SCORE.INTER.norm>
-1.63467

>  <SCORE.INTRA>
-6.39608

>  <SCORE.INTRA.DIHEDRAL>
-9.36575

>  <SCORE.INTRA.DIHEDRAL.0>
15.5708

>  <SCORE.INTRA.POLAR>
0.0677885

>  <SCORE.INTRA.POLAR.0>
-0.0677885

>  <SCORE.INTRA.REPUL>
0

>  <SCORE.INTRA.REPUL.0>
0

>  <SCORE.INTRA.SOLV>
-4.67525

>  <SCORE.INTRA.SOLV.lig_0>
-87.6316

>  <SCORE.INTRA.VDW>
0.393939

>  <SCORE.INTRA.VDW.0>
-2.87309

>  <SCORE.INTRA.norm>
-0.206325

>  <SCORE.RESTR>
0

>  <SCORE.RESTR.CAVITY>
0

>  <SCORE.RESTR.norm>
0

>  <SCORE.SYSTEM>
0

>  <SCORE.SYSTEM.CONST>
0

>  <SCORE.SYSTEM.DIHEDRAL>
0

>  <SCORE.SYSTEM.SOLV>
0

>  <SCORE.SYSTEM.norm>
0

>  <SCORE.heavy>
31

>  <SCORE.norm>
-1.84099

>  <SYMMETRIC_BONDS>
33 34 3

>  <RMSD>
1.779

$$$$
1fmn_cryst
 OpenBabel11021811393D
libRbt.so/2013.1/901 2013/11/27
 31 33  0  0  0  0  0  0  0  0999 V2000
   -8.8659   -6.7168    3.5596 N   0  0  0  0  0  0  0  0  0  0  0  0
   -9.7073   -6.6150    4.6427 C   0  0  0  0  0  0  0  0  0  0  0  0
   -9.5344   -7.2750    5.6679 O   0  0  0  0  0  0  0  0  0  0  0  0
  -10.7869   -5.7072    4.5019 N   0  0  0  0  0  0  0  0  0  0  0  0
  -11.0781   -4.9107    3.3728 C   0  0  0  0  0  0  0  0  0  0  0  0
  -12.0580   -4.1550    3.3848 O   0  0  0  0  0  0  0  0  0  0  0  0
  -10.1370   -5.0773    2.2630 C   0  0  0  0  0  0  0  0  0  0  0  0
  -10.3503   -4.3370    1.1269 N   0  0  0  0  0  0  0  0  0  0  0  0
   -9.5846   -4.6247    0.0344 C   0  0  0  0  0  0  0  0  0  0  0  0
   -9.9144   -4.0165   -1.1639 C   0  0  0  0  0  0  0  0  0  0  0  0
   -9.1990   -4.2545   -2.2878 C   0  0  0  0  0  0  0  0  0  0  0  0
   -9.5953   -3.5691   -3.5565 C   0  0  0  0  0  0  0  0  0  0  0  0
   -8.1363   -5.1035   -2.2593 C   0  0  0  0  0  0  0  0  0  0  0  0
   -7.3563   -5.3658   -3.5063 C   0  0  0  0  0  0  0  0  0  0  0  0
   -7.7754   -5.7222   -1.1062 C   0  0  0  0  0  0  0  0  0  0  0  0
   -8.4788   -5.5109    0.0796 C   0  0  0  0  0  0  0  0  0  0  0  0
   -8.1561   -6.1178    1.3115 N   0  0  0  0  0  0  0  0  0  0  0  0
   -9.0356   -6.0000    2.4072 C   0  0  0  0  0  0  0  0  0  0  0  0
   -6.6996   -6.3704    1.6170 C   0  0  0  0  0  0  0  0  0  0  0  0
   -5.9279   -5.2103    2.3160 C   0  0  1  0  0  0  0  0  0  0  0  0
   -6.6302   -4.7839    3.4749 O   0  0  0  0  0  0  0  0  0  0  0  0
   -4.4521   -5.5579    2.6245 C   0  0  1  0  0  0  0  0  0  0  0  0
   -3.8787   -4.5672    3.4726 O   0  0  0  0  0  0  0  0  0  0  0  0
   -4.1691   -6.9690    3.1960 C   0  0  1  0  0  0  0  0  0  0  0  0
   -4.3750   -7.9229    2.1599 O   0  0  0  0  0  0  0  0  0  0  0  0
   -2.7292   -7.1231    3.7351 C   0  0  0  0  0  0  0  0  0  0  0  0
   -2.6739   -7.9076    4.9207 O   0  0  0  0  0  0  0  0  0  0  0  0
   -3.2078   -9.3982    4.9869 P   0  0  0  0  0  0  0  0  0  0  0  0
   -4.2012   -9.5562    6.0733 O   0  0  0  0  0  0  0  0  0  0  0  0
   -3.5528   -9.8889    3.6352 O   0  5  0  0  0  0  0  0  0  0  0  0
   -1.9348  -10.2345    5.4506 O   0  5  0  0  0  0  0  0  0  0  0  0
  1 18  1  0  0  0  0
  1  2  1  0  0  0  0
  2  4  1  0  0  0  0
  2  3  2  0  0  0  0
  4  5  1  0  0  0  0
  5  7  1  0  0  0  0
  5  6  2  0  0  0  0
  7 18  2  0  0  0  0
  7  8  1  0  0  0  0
  8  9  1  0  0  0  0
  9 10  2  0  0  0  0
  9 16  1  0  0  0  0
 10 11  1  0  0  0  0
 11 12  1  0  0  0  0
 11 13  2  0  0  0  0
 13 14  1  0  0  0  0
 13 15  1  0  0  0  0
 15 16  2  0  0  0  0
 16 17  1  0  0  0  0
 17 19  1  0  0  0  0
 17 18  1  0  0  0  0
 20 19  1  1  0  0  0
 20 22  1  0  0  0  0
 20 21  1  0  0  0  0
 22 24  1  0  0  0  0
 22 23  1  1  0  0  0
 24 26  1  6  0  0  0
 24 25  1  0  0  0  0
 26 27  1  0  0  0  0
 27 28  1  0  0  0  0
 28 30  1  0  0  0  0
 28 29  2  0  0  0  0
 28 31  1  0  0  0  0
M  CHG  2  30  -1  31  -1
M  END
>  <CHROM.1>
88.28331948,52.25363267,-169.32220066,54.50517388,71.00473806,-166.24098357
141.73276461,-175.14229622,58.01728638,-125.04398747,-6.95104553,-6.34377692
2.36218056,2.42529500,0.34589268,-1.24907849

>  <Name>
1fmn_cryst

>  <RI>
0

>  <Rbt.Current_Directory>
/home/itssahil/PROJECTS/Mol_Feturizer/New_Systems/rnas/1fmn

>  <Rbt.Executable>
rbdock ($Id: //depot/dev/client3/rdock/2013.1/src/exe/rbdock.cxx#4 $)

>  <Rbt.Library>
libRbt.so (2013.1, Build901 2013/11/27)

>  <Rbt.Parameter_File>
/export/apps/rDock/src/rDock_2013.1_src/data/scripts/dock_solv.prm

>  <Rbt.Receptor>
prm/pocket_docking_3.prm

>  <SCORE>
-53.4269

>  <SCORE.INTER>
-48.697

>  <SCORE.INTER.CONST>
1

>  <SCORE.INTER.POLAR>
-3.32992

>  <SCORE.INTER.ROT>
7

>  <SCORE.INTER.SOLV>
16.302

>  <SCORE.INTER.VDW>
-35.0656

>  <SCORE.INTER.norm>
-1.57087

>  <SCORE.INTRA>
-5.06601

>  <SCORE.INTRA.DIHEDRAL>
-5.93986

>  <SCORE.INTRA.DIHEDRAL.0>
15.5708

>  <SCORE.INTRA.POLAR>
-1.23439

>  <SCORE.INTRA.POLAR.0>
-0.0677885

>  <SCORE.INTRA.REPUL>
0

>  <SCORE.INTRA.REPUL.0>
0

>  <SCORE.INTRA.SOLV>
0.462249

>  <SCORE.INTRA.SOLV.lig_0>
-87.6316

>  <SCORE.INTRA.VDW>
1.86973

>  <SCORE.INTRA.VDW.0>
-2.87309

>  <SCORE.INTRA.norm>
-0.16342

>  <SCORE.RESTR>
0.336112

>  <SCORE.RESTR.CAVITY>
0.336112

>  <SCORE.RESTR.norm>
0.0108423

>  <SCORE.SYSTEM>
0

>  <SCORE.SYSTEM.CONST>
0

>  <SCORE.SYSTEM.DIHEDRAL>
0

>  <SCORE.SYSTEM.SOLV>
0

>  <SCORE.SYSTEM.norm>
0

>  <SCORE.heavy>
31

>  <SCORE.norm>
-1.72345

>  <SYMMETRIC_BONDS>
33 34 3

>  <RMSD>
1.782

$$$$
1fmn_cryst
 OpenBabel11021811393D
libRbt.so/2013.1/901 2013/11/27
 31 33  0  0  0  0  0  0  0  0999 V2000
   -8.7197   -6.1991    3.6208 N   0  0  0  0  0  0  0  0  0  0  0  0
   -9.5930   -6.2424    4.6824 C   0  0  0  0  0  0  0  0  0  0  0  0
   -9.2830   -6.7461    5.7625 O   0  0  0  0  0  0  0  0  0  0  0  0
  -10.8719   -5.6758    4.4525 N   0  0  0  0  0  0  0  0  0  0  0  0
  -11.3291   -5.0815    3.2559 C   0  0  0  0  0  0  0  0  0  0  0  0
  -12.4761   -4.6214    3.1925 O   0  0  0  0  0  0  0  0  0  0  0  0
  -10.3415   -5.0754    2.1744 C   0  0  0  0  0  0  0  0  0  0  0  0
  -10.7083   -4.5145    0.9764 N   0  0  0  0  0  0  0  0  0  0  0  0
   -9.8576   -4.6707   -0.0792 C   0  0  0  0  0  0  0  0  0  0  0  0
  -10.2988   -4.2731   -1.3289 C   0  0  0  0  0  0  0  0  0  0  0  0
   -9.5088   -4.3978   -2.4206 C   0  0  0  0  0  0  0  0  0  0  0  0
  -10.0325   -3.9498   -3.7478 C   0  0  0  0  0  0  0  0  0  0  0  0
   -8.2583   -4.9217   -2.3080 C   0  0  0  0  0  0  0  0  0  0  0  0
   -7.3954   -5.0621   -3.5195 C   0  0  0  0  0  0  0  0  0  0  0  0
   -7.7827   -5.3246   -1.1020 C   0  0  0  0  0  0  0  0  0  0  0  0
   -8.5561   -5.2173    0.0538 C   0  0  0  0  0  0  0  0  0  0  0  0
   -8.1230   -5.6128    1.3368 N   0  0  0  0  0  0  0  0  0  0  0  0
   -9.0377   -5.6502    2.4091 C   0  0  0  0  0  0  0  0  0  0  0  0
   -6.6634   -5.4357    1.6779 C   0  0  0  0  0  0  0  0  0  0  0  0
   -5.7954   -6.7305    1.6977 C   0  0  1  0  0  0  0  0  0  0  0  0
   -5.0950   -6.8689    0.4696 O   0  0  0  0  0  0  0  0  0  0  0  0
   -4.8499   -6.8126    2.9197 C   0  0  1  0  0  0  0  0  0  0  0  0
   -3.9312   -5.7239    2.9068 O   0  0  0  0  0  0  0  0  0  0  0  0
   -5.5145   -6.9251    4.3138 C   0  0  1  0  0  0  0  0  0  0  0  0
   -6.4185   -8.0243    4.2933 O   0  0  0  0  0  0  0  0  0  0  0  0
   -4.4929   -7.1424    5.4526 C   0  0  0  0  0  0  0  0  0  0  0  0
   -5.1161   -7.2638    6.7258 O   0  0  0  0  0  0  0  0  0  0  0  0
   -4.4897   -6.6538    8.0475 P   0  0  0  0  0  0  0  0  0  0  0  0
   -3.0665   -6.3003    7.8437 O   0  0  0  0  0  0  0  0  0  0  0  0
   -5.3939   -5.6409    8.6336 O   0  5  0  0  0  0  0  0  0  0  0  0
   -4.4814   -7.8807    9.0621 O   0  5  0  0  0  0  0  0  0  0  0  0
  1 18  1  0  0  0  0
  1  2  1  0  0  0  0
  2  4  1  0  0  0  0
  2  3  2  0  0  0  0
  4  5  1  0  0  0  0
  5  7  1  0  0  0  0
  5  6  2  0  0  0  0
  7 18  2  0  0  0  0
  7  8  1  0  0  0  0
  8  9  1  0  0  0  0
  9 10  2  0  0  0  0
  9 16  1  0  0  0  0
 10 11  1  0  0  0  0
 11 12  1  0  0  0  0
 11 13  2  0  0  0  0
 13 14  1  0  0  0  0
 13 15  1  0  0  0  0
 15 16  2  0  0  0  0
 16 17  1  0  0  0  0
 17 19  1  0  0  0  0
 17 18  1  0  0  0  0
 20 19  1  6  0  0  0
 20 22  1  0  0  0  0
 20 21  1  0  0  0  0
 22 24  1  0  0  0  0
 22 23  1  1  0  0  0
 24 26  1  1  0  0  0
 24 25  1  0  0  0  0
 26 27  1  0  0  0  0
 27 28  1  0  0  0  0
 28 30  1  0  0  0  0
 28 29  2  0  0  0  0
 28 31  1  0  0  0  0
M  CHG  2  30  -1  31  -1
M  END
>  <CHROM.1>
-105.16190382,98.00041460,-61.42159429,-71.85850301,53.65874064,-171.00826293
-179.13903131,63.97030850,-142.32074880,-15.44034963,-7.42969076,-5.90918754
2.98709080,2.07364384,0.20142434,-1.43663325

>  <Name>
1fmn_cryst

>  <RI>
0

>  <Rbt.Current_Directory>
/home/itssahil/PROJECTS/Mol_Feturizer/New_Systems/rnas/1fmn

>  <Rbt.Executable>
rbdock ($Id: //depot/dev/client3/rdock/2013.1/src/exe/rbdock.cxx#4 $)

>  <Rbt.Library>
libRbt.so (2013.1, Build901 2013/11/27)

>  <Rbt.Parameter_File>
/export/apps/rDock/src/rDock_2013.1_src/data/scripts/dock_solv.prm

>  <Rbt.Receptor>
prm/pocket_docking_4.prm

>  <SCORE>
-61.5347

>  <SCORE.INTER>
-56.6434

>  <SCORE.INTER.CONST>
1

>  <SCORE.INTER.POLAR>
-3.94988

>  <SCORE.INTER.ROT>
7

>  <SCORE.INTER.SOLV>
17.4258

>  <SCORE.INTER.VDW>
-38.6713

>  <SCORE.INTER.norm>
-1.82721

>  <SCORE.INTRA>
-4.89126

>  <SCORE.INTRA.DIHEDRAL>
-0.729027

>  <SCORE.INTRA.DIHEDRAL.0>
15.5708

>  <SCORE.INTRA.POLAR>
-0.932211

>  <SCORE.INTRA.POLAR.0>
-0.0677885

>  <SCORE.INTRA.REPUL>
0

>  <SCORE.INTRA.REPUL.0>
0

>  <SCORE.INTRA.SOLV>
-3.95602

>  <SCORE.INTRA.SOLV.lig_0>
-87.6316

>  <SCORE.INTRA.VDW>
0.620783

>  <SCORE.INTRA.VDW.0>
-2.87309

>  <SCORE.INTRA.norm>
-0.157783

>  <SCORE.RESTR>
0

>  <SCORE.RESTR.CAVITY>
0

>  <SCORE.RESTR.norm>
0

>  <SCORE.SYSTEM>
0

>  <SCORE.SYSTEM.CONST>
0

>  <SCORE.SYSTEM.DIHEDRAL>
0

>  <SCORE.SYSTEM.SOLV>
0

>  <SCORE.SYSTEM.norm>
0

>  <SCORE.heavy>
31

>  <SCORE.norm>
-1.98499

>  <SYMMETRIC_BONDS>
33 34 3

>  <RMSD>
1.782

$$$$
1fmn_cryst
 OpenBabel11021811393D
libRbt.so/2013.1/901 2013/11/27
 31 33  0  0  0  0  0  0  0  0999 V2000
   -9.0337   -6.1923    3.4990 N   0  0  0  0  0  0  0  0  0  0  0  0
   -9.7075   -6.2383    4.6971 C   0  0  0  0  0  0  0  0  0  0  0  0
   -9.2764   -6.8664    5.6646 O   0  0  0  0  0  0  0  0  0  0  0  0
  -10.9297   -5.5218    4.7454 N   0  0  0  0  0  0  0  0  0  0  0  0
  -11.5140   -4.7780    3.6968 C   0  0  0  0  0  0  0  0  0  0  0  0
  -12.5911   -4.1959    3.8768 O   0  0  0  0  0  0  0  0  0  0  0  0
  -10.7365   -4.7792    2.4556 C   0  0  0  0  0  0  0  0  0  0  0  0
  -11.2368   -4.0780    1.3869 N   0  0  0  0  0  0  0  0  0  0  0  0
  -10.6080   -4.2278    0.1849 C   0  0  0  0  0  0  0  0  0  0  0  0
  -11.2096   -3.6758   -0.9322 C   0  0  0  0  0  0  0  0  0  0  0  0
  -10.6427   -3.7848   -2.1562 C   0  0  0  0  0  0  0  0  0  0  0  0
  -11.3323   -3.1673   -3.3307 C   0  0  0  0  0  0  0  0  0  0  0  0
   -9.4635   -4.4455   -2.3112 C   0  0  0  0  0  0  0  0  0  0  0  0
   -8.8482   -4.5670   -3.6673 C   0  0  0  0  0  0  0  0  0  0  0  0
   -8.8366   -5.0024   -1.2437 C   0  0  0  0  0  0  0  0  0  0  0  0
   -9.3782   -4.9182    0.0389 C   0  0  0  0  0  0  0  0  0  0  0  0
   -8.7786   -5.4702    1.1903 N   0  0  0  0  0  0  0  0  0  0  0  0
   -9.4901   -5.5069    2.4070 C   0  0  0  0  0  0  0  0  0  0  0  0
   -7.2713   -5.4790    1.2694 C   0  0  0  0  0  0  0  0  0  0  0  0
   -6.5171   -6.0620    0.0359 C   0  0  1  0  0  0  0  0  0  0  0  0
   -6.2776   -5.0386   -0.9197 O   0  0  0  0  0  0  0  0  0  0  0  0
   -5.2223   -6.8197    0.4145 C   0  0  1  0  0  0  0  0  0  0  0  0
   -4.3099   -5.9419    1.0676 O   0  0  0  0  0  0  0  0  0  0  0  0
   -5.3867   -8.1190    1.2408 C   0  0  1  0  0  0  0  0  0  0  0  0
   -4.3062   -8.9909    0.9269 O   0  0  0  0  0  0  0  0  0  0  0  0
   -5.3955   -7.8667    2.7652 C   0  0  0  0  0  0  0  0  0  0  0  0
   -4.1088   -7.5252    3.2670 O   0  0  0  0  0  0  0  0  0  0  0  0
   -3.8290   -7.2734    4.8063 P   0  0  0  0  0  0  0  0  0  0  0  0
   -2.4112   -6.9126    5.0338 O   0  0  0  0  0  0  0  0  0  0  0  0
   -4.8809   -6.4159    5.3939 O   0  5  0  0  0  0  0  0  0  0  0  0
   -4.0117   -8.7122    5.4632 O   0  5  0  0  0  0  0  0  0  0  0  0
  1 18  1  0  0  0  0
  1  2  1  0  0  0  0
  2  4  1  0  0  0  0
  2  3  2  0  0  0  0
  4  5  1  0  0  0  0
  5  7  1  0  0  0  0
  5  6  2  0  0  0  0
  7 18  2  0  0  0  0
  7  8  1  0  0  0  0
  8  9  1  0  0  0  0
  9 10  2  0  0  0  0
  9 16  1  0  0  0  0
 10 11  1  0  0  0  0
 11 12  1  0  0  0  0
 11 13  2  0  0  0  0
 13 14  1  0  0  0  0
 13 15  1  0  0  0  0
 15 16  2  0  0  0  0
 16 17  1  0  0  0  0
 17 19  1  0  0  0  0
 17 18  1  0  0  0  0
 20 19  1  1  0  0  0
 20 22  1  0  0  0  0
 20 21  1  0  0  0  0
 22 24  1  0  0  0  0
 22 23  1  1  0  0  0
 24 26  1  1  0  0  0
 24 25  1  0  0  0  0
 26 27  1  0  0  0  0
 27 28  1  0  0  0  0
 28 30  1  0  0  0  0
 28 29  2  0  0  0  0
 28 31  1  0  0  0  0
M  CHG  2  30  -1  31  -1
M  END
>  <CHROM.1>
-50.59725166,88.36724024,-60.84963043,41.48289775,150.76631999,54.84224603
-72.33417872,58.09030967,-177.46533539,-179.00040638,-7.67830391,-5.87570282
1.84788353,2.49690763,0.35157275,-1.37226037

>  <Name>
1fmn_cryst

>  <RI>
0

>  <Rbt.Current_Directory>
/home/itssahil/PROJECTS/Mol_Feturizer/New_Systems/rnas/1fmn

>  <Rbt.Executable>
rbdock ($Id: //depot/dev/client3/rdock/2013.1/src/exe/rbdock.cxx#4 $)

>  <Rbt.Library>
libRbt.so (2013.1, Build901 2013/11/27)

>  <Rbt.Parameter_File>
/export/apps/rDock/src/rDock_2013.1_src/data/scripts/dock_solv.prm

>  <Rbt.Receptor>
prm/pocket_docking_3.prm

>  <SCORE>
-55.5365

>  <SCORE.INTER>
-53.8039

>  <SCORE.INTER.CONST>
1

>  <SCORE.INTER.POLAR>
-3.02008

>  <SCORE.INTER.ROT>
7

>  <SCORE.INTER.SOLV>
20.2697

>  <SCORE.INTER.VDW>
-40.8256

>  <SCORE.INTER.norm>
-1.73561

>  <SCORE.INTRA>
-1.73258

>  <SCORE.INTRA.DIHEDRAL>
-6.90518

>  <SCORE.INTRA.DIHEDRAL.0>
15.5708

>  <SCORE.INTRA.POLAR>
0.0677885

>  <SCORE.INTRA.POLAR.0>
-0.0677885

>  <SCORE.INTRA.REPUL>
0

>  <SCORE.INTRA.REPUL.0>
0

>  <SCORE.INTRA.SOLV>
-3.76734

>  <SCORE.INTRA.SOLV.lig_0>
-87.6316

>  <SCORE.INTRA.VDW>
3.3732

>  <SCORE.INTRA.VDW.0>
-2.87309

>  <SCORE.INTRA.norm>
-0.0558896

>  <SCORE.RESTR>
0

>  <SCORE.RESTR.CAVITY>
0

>  <SCORE.RESTR.norm>
0

>  <SCORE.SYSTEM>
0

>  <SCORE.SYSTEM.CONST>
0

>  <SCORE.SYSTEM.DIHEDRAL>
0

>  <SCORE.SYSTEM.SOLV>
0

>  <SCORE.SYSTEM.norm>
0

>  <SCORE.heavy>
31

>  <SCORE.norm>
-1.7915

>  <SYMMETRIC_BONDS>
33 34 3

>  <RMSD>
1.783

$$$$
1fmn_cryst
 OpenBabel11021811393D
libRbt.so/2013.1/901 2013/11/27
 31 33  0  0  0  0  0  0  0  0999 V2000
   -9.0728   -6.1659    3.4713 N   0  0  0  0  0  0  0  0  0  0  0  0
   -9.7288   -6.2249    4.6787 C   0  0  0  0  0  0  0  0  0  0  0  0
   -9.2721   -6.8442    5.6401 O   0  0  0  0  0  0  0  0  0  0  0  0
  -10.9642   -5.5327    4.7439 N   0  0  0  0  0  0  0  0  0  0  0  0
  -11.5775   -4.8008    3.7036 C   0  0  0  0  0  0  0  0  0  0  0  0
  -12.6633   -4.2400    3.8985 O   0  0  0  0  0  0  0  0  0  0  0  0
  -10.8174   -4.7869    2.4518 C   0  0  0  0  0  0  0  0  0  0  0  0
  -11.3462   -4.0958    1.3901 N   0  0  0  0  0  0  0  0  0  0  0  0
  -10.7313   -4.2335    0.1795 C   0  0  0  0  0  0  0  0  0  0  0  0
  -11.3591   -3.6936   -0.9291 C   0  0  0  0  0  0  0  0  0  0  0  0
  -10.8071   -3.7917   -2.1608 C   0  0  0  0  0  0  0  0  0  0  0  0
  -11.5250   -3.1882   -3.3256 C   0  0  0  0  0  0  0  0  0  0  0  0
   -9.6174   -4.4290   -2.3322 C   0  0  0  0  0  0  0  0  0  0  0  0
   -9.0187   -4.5387   -3.6966 C   0  0  0  0  0  0  0  0  0  0  0  0
   -8.9649   -4.9733   -1.2735 C   0  0  0  0  0  0  0  0  0  0  0  0
   -9.4903   -4.8995    0.0165 C   0  0  0  0  0  0  0  0  0  0  0  0
   -8.8640   -5.4394    1.1594 N   0  0  0  0  0  0  0  0  0  0  0  0
   -9.5577   -5.4898    2.3859 C   0  0  0  0  0  0  0  0  0  0  0  0
   -7.3558   -5.4184    1.2176 C   0  0  0  0  0  0  0  0  0  0  0  0
   -6.6077   -6.0406   -0.0004 C   0  0  1  0  0  0  0  0  0  0  0  0
   -6.4144   -5.0593   -1.0092 O   0  0  0  0  0  0  0  0  0  0  0  0
   -5.2854   -6.7431    0.3897 C   0  0  1  0  0  0  0  0  0  0  0  0
   -4.3283   -5.7839    0.8296 O   0  0  0  0  0  0  0  0  0  0  0  0
   -5.3821   -7.8997    1.4147 C   0  0  1  0  0  0  0  0  0  0  0  0
   -4.7247   -9.0387    0.8703 O   0  0  0  0  0  0  0  0  0  0  0  0
   -4.7353   -7.5550    2.7751 C   0  0  0  0  0  0  0  0  0  0  0  0
   -4.8175   -8.6297    3.7037 O   0  0  0  0  0  0  0  0  0  0  0  0
   -4.0251   -8.6382    5.0760 P   0  0  0  0  0  0  0  0  0  0  0  0
   -2.8400   -9.5221    4.9967 O   0  0  0  0  0  0  0  0  0  0  0  0
   -3.8482   -7.2607    5.5843 O   0  5  0  0  0  0  0  0  0  0  0  0
   -5.0249   -9.3579    6.0846 O   0  5  0  0  0  0  0  0  0  0  0  0
  1 18  1  0  0  0  0
  1  2  1  0  0  0  0
  2  4  1  0  0  0  0
  2  3  2  0  0  0  0
  4  5  1  0  0  0  0
  5  7  1  0  0  0  0
  5  6  2  0  0  0  0
  7 18  2  0  0  0  0
  7  8  1  0  0  0  0
  8  9  1  0  0  0  0
  9 10  2  0  0  0  0
  9 16  1  0  0  0  0
 10 11  1  0  0  0  0
 11 12  1  0  0  0  0
 11 13  2  0  0  0  0
 13 14  1  0  0  0  0
 13 15  1  0  0  0  0
 15 16  2  0  0  0  0
 16 17  1  0  0  0  0
 17 19  1  0  0  0  0
 17 18  1  0  0  0  0
 20 19  1  1  0  0  0
 20 22  1  0  0  0  0
 20 21  1  0  0  0  0
 22 24  1  0  0  0  0
 22 23  1  1  0  0  0
 24 26  1  1  0  0  0
 24 25  1  0  0  0  0
 26 27  1  0  0  0  0
 27 28  1  0  0  0  0
 28 30  1  0  0  0  0
 28 29  2  0  0  0  0
 28 31  1  0  0  0  0
M  CHG  2  30  -1  31  -1
M  END
>  <CHROM.1>
-53.05126413,87.63532607,-67.91642415,45.92220299,127.81230844,55.68202973
-179.37295623,59.41920060,169.29605572,-102.99898697,-7.78990440,-6.12597561
1.88945967,0.71592395,-0.41637761,1.84171048

>  <Name>
1fmn_cryst

>  <RI>
0

>  <Rbt.Current_Directory>
/home/itssahil/PROJECTS/Mol_Feturizer/New_Systems/rnas/1fmn

>  <Rbt.Executable>
rbdock ($Id: //depot/dev/client3/rdock/2013.1/src/exe/rbdock.cxx#4 $)

>  <Rbt.Library>
libRbt.so (2013.1, Build901 2013/11/27)

>  <Rbt.Parameter_File>
/export/apps/rDock/src/rDock_2013.1_src/data/scripts/dock_solv.prm

>  <Rbt.Receptor>
prm/pocket_docking_2.prm

>  <SCORE>
-53.679

>  <SCORE.INTER>
-53.9681

>  <SCORE.INTER.CONST>
1

>  <SCORE.INTER.POLAR>
-2.99354

>  <SCORE.INTER.ROT>
7

>  <SCORE.INTER.SOLV>
21.021

>  <SCORE.INTER.VDW>
-41.274

>  <SCORE.INTER.norm>
-1.74091

>  <SCORE.INTRA>
0.28851

>  <SCORE.INTRA.DIHEDRAL>
-3.54883

>  <SCORE.INTRA.DIHEDRAL.0>
15.5708

>  <SCORE.INTRA.POLAR>
0.0677885

>  <SCORE.INTRA.POLAR.0>
-0.0677885

>  <SCORE.INTRA.REPUL>
0

>  <SCORE.INTRA.REPUL.0>
0

>  <SCORE.INTRA.SOLV>
-4.95971

>  <SCORE.INTRA.SOLV.lig_0>
-87.6316

>  <SCORE.INTRA.VDW>
4.3123

>  <SCORE.INTRA.VDW.0>
-2.87309

>  <SCORE.INTRA.norm>
0.00930676

>  <SCORE.RESTR>
0.000643268

>  <SCORE.RESTR.CAVITY>
0.000643268

>  <SCORE.RESTR.norm>
2.07506e-05

>  <SCORE.SYSTEM>
0

>  <SCORE.SYSTEM.CONST>
0

>  <SCORE.SYSTEM.DIHEDRAL>
0

>  <SCORE.SYSTEM.SOLV>
0

>  <SCORE.SYSTEM.norm>
0

>  <SCORE.heavy>
31

>  <SCORE.norm>
-1.73158

>  <SYMMETRIC_BONDS>
33 34 3

>  <RMSD>
1.794

$$$$
1fmn_cryst
 OpenBabel11021811393D
libRbt.so/2013.1/901 2013/11/27
 31 33  0  0  0  0  0  0  0  0999 V2000
   -8.7828   -6.0700    3.7399 N   0  0  0  0  0  0  0  0  0  0  0  0
   -9.7083   -6.1054    4.7567 C   0  0  0  0  0  0  0  0  0  0  0  0
   -9.4456   -6.5800    5.8622 O   0  0  0  0  0  0  0  0  0  0  0  0
  -10.9828   -5.5662    4.4498 N   0  0  0  0  0  0  0  0  0  0  0  0
  -11.3881   -5.0060    3.2184 C   0  0  0  0  0  0  0  0  0  0  0  0
  -12.5377   -4.5674    3.0867 O   0  0  0  0  0  0  0  0  0  0  0  0
  -10.3468   -5.0064    2.1884 C   0  0  0  0  0  0  0  0  0  0  0  0
  -10.6612   -4.4781    0.9610 N   0  0  0  0  0  0  0  0  0  0  0  0
   -9.7554   -4.6425   -0.0465 C   0  0  0  0  0  0  0  0  0  0  0  0
  -10.1388   -4.2799   -1.3255 C   0  0  0  0  0  0  0  0  0  0  0  0
   -9.2924   -4.4146   -2.3728 C   0  0  0  0  0  0  0  0  0  0  0  0
   -9.7550   -4.0048   -3.7346 C   0  0  0  0  0  0  0  0  0  0  0  0
   -8.0408   -4.9142   -2.1853 C   0  0  0  0  0  0  0  0  0  0  0  0
   -7.1153   -5.0659   -3.3482 C   0  0  0  0  0  0  0  0  0  0  0  0
   -7.6208   -5.2824   -0.9480 C   0  0  0  0  0  0  0  0  0  0  0  0
   -8.4537   -5.1635    0.1645 C   0  0  0  0  0  0  0  0  0  0  0  0
   -8.0802   -5.5234    1.4763 N   0  0  0  0  0  0  0  0  0  0  0  0
   -9.0476   -5.5533    2.5017 C   0  0  0  0  0  0  0  0  0  0  0  0
   -6.6429   -5.3136    1.8867 C   0  0  0  0  0  0  0  0  0  0  0  0
   -5.6006   -5.2161    0.7315 C   0  0  1  0  0  0  0  0  0  0  0  0
   -4.5168   -4.3837    1.1193 O   0  0  0  0  0  0  0  0  0  0  0  0
   -5.1216   -6.5970    0.2238 C   0  0  1  0  0  0  0  0  0  0  0  0
   -3.7876   -6.5064   -0.2678 O   0  0  0  0  0  0  0  0  0  0  0  0
   -5.2408   -7.7859    1.2088 C   0  0  1  0  0  0  0  0  0  0  0  0
   -6.3094   -8.6214    0.7774 O   0  0  0  0  0  0  0  0  0  0  0  0
   -3.9503   -8.6317    1.2915 C   0  0  0  0  0  0  0  0  0  0  0  0
   -2.9359   -8.0012    2.0645 O   0  0  0  0  0  0  0  0  0  0  0  0
   -3.0865   -7.7324    3.6190 P   0  0  0  0  0  0  0  0  0  0  0  0
   -1.9374   -6.9541    4.1346 O   0  0  0  0  0  0  0  0  0  0  0  0
   -4.4547   -7.2705    3.9380 O   0  5  0  0  0  0  0  0  0  0  0  0
   -2.9446   -9.1794    4.2676 O   0  5  0  0  0  0  0  0  0  0  0  0
  1 18  1  0  0  0  0
  1  2  1  0  0  0  0
  2  4  1  0  0  0  0
  2  3  2  0  0  0  0
  4  5  1  0  0  0  0
  5  7  1  0  0  0  0
  5  6  2  0  0  0  0
  7 18  2  0  0  0  0
  7  8  1  0  0  0  0
  8  9  1  0  0  0  0
  9 10  2  0  0  0  0
  9 16  1  0  0  0  0
 10 11  1  0  0  0  0
 11 12  1  0  0  0  0
 11 13  2  0  0  0  0
 13 14  1  0  0  0  0
 13 15  1  0  0  0  0
 15 16  2  0  0  0  0
 16 17  1  0  0  0  0
 17 19  1  0  0  0  0
 17 18  1  0  0  0  0
 20 19  1  1  0  0  0
 20 22  1  0  0  0  0
 20 21  1  0  0  0  0
 22 24  1  0  0  0  0
 22 23  1  1  0  0  0
 24 26  1  6  0  0  0
 24 25  1  0  0  0  0
 26 27  1  0  0  0  0
 27 28  1  0  0  0  0
 28 30  1  0  0  0  0
 28 29  2  0  0  0  0
 28 31  1  0  0  0  0
M  CHG  2  30  -1  31  -1
M  END
>  <CHROM.1>
-21.44153772,150.09938958,-150.34151661,-161.37645394,107.04529223,-152.05931545
76.51002657,175.39724154,65.20501567,-174.73485532,-7.04909034,-6.07930581
1.54891477,2.75018807,0.32329292,-1.32023096

>  <Name>
1fmn_cryst

>  <RI>
0

>  <Rbt.Current_Directory>
/home/itssahil/PROJECTS/Mol_Feturizer/New_Systems/rnas/1fmn

>  <Rbt.Executable>
rbdock ($Id: //depot/dev/client3/rdock/2013.1/src/exe/rbdock.cxx#4 $)

>  <Rbt.Library>
libRbt.so (2013.1, Build901 2013/11/27)

>  <Rbt.Parameter_File>
/export/apps/rDock/src/rDock_2013.1_src/data/scripts/dock_solv.prm

>  <Rbt.Receptor>
prm/pocket_docking_2.prm

>  <SCORE>
-50.8822

>  <SCORE.INTER>
-57.463

>  <SCORE.INTER.CONST>
1

>  <SCORE.INTER.POLAR>
-4.22459

>  <SCORE.INTER.ROT>
7

>  <SCORE.INTER.SOLV>
20.326

>  <SCORE.INTER.VDW>
-39.2687

>  <SCORE.INTER.norm>
-1.85364

>  <SCORE.INTRA>
6.2742

>  <SCORE.INTRA.DIHEDRAL>
1.64175

>  <SCORE.INTRA.DIHEDRAL.0>
15.5708

>  <SCORE.INTRA.POLAR>
0.0677885

>  <SCORE.INTRA.POLAR.0>
-0.0677885

>  <SCORE.INTRA.REPUL>
0

>  <SCORE.INTRA.REPUL.0>
0

>  <SCORE.INTRA.SOLV>
-0.0744551

>  <SCORE.INTRA.SOLV.lig_0>
-87.6316

>  <SCORE.INTRA.VDW>
5.26007

>  <SCORE.INTRA.VDW.0>
-2.87309

>  <SCORE.INTRA.norm>
0.202394

>  <SCORE.RESTR>
0.306575

>  <SCORE.RESTR.CAVITY>
0.306575

>  <SCORE.RESTR.norm>
0.00988953

>  <SCORE.SYSTEM>
0

>  <SCORE.SYSTEM.CONST>
0

>  <SCORE.SYSTEM.DIHEDRAL>
0

>  <SCORE.SYSTEM.SOLV>
0

>  <SCORE.SYSTEM.norm>
0

>  <SCORE.heavy>
31

>  <SCORE.norm>
-1.64136

>  <SYMMETRIC_BONDS>
33 34 3

>  <RMSD>
1.795

$$$$
1fmn_cryst
 OpenBabel11021811393D
libRbt.so/2013.1/901 2013/11/27
 31 33  0  0  0  0  0  0  0  0999 V2000
   -8.6938   -6.1743    3.6455 N   0  0  0  0  0  0  0  0  0  0  0  0
   -9.5567   -6.2072    4.7160 C   0  0  0  0  0  0  0  0  0  0  0  0
   -9.2400   -6.7107    5.7943 O   0  0  0  0  0  0  0  0  0  0  0  0
  -10.8329   -5.6303    4.4976 N   0  0  0  0  0  0  0  0  0  0  0  0
  -11.2972   -5.0353    3.3040 C   0  0  0  0  0  0  0  0  0  0  0  0
  -12.4408   -4.5656    3.2509 O   0  0  0  0  0  0  0  0  0  0  0  0
  -10.3206   -5.0407    2.2125 C   0  0  0  0  0  0  0  0  0  0  0  0
  -10.6947   -4.4799    1.0167 N   0  0  0  0  0  0  0  0  0  0  0  0
   -9.8562   -4.6463   -0.0471 C   0  0  0  0  0  0  0  0  0  0  0  0
  -10.3067   -4.2483   -1.2933 C   0  0  0  0  0  0  0  0  0  0  0  0
   -9.5290   -4.3828   -2.3926 C   0  0  0  0  0  0  0  0  0  0  0  0
  -10.0623   -3.9340   -3.7157 C   0  0  0  0  0  0  0  0  0  0  0  0
   -8.2819   -4.9171   -2.2912 C   0  0  0  0  0  0  0  0  0  0  0  0
   -7.4327   -5.0682   -3.5111 C   0  0  0  0  0  0  0  0  0  0  0  0
   -7.7975   -5.3208   -1.0891 C   0  0  0  0  0  0  0  0  0  0  0  0
   -8.5582   -5.2037    0.0742 C   0  0  0  0  0  0  0  0  0  0  0  0
   -8.1155   -5.5994    1.3539 N   0  0  0  0  0  0  0  0  0  0  0  0
   -9.0195   -5.6260    2.4356 C   0  0  0  0  0  0  0  0  0  0  0  0
   -6.6509   -5.4339    1.6796 C   0  0  0  0  0  0  0  0  0  0  0  0
   -5.7876   -6.7319    1.6636 C   0  0  1  0  0  0  0  0  0  0  0  0
   -5.0595   -6.8202    0.4471 O   0  0  0  0  0  0  0  0  0  0  0  0
   -4.8707   -6.8702    2.9023 C   0  0  1  0  0  0  0  0  0  0  0  0
   -4.5212   -8.2359    3.1074 O   0  0  0  0  0  0  0  0  0  0  0  0
   -3.5973   -5.9897    2.9335 C   0  0  1  0  0  0  0  0  0  0  0  0
   -3.9779   -4.6402    2.6887 O   0  0  0  0  0  0  0  0  0  0  0  0
   -2.8501   -6.0585    4.2843 C   0  0  0  0  0  0  0  0  0  0  0  0
   -2.2489   -7.3283    4.5087 O   0  0  0  0  0  0  0  0  0  0  0  0
   -0.8662   -7.7481    3.8581 P   0  0  0  0  0  0  0  0  0  0  0  0
    0.1224   -6.6510    3.9635 O   0  0  0  0  0  0  0  0  0  0  0  0
   -0.4710   -9.1023    4.3020 O   0  5  0  0  0  0  0  0  0  0  0  0
   -1.2010   -7.8703    2.3064 O   0  5  0  0  0  0  0  0  0  0  0  0
  1 18  1  0  0  0  0
  1  2  1  0  0  0  0
  2  4  1  0  0  0  0
  2  3  2  0  0  0  0
  4  5  1  0  0  0  0
  5  7  1  0  0  0  0
  5  6  2  0  0  0  0
  7 18  2  0  0  0  0
  7  8  1  0  0  0  0
  8  9  1  0  0  0  0
  9 10  2  0  0  0  0
  9 16  1  0  0  0  0
 10 11  1  0  0  0  0
 11 12  1  0  0  0  0
 11 13  2  0  0  0  0
 13 14  1  0  0  0  0
 13 15  1  0  0  0  0
 15 16  2  0  0  0  0
 16 17  1  0  0  0  0
 17 19  1  0  0  0  0
 17 18  1  0  0  0  0
 20 19  1  1  0  0  0
 20 22  1  0  0  0  0
 20 21  1  0  0  0  0
 22 24  1  0  0  0  0
 22 23  1  6  0  0  0
 24 26  1  1  0  0  0
 24 25  1  0  0  0  0
 26 27  1  0  0  0  0
 27 28  1  0  0  0  0
 28 30  1  0  0  0  0
 28 29  2  0  0  0  0
 28 31  1  0  0  0  0
M  CHG  2  30  -1  31  -1
M  END
>  <CHROM.1>
-103.86649019,100.46173943,157.41712318,-75.19934726,51.75138343,175.04892025
68.94694609,-69.48942418,80.25719410,44.46820638,-6.50569444,-6.01076910
1.98516975,2.73396636,0.22050598,-1.36542913

>  <Name>
1fmn_cryst

>  <RI>
0

>  <Rbt.Current_Directory>
/home/itssahil/PROJECTS/Mol_Feturizer/New_Systems/rnas/1fmn

>  <Rbt.Executable>
rbdock ($Id: //depot/dev/client3/rdock/2013.1/src/exe/rbdock.cxx#4 $)

>  <Rbt.Library>
libRbt.so (2013.1, Build901 2013/11/27)

>  <Rbt.Parameter_File>
/export/apps/rDock/src/rDock_2013.1_src/data/scripts/dock_solv.prm

>  <Rbt.Receptor>
prm/pocket_docking_7.prm

>  <SCORE>
-54.6243

>  <SCORE.INTER>
-50.4784

>  <SCORE.INTER.CONST>
1

>  <SCORE.INTER.POLAR>
-3.02614

>  <SCORE.INTER.ROT>
7

>  <SCORE.INTER.SOLV>
13.8664

>  <SCORE.INTER.VDW>
-36.4539

>  <SCORE.INTER.norm>
-1.62834

>  <SCORE.INTRA>
-4.14593

>  <SCORE.INTRA.DIHEDRAL>
-3.18251

>  <SCORE.INTRA.DIHEDRAL.0>
15.5708

>  <SCORE.INTRA.POLAR>
-0.704081

>  <SCORE.INTRA.POLAR.0>
-0.0677885

>  <SCORE.INTRA.REPUL>
0

>  <SCORE.INTRA.REPUL.0>
0

>  <SCORE.INTRA.SOLV>
-0.77106

>  <SCORE.INTRA.SOLV.lig_0>
-87.6316

>  <SCORE.INTRA.VDW>
0.224728

>  <SCORE.INTRA.VDW.0>
-2.87309

>  <SCORE.INTRA.norm>
-0.13374

>  <SCORE.RESTR>
0

>  <SCORE.RESTR.CAVITY>
0

>  <SCORE.RESTR.norm>
0

>  <SCORE.SYSTEM>
0

>  <SCORE.SYSTEM.CONST>
0

>  <SCORE.SYSTEM.DIHEDRAL>
0

>  <SCORE.SYSTEM.SOLV>
0

>  <SCORE.SYSTEM.norm>
0

>  <SCORE.heavy>
31

>  <SCORE.norm>
-1.76208

>  <SYMMETRIC_BONDS>
33 34 3

>  <RMSD>
1.795

$$$$
1fmn_cryst
 OpenBabel11021811393D
libRbt.so/2013.1/901 2013/11/27
 31 33  0  0  0  0  0  0  0  0999 V2000
   -8.9144   -6.4131    3.6260 N   0  0  0  0  0  0  0  0  0  0  0  0
   -9.7561   -6.3422    4.7114 C   0  0  0  0  0  0  0  0  0  0  0  0
   -9.5250   -6.9497    5.7574 O   0  0  0  0  0  0  0  0  0  0  0  0
  -10.9069   -5.5308    4.5476 N   0  0  0  0  0  0  0  0  0  0  0  0
  -11.2676   -4.8006    3.3940 C   0  0  0  0  0  0  0  0  0  0  0  0
  -12.3058   -4.1273    3.3875 O   0  0  0  0  0  0  0  0  0  0  0  0
  -10.3213   -4.9288    2.2834 C   0  0  0  0  0  0  0  0  0  0  0  0
  -10.5998   -4.2486    1.1242 N   0  0  0  0  0  0  0  0  0  0  0  0
   -9.8185   -4.5110    0.0364 C   0  0  0  0  0  0  0  0  0  0  0  0
  -10.2026   -3.9740   -1.1796 C   0  0  0  0  0  0  0  0  0  0  0  0
   -9.4756   -4.1922   -2.3000 C   0  0  0  0  0  0  0  0  0  0  0  0
   -9.9326   -3.5862   -3.5886 C   0  0  0  0  0  0  0  0  0  0  0  0
   -8.3470   -4.9504   -2.2505 C   0  0  0  0  0  0  0  0  0  0  0  0
   -7.5543   -5.1918   -3.4936 C   0  0  0  0  0  0  0  0  0  0  0  0
   -7.9313   -5.4969   -1.0795 C   0  0  0  0  0  0  0  0  0  0  0  0
   -8.6439   -5.3023    0.1037 C   0  0  0  0  0  0  0  0  0  0  0  0
   -8.2667   -5.8373    1.3533 N   0  0  0  0  0  0  0  0  0  0  0  0
   -9.1476   -5.7533    2.4510 C   0  0  0  0  0  0  0  0  0  0  0  0
   -6.7931   -5.9598    1.6561 C   0  0  0  0  0  0  0  0  0  0  0  0
   -6.1767   -7.3860    1.5288 C   0  0  1  0  0  0  0  0  0  0  0  0
   -6.9725   -8.1879    0.6677 O   0  0  0  0  0  0  0  0  0  0  0  0
   -4.6895   -7.3721    1.1020 C   0  0  1  0  0  0  0  0  0  0  0  0
   -3.9053   -6.6789    2.0685 O   0  0  0  0  0  0  0  0  0  0  0  0
   -4.0402   -8.7403    0.7793 C   0  0  1  0  0  0  0  0  0  0  0  0
   -2.7156   -8.5100    0.3120 O   0  0  0  0  0  0  0  0  0  0  0  0
   -3.9792   -9.6820    2.0030 C   0  0  0  0  0  0  0  0  0  0  0  0
   -3.1195   -9.1907    3.0245 O   0  0  0  0  0  0  0  0  0  0  0  0
   -2.8527   -9.9802    4.3724 P   0  0  0  0  0  0  0  0  0  0  0  0
   -2.5248  -11.3978    4.0986 O   0  0  0  0  0  0  0  0  0  0  0  0
   -1.9602   -9.2061    5.2620 O   0  5  0  0  0  0  0  0  0  0  0  0
   -4.2766  -10.0035    5.0842 O   0  5  0  0  0  0  0  0  0  0  0  0
  1 18  1  0  0  0  0
  1  2  1  0  0  0  0
  2  4  1  0  0  0  0
  2  3  2  0  0  0  0
  4  5  1  0  0  0  0
  5  7  1  0  0  0  0
  5  6  2  0  0  0  0
  7 18  2  0  0  0  0
  7  8  1  0  0  0  0
  8  9  1  0  0  0  0
  9 10  2  0  0  0  0
  9 16  1  0  0  0  0
 10 11  1  0  0  0  0
 11 12  1  0  0  0  0
 11 13  2  0  0  0  0
 13 14  1  0  0  0  0
 13 15  1  0  0  0  0
 15 16  2  0  0  0  0
 16 17  1  0  0  0  0
 17 19  1  0  0  0  0
 17 18  1  0  0  0  0
 20 19  1  6  0  0  0
 20 22  1  0  0  0  0
 20 21  1  0  0  0  0
 22 24  1  0  0  0  0
 22 23  1  1  0  0  0
 24 26  1  1  0  0  0
 24 25  1  0  0  0  0
 26 27  1  0  0  0  0
 27 28  1  0  0  0  0
 28 30  1  0  0  0  0
 28 29  2  0  0  0  0
 28 31  1  0  0  0  0
M  CHG  2  30  -1  31  -1
M  END
>  <CHROM.1>
-102.55412620,22.77426666,60.88181405,177.56382210,175.57929357,179.88773970
-65.69349823,-175.77141674,-178.58567265,48.33054746,-7.00484487,-6.83143982
1.82515926,2.61701230,0.50172188,-1.27134472

>  <Name>
1fmn_cryst

>  <RI>
0

>  <Rbt.Current_Directory>
/home/itssahil/PROJECTS/Mol_Feturizer/New_Systems/rnas/1fmn

>  <Rbt.Executable>
rbdock ($Id: //depot/dev/client3/rdock/2013.1/src/exe/rbdock.cxx#4 $)

>  <Rbt.Library>
libRbt.so (2013.1, Build901 2013/11/27)

>  <Rbt.Parameter_File>
/export/apps/rDock/src/rDock_2013.1_src/data/scripts/dock_solv.prm

>  <Rbt.Receptor>
prm/pocket_docking_4.prm

>  <SCORE>
-56.9594

>  <SCORE.INTER>
-50.763

>  <SCORE.INTER.CONST>
1

>  <SCORE.INTER.POLAR>
-2.86479

>  <SCORE.INTER.ROT>
7

>  <SCORE.INTER.SOLV>
18.5941

>  <SCORE.INTER.VDW>
-38.7574

>  <SCORE.INTER.norm>
-1.63752

>  <SCORE.INTRA>
-6.19636

>  <SCORE.INTRA.DIHEDRAL>
-8.8273

>  <SCORE.INTRA.DIHEDRAL.0>
15.5708

>  <SCORE.INTRA.POLAR>
0.0249473

>  <SCORE.INTRA.POLAR.0>
-0.0677885

>  <SCORE.INTRA.REPUL>
0

>  <SCORE.INTRA.REPUL.0>
0

>  <SCORE.INTRA.SOLV>
-4.28201

>  <SCORE.INTRA.SOLV.lig_0>
-87.6316

>  <SCORE.INTRA.VDW>
0.273476

>  <SCORE.INTRA.VDW.0>
-2.87309

>  <SCORE.INTRA.norm>
-0.199883

>  <SCORE.RESTR>
0

>  <SCORE.RESTR.CAVITY>
0

>  <SCORE.RESTR.norm>
0

>  <SCORE.SYSTEM>
0

>  <SCORE.SYSTEM.CONST>
0

>  <SCORE.SYSTEM.DIHEDRAL>
0

>  <SCORE.SYSTEM.SOLV>
0

>  <SCORE.SYSTEM.norm>
0

>  <SCORE.heavy>
31

>  <SCORE.norm>
-1.8374

>  <SYMMETRIC_BONDS>
33 34 3

>  <RMSD>
1.799

$$$$
1fmn_cryst
 OpenBabel11021811393D
libRbt.so/2013.1/901 2013/11/27
 31 33  0  0  0  0  0  0  0  0999 V2000
   -8.7573   -6.7098    3.5918 N   0  0  0  0  0  0  0  0  0  0  0  0
   -9.6172   -6.6450    4.6633 C   0  0  0  0  0  0  0  0  0  0  0  0
   -9.4201   -7.2833    5.6978 O   0  0  0  0  0  0  0  0  0  0  0  0
  -10.7449   -5.8020    4.4991 N   0  0  0  0  0  0  0  0  0  0  0  0
  -11.0665   -5.0352    3.3577 C   0  0  0  0  0  0  0  0  0  0  0  0
  -12.0880   -4.3368    3.3492 O   0  0  0  0  0  0  0  0  0  0  0  0
  -10.1031   -5.1593    2.2615 C   0  0  0  0  0  0  0  0  0  0  0  0
  -10.3436   -4.4443    1.1147 N   0  0  0  0  0  0  0  0  0  0  0  0
   -9.5487   -4.6990    0.0349 C   0  0  0  0  0  0  0  0  0  0  0  0
   -9.8971   -4.1233   -1.1740 C   0  0  0  0  0  0  0  0  0  0  0  0
   -9.1549   -4.3316   -2.2863 C   0  0  0  0  0  0  0  0  0  0  0  0
   -9.5731   -3.6833   -3.5673 C   0  0  0  0  0  0  0  0  0  0  0  0
   -8.0459   -5.1181   -2.2353 C   0  0  0  0  0  0  0  0  0  0  0  0
   -7.2362   -5.3483   -3.4696 C   0  0  0  0  0  0  0  0  0  0  0  0
   -7.6652   -5.7031   -1.0709 C   0  0  0  0  0  0  0  0  0  0  0  0
   -8.3948   -5.5201    0.1037 C   0  0  0  0  0  0  0  0  0  0  0  0
   -8.0539   -6.0946    1.3461 N   0  0  0  0  0  0  0  0  0  0  0  0
   -8.9528   -6.0160    2.4296 C   0  0  0  0  0  0  0  0  0  0  0  0
   -6.5895   -6.2604    1.6723 C   0  0  0  0  0  0  0  0  0  0  0  0
   -5.8808   -5.0307    2.3173 C   0  0  1  0  0  0  0  0  0  0  0  0
   -6.4780   -4.7228    3.5689 O   0  0  0  0  0  0  0  0  0  0  0  0
   -4.3470   -5.2002    2.4300 C   0  0  1  0  0  0  0  0  0  0  0  0
   -3.6821   -4.1519    1.7312 O   0  0  0  0  0  0  0  0  0  0  0  0
   -3.7600   -5.3382    3.8563 C   0  0  1  0  0  0  0  0  0  0  0  0
   -4.4953   -6.3403    4.5498 O   0  0  0  0  0  0  0  0  0  0  0  0
   -2.2648   -5.7280    3.8574 C   0  0  0  0  0  0  0  0  0  0  0  0
   -1.6776   -5.6262    5.1493 O   0  0  0  0  0  0  0  0  0  0  0  0
   -1.7188   -6.8080    6.2043 P   0  0  0  0  0  0  0  0  0  0  0  0
   -3.1128   -7.1235    6.5905 O   0  0  0  0  0  0  0  0  0  0  0  0
   -0.8334   -7.9147    5.7821 O   0  5  0  0  0  0  0  0  0  0  0  0
   -1.0505   -6.1767    7.5042 O   0  5  0  0  0  0  0  0  0  0  0  0
  1 18  1  0  0  0  0
  1  2  1  0  0  0  0
  2  4  1  0  0  0  0
  2  3  2  0  0  0  0
  4  5  1  0  0  0  0
  5  7  1  0  0  0  0
  5  6  2  0  0  0  0
  7 18  2  0  0  0  0
  7  8  1  0  0  0  0
  8  9  1  0  0  0  0
  9 10  2  0  0  0  0
  9 16  1  0  0  0  0
 10 11  1  0  0  0  0
 11 12  1  0  0  0  0
 11 13  2  0  0  0  0
 13 14  1  0  0  0  0
 13 15  1  0  0  0  0
 15 16  2  0  0  0  0
 16 17  1  0  0  0  0
 17 19  1  0  0  0  0
 17 18  1  0  0  0  0
 20 19  1  1  0  0  0
 20 22  1  0  0  0  0
 20 21  1  0  0  0  0
 22 24  1  0  0  0  0
 22 23  1  1  0  0  0
 24 26  1  6  0  0  0
 24 25  1  0  0  0  0
 26 27  1  0  0  0  0
 27 28  1  0  0  0  0
 28 30  1  0  0  0  0
 28 29  2  0  0  0  0
 28 31  1  0  0  0  0
M  CHG  2  30  -1  31  -1
M  END
>  <CHROM.1>
85.98880306,62.06337356,121.70603841,59.63905066,50.13022852,-62.25379987
169.77267741,-178.34650290,86.83614612,-62.74641693,-6.57793947,-5.63382958
2.66880905,2.45798546,0.03697067,-1.34595425

>  <Name>
1fmn_cryst

>  <RI>
0

>  <Rbt.Current_Directory>
/home/itssahil/PROJECTS/Mol_Feturizer/New_Systems/rnas/1fmn

>  <Rbt.Executable>
rbdock ($Id: //depot/dev/client3/rdock/2013.1/src/exe/rbdock.cxx#4 $)

>  <Rbt.Library>
libRbt.so (2013.1, Build901 2013/11/27)

>  <Rbt.Parameter_File>
/export/apps/rDock/src/rDock_2013.1_src/data/scripts/dock_solv.prm

>  <Rbt.Receptor>
prm/pocket_docking_4.prm

>  <SCORE>
-60.0478

>  <SCORE.INTER>
-53.4036

>  <SCORE.INTER.CONST>
1

>  <SCORE.INTER.POLAR>
-4.47697

>  <SCORE.INTER.ROT>
7

>  <SCORE.INTER.SOLV>
15.8271

>  <SCORE.INTER.VDW>
-34.2215

>  <SCORE.INTER.norm>
-1.7227

>  <SCORE.INTRA>
-6.64425

>  <SCORE.INTRA.DIHEDRAL>
-5.17092

>  <SCORE.INTRA.DIHEDRAL.0>
15.5708

>  <SCORE.INTRA.POLAR>
-1.24371

>  <SCORE.INTRA.POLAR.0>
-0.0677885

>  <SCORE.INTRA.REPUL>
0

>  <SCORE.INTRA.REPUL.0>
0

>  <SCORE.INTRA.SOLV>
0.0722086

>  <SCORE.INTRA.SOLV.lig_0>
-87.6316

>  <SCORE.INTRA.VDW>
0.133723

>  <SCORE.INTRA.VDW.0>
-2.87309

>  <SCORE.INTRA.norm>
-0.214331

>  <SCORE.RESTR>
0

>  <SCORE.RESTR.CAVITY>
0

>  <SCORE.RESTR.norm>
0

>  <SCORE.SYSTEM>
0

>  <SCORE.SYSTEM.CONST>
0

>  <SCORE.SYSTEM.DIHEDRAL>
0

>  <SCORE.SYSTEM.SOLV>
0

>  <SCORE.SYSTEM.norm>
0

>  <SCORE.heavy>
31

>  <SCORE.norm>
-1.93703

>  <SYMMETRIC_BONDS>
33 34 3

>  <RMSD>
1.800

$$$$
1fmn_cryst
 OpenBabel11021811393D
libRbt.so/2013.1/901 2013/11/27
 31 33  0  0  0  0  0  0  0  0999 V2000
   -8.9984   -6.1727    3.4499 N   0  0  0  0  0  0  0  0  0  0  0  0
   -9.6690   -6.2168    4.6499 C   0  0  0  0  0  0  0  0  0  0  0  0
   -9.2328   -6.8391    5.6189 O   0  0  0  0  0  0  0  0  0  0  0  0
  -10.8942   -5.5055    4.6984 N   0  0  0  0  0  0  0  0  0  0  0  0
  -11.4844   -4.7685    3.6483 C   0  0  0  0  0  0  0  0  0  0  0  0
  -12.5636   -4.1904    3.8286 O   0  0  0  0  0  0  0  0  0  0  0  0
  -10.7100   -4.7713    2.4052 C   0  0  0  0  0  0  0  0  0  0  0  0
  -11.2159   -4.0765    1.3349 N   0  0  0  0  0  0  0  0  0  0  0  0
  -10.5895   -4.2284    0.1319 C   0  0  0  0  0  0  0  0  0  0  0  0
  -11.1962   -3.6835   -0.9858 C   0  0  0  0  0  0  0  0  0  0  0  0
  -10.6319   -3.7949   -2.2108 C   0  0  0  0  0  0  0  0  0  0  0  0
  -11.3271   -3.1852   -3.3860 C   0  0  0  0  0  0  0  0  0  0  0  0
   -9.4501   -4.4510   -2.3661 C   0  0  0  0  0  0  0  0  0  0  0  0
   -8.8377   -4.5753   -3.7232 C   0  0  0  0  0  0  0  0  0  0  0  0
   -8.8182   -5.0010   -1.2979 C   0  0  0  0  0  0  0  0  0  0  0  0
   -9.3570   -4.9139   -0.0143 C   0  0  0  0  0  0  0  0  0  0  0  0
   -8.7521   -5.4587    1.1378 N   0  0  0  0  0  0  0  0  0  0  0  0
   -9.4605   -5.4936    2.3564 C   0  0  0  0  0  0  0  0  0  0  0  0
   -7.2446   -5.4606    1.2132 C   0  0  0  0  0  0  0  0  0  0  0  0
   -6.5254   -6.7255    0.6536 C   0  0  1  0  0  0  0  0  0  0  0  0
   -5.3117   -6.3558    0.0147 O   0  0  0  0  0  0  0  0  0  0  0  0
   -6.3107   -7.8268    1.7189 C   0  0  1  0  0  0  0  0  0  0  0  0
   -5.5411   -8.8955    1.1757 O   0  0  0  0  0  0  0  0  0  0  0  0
   -5.7113   -7.3821    3.0757 C   0  0  1  0  0  0  0  0  0  0  0  0
   -5.6797   -8.5094    3.9441 O   0  0  0  0  0  0  0  0  0  0  0  0
   -4.2801   -6.8145    2.9452 C   0  0  0  0  0  0  0  0  0  0  0  0
   -3.3178   -7.8252    2.6684 O   0  0  0  0  0  0  0  0  0  0  0  0
   -1.7742   -7.5128    2.4927 P   0  0  0  0  0  0  0  0  0  0  0  0
   -1.5466   -6.5973    1.3516 O   0  0  0  0  0  0  0  0  0  0  0  0
   -1.1567   -7.1865    3.7963 O   0  5  0  0  0  0  0  0  0  0  0  0
   -1.1550   -8.9100    2.0462 O   0  5  0  0  0  0  0  0  0  0  0  0
  1 18  1  0  0  0  0
  1  2  1  0  0  0  0
  2  4  1  0  0  0  0
  2  3  2  0  0  0  0
  4  5  1  0  0  0  0
  5  7  1  0  0  0  0
  5  6  2  0  0  0  0
  7 18  2  0  0  0  0
  7  8  1  0  0  0  0
  8  9  1  0  0  0  0
  9 10  2  0  0  0  0
  9 16  1  0  0  0  0
 10 11  1  0  0  0  0
 11 12  1  0  0  0  0
 11 13  2  0  0  0  0
 13 14  1  0  0  0  0
 13 15  1  0  0  0  0
 15 16  2  0  0  0  0
 16 17  1  0  0  0  0
 17 19  1  0  0  0  0
 17 18  1  0  0  0  0
 20 19  1  1  0  0  0
 20 22  1  0  0  0  0
 20 21  1  0  0  0  0
 22 24  1  0  0  0  0
 22 23  1  6  0  0  0
 24 26  1  6  0  0  0
 24 25  1  0  0  0  0
 26 27  1  0  0  0  0
 27 28  1  0  0  0  0
 28 30  1  0  0  0  0
 28 29  2  0  0  0  0
 28 31  1  0  0  0  0
M  CHG  2  30  -1  31  -1
M  END
>  <CHROM.1>
-90.69457656,143.66147224,-174.54753963,-155.39722515,175.97727311,-60.83636792
-72.09410975,-177.77771460,-179.75454555,-61.22629111,-7.30514065,-6.06297616
1.59556546,2.81330726,0.32101684,-1.31268273

>  <Name>
1fmn_cryst

>  <RI>
0

>  <Rbt.Current_Directory>
/home/itssahil/PROJECTS/Mol_Feturizer/New_Systems/rnas/1fmn

>  <Rbt.Executable>
rbdock ($Id: //depot/dev/client3/rdock/2013.1/src/exe/rbdock.cxx#4 $)

>  <Rbt.Library>
libRbt.so (2013.1, Build901 2013/11/27)

>  <Rbt.Parameter_File>
/export/apps/rDock/src/rDock_2013.1_src/data/scripts/dock_solv.prm

>  <Rbt.Receptor>
prm/pocket_docking_6.prm

>  <SCORE>
-62.3612

>  <SCORE.INTER>
-57.6156

>  <SCORE.INTER.CONST>
1

>  <SCORE.INTER.POLAR>
-3.95292

>  <SCORE.INTER.ROT>
7

>  <SCORE.INTER.SOLV>
17.808

>  <SCORE.INTER.VDW>
-39.4367

>  <SCORE.INTER.norm>
-1.85857

>  <SCORE.INTRA>
-4.74551

>  <SCORE.INTRA.DIHEDRAL>
-6.1884

>  <SCORE.INTRA.DIHEDRAL.0>
15.5708

>  <SCORE.INTRA.POLAR>
0.0677885

>  <SCORE.INTRA.POLAR.0>
-0.0677885

>  <SCORE.INTRA.REPUL>
0.0667099

>  <SCORE.INTRA.REPUL.0>
0

>  <SCORE.INTRA.SOLV>
-3.91641

>  <SCORE.INTRA.SOLV.lig_0>
-87.6316

>  <SCORE.INTRA.VDW>
-0.257128

>  <SCORE.INTRA.VDW.0>
-2.87309

>  <SCORE.INTRA.norm>
-0.153081

>  <SCORE.RESTR>
0

>  <SCORE.RESTR.CAVITY>
0

>  <SCORE.RESTR.norm>
0

>  <SCORE.SYSTEM>
0

>  <SCORE.SYSTEM.CONST>
0

>  <SCORE.SYSTEM.DIHEDRAL>
0

>  <SCORE.SYSTEM.SOLV>
0

>  <SCORE.SYSTEM.norm>
0

>  <SCORE.heavy>
31

>  <SCORE.norm>
-2.01165

>  <SYMMETRIC_BONDS>
33 34 3

>  <RMSD>
1.805

$$$$
1fmn_cryst
 OpenBabel11021811393D
libRbt.so/2013.1/901 2013/11/27
 31 33  0  0  0  0  0  0  0  0999 V2000
   -8.7519   -6.7770    3.7807 N   0  0  0  0  0  0  0  0  0  0  0  0
   -9.6400   -6.7009    4.8280 C   0  0  0  0  0  0  0  0  0  0  0  0
   -9.4707   -7.3279    5.8743 O   0  0  0  0  0  0  0  0  0  0  0  0
  -10.7631   -5.8601    4.6246 N   0  0  0  0  0  0  0  0  0  0  0  0
  -11.0540   -5.1058    3.4668 C   0  0  0  0  0  0  0  0  0  0  0  0
  -12.0749   -4.4078    3.4234 O   0  0  0  0  0  0  0  0  0  0  0  0
  -10.0616   -5.2414    2.3982 C   0  0  0  0  0  0  0  0  0  0  0  0
  -10.2713   -4.5389    1.2376 N   0  0  0  0  0  0  0  0  0  0  0  0
   -9.4478   -4.8051    0.1824 C   0  0  0  0  0  0  0  0  0  0  0  0
   -9.7638   -4.2425   -1.0416 C   0  0  0  0  0  0  0  0  0  0  0  0
   -8.9920   -4.4626   -2.1313 C   0  0  0  0  0  0  0  0  0  0  0  0
   -9.3759   -3.8283   -3.4300 C   0  0  0  0  0  0  0  0  0  0  0  0
   -7.8848   -5.2481   -2.0421 C   0  0  0  0  0  0  0  0  0  0  0  0
   -7.0423   -5.4914   -3.2518 C   0  0  0  0  0  0  0  0  0  0  0  0
   -7.5354   -5.8204   -0.8618 C   0  0  0  0  0  0  0  0  0  0  0  0
   -8.2962   -5.6249    0.2908 C   0  0  0  0  0  0  0  0  0  0  0  0
   -7.9886   -6.1859    1.5481 N   0  0  0  0  0  0  0  0  0  0  0  0
   -8.9161   -6.0958    2.6062 C   0  0  0  0  0  0  0  0  0  0  0  0
   -6.5334   -6.3476    1.9152 C   0  0  0  0  0  0  0  0  0  0  0  0
   -5.7980   -5.0652    2.4100 C   0  0  1  0  0  0  0  0  0  0  0  0
   -6.3537   -4.6270    3.6417 O   0  0  0  0  0  0  0  0  0  0  0  0
   -4.2624   -5.2357    2.4919 C   0  0  1  0  0  0  0  0  0  0  0  0
   -3.6288   -3.9630    2.5833 O   0  0  0  0  0  0  0  0  0  0  0  0
   -3.7195   -6.1754    3.5965 C   0  0  1  0  0  0  0  0  0  0  0  0
   -4.2107   -7.4885    3.3508 O   0  0  0  0  0  0  0  0  0  0  0  0
   -2.1757   -6.2223    3.6426 C   0  0  0  0  0  0  0  0  0  0  0  0
   -1.6886   -7.1323    4.6217 O   0  0  0  0  0  0  0  0  0  0  0  0
   -1.8970   -6.9095    6.1768 P   0  0  0  0  0  0  0  0  0  0  0  0
   -0.9961   -5.8497    6.6843 O   0  0  0  0  0  0  0  0  0  0  0  0
   -3.3371   -6.8310    6.5038 O   0  5  0  0  0  0  0  0  0  0  0  0
   -1.3680   -8.2634    6.8262 O   0  5  0  0  0  0  0  0  0  0  0  0
  1 18  1  0  0  0  0
  1  2  1  0  0  0  0
  2  4  1  0  0  0  0
  2  3  2  0  0  0  0
  4  5  1  0  0  0  0
  5  7  1  0  0  0  0
  5  6  2  0  0  0  0
  7 18  2  0  0  0  0
  7  8  1  0  0  0  0
  8  9  1  0  0  0  0
  9 10  2  0  0  0  0
  9 16  1  0  0  0  0
 10 11  1  0  0  0  0
 11 12  1  0  0  0  0
 11 13  2  0  0  0  0
 13 14  1  0  0  0  0
 13 15  1  0  0  0  0
 15 16  2  0  0  0  0
 16 17  1  0  0  0  0
 17 19  1  0  0  0  0
 17 18  1  0  0  0  0
 20 19  1  1  0  0  0
 20 22  1  0  0  0  0
 20 21  1  0  0  0  0
 22 24  1  0  0  0  0
 22 23  1  1  0  0  0
 24 26  1  6  0  0  0
 24 25  1  0  0  0  0
 26 27  1  0  0  0  0
 27 28  1  0  0  0  0
 28 30  1  0  0  0  0
 28 29  2  0  0  0  0
 28 31  1  0  0  0  0
M  CHG  2  30  -1  31  -1
M  END
>  <CHROM.1>
79.09179382,65.24979527,163.94867241,174.04419336,62.33223182,65.97595211
-177.44135311,58.27299186,-66.28025989,-74.76247621,-6.54811558,-5.80640527
2.72456251,2.47806254,0.07399231,-1.34669623

>  <Name>
1fmn_cryst

>  <RI>
0

>  <Rbt.Current_Directory>
/home/itssahil/PROJECTS/Mol_Feturizer/New_Systems/rnas/1fmn

>  <Rbt.Executable>
rbdock ($Id: //depot/dev/client3/rdock/2013.1/src/exe/rbdock.cxx#4 $)

>  <Rbt.Library>
libRbt.so (2013.1, Build901 2013/11/27)

>  <Rbt.Parameter_File>
/export/apps/rDock/src/rDock_2013.1_src/data/scripts/dock_solv.prm

>  <Rbt.Receptor>
prm/pocket_docking_4.prm

>  <SCORE>
-54.6199

>  <SCORE.INTER>
-47.9419

>  <SCORE.INTER.CONST>
1

>  <SCORE.INTER.POLAR>
-3.26612

>  <SCORE.INTER.ROT>
7

>  <SCORE.INTER.SOLV>
15.5342

>  <SCORE.INTER.VDW>
-34.5189

>  <SCORE.INTER.norm>
-1.54651

>  <SCORE.INTRA>
-6.67804

>  <SCORE.INTRA.DIHEDRAL>
-12.5096

>  <SCORE.INTRA.DIHEDRAL.0>
15.5708

>  <SCORE.INTRA.POLAR>
0.0677885

>  <SCORE.INTRA.POLAR.0>
-0.0677885

>  <SCORE.INTRA.REPUL>
0

>  <SCORE.INTRA.REPUL.0>
0

>  <SCORE.INTRA.SOLV>
-1.63249

>  <SCORE.INTRA.SOLV.lig_0>
-87.6316

>  <SCORE.INTRA.VDW>
0.162537

>  <SCORE.INTRA.VDW.0>
-2.87309

>  <SCORE.INTRA.norm>
-0.215421

>  <SCORE.RESTR>
0

>  <SCORE.RESTR.CAVITY>
0

>  <SCORE.RESTR.norm>
0

>  <SCORE.SYSTEM>
0

>  <SCORE.SYSTEM.CONST>
0

>  <SCORE.SYSTEM.DIHEDRAL>
0

>  <SCORE.SYSTEM.SOLV>
0

>  <SCORE.SYSTEM.norm>
0

>  <SCORE.heavy>
31

>  <SCORE.norm>
-1.76193

>  <SYMMETRIC_BONDS>
33 34 3

>  <RMSD>
1.811

$$$$
1fmn_cryst
 OpenBabel11021811393D
libRbt.so/2013.1/901 2013/11/27
 31 33  0  0  0  0  0  0  0  0999 V2000
   -8.9740   -6.1496    3.5221 N   0  0  0  0  0  0  0  0  0  0  0  0
   -9.6714   -6.2289    4.7048 C   0  0  0  0  0  0  0  0  0  0  0  0
   -9.2286   -6.8294    5.6846 O   0  0  0  0  0  0  0  0  0  0  0  0
  -10.9320   -5.5809    4.7223 N   0  0  0  0  0  0  0  0  0  0  0  0
  -11.5323   -4.8737    3.6576 C   0  0  0  0  0  0  0  0  0  0  0  0
  -12.6437   -4.3513    3.8105 O   0  0  0  0  0  0  0  0  0  0  0  0
  -10.7278   -4.8358    2.4343 C   0  0  0  0  0  0  0  0  0  0  0  0
  -11.2413   -4.1665    1.3515 N   0  0  0  0  0  0  0  0  0  0  0  0
  -10.5780   -4.2851    0.1647 C   0  0  0  0  0  0  0  0  0  0  0  0
  -11.1833   -3.7705   -0.9681 C   0  0  0  0  0  0  0  0  0  0  0  0
  -10.5834   -3.8518   -2.1784 C   0  0  0  0  0  0  0  0  0  0  0  0
  -11.2790   -3.2769   -3.3709 C   0  0  0  0  0  0  0  0  0  0  0  0
   -9.3664   -4.4469   -2.3039 C   0  0  0  0  0  0  0  0  0  0  0  0
   -8.7145   -4.5385   -3.6451 C   0  0  0  0  0  0  0  0  0  0  0  0
   -8.7344   -4.9652   -1.2200 C   0  0  0  0  0  0  0  0  0  0  0  0
   -9.3090   -4.9070    0.0496 C   0  0  0  0  0  0  0  0  0  0  0  0
   -8.7063   -5.4216    1.2167 N   0  0  0  0  0  0  0  0  0  0  0  0
   -9.4424   -5.4937    2.4171 C   0  0  0  0  0  0  0  0  0  0  0  0
   -7.2030   -5.3470    1.3299 C   0  0  0  0  0  0  0  0  0  0  0  0
   -6.3899   -6.2495    0.3529 C   0  0  1  0  0  0  0  0  0  0  0  0
   -6.3295   -5.6484   -0.9328 O   0  0  0  0  0  0  0  0  0  0  0  0
   -4.9865   -6.6197    0.8892 C   0  0  1  0  0  0  0  0  0  0  0  0
   -4.3228   -5.4578    1.3780 O   0  0  0  0  0  0  0  0  0  0  0  0
   -4.9154   -7.7507    1.9445 C   0  0  1  0  0  0  0  0  0  0  0  0
   -3.6020   -8.2989    1.9277 O   0  0  0  0  0  0  0  0  0  0  0  0
   -5.2315   -7.2605    3.3754 C   0  0  0  0  0  0  0  0  0  0  0  0
   -5.2808   -8.3263    4.3164 O   0  0  0  0  0  0  0  0  0  0  0  0
   -5.2597   -8.0874    5.8829 P   0  0  0  0  0  0  0  0  0  0  0  0
   -5.6852   -9.3053    6.6092 O   0  0  0  0  0  0  0  0  0  0  0  0
   -4.0041   -7.4216    6.2917 O   0  5  0  0  0  0  0  0  0  0  0  0
   -6.4218   -7.0248    6.1181 O   0  5  0  0  0  0  0  0  0  0  0  0
  1 18  1  0  0  0  0
  1  2  1  0  0  0  0
  2  4  1  0  0  0  0
  2  3  2  0  0  0  0
  4  5  1  0  0  0  0
  5  7  1  0  0  0  0
  5  6  2  0  0  0  0
  7 18  2  0  0  0  0
  7  8  1  0  0  0  0
  8  9  1  0  0  0  0
  9 10  2  0  0  0  0
  9 16  1  0  0  0  0
 10 11  1  0  0  0  0
 11 12  1  0  0  0  0
 11 13  2  0  0  0  0
 13 14  1  0  0  0  0
 13 15  1  0  0  0  0
 15 16  2  0  0  0  0
 16 17  1  0  0  0  0
 17 19  1  0  0  0  0
 17 18  1  0  0  0  0
 20 19  1  1  0  0  0
 20 22  1  0  0  0  0
 20 21  1  0  0  0  0
 22 24  1  0  0  0  0
 22 23  1  1  0  0  0
 24 26  1  1  0  0  0
 24 25  1  0  0  0  0
 26 27  1  0  0  0  0
 27 28  1  0  0  0  0
 28 30  1  0  0  0  0
 28 29  2  0  0  0  0
 28 31  1  0  0  0  0
M  CHG  2  30  -1  31  -1
M  END
>  <CHROM.1>
-68.27450692,79.20882390,-47.64291598,-166.63998864,157.57514375,-64.85619979
174.73738659,-64.53479354,165.85748223,164.62194673,-7.90810371,-5.98595280
2.16631636,0.91583583,-0.35807835,1.84259082

>  <Name>
1fmn_cryst

>  <RI>
0

>  <Rbt.Current_Directory>
/home/itssahil/PROJECTS/Mol_Feturizer/New_Systems/rnas/1fmn

>  <Rbt.Executable>
rbdock ($Id: //depot/dev/client3/rdock/2013.1/src/exe/rbdock.cxx#4 $)

>  <Rbt.Library>
libRbt.so (2013.1, Build901 2013/11/27)

>  <Rbt.Parameter_File>
/export/apps/rDock/src/rDock_2013.1_src/data/scripts/dock_solv.prm

>  <Rbt.Receptor>
prm/pocket_docking_3.prm

>  <SCORE>
-60.1491

>  <SCORE.INTER>
-57.1343

>  <SCORE.INTER.CONST>
1

>  <SCORE.INTER.POLAR>
-3.69458

>  <SCORE.INTER.ROT>
7

>  <SCORE.INTER.SOLV>
21.4633

>  <SCORE.INTER.VDW>
-41.1954

>  <SCORE.INTER.norm>
-1.84304

>  <SCORE.INTRA>
-3.0148

>  <SCORE.INTRA.DIHEDRAL>
-8.09509

>  <SCORE.INTRA.DIHEDRAL.0>
15.5708

>  <SCORE.INTRA.POLAR>
0.0677885

>  <SCORE.INTRA.POLAR.0>
-0.0677885

>  <SCORE.INTRA.REPUL>
0.0161282

>  <SCORE.INTRA.REPUL.0>
0

>  <SCORE.INTRA.SOLV>
-2.09696

>  <SCORE.INTRA.SOLV.lig_0>
-87.6316

>  <SCORE.INTRA.VDW>
1.77011

>  <SCORE.INTRA.VDW.0>
-2.87309

>  <SCORE.INTRA.norm>
-0.0972516

>  <SCORE.RESTR>
0

>  <SCORE.RESTR.CAVITY>
0

>  <SCORE.RESTR.norm>
0

>  <SCORE.SYSTEM>
0

>  <SCORE.SYSTEM.CONST>
0

>  <SCORE.SYSTEM.DIHEDRAL>
0

>  <SCORE.SYSTEM.SOLV>
0

>  <SCORE.SYSTEM.norm>
0

>  <SCORE.heavy>
31

>  <SCORE.norm>
-1.94029

>  <SYMMETRIC_BONDS>
33 34 3

>  <RMSD>
1.816

$$$$
1fmn_cryst
 OpenBabel11021811393D
libRbt.so/2013.1/901 2013/11/27
 31 33  0  0  0  0  0  0  0  0999 V2000
   -8.9034   -6.1535    3.5476 N   0  0  0  0  0  0  0  0  0  0  0  0
   -9.6696   -6.1909    4.6891 C   0  0  0  0  0  0  0  0  0  0  0  0
   -9.2825   -6.7476    5.7171 O   0  0  0  0  0  0  0  0  0  0  0  0
  -10.9329   -5.5533    4.6053 N   0  0  0  0  0  0  0  0  0  0  0  0
  -11.4728   -4.8947    3.4788 C   0  0  0  0  0  0  0  0  0  0  0  0
  -12.5944   -4.3759    3.5441 O   0  0  0  0  0  0  0  0  0  0  0  0
  -10.5970   -4.8995    2.3049 C   0  0  0  0  0  0  0  0  0  0  0  0
  -11.0490   -4.2788    1.1671 N   0  0  0  0  0  0  0  0  0  0  0  0
  -10.3153   -4.4396    0.0276 C   0  0  0  0  0  0  0  0  0  0  0  0
  -10.8551   -3.9763   -1.1591 C   0  0  0  0  0  0  0  0  0  0  0  0
  -10.1836   -4.1014   -2.3274 C   0  0  0  0  0  0  0  0  0  0  0  0
  -10.8103   -3.5810   -3.5816 C   0  0  0  0  0  0  0  0  0  0  0  0
   -8.9577   -4.6908   -2.3560 C   0  0  0  0  0  0  0  0  0  0  0  0
   -8.2265   -4.8310   -3.6513 C   0  0  0  0  0  0  0  0  0  0  0  0
   -8.3884   -5.1596   -1.2163 C   0  0  0  0  0  0  0  0  0  0  0  0
   -9.0380   -5.0550    0.0136 C   0  0  0  0  0  0  0  0  0  0  0  0
   -8.5030   -5.5170    1.2343 N   0  0  0  0  0  0  0  0  0  0  0  0
   -9.3089   -5.5467    2.3909 C   0  0  0  0  0  0  0  0  0  0  0  0
   -7.0096   -5.4253    1.4335 C   0  0  0  0  0  0  0  0  0  0  0  0
   -6.2279   -6.7740    1.4365 C   0  0  1  0  0  0  0  0  0  0  0  0
   -7.0684   -7.8278    0.9883 O   0  0  0  0  0  0  0  0  0  0  0  0
   -4.9000   -6.7114    0.6447 C   0  0  1  0  0  0  0  0  0  0  0  0
   -4.0975   -5.6309    1.1116 O   0  0  0  0  0  0  0  0  0  0  0  0
   -4.0563   -8.0086    0.5875 C   0  0  1  0  0  0  0  0  0  0  0  0
   -2.8627   -7.7366   -0.1387 O   0  0  0  0  0  0  0  0  0  0  0  0
   -3.6763   -8.5424    1.9869 C   0  0  0  0  0  0  0  0  0  0  0  0
   -3.0762   -7.5447    2.8046 O   0  0  0  0  0  0  0  0  0  0  0  0
   -2.5822   -7.8320    4.2827 P   0  0  0  0  0  0  0  0  0  0  0  0
   -2.1080   -6.5891    4.9326 O   0  0  0  0  0  0  0  0  0  0  0  0
   -3.5570   -8.6798    5.0025 O   0  5  0  0  0  0  0  0  0  0  0  0
   -1.2817   -8.7274    4.0786 O   0  5  0  0  0  0  0  0  0  0  0  0
  1 18  1  0  0  0  0
  1  2  1  0  0  0  0
  2  4  1  0  0  0  0
  2  3  2  0  0  0  0
  4  5  1  0  0  0  0
  5  7  1  0  0  0  0
  5  6  2  0  0  0  0
  7 18  2  0  0  0  0
  7  8  1  0  0  0  0
  8  9  1  0  0  0  0
  9 10  2  0  0  0  0
  9 16  1  0  0  0  0
 10 11  1  0  0  0  0
 11 12  1  0  0  0  0
 11 13  2  0  0  0  0
 13 14  1  0  0  0  0
 13 15  1  0  0  0  0
 15 16  2  0  0  0  0
 16 17  1  0  0  0  0
 17 19  1  0  0  0  0
 17 18  1  0  0  0  0
 20 19  1  6  0  0  0
 20 22  1  0  0  0  0
 20 21  1  0  0  0  0
 22 24  1  0  0  0  0
 22 23  1  1  0  0  0
 24 26  1  1  0  0  0
 24 25  1  0  0  0  0
 26 27  1  0  0  0  0
 27 28  1  0  0  0  0
 28 30  1  0  0  0  0
 28 29  2  0  0  0  0
 28 31  1  0  0  0  0
M  CHG  2  30  -1  31  -1
M  END
>  <CHROM.1>
-109.70868280,11.27054672,53.76131103,-177.89864442,-177.97242346,71.11245406
-51.67397950,-61.67402609,-179.50677515,-175.14483478,-7.12488365,-6.14237630
1.71620506,2.70795252,0.32920560,-1.37628636

>  <Name>
1fmn_cryst

>  <RI>
0

>  <Rbt.Current_Directory>
/home/itssahil/PROJECTS/Mol_Feturizer/New_Systems/rnas/1fmn

>  <Rbt.Executable>
rbdock ($Id: //depot/dev/client3/rdock/2013.1/src/exe/rbdock.cxx#4 $)

>  <Rbt.Library>
libRbt.so (2013.1, Build901 2013/11/27)

>  <Rbt.Parameter_File>
/export/apps/rDock/src/rDock_2013.1_src/data/scripts/dock_solv.prm

>  <Rbt.Receptor>
prm/pocket_docking_3.prm

>  <SCORE>
-60.3043

>  <SCORE.INTER>
-53.2877

>  <SCORE.INTER.CONST>
1

>  <SCORE.INTER.POLAR>
-2.97353

>  <SCORE.INTER.ROT>
7

>  <SCORE.INTER.SOLV>
17.2413

>  <SCORE.INTER.VDW>
-39.6271

>  <SCORE.INTER.norm>
-1.71896

>  <SCORE.INTRA>
-7.06186

>  <SCORE.INTRA.DIHEDRAL>
-6.90369

>  <SCORE.INTRA.DIHEDRAL.0>
15.5708

>  <SCORE.INTRA.POLAR>
-0.577165

>  <SCORE.INTRA.POLAR.0>
-0.0677885

>  <SCORE.INTRA.REPUL>
0

>  <SCORE.INTRA.REPUL.0>
0

>  <SCORE.INTRA.SOLV>
-3.71204

>  <SCORE.INTRA.SOLV.lig_0>
-87.6316

>  <SCORE.INTRA.VDW>
0.20837

>  <SCORE.INTRA.VDW.0>
-2.87309

>  <SCORE.INTRA.norm>
-0.227802

>  <SCORE.RESTR>
0.0452445

>  <SCORE.RESTR.CAVITY>
0.0452445

>  <SCORE.RESTR.norm>
0.0014595

>  <SCORE.SYSTEM>
0

>  <SCORE.SYSTEM.CONST>
0

>  <SCORE.SYSTEM.DIHEDRAL>
0

>  <SCORE.SYSTEM.SOLV>
0

>  <SCORE.SYSTEM.norm>
0

>  <SCORE.heavy>
31

>  <SCORE.norm>
-1.9453

>  <SYMMETRIC_BONDS>
33 34 3

>  <RMSD>
1.824

$$$$
1fmn_cryst
 OpenBabel11021811393D
libRbt.so/2013.1/901 2013/11/27
 31 33  0  0  0  0  0  0  0  0999 V2000
   -8.9722   -6.1586    3.6057 N   0  0  0  0  0  0  0  0  0  0  0  0
   -9.8482   -6.0715    4.6623 C   0  0  0  0  0  0  0  0  0  0  0  0
   -9.6233   -6.6168    5.7433 O   0  0  0  0  0  0  0  0  0  0  0  0
  -11.0265   -5.3196    4.4264 N   0  0  0  0  0  0  0  0  0  0  0  0
  -11.3828   -4.6626    3.2282 C   0  0  0  0  0  0  0  0  0  0  0  0
  -12.4476   -4.0359    3.1593 O   0  0  0  0  0  0  0  0  0  0  0  0
  -10.3992   -4.8036    2.1522 C   0  0  0  0  0  0  0  0  0  0  0  0
  -10.6710   -4.1932    0.9531 N   0  0  0  0  0  0  0  0  0  0  0  0
   -9.8473   -4.4741   -0.0981 C   0  0  0  0  0  0  0  0  0  0  0  0
  -10.2169   -4.0140   -1.3495 C   0  0  0  0  0  0  0  0  0  0  0  0
   -9.4483   -4.2546   -2.4370 C   0  0  0  0  0  0  0  0  0  0  0  0
   -9.8915   -3.7323   -3.7664 C   0  0  0  0  0  0  0  0  0  0  0  0
   -8.2909   -4.9600   -2.3184 C   0  0  0  0  0  0  0  0  0  0  0  0
   -7.4520   -5.2270   -3.5254 C   0  0  0  0  0  0  0  0  0  0  0  0
   -7.8879   -5.4305   -1.1105 C   0  0  0  0  0  0  0  0  0  0  0  0
   -8.6431   -5.2096    0.0412 C   0  0  0  0  0  0  0  0  0  0  0  0
   -8.2815   -5.6665    1.3259 N   0  0  0  0  0  0  0  0  0  0  0  0
   -9.1975   -5.5673    2.3932 C   0  0  0  0  0  0  0  0  0  0  0  0
   -6.8137   -5.7102    1.6754 C   0  0  0  0  0  0  0  0  0  0  0  0
   -6.1331   -7.1119    1.6300 C   0  0  1  0  0  0  0  0  0  0  0  0
   -5.1125   -7.1286    0.6420 O   0  0  0  0  0  0  0  0  0  0  0  0
   -5.6157   -7.5840    3.0097 C   0  0  1  0  0  0  0  0  0  0  0  0
   -6.6762   -7.5835    3.9609 O   0  0  0  0  0  0  0  0  0  0  0  0
   -4.8702   -8.9406    3.0520 C   0  0  1  0  0  0  0  0  0  0  0  0
   -3.6906   -8.8299    2.2632 O   0  0  0  0  0  0  0  0  0  0  0  0
   -4.4733   -9.3656    4.4836 C   0  0  0  0  0  0  0  0  0  0  0  0
   -3.7636  -10.5985    4.5073 O   0  0  0  0  0  0  0  0  0  0  0  0
   -3.2098  -11.2422    5.8453 P   0  0  0  0  0  0  0  0  0  0  0  0
   -2.1290  -10.4119    6.4235 O   0  0  0  0  0  0  0  0  0  0  0  0
   -4.3243  -11.6638    6.7211 O   0  5  0  0  0  0  0  0  0  0  0  0
   -2.5008  -12.5807    5.3547 O   0  5  0  0  0  0  0  0  0  0  0  0
  1 18  1  0  0  0  0
  1  2  1  0  0  0  0
  2  4  1  0  0  0  0
  2  3  2  0  0  0  0
  4  5  1  0  0  0  0
  5  7  1  0  0  0  0
  5  6  2  0  0  0  0
  7 18  2  0  0  0  0
  7  8  1  0  0  0  0
  8  9  1  0  0  0  0
  9 10  2  0  0  0  0
  9 16  1  0  0  0  0
 10 11  1  0  0  0  0
 11 12  1  0  0  0  0
 11 13  2  0  0  0  0
 13 14  1  0  0  0  0
 13 15  1  0  0  0  0
 15 16  2  0  0  0  0
 16 17  1  0  0  0  0
 17 19  1  0  0  0  0
 17 18  1  0  0  0  0
 20 19  1  1  0  0  0
 20 22  1  0  0  0  0
 20 21  1  0  0  0  0
 22 24  1  0  0  0  0
 22 23  1  1  0  0  0
 24 26  1  1  0  0  0
 24 25  1  0  0  0  0
 26 27  1  0  0  0  0
 27 28  1  0  0  0  0
 28 30  1  0  0  0  0
 28 29  2  0  0  0  0
 28 31  1  0  0  0  0
M  CHG  2  30  -1  31  -1
M  END
>  <CHROM.1>
-102.27830841,117.23910265,56.05671687,-73.31356729,63.03874154,76.91274703
-178.70801067,61.86505046,178.46296935,-66.90725390,-7.21699867,-7.04503918
2.40702439,2.37108209,0.56164046,-1.23000448

>  <Name>
1fmn_cryst

>  <RI>
0

>  <Rbt.Current_Directory>
/home/itssahil/PROJECTS/Mol_Feturizer/New_Systems/rnas/1fmn

>  <Rbt.Executable>
rbdock ($Id: //depot/dev/client3/rdock/2013.1/src/exe/rbdock.cxx#4 $)

>  <Rbt.Library>
libRbt.so (2013.1, Build901 2013/11/27)

>  <Rbt.Parameter_File>
/export/apps/rDock/src/rDock_2013.1_src/data/scripts/dock_solv.prm

>  <Rbt.Receptor>
prm/pocket_docking_7.prm

>  <SCORE>
-60.7356

>  <SCORE.INTER>
-53.4974

>  <SCORE.INTER.CONST>
1

>  <SCORE.INTER.POLAR>
-2.99676

>  <SCORE.INTER.ROT>
7

>  <SCORE.INTER.SOLV>
18.7434

>  <SCORE.INTER.VDW>
-40.1902

>  <SCORE.INTER.norm>
-1.72572

>  <SCORE.INTRA>
-7.23816

>  <SCORE.INTRA.DIHEDRAL>
-5.5431

>  <SCORE.INTRA.DIHEDRAL.0>
15.5708

>  <SCORE.INTRA.POLAR>
-0.906581

>  <SCORE.INTRA.POLAR.0>
-0.0677885

>  <SCORE.INTRA.REPUL>
0

>  <SCORE.INTRA.REPUL.0>
0

>  <SCORE.INTRA.SOLV>
-3.77869

>  <SCORE.INTRA.SOLV.lig_0>
-87.6316

>  <SCORE.INTRA.VDW>
0.505111

>  <SCORE.INTRA.VDW.0>
-2.87309

>  <SCORE.INTRA.norm>
-0.233489

>  <SCORE.RESTR>
0

>  <SCORE.RESTR.CAVITY>
0

>  <SCORE.RESTR.norm>
0

>  <SCORE.SYSTEM>
0

>  <SCORE.SYSTEM.CONST>
0

>  <SCORE.SYSTEM.DIHEDRAL>
0

>  <SCORE.SYSTEM.SOLV>
0

>  <SCORE.SYSTEM.norm>
0

>  <SCORE.heavy>
31

>  <SCORE.norm>
-1.95921

>  <SYMMETRIC_BONDS>
33 34 3

>  <RMSD>
1.824

$$$$
1fmn_cryst
 OpenBabel11021811393D
libRbt.so/2013.1/901 2013/11/27
 31 33  0  0  0  0  0  0  0  0999 V2000
   -8.8429   -6.3646    3.5218 N   0  0  0  0  0  0  0  0  0  0  0  0
   -9.6747   -6.2804    4.6139 C   0  0  0  0  0  0  0  0  0  0  0  0
   -9.4323   -6.8725    5.6661 O   0  0  0  0  0  0  0  0  0  0  0  0
  -10.8290   -5.4742    4.4494 N   0  0  0  0  0  0  0  0  0  0  0  0
  -11.2022   -4.7612    3.2890 C   0  0  0  0  0  0  0  0  0  0  0  0
  -12.2421   -4.0905    3.2827 O   0  0  0  0  0  0  0  0  0  0  0  0
  -10.2660   -4.9028    2.1716 C   0  0  0  0  0  0  0  0  0  0  0  0
  -10.5569   -4.2397    1.0055 N   0  0  0  0  0  0  0  0  0  0  0  0
   -9.7851   -4.5156   -0.0857 C   0  0  0  0  0  0  0  0  0  0  0  0
  -10.1817   -3.9967   -1.3055 C   0  0  0  0  0  0  0  0  0  0  0  0
   -9.4647   -4.2290   -2.4295 C   0  0  0  0  0  0  0  0  0  0  0  0
   -9.9351   -3.6423   -3.7221 C   0  0  0  0  0  0  0  0  0  0  0  0
   -8.3338   -4.9837   -2.3798 C   0  0  0  0  0  0  0  0  0  0  0  0
   -7.5520   -5.2408   -3.6267 C   0  0  0  0  0  0  0  0  0  0  0  0
   -7.9058   -5.5127   -1.2051 C   0  0  0  0  0  0  0  0  0  0  0  0
   -8.6079   -5.3030   -0.0182 C   0  0  0  0  0  0  0  0  0  0  0  0
   -8.2178   -5.8195    1.2352 N   0  0  0  0  0  0  0  0  0  0  0  0
   -9.0887   -5.7220    2.3398 C   0  0  0  0  0  0  0  0  0  0  0  0
   -6.7411   -5.9342    1.5260 C   0  0  0  0  0  0  0  0  0  0  0  0
   -6.1298   -7.3661    1.4485 C   0  0  1  0  0  0  0  0  0  0  0  0
   -6.9769   -8.2195    0.6921 O   0  0  0  0  0  0  0  0  0  0  0  0
   -4.6732   -7.3803    0.9268 C   0  0  1  0  0  0  0  0  0  0  0  0
   -3.8502   -6.5477    1.7386 O   0  0  0  0  0  0  0  0  0  0  0  0
   -4.0065   -8.7663    0.7474 C   0  0  1  0  0  0  0  0  0  0  0  0
   -2.6696   -8.5675    0.3009 O   0  0  0  0  0  0  0  0  0  0  0  0
   -3.9773   -9.5944    2.0516 C   0  0  0  0  0  0  0  0  0  0  0  0
   -3.2394   -8.9539    3.0856 O   0  0  0  0  0  0  0  0  0  0  0  0
   -3.0721   -9.5794    4.5320 P   0  0  0  0  0  0  0  0  0  0  0  0
   -2.1581   -8.7600    5.3599 O   0  0  0  0  0  0  0  0  0  0  0  0
   -4.3878   -9.9568    5.0921 O   0  5  0  0  0  0  0  0  0  0  0  0
   -2.2958  -10.9436    4.2657 O   0  5  0  0  0  0  0  0  0  0  0  0
  1 18  1  0  0  0  0
  1  2  1  0  0  0  0
  2  4  1  0  0  0  0
  2  3  2  0  0  0  0
  4  5  1  0  0  0  0
  5  7  1  0  0  0  0
  5  6  2  0  0  0  0
  7 18  2  0  0  0  0
  7  8  1  0  0  0  0
  8  9  1  0  0  0  0
  9 10  2  0  0  0  0
  9 16  1  0  0  0  0
 10 11  1  0  0  0  0
 11 12  1  0  0  0  0
 11 13  2  0  0  0  0
 13 14  1  0  0  0  0
 13 15  1  0  0  0  0
 15 16  2  0  0  0  0
 16 17  1  0  0  0  0
 17 19  1  0  0  0  0
 17 18  1  0  0  0  0
 20 19  1  6  0  0  0
 20 22  1  0  0  0  0
 20 21  1  0  0  0  0
 22 24  1  0  0  0  0
 22 23  1  1  0  0  0
 24 26  1  1  0  0  0
 24 25  1  0  0  0  0
 26 27  1  0  0  0  0
 27 28  1  0  0  0  0
 28 30  1  0  0  0  0
 28 29  2  0  0  0  0
 28 31  1  0  0  0  0
M  CHG  2  30  -1  31  -1
M  END
>  <CHROM.1>
-104.05602084,19.45849058,56.54581725,177.17842562,-178.34611332,68.44481376
-60.97750592,-176.47625615,179.05311007,174.87522788,-6.99655657,-6.75307207
1.76657427,2.59648444,0.49094274,-1.30026403

>  <Name>
1fmn_cryst

>  <RI>
0

>  <Rbt.Current_Directory>
/home/itssahil/PROJECTS/Mol_Feturizer/New_Systems/rnas/1fmn

>  <Rbt.Executable>
rbdock ($Id: //depot/dev/client3/rdock/2013.1/src/exe/rbdock.cxx#4 $)

>  <Rbt.Library>
libRbt.so (2013.1, Build901 2013/11/27)

>  <Rbt.Parameter_File>
/export/apps/rDock/src/rDock_2013.1_src/data/scripts/dock_solv.prm

>  <Rbt.Receptor>
prm/pocket_docking_4.prm

>  <SCORE>
-58.5551

>  <SCORE.INTER>
-51.0086

>  <SCORE.INTER.CONST>
1

>  <SCORE.INTER.POLAR>
-2.95899

>  <SCORE.INTER.ROT>
7

>  <SCORE.INTER.SOLV>
18.0326

>  <SCORE.INTER.VDW>
-38.42

>  <SCORE.INTER.norm>
-1.64544

>  <SCORE.INTRA>
-7.5465

>  <SCORE.INTRA.DIHEDRAL>
-8.32789

>  <SCORE.INTRA.DIHEDRAL.0>
15.5708

>  <SCORE.INTRA.POLAR>
-0.487061

>  <SCORE.INTRA.POLAR.0>
-0.0677885

>  <SCORE.INTRA.REPUL>
0

>  <SCORE.INTRA.REPUL.0>
0

>  <SCORE.INTRA.SOLV>
-4.08396

>  <SCORE.INTRA.SOLV.lig_0>
-87.6316

>  <SCORE.INTRA.VDW>
0.315433

>  <SCORE.INTRA.VDW.0>
-2.87309

>  <SCORE.INTRA.norm>
-0.243436

>  <SCORE.RESTR>
0

>  <SCORE.RESTR.CAVITY>
0

>  <SCORE.RESTR.norm>
0

>  <SCORE.SYSTEM>
0

>  <SCORE.SYSTEM.CONST>
0

>  <SCORE.SYSTEM.DIHEDRAL>
0

>  <SCORE.SYSTEM.SOLV>
0

>  <SCORE.SYSTEM.norm>
0

>  <SCORE.heavy>
31

>  <SCORE.norm>
-1.88887

>  <SYMMETRIC_BONDS>
33 34 3

>  <RMSD>
1.836

$$$$
1fmn_cryst
 OpenBabel11021811393D
libRbt.so/2013.1/901 2013/11/27
 31 33  0  0  0  0  0  0  0  0999 V2000
   -8.9065   -6.1925    3.5348 N   0  0  0  0  0  0  0  0  0  0  0  0
   -9.6250   -6.2448    4.7064 C   0  0  0  0  0  0  0  0  0  0  0  0
   -9.2062   -6.8344    5.7031 O   0  0  0  0  0  0  0  0  0  0  0  0
  -10.8781   -5.5822    4.6916 N   0  0  0  0  0  0  0  0  0  0  0  0
  -11.4517   -4.8855    3.6054 C   0  0  0  0  0  0  0  0  0  0  0  0
  -12.5593   -4.3481    3.7307 O   0  0  0  0  0  0  0  0  0  0  0  0
  -10.6258   -4.8765    2.3959 C   0  0  0  0  0  0  0  0  0  0  0  0
  -11.1128   -4.2190    1.2938 N   0  0  0  0  0  0  0  0  0  0  0  0
  -10.4306   -4.3642    0.1207 C   0  0  0  0  0  0  0  0  0  0  0  0
  -11.0103   -3.8612   -1.0304 C   0  0  0  0  0  0  0  0  0  0  0  0
  -10.3907   -3.9688   -2.2287 C   0  0  0  0  0  0  0  0  0  0  0  0
  -11.0589   -3.4053   -3.4422 C   0  0  0  0  0  0  0  0  0  0  0  0
   -9.1787   -4.5797   -2.3235 C   0  0  0  0  0  0  0  0  0  0  0  0
   -8.5050   -4.7003   -3.6515 C   0  0  0  0  0  0  0  0  0  0  0  0
   -8.5715   -5.0876   -1.2207 C   0  0  0  0  0  0  0  0  0  0  0  0
   -9.1672   -5.0024    0.0377 C   0  0  0  0  0  0  0  0  0  0  0  0
   -8.5907   -5.5049    1.2231 N   0  0  0  0  0  0  0  0  0  0  0  0
   -9.3481   -5.5492    2.4115 C   0  0  0  0  0  0  0  0  0  0  0  0
   -7.0888   -5.4457    1.3613 C   0  0  0  0  0  0  0  0  0  0  0  0
   -6.2887   -6.6238    0.7274 C   0  0  1  0  0  0  0  0  0  0  0  0
   -5.2752   -6.1209   -0.1316 O   0  0  0  0  0  0  0  0  0  0  0  0
   -5.7255   -7.6127    1.7757 C   0  0  1  0  0  0  0  0  0  0  0  0
   -6.7329   -7.9537    2.7236 O   0  0  0  0  0  0  0  0  0  0  0  0
   -5.0528   -8.8987    1.2358 C   0  0  1  0  0  0  0  0  0  0  0  0
   -3.8744   -8.5268    0.5294 O   0  0  0  0  0  0  0  0  0  0  0  0
   -4.6692   -9.8933    2.3544 C   0  0  0  0  0  0  0  0  0  0  0  0
   -3.8978   -9.2836    3.3826 O   0  0  0  0  0  0  0  0  0  0  0  0
   -2.3684   -8.9115    3.1995 P   0  0  0  0  0  0  0  0  0  0  0  0
   -1.6956   -8.7796    4.5118 O   0  0  0  0  0  0  0  0  0  0  0  0
   -1.7440   -9.7661    2.1666 O   0  5  0  0  0  0  0  0  0  0  0  0
   -2.4081   -7.4401    2.5929 O   0  5  0  0  0  0  0  0  0  0  0  0
  1 18  1  0  0  0  0
  1  2  1  0  0  0  0
  2  4  1  0  0  0  0
  2  3  2  0  0  0  0
  4  5  1  0  0  0  0
  5  7  1  0  0  0  0
  5  6  2  0  0  0  0
  7 18  2  0  0  0  0
  7  8  1  0  0  0  0
  8  9  1  0  0  0  0
  9 10  2  0  0  0  0
  9 16  1  0  0  0  0
 10 11  1  0  0  0  0
 11 12  1  0  0  0  0
 11 13  2  0  0  0  0
 13 14  1  0  0  0  0
 13 15  1  0  0  0  0
 15 16  2  0  0  0  0
 16 17  1  0  0  0  0
 17 19  1  0  0  0  0
 17 18  1  0  0  0  0
 20 19  1  1  0  0  0
 20 22  1  0  0  0  0
 20 21  1  0  0  0  0
 22 24  1  0  0  0  0
 22 23  1  1  0  0  0
 24 26  1  1  0  0  0
 24 25  1  0  0  0  0
 26 27  1  0  0  0  0
 27 28  1  0  0  0  0
 28 30  1  0  0  0  0
 28 29  2  0  0  0  0
 28 31  1  0  0  0  0
M  CHG  2  30  -1  31  -1
M  END
>  <CHROM.1>
-84.84592938,127.79345219,46.88362672,-156.17863385,65.95170320,-167.92228463
-52.21775103,-174.97302703,-74.97534329,-158.68817428,-7.29935087,-6.46766513
1.61253881,2.74813796,0.44677055,-1.31073995

>  <Name>
1fmn_cryst

>  <RI>
0

>  <Rbt.Current_Directory>
/home/itssahil/PROJECTS/Mol_Feturizer/New_Systems/rnas/1fmn

>  <Rbt.Executable>
rbdock ($Id: //depot/dev/client3/rdock/2013.1/src/exe/rbdock.cxx#4 $)

>  <Rbt.Library>
libRbt.so (2013.1, Build901 2013/11/27)

>  <Rbt.Parameter_File>
/export/apps/rDock/src/rDock_2013.1_src/data/scripts/dock_solv.prm

>  <Rbt.Receptor>
prm/pocket_docking_7.prm

>  <SCORE>
-58.6058

>  <SCORE.INTER>
-55.5993

>  <SCORE.INTER.CONST>
1

>  <SCORE.INTER.POLAR>
-2.89482

>  <SCORE.INTER.ROT>
7

>  <SCORE.INTER.SOLV>
17.4398

>  <SCORE.INTER.VDW>
-41.4967

>  <SCORE.INTER.norm>
-1.79353

>  <SCORE.INTRA>
-3.00652

>  <SCORE.INTRA.DIHEDRAL>
-1.97729

>  <SCORE.INTRA.DIHEDRAL.0>
15.5708

>  <SCORE.INTRA.POLAR>
-0.938369

>  <SCORE.INTRA.POLAR.0>
-0.0677885

>  <SCORE.INTRA.REPUL>
0

>  <SCORE.INTRA.REPUL.0>
0

>  <SCORE.INTRA.SOLV>
2.81878

>  <SCORE.INTRA.SOLV.lig_0>
-87.6316

>  <SCORE.INTRA.VDW>
-0.236808

>  <SCORE.INTRA.VDW.0>
-2.87309

>  <SCORE.INTRA.norm>
-0.0969844

>  <SCORE.RESTR>
0

>  <SCORE.RESTR.CAVITY>
0

>  <SCORE.RESTR.norm>
0

>  <SCORE.SYSTEM>
0

>  <SCORE.SYSTEM.CONST>
0

>  <SCORE.SYSTEM.DIHEDRAL>
0

>  <SCORE.SYSTEM.SOLV>
0

>  <SCORE.SYSTEM.norm>
0

>  <SCORE.heavy>
31

>  <SCORE.norm>
-1.89051

>  <SYMMETRIC_BONDS>
33 34 3

>  <RMSD>
1.842

$$$$
1fmn_cryst
 OpenBabel11021811393D
libRbt.so/2013.1/901 2013/11/27
 31 33  0  0  0  0  0  0  0  0999 V2000
   -8.7423   -6.1766    3.5004 N   0  0  0  0  0  0  0  0  0  0  0  0
   -9.4973   -6.2592    4.6470 C   0  0  0  0  0  0  0  0  0  0  0  0
   -9.0828   -6.8193    5.6624 O   0  0  0  0  0  0  0  0  0  0  0  0
  -10.7823   -5.6640    4.5837 N   0  0  0  0  0  0  0  0  0  0  0  0
  -11.3537   -5.0057    3.4727 C   0  0  0  0  0  0  0  0  0  0  0  0
  -12.4918   -4.5269    3.5555 O   0  0  0  0  0  0  0  0  0  0  0  0
  -10.4880   -4.9610    2.2922 C   0  0  0  0  0  0  0  0  0  0  0  0
  -10.9704   -4.3373    1.1686 N   0  0  0  0  0  0  0  0  0  0  0  0
  -10.2412   -4.4539    0.0209 C   0  0  0  0  0  0  0  0  0  0  0  0
  -10.8063   -3.9897   -1.1537 C   0  0  0  0  0  0  0  0  0  0  0  0
  -10.1407   -4.0723   -2.3290 C   0  0  0  0  0  0  0  0  0  0  0  0
  -10.7951   -3.5529   -3.5693 C   0  0  0  0  0  0  0  0  0  0  0  0
   -8.8956   -4.6187   -2.3771 C   0  0  0  0  0  0  0  0  0  0  0  0
   -8.1708   -4.7121   -3.6801 C   0  0  0  0  0  0  0  0  0  0  0  0
   -8.3011   -5.0865   -1.2499 C   0  0  0  0  0  0  0  0  0  0  0  0
   -8.9437   -5.0248   -0.0134 C   0  0  0  0  0  0  0  0  0  0  0  0
   -8.3831   -5.4883    1.1952 N   0  0  0  0  0  0  0  0  0  0  0  0
   -9.1779   -5.5650    2.3573 C   0  0  0  0  0  0  0  0  0  0  0  0
   -6.8921   -5.3487    1.3844 C   0  0  0  0  0  0  0  0  0  0  0  0
   -6.0159   -6.5322    0.8725 C   0  0  1  0  0  0  0  0  0  0  0  0
   -5.2012   -6.1053   -0.2100 O   0  0  0  0  0  0  0  0  0  0  0  0
   -5.1892   -7.2081    1.9922 C   0  0  1  0  0  0  0  0  0  0  0  0
   -6.0422   -7.6148    3.0583 O   0  0  0  0  0  0  0  0  0  0  0  0
   -4.2715   -8.3831    1.5738 C   0  0  1  0  0  0  0  0  0  0  0  0
   -5.0528   -9.3281    0.8510 O   0  0  0  0  0  0  0  0  0  0  0  0
   -3.0865   -7.9365    0.6884 C   0  0  0  0  0  0  0  0  0  0  0  0
   -2.2597   -6.9741    1.3321 O   0  0  0  0  0  0  0  0  0  0  0  0
   -1.3518   -7.3247    2.5828 P   0  0  0  0  0  0  0  0  0  0  0  0
   -0.7129   -8.6500    2.4174 O   0  0  0  0  0  0  0  0  0  0  0  0
   -0.5034   -6.1707    2.9509 O   0  5  0  0  0  0  0  0  0  0  0  0
   -2.3976   -7.5027    3.7701 O   0  5  0  0  0  0  0  0  0  0  0  0
  1 18  1  0  0  0  0
  1  2  1  0  0  0  0
  2  4  1  0  0  0  0
  2  3  2  0  0  0  0
  4  5  1  0  0  0  0
  5  7  1  0  0  0  0
  5  6  2  0  0  0  0
  7 18  2  0  0  0  0
  7  8  1  0  0  0  0
  8  9  1  0  0  0  0
  9 10  2  0  0  0  0
  9 16  1  0  0  0  0
 10 11  1  0  0  0  0
 11 12  1  0  0  0  0
 11 13  2  0  0  0  0
 13 14  1  0  0  0  0
 13 15  1  0  0  0  0
 15 16  2  0  0  0  0
 16 17  1  0  0  0  0
 17 19  1  0  0  0  0
 17 18  1  0  0  0  0
 20 19  1  1  0  0  0
 20 22  1  0  0  0  0
 20 21  1  0  0  0  0
 22 24  1  0  0  0  0
 22 23  1  1  0  0  0
 24 26  1  6  0  0  0
 24 25  1  0  0  0  0
 26 27  1  0  0  0  0
 27 28  1  0  0  0  0
 28 30  1  0  0  0  0
 28 29  2  0  0  0  0
 28 31  1  0  0  0  0
M  CHG  2  30  -1  31  -1
M  END
>  <CHROM.1>
-88.77916437,114.28180833,54.37808692,-142.83957531,-52.62767855,70.13568107
58.86428662,-176.37299208,68.63827708,40.44104928,-6.91367196,-6.10903116
1.43928329,2.88144205,0.29023318,-1.33670448

>  <Name>
1fmn_cryst

>  <RI>
0

>  <Rbt.Current_Directory>
/home/itssahil/PROJECTS/Mol_Feturizer/New_Systems/rnas/1fmn

>  <Rbt.Executable>
rbdock ($Id: //depot/dev/client3/rdock/2013.1/src/exe/rbdock.cxx#4 $)

>  <Rbt.Library>
libRbt.so (2013.1, Build901 2013/11/27)

>  <Rbt.Parameter_File>
/export/apps/rDock/src/rDock_2013.1_src/data/scripts/dock_solv.prm

>  <Rbt.Receptor>
prm/pocket_docking_4.prm

>  <SCORE>
-59.9225

>  <SCORE.INTER>
-55.0606

>  <SCORE.INTER.CONST>
1

>  <SCORE.INTER.POLAR>
-3.12883

>  <SCORE.INTER.ROT>
7

>  <SCORE.INTER.SOLV>
16.9124

>  <SCORE.INTER.VDW>
-40.1818

>  <SCORE.INTER.norm>
-1.77615

>  <SCORE.INTRA>
-4.86195

>  <SCORE.INTRA.DIHEDRAL>
-1.81936

>  <SCORE.INTRA.DIHEDRAL.0>
15.5708

>  <SCORE.INTRA.POLAR>
-0.932211

>  <SCORE.INTRA.POLAR.0>
-0.0677885

>  <SCORE.INTRA.REPUL>
0

>  <SCORE.INTRA.REPUL.0>
0

>  <SCORE.INTRA.SOLV>
-0.373753

>  <SCORE.INTRA.SOLV.lig_0>
-87.6316

>  <SCORE.INTRA.VDW>
-0.595874

>  <SCORE.INTRA.VDW.0>
-2.87309

>  <SCORE.INTRA.norm>
-0.156837

>  <SCORE.RESTR>
0

>  <SCORE.RESTR.CAVITY>
0

>  <SCORE.RESTR.norm>
0

>  <SCORE.SYSTEM>
0

>  <SCORE.SYSTEM.CONST>
0

>  <SCORE.SYSTEM.DIHEDRAL>
0

>  <SCORE.SYSTEM.SOLV>
0

>  <SCORE.SYSTEM.norm>
0

>  <SCORE.heavy>
31

>  <SCORE.norm>
-1.93298

>  <SYMMETRIC_BONDS>
33 34 3

>  <RMSD>
1.851

$$$$
1fmn_cryst
 OpenBabel11021811393D
libRbt.so/2013.1/901 2013/11/27
 31 33  0  0  0  0  0  0  0  0999 V2000
   -9.0333   -6.0202    3.3437 N   0  0  0  0  0  0  0  0  0  0  0  0
   -9.8428   -6.1050    4.4523 C   0  0  0  0  0  0  0  0  0  0  0  0
   -9.4513   -6.5992    5.5101 O   0  0  0  0  0  0  0  0  0  0  0  0
  -11.1555   -5.5927    4.2982 N   0  0  0  0  0  0  0  0  0  0  0  0
  -11.7042   -5.0138    3.1328 C   0  0  0  0  0  0  0  0  0  0  0  0
  -12.8715   -4.6030    3.1368 O   0  0  0  0  0  0  0  0  0  0  0  0
  -10.7802   -4.9613    1.9976 C   0  0  0  0  0  0  0  0  0  0  0  0
  -11.2374   -4.4120    0.8257 N   0  0  0  0  0  0  0  0  0  0  0  0
  -10.4417   -4.5275   -0.2770 C   0  0  0  0  0  0  0  0  0  0  0  0
  -10.9691   -4.1443   -1.4974 C   0  0  0  0  0  0  0  0  0  0  0  0
  -10.2373   -4.2308   -2.6325 C   0  0  0  0  0  0  0  0  0  0  0  0
  -10.8535   -3.8006   -3.9253 C   0  0  0  0  0  0  0  0  0  0  0  0
   -8.9613   -4.7013   -2.5935 C   0  0  0  0  0  0  0  0  0  0  0  0
   -8.1629   -4.7999   -3.8525 C   0  0  0  0  0  0  0  0  0  0  0  0
   -8.4018   -5.0881   -1.4187 C   0  0  0  0  0  0  0  0  0  0  0  0
   -9.1127   -5.0185   -0.2207 C   0  0  0  0  0  0  0  0  0  0  0  0
   -8.5917   -5.4001    1.0335 N   0  0  0  0  0  0  0  0  0  0  0  0
   -9.4421   -5.4808    2.1552 C   0  0  0  0  0  0  0  0  0  0  0  0
   -7.1239   -5.1621    1.2933 C   0  0  0  0  0  0  0  0  0  0  0  0
   -6.3686   -6.2817    2.0720 C   0  0  1  0  0  0  0  0  0  0  0  0
   -5.5451   -7.0247    1.1845 O   0  0  0  0  0  0  0  0  0  0  0  0
   -5.5790   -5.7501    3.2918 C   0  0  1  0  0  0  0  0  0  0  0  0
   -6.1270   -4.5111    3.7325 O   0  0  0  0  0  0  0  0  0  0  0  0
   -5.4159   -6.7119    4.4944 C   0  0  1  0  0  0  0  0  0  0  0  0
   -6.6987   -7.2249    4.8367 O   0  0  0  0  0  0  0  0  0  0  0  0
   -4.4703   -7.8966    4.1946 C   0  0  0  0  0  0  0  0  0  0  0  0
   -3.1172   -7.4858    4.0383 O   0  0  0  0  0  0  0  0  0  0  0  0
   -1.9397   -8.5071    3.7524 P   0  0  0  0  0  0  0  0  0  0  0  0
   -0.6469   -7.7986    3.6158 O   0  0  0  0  0  0  0  0  0  0  0  0
   -2.0193   -9.6645    4.6696 O   0  5  0  0  0  0  0  0  0  0  0  0
   -2.2717   -9.0688    2.3001 O   0  5  0  0  0  0  0  0  0  0  0  0
  1 18  1  0  0  0  0
  1  2  1  0  0  0  0
  2  4  1  0  0  0  0
  2  3  2  0  0  0  0
  4  5  1  0  0  0  0
  5  7  1  0  0  0  0
  5  6  2  0  0  0  0
  7 18  2  0  0  0  0
  7  8  1  0  0  0  0
  8  9  1  0  0  0  0
  9 10  2  0  0  0  0
  9 16  1  0  0  0  0
 10 11  1  0  0  0  0
 11 12  1  0  0  0  0
 11 13  2  0  0  0  0
 13 14  1  0  0  0  0
 13 15  1  0  0  0  0
 15 16  2  0  0  0  0
 16 17  1  0  0  0  0
 17 19  1  0  0  0  0
 17 18  1  0  0  0  0
 20 19  1  6  0  0  0
 20 22  1  0  0  0  0
 20 21  1  0  0  0  0
 22 24  1  0  0  0  0
 22 23  1  1  0  0  0
 24 26  1  6  0  0  0
 24 25  1  0  0  0  0
 26 27  1  0  0  0  0
 27 28  1  0  0  0  0
 28 30  1  0  0  0  0
 28 29  2  0  0  0  0
 28 31  1  0  0  0  0
M  CHG  2  30  -1  31  -1
M  END
>  <CHROM.1>
-140.32180808,105.22050443,23.09664866,-60.05280583,-50.59804927,-143.19320476
68.38546772,-174.32293438,178.79234725,179.11987237,-7.32999887,-6.09226275
2.01593931,2.61153278,0.32522187,-1.36587301

>  <Name>
1fmn_cryst

>  <RI>
0

>  <Rbt.Current_Directory>
/home/itssahil/PROJECTS/Mol_Feturizer/New_Systems/rnas/1fmn

>  <Rbt.Executable>
rbdock ($Id: //depot/dev/client3/rdock/2013.1/src/exe/rbdock.cxx#4 $)

>  <Rbt.Library>
libRbt.so (2013.1, Build901 2013/11/27)

>  <Rbt.Parameter_File>
/export/apps/rDock/src/rDock_2013.1_src/data/scripts/dock_solv.prm

>  <Rbt.Receptor>
prm/pocket_docking_4.prm

>  <SCORE>
-57.4216

>  <SCORE.INTER>
-55.1225

>  <SCORE.INTER.CONST>
1

>  <SCORE.INTER.POLAR>
-4.22158

>  <SCORE.INTER.ROT>
7

>  <SCORE.INTER.SOLV>
16.1422

>  <SCORE.INTER.VDW>
-36.3238

>  <SCORE.INTER.norm>
-1.77815

>  <SCORE.INTRA>
-2.29903

>  <SCORE.INTRA.DIHEDRAL>
-0.775077

>  <SCORE.INTRA.DIHEDRAL.0>
15.5708

>  <SCORE.INTRA.POLAR>
-0.804206

>  <SCORE.INTRA.POLAR.0>
-0.0677885

>  <SCORE.INTRA.REPUL>
0

>  <SCORE.INTRA.REPUL.0>
0

>  <SCORE.INTRA.SOLV>
-2.42674

>  <SCORE.INTRA.SOLV.lig_0>
-87.6316

>  <SCORE.INTRA.VDW>
2.03619

>  <SCORE.INTRA.VDW.0>
-2.87309

>  <SCORE.INTRA.norm>
-0.0741621

>  <SCORE.RESTR>
0

>  <SCORE.RESTR.CAVITY>
0

>  <SCORE.RESTR.norm>
0

>  <SCORE.SYSTEM>
0

>  <SCORE.SYSTEM.CONST>
0

>  <SCORE.SYSTEM.DIHEDRAL>
0

>  <SCORE.SYSTEM.SOLV>
0

>  <SCORE.SYSTEM.norm>
0

>  <SCORE.heavy>
31

>  <SCORE.norm>
-1.85231

>  <SYMMETRIC_BONDS>
33 34 3

>  <RMSD>
1.853

$$$$
1fmn_cryst
 OpenBabel11021811393D
libRbt.so/2013.1/901 2013/11/27
 31 33  0  0  0  0  0  0  0  0999 V2000
   -8.9014   -6.2006    3.6082 N   0  0  0  0  0  0  0  0  0  0  0  0
   -9.6848   -6.2100    4.7386 C   0  0  0  0  0  0  0  0  0  0  0  0
   -9.3333   -6.7808    5.7716 O   0  0  0  0  0  0  0  0  0  0  0  0
  -10.9224   -5.5262    4.6370 N   0  0  0  0  0  0  0  0  0  0  0  0
  -11.4214   -4.8479    3.5034 C   0  0  0  0  0  0  0  0  0  0  0  0
  -12.5240   -4.2882    3.5530 O   0  0  0  0  0  0  0  0  0  0  0  0
  -10.5295   -4.8848    2.3422 C   0  0  0  0  0  0  0  0  0  0  0  0
  -10.9420   -4.2476    1.1985 N   0  0  0  0  0  0  0  0  0  0  0  0
  -10.1984   -4.4351    0.0696 C   0  0  0  0  0  0  0  0  0  0  0  0
  -10.7035   -3.9520   -1.1245 C   0  0  0  0  0  0  0  0  0  0  0  0
  -10.0204   -4.1015   -2.2830 C   0  0  0  0  0  0  0  0  0  0  0  0
  -10.6093   -3.5580   -3.5457 C   0  0  0  0  0  0  0  0  0  0  0  0
   -8.8168   -4.7357   -2.2944 C   0  0  0  0  0  0  0  0  0  0  0  0
   -8.0726   -4.9024   -3.5792 C   0  0  0  0  0  0  0  0  0  0  0  0
   -8.2816   -5.2253   -1.1470 C   0  0  0  0  0  0  0  0  0  0  0  0
   -8.9446   -5.0971    0.0735 C   0  0  0  0  0  0  0  0  0  0  0  0
   -8.4446   -5.5788    1.3015 N   0  0  0  0  0  0  0  0  0  0  0  0
   -9.2676   -5.5791    2.4463 C   0  0  0  0  0  0  0  0  0  0  0  0
   -6.9518   -5.5422    1.5222 C   0  0  0  0  0  0  0  0  0  0  0  0
   -6.2804   -6.8869    1.9360 C   0  0  1  0  0  0  0  0  0  0  0  0
   -6.4353   -7.8494    0.9028 O   0  0  0  0  0  0  0  0  0  0  0  0
   -4.8023   -6.7246    2.3638 C   0  0  1  0  0  0  0  0  0  0  0  0
   -4.7005   -5.8059    3.4479 O   0  0  0  0  0  0  0  0  0  0  0  0
   -4.0225   -8.0205    2.6960 C   0  0  1  0  0  0  0  0  0  0  0  0
   -2.6901   -7.6653    3.0486 O   0  0  0  0  0  0  0  0  0  0  0  0
   -4.6492   -8.8191    3.8609 C   0  0  0  0  0  0  0  0  0  0  0  0
   -4.2825  -10.1936    3.8368 O   0  0  0  0  0  0  0  0  0  0  0  0
   -2.9836  -10.7461    4.5570 P   0  0  0  0  0  0  0  0  0  0  0  0
   -2.9774  -10.3783    5.9911 O   0  0  0  0  0  0  0  0  0  0  0  0
   -2.7430  -12.1576    4.1871 O   0  5  0  0  0  0  0  0  0  0  0  0
   -1.8014   -9.9075    3.8983 O   0  5  0  0  0  0  0  0  0  0  0  0
  1 18  1  0  0  0  0
  1  2  1  0  0  0  0
  2  4  1  0  0  0  0
  2  3  2  0  0  0  0
  4  5  1  0  0  0  0
  5  7  1  0  0  0  0
  5  6  2  0  0  0  0
  7 18  2  0  0  0  0
  7  8  1  0  0  0  0
  8  9  1  0  0  0  0
  9 10  2  0  0  0  0
  9 16  1  0  0  0  0
 10 11  1  0  0  0  0
 11 12  1  0  0  0  0
 11 13  2  0  0  0  0
 13 14  1  0  0  0  0
 13 15  1  0  0  0  0
 15 16  2  0  0  0  0
 16 17  1  0  0  0  0
 17 19  1  0  0  0  0
 17 18  1  0  0  0  0
 20 19  1  6  0  0  0
 20 22  1  0  0  0  0
 20 21  1  0  0  0  0
 22 24  1  0  0  0  0
 22 23  1  1  0  0  0
 24 26  1  1  0  0  0
 24 25  1  0  0  0  0
 26 27  1  0  0  0  0
 27 28  1  0  0  0  0
 28 30  1  0  0  0  0
 28 29  2  0  0  0  0
 28 31  1  0  0  0  0
M  CHG  2  30  -1  31  -1
M  END
>  <CHROM.1>
-126.43040111,62.88223651,57.74770146,-175.13151912,179.31156470,59.45364380
157.40621271,-171.76896391,88.81969347,55.22053764,-7.19059992,-6.75678999
2.18683998,2.53019396,0.50415189,-1.26448712

>  <Name>
1fmn_cryst

>  <RI>
0

>  <Rbt.Current_Directory>
/home/itssahil/PROJECTS/Mol_Feturizer/New_Systems/rnas/1fmn

>  <Rbt.Executable>
rbdock ($Id: //depot/dev/client3/rdock/2013.1/src/exe/rbdock.cxx#4 $)

>  <Rbt.Library>
libRbt.so (2013.1, Build901 2013/11/27)

>  <Rbt.Parameter_File>
/export/apps/rDock/src/rDock_2013.1_src/data/scripts/dock_solv.prm

>  <Rbt.Receptor>
prm/pocket_docking_4.prm

>  <SCORE>
-55.6207

>  <SCORE.INTER>
-47.98

>  <SCORE.INTER.CONST>
1

>  <SCORE.INTER.POLAR>
-2.12359

>  <SCORE.INTER.ROT>
7

>  <SCORE.INTER.SOLV>
16.8642

>  <SCORE.INTER.VDW>
-38.7961

>  <SCORE.INTER.norm>
-1.54774

>  <SCORE.INTRA>
-7.64071

>  <SCORE.INTRA.DIHEDRAL>
-7.69039

>  <SCORE.INTRA.DIHEDRAL.0>
15.5708

>  <SCORE.INTRA.POLAR>
-1.23772

>  <SCORE.INTRA.POLAR.0>
-0.0677885

>  <SCORE.INTRA.REPUL>
0

>  <SCORE.INTRA.REPUL.0>
0

>  <SCORE.INTRA.SOLV>
-0.610951

>  <SCORE.INTRA.SOLV.lig_0>
-87.6316

>  <SCORE.INTRA.VDW>
0.718199

>  <SCORE.INTRA.VDW.0>
-2.87309

>  <SCORE.INTRA.norm>
-0.246475

>  <SCORE.RESTR>
0

>  <SCORE.RESTR.CAVITY>
0

>  <SCORE.RESTR.norm>
0

>  <SCORE.SYSTEM>
0

>  <SCORE.SYSTEM.CONST>
0

>  <SCORE.SYSTEM.DIHEDRAL>
0

>  <SCORE.SYSTEM.SOLV>
0

>  <SCORE.SYSTEM.norm>
0

>  <SCORE.heavy>
31

>  <SCORE.norm>
-1.79422

>  <SYMMETRIC_BONDS>
33 34 3

>  <RMSD>
1.858

$$$$
1fmn_cryst
 OpenBabel11021811393D
libRbt.so/2013.1/901 2013/11/27
 31 33  0  0  0  0  0  0  0  0999 V2000
   -9.0121   -6.2991    3.7349 N   0  0  0  0  0  0  0  0  0  0  0  0
   -9.9183   -6.2090    4.7656 C   0  0  0  0  0  0  0  0  0  0  0  0
   -9.7332   -6.7664    5.8479 O   0  0  0  0  0  0  0  0  0  0  0  0
  -11.0788   -5.4391    4.5011 N   0  0  0  0  0  0  0  0  0  0  0  0
  -11.3900   -4.7671    3.2987 C   0  0  0  0  0  0  0  0  0  0  0  0
  -12.4438   -4.1254    3.2034 O   0  0  0  0  0  0  0  0  0  0  0  0
  -10.3765   -4.9125    2.2514 C   0  0  0  0  0  0  0  0  0  0  0  0
  -10.6040   -4.2883    1.0502 N   0  0  0  0  0  0  0  0  0  0  0  0
   -9.7529   -4.5716    0.0216 C   0  0  0  0  0  0  0  0  0  0  0  0
  -10.0785   -4.0959   -1.2362 C   0  0  0  0  0  0  0  0  0  0  0  0
   -9.2809   -4.3379   -2.3023 C   0  0  0  0  0  0  0  0  0  0  0  0
   -9.6769   -3.7983   -3.6396 C   0  0  0  0  0  0  0  0  0  0  0  0
   -8.1372   -5.0600   -2.1553 C   0  0  0  0  0  0  0  0  0  0  0  0
   -7.2660   -5.3283   -3.3390 C   0  0  0  0  0  0  0  0  0  0  0  0
   -7.7770   -5.5462   -0.9401 C   0  0  0  0  0  0  0  0  0  0  0  0
   -8.5634   -5.3246    0.1904 C   0  0  0  0  0  0  0  0  0  0  0  0
   -8.2467   -5.7973    1.4813 N   0  0  0  0  0  0  0  0  0  0  0  0
   -9.1930   -5.6946    2.5214 C   0  0  0  0  0  0  0  0  0  0  0  0
   -6.7908   -5.8640    1.8741 C   0  0  0  0  0  0  0  0  0  0  0  0
   -5.7657   -5.3416    0.8222 C   0  0  1  0  0  0  0  0  0  0  0  0
   -5.2947   -4.0544    1.1953 O   0  0  0  0  0  0  0  0  0  0  0  0
   -4.6064   -6.3312    0.5562 C   0  0  1  0  0  0  0  0  0  0  0  0
   -3.3889   -5.8203    1.0912 O   0  0  0  0  0  0  0  0  0  0  0  0
   -4.8133   -7.7940    1.0201 C   0  0  1  0  0  0  0  0  0  0  0  0
   -3.7843   -8.5958    0.4507 O   0  0  0  0  0  0  0  0  0  0  0  0
   -4.7726   -7.9503    2.5569 C   0  0  0  0  0  0  0  0  0  0  0  0
   -3.8153   -8.9140    2.9799 O   0  0  0  0  0  0  0  0  0  0  0  0
   -2.3170   -8.5358    3.3312 P   0  0  0  0  0  0  0  0  0  0  0  0
   -1.6386   -9.6535    4.0259 O   0  0  0  0  0  0  0  0  0  0  0  0
   -1.6489   -7.9166    2.1662 O   0  5  0  0  0  0  0  0  0  0  0  0
   -2.4641   -7.3849    4.4214 O   0  5  0  0  0  0  0  0  0  0  0  0
  1 18  1  0  0  0  0
  1  2  1  0  0  0  0
  2  4  1  0  0  0  0
  2  3  2  0  0  0  0
  4  5  1  0  0  0  0
  5  7  1  0  0  0  0
  5  6  2  0  0  0  0
  7 18  2  0  0  0  0
  7  8  1  0  0  0  0
  8  9  1  0  0  0  0
  9 10  2  0  0  0  0
  9 16  1  0  0  0  0
 10 11  1  0  0  0  0
 11 12  1  0  0  0  0
 11 13  2  0  0  0  0
 13 14  1  0  0  0  0
 13 15  1  0  0  0  0
 15 16  2  0  0  0  0
 16 17  1  0  0  0  0
 17 19  1  0  0  0  0
 17 18  1  0  0  0  0
 20 19  1  1  0  0  0
 20 22  1  0  0  0  0
 20 21  1  0  0  0  0
 22 24  1  0  0  0  0
 22 23  1  1  0  0  0
 24 26  1  1  0  0  0
 24 25  1  0  0  0  0
 26 27  1  0  0  0  0
 27 28  1  0  0  0  0
 28 30  1  0  0  0  0
 28 29  2  0  0  0  0
 28 31  1  0  0  0  0
M  CHG  2  30  -1  31  -1
M  END
>  <CHROM.1>
2.47148118,103.41601283,-109.81331906,-176.82232306,168.06903500,-62.16115425
-125.16804923,-176.11904415,91.08924898,167.14058851,-6.87045194,-6.17288455
1.61154444,2.80313648,0.35722283,-1.28062197

>  <Name>
1fmn_cryst

>  <RI>
0

>  <Rbt.Current_Directory>
/home/itssahil/PROJECTS/Mol_Feturizer/New_Systems/rnas/1fmn

>  <Rbt.Executable>
rbdock ($Id: //depot/dev/client3/rdock/2013.1/src/exe/rbdock.cxx#4 $)

>  <Rbt.Library>
libRbt.so (2013.1, Build901 2013/11/27)

>  <Rbt.Parameter_File>
/export/apps/rDock/src/rDock_2013.1_src/data/scripts/dock_solv.prm

>  <Rbt.Receptor>
prm/pocket_docking_3.prm

>  <SCORE>
-45.7474

>  <SCORE.INTER>
-54.2513

>  <SCORE.INTER.CONST>
1

>  <SCORE.INTER.POLAR>
-3.55512

>  <SCORE.INTER.ROT>
7

>  <SCORE.INTER.SOLV>
17.6667

>  <SCORE.INTER.VDW>
-38.4727

>  <SCORE.INTER.norm>
-1.75004

>  <SCORE.INTRA>
8.49867

>  <SCORE.INTRA.DIHEDRAL>
5.68562

>  <SCORE.INTRA.DIHEDRAL.0>
15.5708

>  <SCORE.INTRA.POLAR>
0.0677885

>  <SCORE.INTRA.POLAR.0>
-0.0677885

>  <SCORE.INTRA.REPUL>
0

>  <SCORE.INTRA.REPUL.0>
0

>  <SCORE.INTRA.SOLV>
1.21816

>  <SCORE.INTRA.SOLV.lig_0>
-87.6316

>  <SCORE.INTRA.VDW>
4.8163

>  <SCORE.INTRA.VDW.0>
-2.87309

>  <SCORE.INTRA.norm>
0.274151

>  <SCORE.RESTR>
0.0051816

>  <SCORE.RESTR.CAVITY>
0.0051816

>  <SCORE.RESTR.norm>
0.000167148

>  <SCORE.SYSTEM>
0

>  <SCORE.SYSTEM.CONST>
0

>  <SCORE.SYSTEM.DIHEDRAL>
0

>  <SCORE.SYSTEM.SOLV>
0

>  <SCORE.SYSTEM.norm>
0

>  <SCORE.heavy>
31

>  <SCORE.norm>
-1.47572

>  <SYMMETRIC_BONDS>
33 34 3

>  <RMSD>
1.866

$$$$
1fmn_cryst
 OpenBabel11021811393D
libRbt.so/2013.1/901 2013/11/27
 31 33  0  0  0  0  0  0  0  0999 V2000
   -8.4486   -6.1808    3.5946 N   0  0  0  0  0  0  0  0  0  0  0  0
   -9.3071   -6.2313    4.6680 C   0  0  0  0  0  0  0  0  0  0  0  0
   -8.9742   -6.7216    5.7475 O   0  0  0  0  0  0  0  0  0  0  0  0
  -10.5985   -5.6885    4.4510 N   0  0  0  0  0  0  0  0  0  0  0  0
  -11.0816   -5.1110    3.2563 C   0  0  0  0  0  0  0  0  0  0  0  0
  -12.2371   -4.6712    3.2048 O   0  0  0  0  0  0  0  0  0  0  0  0
  -10.1084   -5.0959    2.1618 C   0  0  0  0  0  0  0  0  0  0  0  0
  -10.5005   -4.5503    0.9648 N   0  0  0  0  0  0  0  0  0  0  0  0
   -9.6612   -4.6997   -0.1009 C   0  0  0  0  0  0  0  0  0  0  0  0
  -10.1256   -4.3190   -1.3474 C   0  0  0  0  0  0  0  0  0  0  0  0
   -9.3479   -4.4382   -2.4486 C   0  0  0  0  0  0  0  0  0  0  0  0
   -9.8967   -4.0092   -3.7719 C   0  0  0  0  0  0  0  0  0  0  0  0
   -8.0871   -4.9396   -2.3487 C   0  0  0  0  0  0  0  0  0  0  0  0
   -7.2379   -5.0741   -3.5706 C   0  0  0  0  0  0  0  0  0  0  0  0
   -7.5889   -5.3253   -1.1463 C   0  0  0  0  0  0  0  0  0  0  0  0
   -8.3488   -5.2228    0.0188 C   0  0  0  0  0  0  0  0  0  0  0  0
   -7.8922   -5.6013    1.2988 N   0  0  0  0  0  0  0  0  0  0  0  0
   -8.7919   -5.6465    2.3834 C   0  0  0  0  0  0  0  0  0  0  0  0
   -6.4314   -5.3965    1.6193 C   0  0  0  0  0  0  0  0  0  0  0  0
   -5.6013   -6.6823    1.9155 C   0  0  1  0  0  0  0  0  0  0  0  0
   -6.3560   -7.5777    2.7196 O   0  0  0  0  0  0  0  0  0  0  0  0
   -5.0566   -7.3648    0.6381 C   0  0  1  0  0  0  0  0  0  0  0  0
   -4.8172   -6.3936   -0.3763 O   0  0  0  0  0  0  0  0  0  0  0  0
   -3.8124   -8.2715    0.8041 C   0  0  1  0  0  0  0  0  0  0  0  0
   -2.7075   -7.4547    1.1756 O   0  0  0  0  0  0  0  0  0  0  0  0
   -4.0039   -9.3671    1.8767 C   0  0  0  0  0  0  0  0  0  0  0  0
   -4.0788   -8.8320    3.1928 O   0  0  0  0  0  0  0  0  0  0  0  0
   -3.7352   -9.6834    4.4844 P   0  0  0  0  0  0  0  0  0  0  0  0
   -2.3796   -9.3611    4.9849 O   0  0  0  0  0  0  0  0  0  0  0  0
   -4.8654   -9.6632    5.4380 O   0  5  0  0  0  0  0  0  0  0  0  0
   -3.6425  -11.1762    3.9385 O   0  5  0  0  0  0  0  0  0  0  0  0
  1 18  1  0  0  0  0
  1  2  1  0  0  0  0
  2  4  1  0  0  0  0
  2  3  2  0  0  0  0
  4  5  1  0  0  0  0
  5  7  1  0  0  0  0
  5  6  2  0  0  0  0
  7 18  2  0  0  0  0
  7  8  1  0  0  0  0
  8  9  1  0  0  0  0
  9 10  2  0  0  0  0
  9 16  1  0  0  0  0
 10 11  1  0  0  0  0
 11 12  1  0  0  0  0
 11 13  2  0  0  0  0
 13 14  1  0  0  0  0
 13 15  1  0  0  0  0
 15 16  2  0  0  0  0
 16 17  1  0  0  0  0
 17 19  1  0  0  0  0
 17 18  1  0  0  0  0
 20 19  1  6  0  0  0
 20 22  1  0  0  0  0
 20 21  1  0  0  0  0
 22 24  1  0  0  0  0
 22 23  1  6  0  0  0
 24 26  1  1  0  0  0
 24 25  1  0  0  0  0
 26 27  1  0  0  0  0
 27 28  1  0  0  0  0
 28 30  1  0  0  0  0
 28 29  2  0  0  0  0
 28 31  1  0  0  0  0
M  CHG  2  30  -1  31  -1
M  END
>  <CHROM.1>
-116.87742358,-41.26073218,30.25505236,-163.30414997,-66.43568336,-170.32181174
-68.46389067,-177.21246074,-156.56786803,101.26069298,-7.02194121,-6.69336386
1.79208883,2.46562242,0.47159055,-1.23796219

>  <Name>
1fmn_cryst

>  <RI>
0

>  <Rbt.Current_Directory>
/home/itssahil/PROJECTS/Mol_Feturizer/New_Systems/rnas/1fmn

>  <Rbt.Executable>
rbdock ($Id: //depot/dev/client3/rdock/2013.1/src/exe/rbdock.cxx#4 $)

>  <Rbt.Library>
libRbt.so (2013.1, Build901 2013/11/27)

>  <Rbt.Parameter_File>
/export/apps/rDock/src/rDock_2013.1_src/data/scripts/dock_solv.prm

>  <Rbt.Receptor>
prm/pocket_docking_3.prm

>  <SCORE>
-60.6703

>  <SCORE.INTER>
-55.0509

>  <SCORE.INTER.CONST>
1

>  <SCORE.INTER.POLAR>
-3.52543

>  <SCORE.INTER.ROT>
7

>  <SCORE.INTER.SOLV>
20.9964

>  <SCORE.INTER.VDW>
-40.2146

>  <SCORE.INTER.norm>
-1.77584

>  <SCORE.INTRA>
-5.62752

>  <SCORE.INTRA.DIHEDRAL>
-2.68697

>  <SCORE.INTRA.DIHEDRAL.0>
15.5708

>  <SCORE.INTRA.POLAR>
-1.54025

>  <SCORE.INTRA.POLAR.0>
-0.0677885

>  <SCORE.INTRA.REPUL>
0

>  <SCORE.INTRA.REPUL.0>
0

>  <SCORE.INTRA.SOLV>
-0.72889

>  <SCORE.INTRA.SOLV.lig_0>
-87.6316

>  <SCORE.INTRA.VDW>
1.31728

>  <SCORE.INTRA.VDW.0>
-2.87309

>  <SCORE.INTRA.norm>
-0.181533

>  <SCORE.RESTR>
0.00809041

>  <SCORE.RESTR.CAVITY>
0.00809041

>  <SCORE.RESTR.norm>
0.000260981

>  <SCORE.SYSTEM>
0

>  <SCORE.SYSTEM.CONST>
0

>  <SCORE.SYSTEM.DIHEDRAL>
0

>  <SCORE.SYSTEM.SOLV>
0

>  <SCORE.SYSTEM.norm>
0

>  <SCORE.heavy>
31

>  <SCORE.norm>
-1.95711

>  <SYMMETRIC_BONDS>
33 34 3

>  <RMSD>
1.873

$$$$
1fmn_cryst
 OpenBabel11021811393D
libRbt.so/2013.1/901 2013/11/27
 31 33  0  0  0  0  0  0  0  0999 V2000
   -9.1216   -6.4364    3.4981 N   0  0  0  0  0  0  0  0  0  0  0  0
   -9.9640   -6.3180    4.5789 C   0  0  0  0  0  0  0  0  0  0  0  0
   -9.7828   -6.9503    5.6199 O   0  0  0  0  0  0  0  0  0  0  0  0
  -11.0546   -5.4271    4.4162 N   0  0  0  0  0  0  0  0  0  0  0  0
  -11.3556   -4.6623    3.2680 C   0  0  0  0  0  0  0  0  0  0  0  0
  -12.3446   -3.9185    3.2619 O   0  0  0  0  0  0  0  0  0  0  0  0
  -10.4128   -4.8449    2.1621 C   0  0  0  0  0  0  0  0  0  0  0  0
  -10.6353   -4.1356    1.0082 N   0  0  0  0  0  0  0  0  0  0  0  0
   -9.8666   -4.4408   -0.0773 C   0  0  0  0  0  0  0  0  0  0  0  0
  -10.2039   -3.8665   -1.2901 C   0  0  0  0  0  0  0  0  0  0  0  0
   -9.4860   -4.1235   -2.4081 C   0  0  0  0  0  0  0  0  0  0  0  0
   -9.8909   -3.4745   -3.6931 C   0  0  0  0  0  0  0  0  0  0  0  0
   -8.4131   -4.9587   -2.3593 C   0  0  0  0  0  0  0  0  0  0  0  0
   -7.6303   -5.2422   -3.5998 C   0  0  0  0  0  0  0  0  0  0  0  0
   -8.0444   -5.5443   -1.1914 C   0  0  0  0  0  0  0  0  0  0  0  0
   -8.7501   -5.3123   -0.0108 C   0  0  0  0  0  0  0  0  0  0  0  0
   -8.4197   -5.8846    1.2355 N   0  0  0  0  0  0  0  0  0  0  0  0
   -9.3003   -5.7504    2.3285 C   0  0  0  0  0  0  0  0  0  0  0  0
   -6.9603   -6.1120    1.5464 C   0  0  0  0  0  0  0  0  0  0  0  0
   -6.5258   -7.5899    1.7853 C   0  0  1  0  0  0  0  0  0  0  0  0
   -6.3349   -8.2509    0.5424 O   0  0  0  0  0  0  0  0  0  0  0  0
   -5.2924   -7.7215    2.7102 C   0  0  1  0  0  0  0  0  0  0  0  0
   -5.3203   -6.7132    3.7163 O   0  0  0  0  0  0  0  0  0  0  0  0
   -5.0470   -9.1062    3.3584 C   0  0  1  0  0  0  0  0  0  0  0  0
   -5.2910  -10.1102    2.3794 O   0  0  0  0  0  0  0  0  0  0  0  0
   -3.6076   -9.2739    3.8947 C   0  0  0  0  0  0  0  0  0  0  0  0
   -3.3362  -10.6055    4.3157 O   0  0  0  0  0  0  0  0  0  0  0  0
   -1.9313  -11.0497    4.8991 P   0  0  0  0  0  0  0  0  0  0  0  0
   -0.8546  -10.1495    4.4276 O   0  0  0  0  0  0  0  0  0  0  0  0
   -2.0340  -11.3330    6.3469 O   0  5  0  0  0  0  0  0  0  0  0  0
   -1.6547  -12.4492    4.1921 O   0  5  0  0  0  0  0  0  0  0  0  0
  1 18  1  0  0  0  0
  1  2  1  0  0  0  0
  2  4  1  0  0  0  0
  2  3  2  0  0  0  0
  4  5  1  0  0  0  0
  5  7  1  0  0  0  0
  5  6  2  0  0  0  0
  7 18  2  0  0  0  0
  7  8  1  0  0  0  0
  8  9  1  0  0  0  0
  9 10  2  0  0  0  0
  9 16  1  0  0  0  0
 10 11  1  0  0  0  0
 11 12  1  0  0  0  0
 11 13  2  0  0  0  0
 13 14  1  0  0  0  0
 13 15  1  0  0  0  0
 15 16  2  0  0  0  0
 16 17  1  0  0  0  0
 17 19  1  0  0  0  0
 17 18  1  0  0  0  0
 20 19  1  6  0  0  0
 20 22  1  0  0  0  0
 20 21  1  0  0  0  0
 22 24  1  0  0  0  0
 22 23  1  1  0  0  0
 24 26  1  6  0  0  0
 24 25  1  0  0  0  0
 26 27  1  0  0  0  0
 27 28  1  0  0  0  0
 28 30  1  0  0  0  0
 28 29  2  0  0  0  0
 28 31  1  0  0  0  0
M  CHG  2  30  -1  31  -1
M  END
>  <CHROM.1>
-118.44694245,80.90131218,35.15329287,-168.91333667,41.80124453,-171.97642993
-171.71816330,-159.56604131,179.63912440,-24.07534877,-7.03132153,-7.12627161
2.18022870,2.54221879,0.55530484,-1.28583102

>  <Name>
1fmn_cryst

>  <RI>
0

>  <Rbt.Current_Directory>
/home/itssahil/PROJECTS/Mol_Feturizer/New_Systems/rnas/1fmn

>  <Rbt.Executable>
rbdock ($Id: //depot/dev/client3/rdock/2013.1/src/exe/rbdock.cxx#4 $)

>  <Rbt.Library>
libRbt.so (2013.1, Build901 2013/11/27)

>  <Rbt.Parameter_File>
/export/apps/rDock/src/rDock_2013.1_src/data/scripts/dock_solv.prm

>  <Rbt.Receptor>
prm/pocket_docking_7.prm

>  <SCORE>
-57.4408

>  <SCORE.INTER>
-52.5336

>  <SCORE.INTER.CONST>
1

>  <SCORE.INTER.POLAR>
-3.33658

>  <SCORE.INTER.ROT>
7

>  <SCORE.INTER.SOLV>
16.5132

>  <SCORE.INTER.VDW>
-37.6715

>  <SCORE.INTER.norm>
-1.69463

>  <SCORE.INTRA>
-4.90721

>  <SCORE.INTRA.DIHEDRAL>
-3.73842

>  <SCORE.INTRA.DIHEDRAL.0>
15.5708

>  <SCORE.INTRA.POLAR>
-0.449753

>  <SCORE.INTRA.POLAR.0>
-0.0677885

>  <SCORE.INTRA.REPUL>
0

>  <SCORE.INTRA.REPUL.0>
0

>  <SCORE.INTRA.SOLV>
-4.66655

>  <SCORE.INTRA.SOLV.lig_0>
-87.6316

>  <SCORE.INTRA.VDW>
0.824431

>  <SCORE.INTRA.VDW.0>
-2.87309

>  <SCORE.INTRA.norm>
-0.158297

>  <SCORE.RESTR>
0

>  <SCORE.RESTR.CAVITY>
0

>  <SCORE.RESTR.norm>
0

>  <SCORE.SYSTEM>
0

>  <SCORE.SYSTEM.CONST>
0

>  <SCORE.SYSTEM.DIHEDRAL>
0

>  <SCORE.SYSTEM.SOLV>
0

>  <SCORE.SYSTEM.norm>
0

>  <SCORE.heavy>
31

>  <SCORE.norm>
-1.85293

>  <SYMMETRIC_BONDS>
33 34 3

>  <RMSD>
1.877

$$$$
1fmn_cryst
 OpenBabel11021811393D
libRbt.so/2013.1/901 2013/11/27
 31 33  0  0  0  0  0  0  0  0999 V2000
   -8.9325   -6.1672    3.5570 N   0  0  0  0  0  0  0  0  0  0  0  0
   -9.6497   -6.2465    4.7278 C   0  0  0  0  0  0  0  0  0  0  0  0
   -9.2089   -6.8176    5.7258 O   0  0  0  0  0  0  0  0  0  0  0  0
  -10.9282   -5.6345    4.7107 N   0  0  0  0  0  0  0  0  0  0  0  0
  -11.5279   -4.9626    3.6230 C   0  0  0  0  0  0  0  0  0  0  0  0
  -12.6562   -4.4696    3.7463 O   0  0  0  0  0  0  0  0  0  0  0  0
  -10.7016   -4.9224    2.4143 C   0  0  0  0  0  0  0  0  0  0  0  0
  -11.2131   -4.2862    1.3108 N   0  0  0  0  0  0  0  0  0  0  0  0
  -10.5242   -4.4057    0.1387 C   0  0  0  0  0  0  0  0  0  0  0  0
  -11.1222   -3.9277   -1.0138 C   0  0  0  0  0  0  0  0  0  0  0  0
  -10.4974   -4.0122   -2.2113 C   0  0  0  0  0  0  0  0  0  0  0  0
  -11.1861   -3.4774   -3.4262 C   0  0  0  0  0  0  0  0  0  0  0  0
   -9.2619   -4.5744   -2.3039 C   0  0  0  0  0  0  0  0  0  0  0  0
   -8.5824   -4.6699   -3.6310 C   0  0  0  0  0  0  0  0  0  0  0  0
   -8.6363   -5.0562   -1.1997 C   0  0  0  0  0  0  0  0  0  0  0  0
   -9.2363   -4.9931    0.0579 C   0  0  0  0  0  0  0  0  0  0  0  0
   -8.6417   -5.4707    1.2447 N   0  0  0  0  0  0  0  0  0  0  0  0
   -9.3981   -5.5436    2.4323 C   0  0  0  0  0  0  0  0  0  0  0  0
   -7.1435   -5.3514    1.3844 C   0  0  0  0  0  0  0  0  0  0  0  0
   -6.2922   -5.8994    0.1990 C   0  0  1  0  0  0  0  0  0  0  0  0
   -6.1599   -4.9067   -0.8084 O   0  0  0  0  0  0  0  0  0  0  0  0
   -4.9220   -6.4654    0.6422 C   0  0  1  0  0  0  0  0  0  0  0  0
   -4.0255   -6.5103   -0.4640 O   0  0  0  0  0  0  0  0  0  0  0  0
   -4.2367   -5.7777    1.8486 C   0  0  1  0  0  0  0  0  0  0  0  0
   -4.2979   -4.3687    1.6569 O   0  0  0  0  0  0  0  0  0  0  0  0
   -4.9028   -6.1254    3.1988 C   0  0  0  0  0  0  0  0  0  0  0  0
   -4.0242   -5.9392    4.3021 O   0  0  0  0  0  0  0  0  0  0  0  0
   -2.8041   -6.9061    4.5980 P   0  0  0  0  0  0  0  0  0  0  0  0
   -1.9300   -7.0332    3.4097 O   0  0  0  0  0  0  0  0  0  0  0  0
   -2.1848   -6.5804    5.9008 O   0  5  0  0  0  0  0  0  0  0  0  0
   -3.4880   -8.3328    4.7765 O   0  5  0  0  0  0  0  0  0  0  0  0
  1 18  1  0  0  0  0
  1  2  1  0  0  0  0
  2  4  1  0  0  0  0
  2  3  2  0  0  0  0
  4  5  1  0  0  0  0
  5  7  1  0  0  0  0
  5  6  2  0  0  0  0
  7 18  2  0  0  0  0
  7  8  1  0  0  0  0
  8  9  1  0  0  0  0
  9 10  2  0  0  0  0
  9 16  1  0  0  0  0
 10 11  1  0  0  0  0
 11 12  1  0  0  0  0
 11 13  2  0  0  0  0
 13 14  1  0  0  0  0
 13 15  1  0  0  0  0
 15 16  2  0  0  0  0
 16 17  1  0  0  0  0
 17 19  1  0  0  0  0
 17 18  1  0  0  0  0
 20 19  1  1  0  0  0
 20 22  1  0  0  0  0
 20 21  1  0  0  0  0
 22 24  1  0  0  0  0
 22 23  1  6  0  0  0
 24 26  1  1  0  0  0
 24 25  1  0  0  0  0
 26 27  1  0  0  0  0
 27 28  1  0  0  0  0
 28 30  1  0  0  0  0
 28 29  2  0  0  0  0
 28 31  1  0  0  0  0
M  CHG  2  30  -1  31  -1
M  END
>  <CHROM.1>
-50.90856413,85.16280807,-159.71697380,43.06293991,-46.57261399,-48.01941211
157.58034527,-175.35454264,-72.18287717,53.99370770,-7.34515604,-5.56443178
1.81500485,2.58459924,0.17913847,-1.35733062

>  <Name>
1fmn_cryst

>  <RI>
0

>  <Rbt.Current_Directory>
/home/itssahil/PROJECTS/Mol_Feturizer/New_Systems/rnas/1fmn

>  <Rbt.Executable>
rbdock ($Id: //depot/dev/client3/rdock/2013.1/src/exe/rbdock.cxx#4 $)

>  <Rbt.Library>
libRbt.so (2013.1, Build901 2013/11/27)

>  <Rbt.Parameter_File>
/export/apps/rDock/src/rDock_2013.1_src/data/scripts/dock_solv.prm

>  <Rbt.Receptor>
prm/pocket_docking_4.prm

>  <SCORE>
-60.5581

>  <SCORE.INTER>
-61.828

>  <SCORE.INTER.CONST>
1

>  <SCORE.INTER.POLAR>
-5.0212

>  <SCORE.INTER.ROT>
7

>  <SCORE.INTER.SOLV>
19.9584

>  <SCORE.INTER.VDW>
-39.4008

>  <SCORE.INTER.norm>
-1.99445

>  <SCORE.INTRA>
1.26986

>  <SCORE.INTRA.DIHEDRAL>
-6.04149

>  <SCORE.INTRA.DIHEDRAL.0>
15.5708

>  <SCORE.INTRA.POLAR>
0.0677885

>  <SCORE.INTRA.POLAR.0>
-0.0677885

>  <SCORE.INTRA.REPUL>
0

>  <SCORE.INTRA.REPUL.0>
0

>  <SCORE.INTRA.SOLV>
-1.31262

>  <SCORE.INTRA.SOLV.lig_0>
-87.6316

>  <SCORE.INTRA.VDW>
4.71643

>  <SCORE.INTRA.VDW.0>
-2.87309

>  <SCORE.INTRA.norm>
0.0409633

>  <SCORE.RESTR>
0

>  <SCORE.RESTR.CAVITY>
0

>  <SCORE.RESTR.norm>
0

>  <SCORE.SYSTEM>
0

>  <SCORE.SYSTEM.CONST>
0

>  <SCORE.SYSTEM.DIHEDRAL>
0

>  <SCORE.SYSTEM.SOLV>
0

>  <SCORE.SYSTEM.norm>
0

>  <SCORE.heavy>
31

>  <SCORE.norm>
-1.95349

>  <SYMMETRIC_BONDS>
33 34 3

>  <RMSD>
1.879

$$$$
1fmn_cryst
 OpenBabel11021811393D
libRbt.so/2013.1/901 2013/11/27
 31 33  0  0  0  0  0  0  0  0999 V2000
   -9.0501   -6.1740    3.6383 N   0  0  0  0  0  0  0  0  0  0  0  0
   -9.8486   -6.1868    4.7580 C   0  0  0  0  0  0  0  0  0  0  0  0
   -9.5065   -6.7523    5.7971 O   0  0  0  0  0  0  0  0  0  0  0  0
  -11.0901   -5.5132    4.6381 N   0  0  0  0  0  0  0  0  0  0  0  0
  -11.5791   -4.8417    3.4961 C   0  0  0  0  0  0  0  0  0  0  0  0
  -12.6866   -4.2907    3.5294 O   0  0  0  0  0  0  0  0  0  0  0  0
  -10.6713   -4.8742    2.3472 C   0  0  0  0  0  0  0  0  0  0  0  0
  -11.0733   -4.2431    1.1964 N   0  0  0  0  0  0  0  0  0  0  0  0
  -10.3131   -4.4274    0.0781 C   0  0  0  0  0  0  0  0  0  0  0  0
  -10.8059   -3.9512   -1.1239 C   0  0  0  0  0  0  0  0  0  0  0  0
  -10.1060   -4.0981   -2.2728 C   0  0  0  0  0  0  0  0  0  0  0  0
  -10.6821   -3.5624   -3.5447 C   0  0  0  0  0  0  0  0  0  0  0  0
   -8.8973   -4.7227   -2.2664 C   0  0  0  0  0  0  0  0  0  0  0  0
   -8.1346   -4.8866   -3.5405 C   0  0  0  0  0  0  0  0  0  0  0  0
   -8.3738   -5.2053   -1.1106 C   0  0  0  0  0  0  0  0  0  0  0  0
   -9.0542   -5.0794    0.1005 C   0  0  0  0  0  0  0  0  0  0  0  0
   -8.5671   -5.5541    1.3363 N   0  0  0  0  0  0  0  0  0  0  0  0
   -9.4054   -5.5582    2.4700 C   0  0  0  0  0  0  0  0  0  0  0  0
   -7.0778   -5.5051    1.5771 C   0  0  0  0  0  0  0  0  0  0  0  0
   -6.2111   -6.5095    0.7584 C   0  0  1  0  0  0  0  0  0  0  0  0
   -5.5901   -5.8441   -0.3323 O   0  0  0  0  0  0  0  0  0  0  0  0
   -5.1901   -7.2830    1.6263 C   0  0  1  0  0  0  0  0  0  0  0  0
   -4.4470   -8.1931    0.8207 O   0  0  0  0  0  0  0  0  0  0  0  0
   -4.2251   -6.4378    2.4938 C   0  0  1  0  0  0  0  0  0  0  0  0
   -3.7176   -5.3744    1.6953 O   0  0  0  0  0  0  0  0  0  0  0  0
   -4.9069   -5.8391    3.7445 C   0  0  0  0  0  0  0  0  0  0  0  0
   -4.8535   -6.7150    4.8643 O   0  0  0  0  0  0  0  0  0  0  0  0
   -5.5675   -8.1297    4.8797 P   0  0  0  0  0  0  0  0  0  0  0  0
   -6.9790   -8.0142    4.4481 O   0  0  0  0  0  0  0  0  0  0  0  0
   -4.7125   -9.1521    4.2388 O   0  5  0  0  0  0  0  0  0  0  0  0
   -5.6256   -8.5061    6.4256 O   0  5  0  0  0  0  0  0  0  0  0  0
  1 18  1  0  0  0  0
  1  2  1  0  0  0  0
  2  4  1  0  0  0  0
  2  3  2  0  0  0  0
  4  5  1  0  0  0  0
  5  7  1  0  0  0  0
  5  6  2  0  0  0  0
  7 18  2  0  0  0  0
  7  8  1  0  0  0  0
  8  9  1  0  0  0  0
  9 10  2  0  0  0  0
  9 16  1  0  0  0  0
 10 11  1  0  0  0  0
 11 12  1  0  0  0  0
 11 13  2  0  0  0  0
 13 14  1  0  0  0  0
 13 15  1  0  0  0  0
 15 16  2  0  0  0  0
 16 17  1  0  0  0  0
 17 19  1  0  0  0  0
 17 18  1  0  0  0  0
 20 19  1  1  0  0  0
 20 22  1  0  0  0  0
 20 21  1  0  0  0  0
 22 24  1  0  0  0  0
 22 23  1  6  0  0  0
 24 26  1  1  0  0  0
 24 25  1  0  0  0  0
 26 27  1  0  0  0  0
 27 28  1  0  0  0  0
 28 30  1  0  0  0  0
 28 29  2  0  0  0  0
 28 31  1  0  0  0  0
M  CHG  2  30  -1  31  -1
M  END
>  <CHROM.1>
-70.84025009,101.74489901,179.20812866,64.56874054,-45.24265151,-177.56352296
88.60485503,-176.91528899,-63.60623273,-49.90223846,-7.81648764,-6.00336546
2.03248432,0.86573674,-0.33383161,1.85999027

>  <Name>
1fmn_cryst

>  <RI>
0

>  <Rbt.Current_Directory>
/home/itssahil/PROJECTS/Mol_Feturizer/New_Systems/rnas/1fmn

>  <Rbt.Executable>
rbdock ($Id: //depot/dev/client3/rdock/2013.1/src/exe/rbdock.cxx#4 $)

>  <Rbt.Library>
libRbt.so (2013.1, Build901 2013/11/27)

>  <Rbt.Parameter_File>
/export/apps/rDock/src/rDock_2013.1_src/data/scripts/dock_solv.prm

>  <Rbt.Receptor>
prm/pocket_docking_3.prm

>  <SCORE>
-55.4126

>  <SCORE.INTER>
-48.249

>  <SCORE.INTER.CONST>
1

>  <SCORE.INTER.POLAR>
-2.12646

>  <SCORE.INTER.ROT>
7

>  <SCORE.INTER.SOLV>
22.9974

>  <SCORE.INTER.VDW>
-41.0103

>  <SCORE.INTER.norm>
-1.55642

>  <SCORE.INTRA>
-7.16353

>  <SCORE.INTRA.DIHEDRAL>
-5.69785

>  <SCORE.INTRA.DIHEDRAL.0>
15.5708

>  <SCORE.INTRA.POLAR>
-1.79984

>  <SCORE.INTRA.POLAR.0>
-0.0677885

>  <SCORE.INTRA.REPUL>
0

>  <SCORE.INTRA.REPUL.0>
0

>  <SCORE.INTRA.SOLV>
5.16319

>  <SCORE.INTRA.SOLV.lig_0>
-87.6316

>  <SCORE.INTRA.VDW>
-0.776746

>  <SCORE.INTRA.VDW.0>
-2.87309

>  <SCORE.INTRA.norm>
-0.231082

>  <SCORE.RESTR>
0

>  <SCORE.RESTR.CAVITY>
0

>  <SCORE.RESTR.norm>
0

>  <SCORE.SYSTEM>
0

>  <SCORE.SYSTEM.CONST>
0

>  <SCORE.SYSTEM.DIHEDRAL>
0

>  <SCORE.SYSTEM.SOLV>
0

>  <SCORE.SYSTEM.norm>
0

>  <SCORE.heavy>
31

>  <SCORE.norm>
-1.7875

>  <SYMMETRIC_BONDS>
33 34 3

>  <RMSD>
1.884

$$$$
1fmn_cryst
 OpenBabel11021811393D
libRbt.so/2013.1/901 2013/11/27
 31 33  0  0  0  0  0  0  0  0999 V2000
   -8.7635   -6.1459    3.6729 N   0  0  0  0  0  0  0  0  0  0  0  0
   -9.5638   -6.2134    4.7894 C   0  0  0  0  0  0  0  0  0  0  0  0
   -9.1863   -6.7499    5.8316 O   0  0  0  0  0  0  0  0  0  0  0  0
  -10.8501   -5.6315    4.6623 N   0  0  0  0  0  0  0  0  0  0  0  0
  -11.3814   -5.0000    3.5163 C   0  0  0  0  0  0  0  0  0  0  0  0
  -12.5260   -4.5303    3.5434 O   0  0  0  0  0  0  0  0  0  0  0  0
  -10.4687   -4.9701    2.3712 C   0  0  0  0  0  0  0  0  0  0  0  0
  -10.9103   -4.3727    1.2169 N   0  0  0  0  0  0  0  0  0  0  0  0
  -10.1339   -4.5047    0.1023 C   0  0  0  0  0  0  0  0  0  0  0  0
  -10.6546   -4.0685   -1.1031 C   0  0  0  0  0  0  0  0  0  0  0  0
   -9.9410   -4.1676   -2.2487 C   0  0  0  0  0  0  0  0  0  0  0  0
  -10.5487   -3.6783   -3.5245 C   0  0  0  0  0  0  0  0  0  0  0  0
   -8.6904   -4.7033   -2.2354 C   0  0  0  0  0  0  0  0  0  0  0  0
   -7.9123   -4.8151   -3.5059 C   0  0  0  0  0  0  0  0  0  0  0  0
   -8.1384   -5.1437   -1.0760 C   0  0  0  0  0  0  0  0  0  0  0  0
   -8.8314   -5.0640    0.1319 C   0  0  0  0  0  0  0  0  0  0  0  0
   -8.3165   -5.4990    1.3711 N   0  0  0  0  0  0  0  0  0  0  0  0
   -9.1573   -5.5605    2.5013 C   0  0  0  0  0  0  0  0  0  0  0  0
   -6.8357   -5.3419    1.6178 C   0  0  0  0  0  0  0  0  0  0  0  0
   -5.9741   -6.6360    1.5031 C   0  0  1  0  0  0  0  0  0  0  0  0
   -6.7287   -7.6739    0.8939 O   0  0  0  0  0  0  0  0  0  0  0  0
   -4.6196   -6.4062    0.7915 C   0  0  1  0  0  0  0  0  0  0  0  0
   -3.9057   -5.3456    1.4200 O   0  0  0  0  0  0  0  0  0  0  0  0
   -3.6963   -7.6384    0.6270 C   0  0  1  0  0  0  0  0  0  0  0  0
   -2.7067   -7.3313   -0.3488 O   0  0  0  0  0  0  0  0  0  0  0  0
   -2.9906   -8.0422    1.9410 C   0  0  0  0  0  0  0  0  0  0  0  0
   -3.9094   -8.4454    2.9496 O   0  0  0  0  0  0  0  0  0  0  0  0
   -3.4541   -8.8352    4.4166 P   0  0  0  0  0  0  0  0  0  0  0  0
   -2.6630   -7.7453    5.0317 O   0  0  0  0  0  0  0  0  0  0  0  0
   -4.5853   -9.4061    5.1791 O   0  5  0  0  0  0  0  0  0  0  0  0
   -2.4261  -10.0292    4.1879 O   0  5  0  0  0  0  0  0  0  0  0  0
  1 18  1  0  0  0  0
  1  2  1  0  0  0  0
  2  4  1  0  0  0  0
  2  3  2  0  0  0  0
  4  5  1  0  0  0  0
  5  7  1  0  0  0  0
  5  6  2  0  0  0  0
  7 18  2  0  0  0  0
  7  8  1  0  0  0  0
  8  9  1  0  0  0  0
  9 10  2  0  0  0  0
  9 16  1  0  0  0  0
 10 11  1  0  0  0  0
 11 12  1  0  0  0  0
 11 13  2  0  0  0  0
 13 14  1  0  0  0  0
 13 15  1  0  0  0  0
 15 16  2  0  0  0  0
 16 17  1  0  0  0  0
 17 19  1  0  0  0  0
 17 18  1  0  0  0  0
 20 19  1  6  0  0  0
 20 22  1  0  0  0  0
 20 21  1  0  0  0  0
 22 24  1  0  0  0  0
 22 23  1  1  0  0  0
 24 26  1  1  0  0  0
 24 25  1  0  0  0  0
 26 27  1  0  0  0  0
 27 28  1  0  0  0  0
 28 30  1  0  0  0  0
 28 29  2  0  0  0  0
 28 31  1  0  0  0  0
M  CHG  2  30  -1  31  -1
M  END
>  <CHROM.1>
-103.49688331,12.85961298,53.72506724,70.55614084,163.95883877,-132.92820336
63.19162693,-61.46017635,-176.65321237,54.87613720,-7.14185007,-6.30200931
1.79669026,2.61712890,0.37468398,-1.27316571

>  <Name>
1fmn_cryst

>  <RI>
0

>  <Rbt.Current_Directory>
/home/itssahil/PROJECTS/Mol_Feturizer/New_Systems/rnas/1fmn

>  <Rbt.Executable>
rbdock ($Id: //depot/dev/client3/rdock/2013.1/src/exe/rbdock.cxx#4 $)

>  <Rbt.Library>
libRbt.so (2013.1, Build901 2013/11/27)

>  <Rbt.Parameter_File>
/export/apps/rDock/src/rDock_2013.1_src/data/scripts/dock_solv.prm

>  <Rbt.Receptor>
prm/pocket_docking_3.prm

>  <SCORE>
-59.0905

>  <SCORE.INTER>
-56.7693

>  <SCORE.INTER.CONST>
1

>  <SCORE.INTER.POLAR>
-4.06302

>  <SCORE.INTER.ROT>
7

>  <SCORE.INTER.SOLV>
19.2536

>  <SCORE.INTER.VDW>
-38.9873

>  <SCORE.INTER.norm>
-1.83127

>  <SCORE.INTRA>
-2.51454

>  <SCORE.INTRA.DIHEDRAL>
-0.665999

>  <SCORE.INTRA.DIHEDRAL.0>
15.5708

>  <SCORE.INTRA.POLAR>
0.0677885

>  <SCORE.INTRA.POLAR.0>
-0.0677885

>  <SCORE.INTRA.REPUL>
0

>  <SCORE.INTRA.REPUL.0>
0

>  <SCORE.INTRA.SOLV>
-4.46845

>  <SCORE.INTRA.SOLV.lig_0>
-87.6316

>  <SCORE.INTRA.VDW>
-0.177795

>  <SCORE.INTRA.VDW.0>
-2.87309

>  <SCORE.INTRA.norm>
-0.0811141

>  <SCORE.RESTR>
0.193328

>  <SCORE.RESTR.CAVITY>
0.193328

>  <SCORE.RESTR.norm>
0.00623637

>  <SCORE.SYSTEM>
0

>  <SCORE.SYSTEM.CONST>
0

>  <SCORE.SYSTEM.DIHEDRAL>
0

>  <SCORE.SYSTEM.SOLV>
0

>  <SCORE.SYSTEM.norm>
0

>  <SCORE.heavy>
31

>  <SCORE.norm>
-1.90614

>  <SYMMETRIC_BONDS>
33 34 3

>  <RMSD>
1.894

$$$$
1fmn_cryst
 OpenBabel11021811393D
libRbt.so/2013.1/901 2013/11/27
 31 33  0  0  0  0  0  0  0  0999 V2000
   -9.0438   -6.7186    3.5075 N   0  0  0  0  0  0  0  0  0  0  0  0
   -9.8305   -6.5840    4.6276 C   0  0  0  0  0  0  0  0  0  0  0  0
   -9.6579   -7.2736    5.6331 O   0  0  0  0  0  0  0  0  0  0  0  0
  -10.8537   -5.6061    4.5488 N   0  0  0  0  0  0  0  0  0  0  0  0
  -11.1398   -4.7706    3.4469 C   0  0  0  0  0  0  0  0  0  0  0  0
  -12.0670   -3.9539    3.5140 O   0  0  0  0  0  0  0  0  0  0  0  0
  -10.2590   -4.9757    2.2948 C   0  0  0  0  0  0  0  0  0  0  0  0
  -10.4713   -4.2012    1.1815 N   0  0  0  0  0  0  0  0  0  0  0  0
   -9.7727   -4.5161    0.0522 C   0  0  0  0  0  0  0  0  0  0  0  0
  -10.1123   -3.8648   -1.1203 C   0  0  0  0  0  0  0  0  0  0  0  0
   -9.4619   -4.1262   -2.2779 C   0  0  0  0  0  0  0  0  0  0  0  0
   -9.8658   -3.3922   -3.5166 C   0  0  0  0  0  0  0  0  0  0  0  0
   -8.4565   -5.0423   -2.3097 C   0  0  0  0  0  0  0  0  0  0  0  0
   -7.7484   -5.3298   -3.5935 C   0  0  0  0  0  0  0  0  0  0  0  0
   -8.0884   -5.7053   -1.1838 C   0  0  0  0  0  0  0  0  0  0  0  0
   -8.7260   -5.4724    0.0347 C   0  0  0  0  0  0  0  0  0  0  0  0
   -8.3919   -6.1227    1.2411 N   0  0  0  0  0  0  0  0  0  0  0  0
   -9.2149   -5.9700    2.3757 C   0  0  0  0  0  0  0  0  0  0  0  0
   -6.9434   -6.4744    1.4791 C   0  0  0  0  0  0  0  0  0  0  0  0
   -6.0716   -5.3842    2.1730 C   0  0  1  0  0  0  0  0  0  0  0  0
   -6.7930   -4.7879    3.2417 O   0  0  0  0  0  0  0  0  0  0  0  0
   -4.6871   -5.9065    2.6250 C   0  0  1  0  0  0  0  0  0  0  0  0
   -3.7319   -4.8497    2.6094 O   0  0  0  0  0  0  0  0  0  0  0  0
   -4.6275   -6.6509    3.9816 C   0  0  1  0  0  0  0  0  0  0  0  0
   -5.1322   -5.7847    4.9920 O   0  0  0  0  0  0  0  0  0  0  0  0
   -5.4526   -7.9573    3.9888 C   0  0  0  0  0  0  0  0  0  0  0  0
   -4.6979   -9.0791    3.5458 O   0  0  0  0  0  0  0  0  0  0  0  0
   -3.3760   -9.5632    4.2734 P   0  0  0  0  0  0  0  0  0  0  0  0
   -2.1794   -8.9349    3.6688 O   0  0  0  0  0  0  0  0  0  0  0  0
   -3.5391   -9.5075    5.7422 O   0  5  0  0  0  0  0  0  0  0  0  0
   -3.2814  -11.1071    3.8961 O   0  5  0  0  0  0  0  0  0  0  0  0
  1 18  1  0  0  0  0
  1  2  1  0  0  0  0
  2  4  1  0  0  0  0
  2  3  2  0  0  0  0
  4  5  1  0  0  0  0
  5  7  1  0  0  0  0
  5  6  2  0  0  0  0
  7 18  2  0  0  0  0
  7  8  1  0  0  0  0
  8  9  1  0  0  0  0
  9 10  2  0  0  0  0
  9 16  1  0  0  0  0
 10 11  1  0  0  0  0
 11 12  1  0  0  0  0
 11 13  2  0  0  0  0
 13 14  1  0  0  0  0
 13 15  1  0  0  0  0
 15 16  2  0  0  0  0
 16 17  1  0  0  0  0
 17 19  1  0  0  0  0
 17 18  1  0  0  0  0
 20 19  1  1  0  0  0
 20 22  1  0  0  0  0
 20 21  1  0  0  0  0
 22 24  1  0  0  0  0
 22 23  1  1  0  0  0
 24 26  1  6  0  0  0
 24 25  1  0  0  0  0
 26 27  1  0  0  0  0
 27 28  1  0  0  0  0
 28 30  1  0  0  0  0
 28 29  2  0  0  0  0
 28 31  1  0  0  0  0
M  CHG  2  30  -1  31  -1
M  END
>  <CHROM.1>
88.72610339,42.58304189,150.76622270,163.26782092,-57.20959525,-173.63164363
88.50167832,-65.67303786,59.77604586,-92.06170542,-7.25036090,-6.30796680
2.28712953,2.44446308,0.42458156,-1.27513954

>  <Name>
1fmn_cryst

>  <RI>
0

>  <Rbt.Current_Directory>
/home/itssahil/PROJECTS/Mol_Feturizer/New_Systems/rnas/1fmn

>  <Rbt.Executable>
rbdock ($Id: //depot/dev/client3/rdock/2013.1/src/exe/rbdock.cxx#4 $)

>  <Rbt.Library>
libRbt.so (2013.1, Build901 2013/11/27)

>  <Rbt.Parameter_File>
/export/apps/rDock/src/rDock_2013.1_src/data/scripts/dock_solv.prm

>  <Rbt.Receptor>
prm/pocket_docking_3.prm

>  <SCORE>
-49.7288

>  <SCORE.INTER>
-46.3056

>  <SCORE.INTER.CONST>
1

>  <SCORE.INTER.POLAR>
-3.24391

>  <SCORE.INTER.ROT>
7

>  <SCORE.INTER.SOLV>
18.1707

>  <SCORE.INTER.VDW>
-34.381

>  <SCORE.INTER.norm>
-1.49373

>  <SCORE.INTRA>
-3.641

>  <SCORE.INTRA.DIHEDRAL>
-5.6506

>  <SCORE.INTRA.DIHEDRAL.0>
15.5708

>  <SCORE.INTRA.POLAR>
0.0121347

>  <SCORE.INTRA.POLAR.0>
-0.0677885

>  <SCORE.INTRA.REPUL>
0

>  <SCORE.INTRA.REPUL.0>
0

>  <SCORE.INTRA.SOLV>
-0.74782

>  <SCORE.INTRA.SOLV.lig_0>
-87.6316

>  <SCORE.INTRA.VDW>
-0.483046

>  <SCORE.INTRA.VDW.0>
-2.87309

>  <SCORE.INTRA.norm>
-0.117452

>  <SCORE.RESTR>
0.217832

>  <SCORE.RESTR.CAVITY>
0.217832

>  <SCORE.RESTR.norm>
0.00702684

>  <SCORE.SYSTEM>
0

>  <SCORE.SYSTEM.CONST>
0

>  <SCORE.SYSTEM.DIHEDRAL>
0

>  <SCORE.SYSTEM.SOLV>
0

>  <SCORE.SYSTEM.norm>
0

>  <SCORE.heavy>
31

>  <SCORE.norm>
-1.60416

>  <SYMMETRIC_BONDS>
33 34 3

>  <RMSD>
1.905

$$$$
1fmn_cryst
 OpenBabel11021811393D
libRbt.so/2013.1/901 2013/11/27
 31 33  0  0  0  0  0  0  0  0999 V2000
   -8.4750   -6.1569    3.5143 N   0  0  0  0  0  0  0  0  0  0  0  0
   -9.3036   -6.2030    4.6111 C   0  0  0  0  0  0  0  0  0  0  0  0
   -8.9491   -6.7093    5.6762 O   0  0  0  0  0  0  0  0  0  0  0  0
  -10.5910   -5.6360    4.4358 N   0  0  0  0  0  0  0  0  0  0  0  0
  -11.0974   -5.0388    3.2606 C   0  0  0  0  0  0  0  0  0  0  0  0
  -12.2461   -4.5788    3.2459 O   0  0  0  0  0  0  0  0  0  0  0  0
  -10.1554   -5.0299    2.1391 C   0  0  0  0  0  0  0  0  0  0  0  0
  -10.5715   -4.4661    0.9588 N   0  0  0  0  0  0  0  0  0  0  0  0
   -9.7652   -4.6196   -0.1316 C   0  0  0  0  0  0  0  0  0  0  0  0
  -10.2579   -4.2190   -1.3609 C   0  0  0  0  0  0  0  0  0  0  0  0
   -9.5138   -4.3408   -2.4847 C   0  0  0  0  0  0  0  0  0  0  0  0
  -10.0921   -3.8897   -3.7880 C   0  0  0  0  0  0  0  0  0  0  0  0
   -8.2596   -4.8649   -2.4253 C   0  0  0  0  0  0  0  0  0  0  0  0
   -7.4477   -5.0021   -3.6719 C   0  0  0  0  0  0  0  0  0  0  0  0
   -7.7345   -5.2706   -1.2411 C   0  0  0  0  0  0  0  0  0  0  0  0
   -8.4593   -5.1664   -0.0540 C   0  0  0  0  0  0  0  0  0  0  0  0
   -7.9735   -5.5649    1.2090 N   0  0  0  0  0  0  0  0  0  0  0  0
   -8.8430   -5.6051    2.3182 C   0  0  0  0  0  0  0  0  0  0  0  0
   -6.5010   -5.3884    1.4898 C   0  0  0  0  0  0  0  0  0  0  0  0
   -5.6771   -6.6936    1.7092 C   0  0  1  0  0  0  0  0  0  0  0  0
   -6.5262   -7.7376    2.1642 O   0  0  0  0  0  0  0  0  0  0  0  0
   -4.8543   -7.1117    0.4673 C   0  0  1  0  0  0  0  0  0  0  0  0
   -5.1165   -6.2278   -0.6188 O   0  0  0  0  0  0  0  0  0  0  0  0
   -3.3262   -7.2712    0.6602 C   0  0  1  0  0  0  0  0  0  0  0  0
   -2.6700   -6.7218   -0.4771 O   0  0  0  0  0  0  0  0  0  0  0  0
   -2.8015   -6.5611    1.9284 C   0  0  0  0  0  0  0  0  0  0  0  0
   -3.1946   -7.2240    3.1243 O   0  0  0  0  0  0  0  0  0  0  0  0
   -2.6940   -6.7718    4.5582 P   0  0  0  0  0  0  0  0  0  0  0  0
   -1.2621   -7.0984    4.7455 O   0  0  0  0  0  0  0  0  0  0  0  0
   -3.1526   -5.3990    4.8615 O   0  5  0  0  0  0  0  0  0  0  0  0
   -3.4824   -7.7326    5.5533 O   0  5  0  0  0  0  0  0  0  0  0  0
  1 18  1  0  0  0  0
  1  2  1  0  0  0  0
  2  4  1  0  0  0  0
  2  3  2  0  0  0  0
  4  5  1  0  0  0  0
  5  7  1  0  0  0  0
  5  6  2  0  0  0  0
  7 18  2  0  0  0  0
  7  8  1  0  0  0  0
  8  9  1  0  0  0  0
  9 10  2  0  0  0  0
  9 16  1  0  0  0  0
 10 11  1  0  0  0  0
 11 12  1  0  0  0  0
 11 13  2  0  0  0  0
 13 14  1  0  0  0  0
 13 15  1  0  0  0  0
 15 16  2  0  0  0  0
 16 17  1  0  0  0  0
 17 19  1  0  0  0  0
 17 18  1  0  0  0  0
 20 19  1  6  0  0  0
 20 22  1  0  0  0  0
 20 21  1  0  0  0  0
 22 24  1  0  0  0  0
 22 23  1  6  0  0  0
 24 26  1  1  0  0  0
 24 25  1  0  0  0  0
 26 27  1  0  0  0  0
 27 28  1  0  0  0  0
 28 30  1  0  0  0  0
 28 29  2  0  0  0  0
 28 31  1  0  0  0  0
M  CHG  2  30  -1  31  -1
M  END
>  <CHROM.1>
-115.14180444,-25.01431388,-3.43005176,69.22415573,-139.07502523,-155.91969067
71.57694169,-64.01282679,174.94971091,-71.37007727,-6.82769603,-5.90501905
1.68634218,2.60965808,0.22533160,-1.41787279

>  <Name>
1fmn_cryst

>  <RI>
0

>  <Rbt.Current_Directory>
/home/itssahil/PROJECTS/Mol_Feturizer/New_Systems/rnas/1fmn

>  <Rbt.Executable>
rbdock ($Id: //depot/dev/client3/rdock/2013.1/src/exe/rbdock.cxx#4 $)

>  <Rbt.Library>
libRbt.so (2013.1, Build901 2013/11/27)

>  <Rbt.Parameter_File>
/export/apps/rDock/src/rDock_2013.1_src/data/scripts/dock_solv.prm

>  <Rbt.Receptor>
prm/pocket_docking_4.prm

>  <SCORE>
-60.9975

>  <SCORE.INTER>
-61.7531

>  <SCORE.INTER.CONST>
1

>  <SCORE.INTER.POLAR>
-4.82826

>  <SCORE.INTER.ROT>
7

>  <SCORE.INTER.SOLV>
17.9786

>  <SCORE.INTER.VDW>
-39.334

>  <SCORE.INTER.norm>
-1.99203

>  <SCORE.INTRA>
0.755518

>  <SCORE.INTRA.DIHEDRAL>
2.61432

>  <SCORE.INTRA.DIHEDRAL.0>
15.5708

>  <SCORE.INTRA.POLAR>
-0.318178

>  <SCORE.INTRA.POLAR.0>
-0.0677885

>  <SCORE.INTRA.REPUL>
0

>  <SCORE.INTRA.REPUL.0>
0

>  <SCORE.INTRA.SOLV>
-2.67764

>  <SCORE.INTRA.SOLV.lig_0>
-87.6316

>  <SCORE.INTRA.VDW>
1.86898

>  <SCORE.INTRA.VDW.0>
-2.87309

>  <SCORE.INTRA.norm>
0.0243716

>  <SCORE.RESTR>
0

>  <SCORE.RESTR.CAVITY>
0

>  <SCORE.RESTR.norm>
0

>  <SCORE.SYSTEM>
0

>  <SCORE.SYSTEM.CONST>
0

>  <SCORE.SYSTEM.DIHEDRAL>
0

>  <SCORE.SYSTEM.SOLV>
0

>  <SCORE.SYSTEM.norm>
0

>  <SCORE.heavy>
31

>  <SCORE.norm>
-1.96766

>  <SYMMETRIC_BONDS>
33 34 3

>  <RMSD>
1.905

$$$$
1fmn_cryst
 OpenBabel11021811393D
libRbt.so/2013.1/901 2013/11/27
 31 33  0  0  0  0  0  0  0  0999 V2000
   -8.8400   -6.1873    3.6179 N   0  0  0  0  0  0  0  0  0  0  0  0
   -9.6043   -6.2348    4.7603 C   0  0  0  0  0  0  0  0  0  0  0  0
   -9.2160   -6.8018    5.7823 O   0  0  0  0  0  0  0  0  0  0  0  0
  -10.8670   -5.5950    4.6848 N   0  0  0  0  0  0  0  0  0  0  0  0
  -11.4081   -4.9250    3.5656 C   0  0  0  0  0  0  0  0  0  0  0  0
  -12.5290   -4.4057    3.6378 O   0  0  0  0  0  0  0  0  0  0  0  0
  -10.5342   -4.9195    2.3902 C   0  0  0  0  0  0  0  0  0  0  0  0
  -10.9875   -4.2874    1.2592 N   0  0  0  0  0  0  0  0  0  0  0  0
  -10.2560   -4.4381    0.1170 C   0  0  0  0  0  0  0  0  0  0  0  0
  -10.7972   -3.9628   -1.0643 C   0  0  0  0  0  0  0  0  0  0  0  0
  -10.1279   -4.0774   -2.2349 C   0  0  0  0  0  0  0  0  0  0  0  0
  -10.7561   -3.5443   -3.4829 C   0  0  0  0  0  0  0  0  0  0  0  0
   -8.9027   -4.6679   -2.2713 C   0  0  0  0  0  0  0  0  0  0  0  0
   -8.1738   -4.7964   -3.5691 C   0  0  0  0  0  0  0  0  0  0  0  0
   -8.3320   -5.1482   -1.1371 C   0  0  0  0  0  0  0  0  0  0  0  0
   -8.9794   -5.0547    0.0948 C   0  0  0  0  0  0  0  0  0  0  0  0
   -8.4428   -5.5290    1.3102 N   0  0  0  0  0  0  0  0  0  0  0  0
   -9.2468   -5.5690    2.4678 C   0  0  0  0  0  0  0  0  0  0  0  0
   -6.9490   -5.4409    1.5077 C   0  0  0  0  0  0  0  0  0  0  0  0
   -6.0877   -6.4985    0.7529 C   0  0  1  0  0  0  0  0  0  0  0  0
   -5.8930   -6.0985   -0.5962 O   0  0  0  0  0  0  0  0  0  0  0  0
   -4.7511   -6.8172    1.4644 C   0  0  1  0  0  0  0  0  0  0  0  0
   -4.0692   -7.8679    0.7858 O   0  0  0  0  0  0  0  0  0  0  0  0
   -3.7852   -5.6311    1.7054 C   0  0  1  0  0  0  0  0  0  0  0  0
   -4.3404   -4.7980    2.7171 O   0  0  0  0  0  0  0  0  0  0  0  0
   -2.3760   -6.0825    2.1506 C   0  0  0  0  0  0  0  0  0  0  0  0
   -1.7179   -5.1035    2.9460 O   0  0  0  0  0  0  0  0  0  0  0  0
   -1.6910   -5.1634    4.5293 P   0  0  0  0  0  0  0  0  0  0  0  0
   -3.0647   -5.2036    5.0802 O   0  0  0  0  0  0  0  0  0  0  0  0
   -0.7112   -6.1678    4.9964 O   0  5  0  0  0  0  0  0  0  0  0  0
   -1.1059   -3.7439    4.9507 O   0  5  0  0  0  0  0  0  0  0  0  0
  1 18  1  0  0  0  0
  1  2  1  0  0  0  0
  2  4  1  0  0  0  0
  2  3  2  0  0  0  0
  4  5  1  0  0  0  0
  5  7  1  0  0  0  0
  5  6  2  0  0  0  0
  7 18  2  0  0  0  0
  7  8  1  0  0  0  0
  8  9  1  0  0  0  0
  9 10  2  0  0  0  0
  9 16  1  0  0  0  0
 10 11  1  0  0  0  0
 11 12  1  0  0  0  0
 11 13  2  0  0  0  0
 13 14  1  0  0  0  0
 13 15  1  0  0  0  0
 15 16  2  0  0  0  0
 16 17  1  0  0  0  0
 17 19  1  0  0  0  0
 17 18  1  0  0  0  0
 20 19  1  1  0  0  0
 20 22  1  0  0  0  0
 20 21  1  0  0  0  0
 22 24  1  0  0  0  0
 22 23  1  6  0  0  0
 24 26  1  1  0  0  0
 24 25  1  0  0  0  0
 26 27  1  0  0  0  0
 27 28  1  0  0  0  0
 28 30  1  0  0  0  0
 28 29  2  0  0  0  0
 28 31  1  0  0  0  0
M  CHG  2  30  -1  31  -1
M  END
>  <CHROM.1>
-76.30907502,81.45145297,175.09083845,57.95261124,71.13904777,-165.96003106
-152.32649660,70.11789769,97.97963591,-56.58288483,-6.86324596,-5.32884443
1.89918132,2.72724792,0.05737382,-1.48093267

>  <Name>
1fmn_cryst

>  <RI>
0

>  <Rbt.Current_Directory>
/home/itssahil/PROJECTS/Mol_Feturizer/New_Systems/rnas/1fmn

>  <Rbt.Executable>
rbdock ($Id: //depot/dev/client3/rdock/2013.1/src/exe/rbdock.cxx#4 $)

>  <Rbt.Library>
libRbt.so (2013.1, Build901 2013/11/27)

>  <Rbt.Parameter_File>
/export/apps/rDock/src/rDock_2013.1_src/data/scripts/dock_solv.prm

>  <Rbt.Receptor>
prm/pocket_docking_5.prm

>  <SCORE>
-48.7155

>  <SCORE.INTER>
-47.1612

>  <SCORE.INTER.CONST>
1

>  <SCORE.INTER.POLAR>
-2.14204

>  <SCORE.INTER.ROT>
7

>  <SCORE.INTER.SOLV>
16.3731

>  <SCORE.INTER.VDW>
-38.025

>  <SCORE.INTER.norm>
-1.52133

>  <SCORE.INTRA>
-1.55428

>  <SCORE.INTRA.DIHEDRAL>
-2.48443

>  <SCORE.INTRA.DIHEDRAL.0>
15.5708

>  <SCORE.INTRA.POLAR>
-0.555078

>  <SCORE.INTRA.POLAR.0>
-0.0677885

>  <SCORE.INTRA.REPUL>
0

>  <SCORE.INTRA.REPUL.0>
0

>  <SCORE.INTRA.SOLV>
-0.776445

>  <SCORE.INTRA.SOLV.lig_0>
-87.6316

>  <SCORE.INTRA.VDW>
1.96342

>  <SCORE.INTRA.VDW.0>
-2.87309

>  <SCORE.INTRA.norm>
-0.0501382

>  <SCORE.RESTR>
0

>  <SCORE.RESTR.CAVITY>
0

>  <SCORE.RESTR.norm>
0

>  <SCORE.SYSTEM>
0

>  <SCORE.SYSTEM.CONST>
0

>  <SCORE.SYSTEM.DIHEDRAL>
0

>  <SCORE.SYSTEM.SOLV>
0

>  <SCORE.SYSTEM.norm>
0

>  <SCORE.heavy>
31

>  <SCORE.norm>
-1.57147

>  <SYMMETRIC_BONDS>
33 34 3

>  <RMSD>
1.912

$$$$
1fmn_cryst
 OpenBabel11021811393D
libRbt.so/2013.1/901 2013/11/27
 31 33  0  0  0  0  0  0  0  0999 V2000
   -8.4994   -6.0837    3.5128 N   0  0  0  0  0  0  0  0  0  0  0  0
   -9.3120   -6.2091    4.6153 C   0  0  0  0  0  0  0  0  0  0  0  0
   -8.9037   -6.6810    5.6769 O   0  0  0  0  0  0  0  0  0  0  0  0
  -10.6484   -5.7660    4.4501 N   0  0  0  0  0  0  0  0  0  0  0  0
  -11.2173   -5.2179    3.2796 C   0  0  0  0  0  0  0  0  0  0  0  0
  -12.4044   -4.8683    3.2739 O   0  0  0  0  0  0  0  0  0  0  0  0
  -10.2885   -5.1187    2.1516 C   0  0  0  0  0  0  0  0  0  0  0  0
  -10.7644   -4.5954    0.9752 N   0  0  0  0  0  0  0  0  0  0  0  0
   -9.9551   -4.6707   -0.1211 C   0  0  0  0  0  0  0  0  0  0  0  0
  -10.4922   -4.3169   -1.3462 C   0  0  0  0  0  0  0  0  0  0  0  0
   -9.7480   -4.3667   -2.4754 C   0  0  0  0  0  0  0  0  0  0  0  0
  -10.3756   -3.9706   -3.7737 C   0  0  0  0  0  0  0  0  0  0  0  0
   -8.4496   -4.7700   -2.4257 C   0  0  0  0  0  0  0  0  0  0  0  0
   -7.6373   -4.8285   -3.6783 C   0  0  0  0  0  0  0  0  0  0  0  0
   -7.8800   -5.1258   -1.2460 C   0  0  0  0  0  0  0  0  0  0  0  0
   -8.6029   -5.0918   -0.0536 C   0  0  0  0  0  0  0  0  0  0  0  0
   -8.0726   -5.4443    1.2051 N   0  0  0  0  0  0  0  0  0  0  0  0
   -8.9264   -5.5677    2.3204 C   0  0  0  0  0  0  0  0  0  0  0  0
   -6.6213   -5.1298    1.4759 C   0  0  0  0  0  0  0  0  0  0  0  0
   -5.6532   -6.3489    1.5598 C   0  0  1  0  0  0  0  0  0  0  0  0
   -5.4889   -6.9325    0.2751 O   0  0  0  0  0  0  0  0  0  0  0  0
   -4.2971   -6.0067    2.2216 C   0  0  1  0  0  0  0  0  0  0  0  0
   -3.7308   -4.8482    1.6160 O   0  0  0  0  0  0  0  0  0  0  0  0
   -4.2880   -5.8539    3.7625 C   0  0  1  0  0  0  0  0  0  0  0  0
   -5.6225   -5.6200    4.1987 O   0  0  0  0  0  0  0  0  0  0  0  0
   -3.7390   -7.1025    4.4887 C   0  0  0  0  0  0  0  0  0  0  0  0
   -4.4658   -7.4055    5.6735 O   0  0  0  0  0  0  0  0  0  0  0  0
   -5.6102   -8.5008    5.7197 P   0  0  0  0  0  0  0  0  0  0  0  0
   -5.0846   -9.8309    5.3367 O   0  0  0  0  0  0  0  0  0  0  0  0
   -6.3952   -8.3822    6.9673 O   0  5  0  0  0  0  0  0  0  0  0  0
   -6.5884   -8.0744    4.5381 O   0  5  0  0  0  0  0  0  0  0  0  0
  1 18  1  0  0  0  0
  1  2  1  0  0  0  0
  2  4  1  0  0  0  0
  2  3  2  0  0  0  0
  4  5  1  0  0  0  0
  5  7  1  0  0  0  0
  5  6  2  0  0  0  0
  7 18  2  0  0  0  0
  7  8  1  0  0  0  0
  8  9  1  0  0  0  0
  9 10  2  0  0  0  0
  9 16  1  0  0  0  0
 10 11  1  0  0  0  0
 11 12  1  0  0  0  0
 11 13  2  0  0  0  0
 13 14  1  0  0  0  0
 13 15  1  0  0  0  0
 15 16  2  0  0  0  0
 16 17  1  0  0  0  0
 17 19  1  0  0  0  0
 17 18  1  0  0  0  0
 20 19  1  6  0  0  0
 20 22  1  0  0  0  0
 20 21  1  0  0  0  0
 22 24  1  0  0  0  0
 22 23  1  6  0  0  0
 24 26  1  1  0  0  0
 24 25  1  0  0  0  0
 26 27  1  0  0  0  0
 27 28  1  0  0  0  0
 28 30  1  0  0  0  0
 28 29  2  0  0  0  0
 28 31  1  0  0  0  0
M  CHG  2  30  -1  31  -1
M  END
>  <CHROM.1>
-109.83378133,69.87012459,-50.48608854,-62.07840752,-19.57887474,-51.02221852
-140.40637978,-61.92394258,98.07005683,59.54296229,-7.56256351,-6.05306937
2.31863147,1.05115701,-0.20775174,1.89709084

>  <Name>
1fmn_cryst

>  <RI>
0

>  <Rbt.Current_Directory>
/home/itssahil/PROJECTS/Mol_Feturizer/New_Systems/rnas/1fmn

>  <Rbt.Executable>
rbdock ($Id: //depot/dev/client3/rdock/2013.1/src/exe/rbdock.cxx#4 $)

>  <Rbt.Library>
libRbt.so (2013.1, Build901 2013/11/27)

>  <Rbt.Parameter_File>
/export/apps/rDock/src/rDock_2013.1_src/data/scripts/dock_solv.prm

>  <Rbt.Receptor>
prm/pocket_docking_7.prm

>  <SCORE>
-55.1191

>  <SCORE.INTER>
-52.3091

>  <SCORE.INTER.CONST>
1

>  <SCORE.INTER.POLAR>
-3.76917

>  <SCORE.INTER.ROT>
7

>  <SCORE.INTER.SOLV>
23.3127

>  <SCORE.INTER.VDW>
-38.3464

>  <SCORE.INTER.norm>
-1.68739

>  <SCORE.INTRA>
-2.80999

>  <SCORE.INTRA.DIHEDRAL>
1.1605

>  <SCORE.INTRA.DIHEDRAL.0>
15.5708

>  <SCORE.INTRA.POLAR>
-1.64969

>  <SCORE.INTRA.POLAR.0>
-0.0677885

>  <SCORE.INTRA.REPUL>
0

>  <SCORE.INTRA.REPUL.0>
0

>  <SCORE.INTRA.SOLV>
5.47721

>  <SCORE.INTRA.SOLV.lig_0>
-87.6316

>  <SCORE.INTRA.VDW>
-0.519903

>  <SCORE.INTRA.VDW.0>
-2.87309

>  <SCORE.INTRA.norm>
-0.0906449

>  <SCORE.RESTR>
0

>  <SCORE.RESTR.CAVITY>
0

>  <SCORE.RESTR.norm>
0

>  <SCORE.SYSTEM>
0

>  <SCORE.SYSTEM.CONST>
0

>  <SCORE.SYSTEM.DIHEDRAL>
0

>  <SCORE.SYSTEM.SOLV>
0

>  <SCORE.SYSTEM.norm>
0

>  <SCORE.heavy>
31

>  <SCORE.norm>
-1.77804

>  <SYMMETRIC_BONDS>
33 34 3

>  <RMSD>
1.918

$$$$
1fmn_cryst
 OpenBabel11021811393D
libRbt.so/2013.1/901 2013/11/27
 31 33  0  0  0  0  0  0  0  0999 V2000
   -8.9860   -6.2537    3.6348 N   0  0  0  0  0  0  0  0  0  0  0  0
   -9.6942   -6.2379    4.8136 C   0  0  0  0  0  0  0  0  0  0  0  0
   -9.3186   -6.8581    5.8091 O   0  0  0  0  0  0  0  0  0  0  0  0
  -10.8843   -5.4679    4.8080 N   0  0  0  0  0  0  0  0  0  0  0  0
  -11.4057   -4.7277    3.7242 C   0  0  0  0  0  0  0  0  0  0  0  0
  -12.4605   -4.0946    3.8578 O   0  0  0  0  0  0  0  0  0  0  0  0
  -10.5947   -4.7963    2.5065 C   0  0  0  0  0  0  0  0  0  0  0  0
  -11.0333   -4.1028    1.4060 N   0  0  0  0  0  0  0  0  0  0  0  0
  -10.3786   -4.3122    0.2271 C   0  0  0  0  0  0  0  0  0  0  0  0
  -10.9236   -3.7648   -0.9208 C   0  0  0  0  0  0  0  0  0  0  0  0
  -10.3282   -3.9313   -2.1246 C   0  0  0  0  0  0  0  0  0  0  0  0
  -10.9568   -3.3161   -3.3341 C   0  0  0  0  0  0  0  0  0  0  0  0
   -9.1756   -4.6467   -2.2284 C   0  0  0  0  0  0  0  0  0  0  0  0
   -8.5288   -4.8314   -3.5624 C   0  0  0  0  0  0  0  0  0  0  0  0
   -8.6041   -5.2016   -1.1291 C   0  0  0  0  0  0  0  0  0  0  0  0
   -9.1770   -5.0593    0.1346 C   0  0  0  0  0  0  0  0  0  0  0  0
   -8.6348   -5.6058    1.3167 N   0  0  0  0  0  0  0  0  0  0  0  0
   -9.3809   -5.5786    2.5128 C   0  0  0  0  0  0  0  0  0  0  0  0
   -7.1321   -5.6782    1.4398 C   0  0  0  0  0  0  0  0  0  0  0  0
   -6.4011   -6.6262    0.4412 C   0  0  1  0  0  0  0  0  0  0  0  0
   -5.8635   -5.8777   -0.6398 O   0  0  0  0  0  0  0  0  0  0  0  0
   -5.3345   -7.5199    1.1180 C   0  0  1  0  0  0  0  0  0  0  0  0
   -5.9036   -8.7719    1.4896 O   0  0  0  0  0  0  0  0  0  0  0  0
   -4.0165   -7.7505    0.3386 C   0  0  1  0  0  0  0  0  0  0  0  0
   -3.3663   -6.4951    0.1739 O   0  0  0  0  0  0  0  0  0  0  0  0
   -3.0521   -8.7193    1.0590 C   0  0  0  0  0  0  0  0  0  0  0  0
   -3.0016   -8.4922    2.4626 O   0  0  0  0  0  0  0  0  0  0  0  0
   -1.9936   -7.4667    3.1285 P   0  0  0  0  0  0  0  0  0  0  0  0
   -2.1996   -7.3983    4.5931 O   0  0  0  0  0  0  0  0  0  0  0  0
   -0.6224   -7.6758    2.6155 O   0  5  0  0  0  0  0  0  0  0  0  0
   -2.4665   -6.0540    2.5667 O   0  5  0  0  0  0  0  0  0  0  0  0
  1 18  1  0  0  0  0
  1  2  1  0  0  0  0
  2  4  1  0  0  0  0
  2  3  2  0  0  0  0
  4  5  1  0  0  0  0
  5  7  1  0  0  0  0
  5  6  2  0  0  0  0
  7 18  2  0  0  0  0
  7  8  1  0  0  0  0
  8  9  1  0  0  0  0
  9 10  2  0  0  0  0
  9 16  1  0  0  0  0
 10 11  1  0  0  0  0
 11 12  1  0  0  0  0
 11 13  2  0  0  0  0
 13 14  1  0  0  0  0
 13 15  1  0  0  0  0
 15 16  2  0  0  0  0
 16 17  1  0  0  0  0
 17 19  1  0  0  0  0
 17 18  1  0  0  0  0
 20 19  1  1  0  0  0
 20 22  1  0  0  0  0
 20 21  1  0  0  0  0
 22 24  1  0  0  0  0
 22 23  1  6  0  0  0
 24 26  1  1  0  0  0
 24 25  1  0  0  0  0
 26 27  1  0  0  0  0
 27 28  1  0  0  0  0
 28 30  1  0  0  0  0
 28 29  2  0  0  0  0
 28 31  1  0  0  0  0
M  CHG  2  30  -1  31  -1
M  END
>  <CHROM.1>
-65.40671865,99.34118059,92.88641848,-163.75350759,62.69591865,58.90792134
-41.32510462,56.41096333,-88.58388080,177.81059090,-7.10700431,-6.03660821
1.48051869,2.88924705,0.32569051,-1.37186900

>  <Name>
1fmn_cryst

>  <RI>
0

>  <Rbt.Current_Directory>
/home/itssahil/PROJECTS/Mol_Feturizer/New_Systems/rnas/1fmn

>  <Rbt.Executable>
rbdock ($Id: //depot/dev/client3/rdock/2013.1/src/exe/rbdock.cxx#4 $)

>  <Rbt.Library>
libRbt.so (2013.1, Build901 2013/11/27)

>  <Rbt.Parameter_File>
/export/apps/rDock/src/rDock_2013.1_src/data/scripts/dock_solv.prm

>  <Rbt.Receptor>
prm/pocket_docking_5.prm

>  <SCORE>
-64.8269

>  <SCORE.INTER>
-61.5505

>  <SCORE.INTER.CONST>
1

>  <SCORE.INTER.POLAR>
-4.52685

>  <SCORE.INTER.ROT>
7

>  <SCORE.INTER.SOLV>
18.6463

>  <SCORE.INTER.VDW>
-40.4263

>  <SCORE.INTER.norm>
-1.9855

>  <SCORE.INTRA>
-3.31624

>  <SCORE.INTRA.DIHEDRAL>
-1.30629

>  <SCORE.INTRA.DIHEDRAL.0>
15.5708

>  <SCORE.INTRA.POLAR>
-1.11476

>  <SCORE.INTRA.POLAR.0>
-0.0677885

>  <SCORE.INTRA.REPUL>
0

>  <SCORE.INTRA.REPUL.0>
0

>  <SCORE.INTRA.SOLV>
1.15803

>  <SCORE.INTRA.SOLV.lig_0>
-87.6316

>  <SCORE.INTRA.VDW>
0.548086

>  <SCORE.INTRA.VDW.0>
-2.87309

>  <SCORE.INTRA.norm>
-0.106976

>  <SCORE.RESTR>
0.0397674

>  <SCORE.RESTR.CAVITY>
0.0397674

>  <SCORE.RESTR.norm>
0.00128282

>  <SCORE.SYSTEM>
0

>  <SCORE.SYSTEM.CONST>
0

>  <SCORE.SYSTEM.DIHEDRAL>
0

>  <SCORE.SYSTEM.SOLV>
0

>  <SCORE.SYSTEM.norm>
0

>  <SCORE.heavy>
31

>  <SCORE.norm>
-2.09119

>  <SYMMETRIC_BONDS>
33 34 3

>  <RMSD>
1.929

$$$$
1fmn_cryst
 OpenBabel11021811393D
libRbt.so/2013.1/901 2013/11/27
 31 33  0  0  0  0  0  0  0  0999 V2000
   -8.9242   -6.1014    3.7004 N   0  0  0  0  0  0  0  0  0  0  0  0
   -9.8237   -6.0615    4.7401 C   0  0  0  0  0  0  0  0  0  0  0  0
   -9.5766   -6.5648    5.8365 O   0  0  0  0  0  0  0  0  0  0  0  0
  -11.0527   -5.4098    4.4678 N   0  0  0  0  0  0  0  0  0  0  0  0
  -11.4372   -4.8079    3.2495 C   0  0  0  0  0  0  0  0  0  0  0  0
  -12.5464   -4.2686    3.1488 O   0  0  0  0  0  0  0  0  0  0  0  0
  -10.4260   -4.8935    2.1934 C   0  0  0  0  0  0  0  0  0  0  0  0
  -10.7227   -4.3315    0.9767 N   0  0  0  0  0  0  0  0  0  0  0  0
   -9.8602   -4.5687   -0.0540 C   0  0  0  0  0  0  0  0  0  0  0  0
  -10.2417   -4.1652   -1.3214 C   0  0  0  0  0  0  0  0  0  0  0  0
   -9.4367   -4.3673   -2.3903 C   0  0  0  0  0  0  0  0  0  0  0  0
   -9.8948   -3.9093   -3.7381 C   0  0  0  0  0  0  0  0  0  0  0  0
   -8.2300   -4.9768   -2.2366 C   0  0  0  0  0  0  0  0  0  0  0  0
   -7.3506   -5.2021   -3.4232 C   0  0  0  0  0  0  0  0  0  0  0  0
   -7.8137   -5.3888   -1.0120 C   0  0  0  0  0  0  0  0  0  0  0  0
   -8.6049   -5.2040    0.1217 C   0  0  0  0  0  0  0  0  0  0  0  0
   -8.2323   -5.6041    1.4221 N   0  0  0  0  0  0  0  0  0  0  0  0
   -9.1728   -5.5551    2.4714 C   0  0  0  0  0  0  0  0  0  0  0  0
   -6.7723   -5.5249    1.7970 C   0  0  0  0  0  0  0  0  0  0  0  0
   -6.2023   -6.7224    2.6163 C   0  0  1  0  0  0  0  0  0  0  0  0
   -5.9910   -7.8405    1.7660 O   0  0  0  0  0  0  0  0  0  0  0  0
   -4.9352   -6.3592    3.4265 C   0  0  1  0  0  0  0  0  0  0  0  0
   -5.2061   -5.2706    4.3047 O   0  0  0  0  0  0  0  0  0  0  0  0
   -4.2490   -7.5075    4.2065 C   0  0  1  0  0  0  0  0  0  0  0  0
   -2.8407   -7.3086    4.1525 O   0  0  0  0  0  0  0  0  0  0  0  0
   -4.6854   -7.5750    5.6873 C   0  0  0  0  0  0  0  0  0  0  0  0
   -4.1716   -6.4931    6.4551 O   0  0  0  0  0  0  0  0  0  0  0  0
   -4.1916   -6.4820    8.0397 P   0  0  0  0  0  0  0  0  0  0  0  0
   -3.9052   -7.8297    8.5815 O   0  0  0  0  0  0  0  0  0  0  0  0
   -3.4244   -5.3309    8.5626 O   0  5  0  0  0  0  0  0  0  0  0  0
   -5.7170   -6.1965    8.3957 O   0  5  0  0  0  0  0  0  0  0  0  0
  1 18  1  0  0  0  0
  1  2  1  0  0  0  0
  2  4  1  0  0  0  0
  2  3  2  0  0  0  0
  4  5  1  0  0  0  0
  5  7  1  0  0  0  0
  5  6  2  0  0  0  0
  7 18  2  0  0  0  0
  7  8  1  0  0  0  0
  8  9  1  0  0  0  0
  9 10  2  0  0  0  0
  9 16  1  0  0  0  0
 10 11  1  0  0  0  0
 11 12  1  0  0  0  0
 11 13  2  0  0  0  0
 13 14  1  0  0  0  0
 13 15  1  0  0  0  0
 15 16  2  0  0  0  0
 16 17  1  0  0  0  0
 17 19  1  0  0  0  0
 17 18  1  0  0  0  0
 20 19  1  6  0  0  0
 20 22  1  0  0  0  0
 20 21  1  0  0  0  0
 22 24  1  0  0  0  0
 22 23  1  1  0  0  0
 24 26  1  1  0  0  0
 24 25  1  0  0  0  0
 26 27  1  0  0  0  0
 27 28  1  0  0  0  0
 28 30  1  0  0  0  0
 28 29  2  0  0  0  0
 28 31  1  0  0  0  0
M  CHG  2  30  -1  31  -1
M  END
>  <CHROM.1>
-138.28138478,76.32195003,57.03053141,-177.21370855,143.52526899,172.05261539
-70.71752402,-58.91082311,-166.16634871,38.17457188,-7.34891752,-5.80829566
3.14314824,2.16084650,0.24177096,-1.48515245

>  <Name>
1fmn_cryst

>  <RI>
0

>  <Rbt.Current_Directory>
/home/itssahil/PROJECTS/Mol_Feturizer/New_Systems/rnas/1fmn

>  <Rbt.Executable>
rbdock ($Id: //depot/dev/client3/rdock/2013.1/src/exe/rbdock.cxx#4 $)

>  <Rbt.Library>
libRbt.so (2013.1, Build901 2013/11/27)

>  <Rbt.Parameter_File>
/export/apps/rDock/src/rDock_2013.1_src/data/scripts/dock_solv.prm

>  <Rbt.Receptor>
prm/pocket_docking_6.prm

>  <SCORE>
-57.6023

>  <SCORE.INTER>
-53.8645

>  <SCORE.INTER.CONST>
1

>  <SCORE.INTER.POLAR>
-3.81813

>  <SCORE.INTER.ROT>
7

>  <SCORE.INTER.SOLV>
17.6985

>  <SCORE.INTER.VDW>
-37.3487

>  <SCORE.INTER.norm>
-1.73756

>  <SCORE.INTRA>
-3.73781

>  <SCORE.INTRA.DIHEDRAL>
-7.26472

>  <SCORE.INTRA.DIHEDRAL.0>
15.5708

>  <SCORE.INTRA.POLAR>
-0.288838

>  <SCORE.INTRA.POLAR.0>
-0.0677885

>  <SCORE.INTRA.REPUL>
0

>  <SCORE.INTRA.REPUL.0>
0

>  <SCORE.INTRA.SOLV>
-3.80549

>  <SCORE.INTRA.SOLV.lig_0>
-87.6316

>  <SCORE.INTRA.VDW>
2.77934

>  <SCORE.INTRA.VDW.0>
-2.87309

>  <SCORE.INTRA.norm>
-0.120575

>  <SCORE.RESTR>
0

>  <SCORE.RESTR.CAVITY>
0

>  <SCORE.RESTR.norm>
0

>  <SCORE.SYSTEM>
0

>  <SCORE.SYSTEM.CONST>
0

>  <SCORE.SYSTEM.DIHEDRAL>
0

>  <SCORE.SYSTEM.SOLV>
0

>  <SCORE.SYSTEM.norm>
0

>  <SCORE.heavy>
31

>  <SCORE.norm>
-1.85814

>  <SYMMETRIC_BONDS>
33 34 3

>  <RMSD>
1.929

$$$$
1fmn_cryst
 OpenBabel11021811393D
libRbt.so/2013.1/901 2013/11/27
 31 33  0  0  0  0  0  0  0  0999 V2000
   -8.8656   -6.0789    3.6064 N   0  0  0  0  0  0  0  0  0  0  0  0
   -9.7563   -6.0528    4.6539 C   0  0  0  0  0  0  0  0  0  0  0  0
   -9.4932   -6.5550    5.7471 O   0  0  0  0  0  0  0  0  0  0  0  0
  -10.9960   -5.4164    4.3938 N   0  0  0  0  0  0  0  0  0  0  0  0
  -11.3989   -4.8172    3.1802 C   0  0  0  0  0  0  0  0  0  0  0  0
  -12.5158   -4.2921    3.0903 O   0  0  0  0  0  0  0  0  0  0  0  0
  -10.3959   -4.8876    2.1152 C   0  0  0  0  0  0  0  0  0  0  0  0
  -10.7105   -4.3270    0.9023 N   0  0  0  0  0  0  0  0  0  0  0  0
   -9.8541   -4.5509   -0.1365 C   0  0  0  0  0  0  0  0  0  0  0  0
  -10.2518   -4.1499   -1.3996 C   0  0  0  0  0  0  0  0  0  0  0  0
   -9.4536   -4.3394   -2.4759 C   0  0  0  0  0  0  0  0  0  0  0  0
   -9.9294   -3.8846   -3.8187 C   0  0  0  0  0  0  0  0  0  0  0  0
   -8.2379   -4.9335   -2.3341 C   0  0  0  0  0  0  0  0  0  0  0  0
   -7.3661   -5.1450   -3.5288 C   0  0  0  0  0  0  0  0  0  0  0  0
   -7.8056   -5.3425   -1.1140 C   0  0  0  0  0  0  0  0  0  0  0  0
   -8.5892   -5.1703    0.0270 C   0  0  0  0  0  0  0  0  0  0  0  0
   -8.2001   -5.5681    1.3232 N   0  0  0  0  0  0  0  0  0  0  0  0
   -9.1319   -5.5335    2.3808 C   0  0  0  0  0  0  0  0  0  0  0  0
   -6.7380   -5.4707    1.6855 C   0  0  0  0  0  0  0  0  0  0  0  0
   -6.0170   -6.8120    2.0189 C   0  0  1  0  0  0  0  0  0  0  0  0
   -4.8821   -6.9790    1.1810 O   0  0  0  0  0  0  0  0  0  0  0  0
   -5.6606   -6.9570    3.5176 C   0  0  1  0  0  0  0  0  0  0  0  0
   -6.0368   -5.7822    4.2302 O   0  0  0  0  0  0  0  0  0  0  0  0
   -6.1992   -8.2118    4.2479 C   0  0  1  0  0  0  0  0  0  0  0  0
   -5.2792   -9.2789    4.0459 O   0  0  0  0  0  0  0  0  0  0  0  0
   -6.3816   -7.9931    5.7667 C   0  0  0  0  0  0  0  0  0  0  0  0
   -5.1679   -7.6275    6.4127 O   0  0  0  0  0  0  0  0  0  0  0  0
   -5.0635   -7.4088    7.9788 P   0  0  0  0  0  0  0  0  0  0  0  0
   -5.7848   -6.1831    8.3906 O   0  0  0  0  0  0  0  0  0  0  0  0
   -5.3402   -8.6694    8.7008 O   0  5  0  0  0  0  0  0  0  0  0  0
   -3.5209   -7.0928    8.2136 O   0  5  0  0  0  0  0  0  0  0  0  0
  1 18  1  0  0  0  0
  1  2  1  0  0  0  0
  2  4  1  0  0  0  0
  2  3  2  0  0  0  0
  4  5  1  0  0  0  0
  5  7  1  0  0  0  0
  5  6  2  0  0  0  0
  7 18  2  0  0  0  0
  7  8  1  0  0  0  0
  8  9  1  0  0  0  0
  9 10  2  0  0  0  0
  9 16  1  0  0  0  0
 10 11  1  0  0  0  0
 11 12  1  0  0  0  0
 11 13  2  0  0  0  0
 13 14  1  0  0  0  0
 13 15  1  0  0  0  0
 15 16  2  0  0  0  0
 16 17  1  0  0  0  0
 17 19  1  0  0  0  0
 17 18  1  0  0  0  0
 20 19  1  1  0  0  0
 20 22  1  0  0  0  0
 20 21  1  0  0  0  0
 22 24  1  0  0  0  0
 22 23  1  1  0  0  0
 24 26  1  1  0  0  0
 24 25  1  0  0  0  0
 26 27  1  0  0  0  0
 27 28  1  0  0  0  0
 28 30  1  0  0  0  0
 28 29  2  0  0  0  0
 28 31  1  0  0  0  0
M  CHG  2  30  -1  31  -1
M  END
>  <CHROM.1>
-116.93672510,124.10955175,-2.43048738,56.03410793,85.84895874,-67.37406093
-58.88310749,64.77962447,-177.16131903,-69.94489747,-7.68830916,-6.09820065
3.04111257,2.03780353,0.36011107,-1.41099624

>  <Name>
1fmn_cryst

>  <RI>
0

>  <Rbt.Current_Directory>
/home/itssahil/PROJECTS/Mol_Feturizer/New_Systems/rnas/1fmn

>  <Rbt.Executable>
rbdock ($Id: //depot/dev/client3/rdock/2013.1/src/exe/rbdock.cxx#4 $)

>  <Rbt.Library>
libRbt.so (2013.1, Build901 2013/11/27)

>  <Rbt.Parameter_File>
/export/apps/rDock/src/rDock_2013.1_src/data/scripts/dock_solv.prm

>  <Rbt.Receptor>
prm/pocket_docking_6.prm

>  <SCORE>
-57.6264

>  <SCORE.INTER>
-56.5197

>  <SCORE.INTER.CONST>
1

>  <SCORE.INTER.POLAR>
-3.74875

>  <SCORE.INTER.ROT>
7

>  <SCORE.INTER.SOLV>
18.4868

>  <SCORE.INTER.VDW>
-39.6129

>  <SCORE.INTER.norm>
-1.82322

>  <SCORE.INTRA>
-1.10663

>  <SCORE.INTRA.DIHEDRAL>
-0.392488

>  <SCORE.INTRA.DIHEDRAL.0>
15.5708

>  <SCORE.INTRA.POLAR>
-0.421825

>  <SCORE.INTRA.POLAR.0>
-0.0677885

>  <SCORE.INTRA.REPUL>
0

>  <SCORE.INTRA.REPUL.0>
0

>  <SCORE.INTRA.SOLV>
-3.42326

>  <SCORE.INTRA.SOLV.lig_0>
-87.6316

>  <SCORE.INTRA.VDW>
2.23545

>  <SCORE.INTRA.VDW.0>
-2.87309

>  <SCORE.INTRA.norm>
-0.0356978

>  <SCORE.RESTR>
0

>  <SCORE.RESTR.CAVITY>
0

>  <SCORE.RESTR.norm>
0

>  <SCORE.SYSTEM>
0

>  <SCORE.SYSTEM.CONST>
0

>  <SCORE.SYSTEM.DIHEDRAL>
0

>  <SCORE.SYSTEM.SOLV>
0

>  <SCORE.SYSTEM.norm>
0

>  <SCORE.heavy>
31

>  <SCORE.norm>
-1.85891

>  <SYMMETRIC_BONDS>
33 34 3

>  <RMSD>
1.933

$$$$
1fmn_cryst
 OpenBabel11021811393D
libRbt.so/2013.1/901 2013/11/27
 31 33  0  0  0  0  0  0  0  0999 V2000
   -9.1004   -6.0789    3.2995 N   0  0  0  0  0  0  0  0  0  0  0  0
   -9.7264   -6.1468    4.5222 C   0  0  0  0  0  0  0  0  0  0  0  0
   -9.2596   -6.7950    5.4594 O   0  0  0  0  0  0  0  0  0  0  0  0
  -10.9435   -5.4285    4.6328 N   0  0  0  0  0  0  0  0  0  0  0  0
  -11.5664   -4.6627    3.6229 C   0  0  0  0  0  0  0  0  0  0  0  0
  -12.6336   -4.0816    3.8567 O   0  0  0  0  0  0  0  0  0  0  0  0
  -10.8384   -4.6413    2.3521 C   0  0  0  0  0  0  0  0  0  0  0  0
  -11.3782   -3.9179    1.3180 N   0  0  0  0  0  0  0  0  0  0  0  0
  -10.7979   -4.0455    0.0894 C   0  0  0  0  0  0  0  0  0  0  0  0
  -11.4412   -3.4701   -0.9920 C   0  0  0  0  0  0  0  0  0  0  0  0
  -10.9234   -3.5563   -2.2393 C   0  0  0  0  0  0  0  0  0  0  0  0
  -11.6569   -2.9141   -3.3734 C   0  0  0  0  0  0  0  0  0  0  0  0
   -9.7534   -4.2167   -2.4538 C   0  0  0  0  0  0  0  0  0  0  0  0
   -9.1925   -4.3130   -3.8352 C   0  0  0  0  0  0  0  0  0  0  0  0
   -9.0867   -4.7962   -1.4230 C   0  0  0  0  0  0  0  0  0  0  0  0
   -9.5770   -4.7359   -0.1186 C   0  0  0  0  0  0  0  0  0  0  0  0
   -8.9342   -5.3120    0.9971 N   0  0  0  0  0  0  0  0  0  0  0  0
   -9.5973   -5.3709    2.2401 C   0  0  0  0  0  0  0  0  0  0  0  0
   -7.4250   -5.3261    1.0164 C   0  0  0  0  0  0  0  0  0  0  0  0
   -6.7289   -6.2833    0.0018 C   0  0  1  0  0  0  0  0  0  0  0  0
   -6.4602   -5.5973   -1.2128 O   0  0  0  0  0  0  0  0  0  0  0  0
   -5.4654   -6.9672    0.5762 C   0  0  1  0  0  0  0  0  0  0  0  0
   -4.3267   -6.6464   -0.2175 O   0  0  0  0  0  0  0  0  0  0  0  0
   -5.1524   -6.7181    2.0721 C   0  0  1  0  0  0  0  0  0  0  0  0
   -6.2222   -7.2454    2.8489 O   0  0  0  0  0  0  0  0  0  0  0  0
   -3.8326   -7.3787    2.5298 C   0  0  0  0  0  0  0  0  0  0  0  0
   -3.5626   -7.1553    3.9086 O   0  0  0  0  0  0  0  0  0  0  0  0
   -3.3055   -5.7110    4.5078 P   0  0  0  0  0  0  0  0  0  0  0  0
   -2.6321   -5.7967    5.8236 O   0  0  0  0  0  0  0  0  0  0  0  0
   -2.7375   -4.8133    3.4790 O   0  5  0  0  0  0  0  0  0  0  0  0
   -4.7689   -5.1638    4.8146 O   0  5  0  0  0  0  0  0  0  0  0  0
  1 18  1  0  0  0  0
  1  2  1  0  0  0  0
  2  4  1  0  0  0  0
  2  3  2  0  0  0  0
  4  5  1  0  0  0  0
  5  7  1  0  0  0  0
  5  6  2  0  0  0  0
  7 18  2  0  0  0  0
  7  8  1  0  0  0  0
  8  9  1  0  0  0  0
  9 10  2  0  0  0  0
  9 16  1  0  0  0  0
 10 11  1  0  0  0  0
 11 12  1  0  0  0  0
 11 13  2  0  0  0  0
 13 14  1  0  0  0  0
 13 15  1  0  0  0  0
 15 16  2  0  0  0  0
 16 17  1  0  0  0  0
 17 19  1  0  0  0  0
 17 18  1  0  0  0  0
 20 19  1  1  0  0  0
 20 22  1  0  0  0  0
 20 21  1  0  0  0  0
 22 24  1  0  0  0  0
 22 23  1  6  0  0  0
 24 26  1  1  0  0  0
 24 25  1  0  0  0  0
 26 27  1  0  0  0  0
 27 28  1  0  0  0  0
 28 30  1  0  0  0  0
 28 29  2  0  0  0  0
 28 31  1  0  0  0  0
M  CHG  2  30  -1  31  -1
M  END
>  <CHROM.1>
-70.12690138,91.42069054,-121.05039707,-163.45423030,62.53043228,-58.91570703
-179.37311860,63.65229038,-63.61703976,-161.55744822,-7.70740753,-5.39155031
1.73980762,2.55476149,0.21458421,-1.44199078

>  <Name>
1fmn_cryst

>  <RI>
0

>  <Rbt.Current_Directory>
/home/itssahil/PROJECTS/Mol_Feturizer/New_Systems/rnas/1fmn

>  <Rbt.Executable>
rbdock ($Id: //depot/dev/client3/rdock/2013.1/src/exe/rbdock.cxx#4 $)

>  <Rbt.Library>
libRbt.so (2013.1, Build901 2013/11/27)

>  <Rbt.Parameter_File>
/export/apps/rDock/src/rDock_2013.1_src/data/scripts/dock_solv.prm

>  <Rbt.Receptor>
prm/pocket_docking_6.prm

>  <SCORE>
-66.7804

>  <SCORE.INTER>
-63.7144

>  <SCORE.INTER.CONST>
1

>  <SCORE.INTER.POLAR>
-5.52516

>  <SCORE.INTER.ROT>
7

>  <SCORE.INTER.SOLV>
20.5583

>  <SCORE.INTER.VDW>
-39.1786

>  <SCORE.INTER.norm>
-2.0553

>  <SCORE.INTRA>
-3.06599

>  <SCORE.INTRA.DIHEDRAL>
-3.50282

>  <SCORE.INTRA.DIHEDRAL.0>
15.5708

>  <SCORE.INTRA.POLAR>
-0.932211

>  <SCORE.INTRA.POLAR.0>
-0.0677885

>  <SCORE.INTRA.REPUL>
0

>  <SCORE.INTRA.REPUL.0>
0

>  <SCORE.INTRA.SOLV>
-0.190947

>  <SCORE.INTRA.SOLV.lig_0>
-87.6316

>  <SCORE.INTRA.VDW>
1.95041

>  <SCORE.INTRA.VDW.0>
-2.87309

>  <SCORE.INTRA.norm>
-0.098903

>  <SCORE.RESTR>
0

>  <SCORE.RESTR.CAVITY>
0

>  <SCORE.RESTR.norm>
0

>  <SCORE.SYSTEM>
0

>  <SCORE.SYSTEM.CONST>
0

>  <SCORE.SYSTEM.DIHEDRAL>
0

>  <SCORE.SYSTEM.SOLV>
0

>  <SCORE.SYSTEM.norm>
0

>  <SCORE.heavy>
31

>  <SCORE.norm>
-2.15421

>  <SYMMETRIC_BONDS>
33 34 3

>  <RMSD>
1.933

$$$$
1fmn_cryst
 OpenBabel11021811393D
libRbt.so/2013.1/901 2013/11/27
 31 33  0  0  0  0  0  0  0  0999 V2000
   -8.9259   -6.0901    3.5869 N   0  0  0  0  0  0  0  0  0  0  0  0
   -9.8137   -6.0543    4.6367 C   0  0  0  0  0  0  0  0  0  0  0  0
   -9.5588   -6.5711    5.7250 O   0  0  0  0  0  0  0  0  0  0  0  0
  -11.0404   -5.3900    4.3847 N   0  0  0  0  0  0  0  0  0  0  0  0
  -11.4332   -4.7723    3.1771 C   0  0  0  0  0  0  0  0  0  0  0  0
  -12.5391   -4.2232    3.0942 O   0  0  0  0  0  0  0  0  0  0  0  0
  -10.4341   -4.8546    2.1093 C   0  0  0  0  0  0  0  0  0  0  0  0
  -10.7394   -4.2774    0.9019 N   0  0  0  0  0  0  0  0  0  0  0  0
   -9.8901   -4.5102   -0.1407 C   0  0  0  0  0  0  0  0  0  0  0  0
  -10.2820   -4.0904   -1.3995 C   0  0  0  0  0  0  0  0  0  0  0  0
   -9.4902   -4.2874   -2.4791 C   0  0  0  0  0  0  0  0  0  0  0  0
   -9.9592   -3.8115   -3.8170 C   0  0  0  0  0  0  0  0  0  0  0  0
   -8.2868   -4.9079   -2.3451 C   0  0  0  0  0  0  0  0  0  0  0  0
   -7.4221   -5.1274   -3.5435 C   0  0  0  0  0  0  0  0  0  0  0  0
   -7.8606   -5.3362   -1.1294 C   0  0  0  0  0  0  0  0  0  0  0  0
   -8.6381   -5.1572    0.0147 C   0  0  0  0  0  0  0  0  0  0  0  0
   -8.2546   -5.5741    1.3067 N   0  0  0  0  0  0  0  0  0  0  0  0
   -9.1833   -5.5289    2.3666 C   0  0  0  0  0  0  0  0  0  0  0  0
   -6.7901   -5.5103    1.6664 C   0  0  0  0  0  0  0  0  0  0  0  0
   -6.0461   -6.8752    1.7825 C   0  0  1  0  0  0  0  0  0  0  0  0
   -5.3158   -7.1373    0.5926 O   0  0  0  0  0  0  0  0  0  0  0  0
   -5.1586   -6.9809    3.0456 C   0  0  1  0  0  0  0  0  0  0  0  0
   -4.3917   -5.7917    3.2107 O   0  0  0  0  0  0  0  0  0  0  0  0
   -5.8696   -7.3384    4.3739 C   0  0  1  0  0  0  0  0  0  0  0  0
   -6.2345   -8.7135    4.3323 O   0  0  0  0  0  0  0  0  0  0  0  0
   -4.9830   -7.0963    5.6161 C   0  0  0  0  0  0  0  0  0  0  0  0
   -5.5991   -7.5419    6.8186 O   0  0  0  0  0  0  0  0  0  0  0  0
   -5.0455   -7.1654    8.2549 P   0  0  0  0  0  0  0  0  0  0  0  0
   -3.6425   -7.6106    8.4141 O   0  0  0  0  0  0  0  0  0  0  0  0
   -5.3877   -5.7676    8.5956 O   0  5  0  0  0  0  0  0  0  0  0  0
   -5.8963   -8.0827    9.2396 O   0  5  0  0  0  0  0  0  0  0  0  0
  1 18  1  0  0  0  0
  1  2  1  0  0  0  0
  2  4  1  0  0  0  0
  2  3  2  0  0  0  0
  4  5  1  0  0  0  0
  5  7  1  0  0  0  0
  5  6  2  0  0  0  0
  7 18  2  0  0  0  0
  7  8  1  0  0  0  0
  8  9  1  0  0  0  0
  9 10  2  0  0  0  0
  9 16  1  0  0  0  0
 10 11  1  0  0  0  0
 11 12  1  0  0  0  0
 11 13  2  0  0  0  0
 13 14  1  0  0  0  0
 13 15  1  0  0  0  0
 15 16  2  0  0  0  0
 16 17  1  0  0  0  0
 17 19  1  0  0  0  0
 17 18  1  0  0  0  0
 20 19  1  6  0  0  0
 20 22  1  0  0  0  0
 20 21  1  0  0  0  0
 22 24  1  0  0  0  0
 22 23  1  1  0  0  0
 24 26  1  1  0  0  0
 24 25  1  0  0  0  0
 26 27  1  0  0  0  0
 27 28  1  0  0  0  0
 28 30  1  0  0  0  0
 28 29  2  0  0  0  0
 28 31  1  0  0  0  0
M  CHG  2  30  -1  31  -1
M  END
>  <CHROM.1>
-108.28924167,99.47346702,-45.71200541,-62.22030104,72.97145449,-60.00503787
-174.60352923,61.20240112,-167.74378220,-57.84262975,-7.66461776,-5.98869167
3.02723290,2.01871680,0.31038571,-1.42055485

>  <Name>
1fmn_cryst

>  <RI>
0

>  <Rbt.Current_Directory>
/home/itssahil/PROJECTS/Mol_Feturizer/New_Systems/rnas/1fmn

>  <Rbt.Executable>
rbdock ($Id: //depot/dev/client3/rdock/2013.1/src/exe/rbdock.cxx#4 $)

>  <Rbt.Library>
libRbt.so (2013.1, Build901 2013/11/27)

>  <Rbt.Parameter_File>
/export/apps/rDock/src/rDock_2013.1_src/data/scripts/dock_solv.prm

>  <Rbt.Receptor>
prm/pocket_docking_5.prm

>  <SCORE>
-60.7327

>  <SCORE.INTER>
-55.9007

>  <SCORE.INTER.CONST>
1

>  <SCORE.INTER.POLAR>
-3.81024

>  <SCORE.INTER.ROT>
7

>  <SCORE.INTER.SOLV>
18.029

>  <SCORE.INTER.VDW>
-38.8427

>  <SCORE.INTER.norm>
-1.80325

>  <SCORE.INTRA>
-4.83199

>  <SCORE.INTRA.DIHEDRAL>
-6.87503

>  <SCORE.INTRA.DIHEDRAL.0>
15.5708

>  <SCORE.INTRA.POLAR>
0.0677885

>  <SCORE.INTRA.POLAR.0>
-0.0677885

>  <SCORE.INTRA.REPUL>
0.00365651

>  <SCORE.INTRA.REPUL.0>
0

>  <SCORE.INTRA.SOLV>
-4.95924

>  <SCORE.INTRA.SOLV.lig_0>
-87.6316

>  <SCORE.INTRA.VDW>
0.836387

>  <SCORE.INTRA.VDW.0>
-2.87309

>  <SCORE.INTRA.norm>
-0.155871

>  <SCORE.RESTR>
0

>  <SCORE.RESTR.CAVITY>
0

>  <SCORE.RESTR.norm>
0

>  <SCORE.SYSTEM>
0

>  <SCORE.SYSTEM.CONST>
0

>  <SCORE.SYSTEM.DIHEDRAL>
0

>  <SCORE.SYSTEM.SOLV>
0

>  <SCORE.SYSTEM.norm>
0

>  <SCORE.heavy>
31

>  <SCORE.norm>
-1.95912

>  <SYMMETRIC_BONDS>
33 34 3

>  <RMSD>
1.947

$$$$
1fmn_cryst
 OpenBabel11021811393D
libRbt.so/2013.1/901 2013/11/27
 31 33  0  0  0  0  0  0  0  0999 V2000
   -8.8514   -6.1950    3.6202 N   0  0  0  0  0  0  0  0  0  0  0  0
   -9.6142   -6.2199    4.7643 C   0  0  0  0  0  0  0  0  0  0  0  0
   -9.2362   -6.7895    5.7886 O   0  0  0  0  0  0  0  0  0  0  0  0
  -10.8631   -5.5536    4.6876 N   0  0  0  0  0  0  0  0  0  0  0  0
  -11.3919   -4.8783    3.5658 C   0  0  0  0  0  0  0  0  0  0  0  0
  -12.5013   -4.3346    3.6372 O   0  0  0  0  0  0  0  0  0  0  0  0
  -10.5205   -4.8979    2.3888 C   0  0  0  0  0  0  0  0  0  0  0  0
  -10.9623   -4.2623    1.2552 N   0  0  0  0  0  0  0  0  0  0  0  0
  -10.2364   -4.4349    0.1125 C   0  0  0  0  0  0  0  0  0  0  0  0
  -10.7697   -3.9545   -1.0705 C   0  0  0  0  0  0  0  0  0  0  0  0
  -10.1053   -4.0898   -2.2416 C   0  0  0  0  0  0  0  0  0  0  0  0
  -10.7243   -3.5501   -3.4914 C   0  0  0  0  0  0  0  0  0  0  0  0
   -8.8931   -4.7066   -2.2770 C   0  0  0  0  0  0  0  0  0  0  0  0
   -8.1697   -4.8578   -3.5755 C   0  0  0  0  0  0  0  0  0  0  0  0
   -8.3305   -5.1929   -1.1413 C   0  0  0  0  0  0  0  0  0  0  0  0
   -8.9734   -5.0789    0.0913 C   0  0  0  0  0  0  0  0  0  0  0  0
   -8.4447   -5.5580    1.3082 N   0  0  0  0  0  0  0  0  0  0  0  0
   -9.2471   -5.5744    2.4675 C   0  0  0  0  0  0  0  0  0  0  0  0
   -6.9489   -5.5008    1.5025 C   0  0  0  0  0  0  0  0  0  0  0  0
   -6.1030   -6.5028    0.6595 C   0  0  1  0  0  0  0  0  0  0  0  0
   -5.7751   -5.9292   -0.5981 O   0  0  0  0  0  0  0  0  0  0  0  0
   -4.8517   -7.0237    1.4059 C   0  0  1  0  0  0  0  0  0  0  0  0
   -5.2387   -7.7887    2.5437 O   0  0  0  0  0  0  0  0  0  0  0  0
   -3.8139   -7.8114    0.5692 C   0  0  1  0  0  0  0  0  0  0  0  0
   -3.2168   -6.9174   -0.3636 O   0  0  0  0  0  0  0  0  0  0  0  0
   -2.7005   -8.4460    1.4325 C   0  0  0  0  0  0  0  0  0  0  0  0
   -2.0312   -7.4893    2.2453 O   0  0  0  0  0  0  0  0  0  0  0  0
   -0.8885   -7.8852    3.2694 P   0  0  0  0  0  0  0  0  0  0  0  0
    0.2449   -8.5341    2.5720 O   0  0  0  0  0  0  0  0  0  0  0  0
   -0.6043   -6.7649    4.1920 O   0  5  0  0  0  0  0  0  0  0  0  0
   -1.5544   -9.0296    4.1537 O   0  5  0  0  0  0  0  0  0  0  0  0
  1 18  1  0  0  0  0
  1  2  1  0  0  0  0
  2  4  1  0  0  0  0
  2  3  2  0  0  0  0
  4  5  1  0  0  0  0
  5  7  1  0  0  0  0
  5  6  2  0  0  0  0
  7 18  2  0  0  0  0
  7  8  1  0  0  0  0
  8  9  1  0  0  0  0
  9 10  2  0  0  0  0
  9 16  1  0  0  0  0
 10 11  1  0  0  0  0
 11 12  1  0  0  0  0
 11 13  2  0  0  0  0
 13 14  1  0  0  0  0
 13 15  1  0  0  0  0
 15 16  2  0  0  0  0
 16 17  1  0  0  0  0
 17 19  1  0  0  0  0
 17 18  1  0  0  0  0
 20 19  1  1  0  0  0
 20 22  1  0  0  0  0
 20 21  1  0  0  0  0
 22 24  1  0  0  0  0
 22 23  1  1  0  0  0
 24 26  1  1  0  0  0
 24 25  1  0  0  0  0
 26 27  1  0  0  0  0
 27 28  1  0  0  0  0
 28 30  1  0  0  0  0
 28 29  2  0  0  0  0
 28 31  1  0  0  0  0
M  CHG  2  30  -1  31  -1
M  END
>  <CHROM.1>
-71.33300206,88.44833460,64.52848449,-158.85468042,66.94781700,59.31828713
-55.29609827,-100.05727594,177.41250928,59.68469974,-6.72649279,-6.13538412
1.52857116,2.86639864,0.30512848,-1.36236766

>  <Name>
1fmn_cryst

>  <RI>
0

>  <Rbt.Current_Directory>
/home/itssahil/PROJECTS/Mol_Feturizer/New_Systems/rnas/1fmn

>  <Rbt.Executable>
rbdock ($Id: //depot/dev/client3/rdock/2013.1/src/exe/rbdock.cxx#4 $)

>  <Rbt.Library>
libRbt.so (2013.1, Build901 2013/11/27)

>  <Rbt.Parameter_File>
/export/apps/rDock/src/rDock_2013.1_src/data/scripts/dock_solv.prm

>  <Rbt.Receptor>
prm/pocket_docking_5.prm

>  <SCORE>
-64.629

>  <SCORE.INTER>
-61.9951

>  <SCORE.INTER.CONST>
1

>  <SCORE.INTER.POLAR>
-4.66766

>  <SCORE.INTER.ROT>
7

>  <SCORE.INTER.SOLV>
17.5579

>  <SCORE.INTER.VDW>
-39.8905

>  <SCORE.INTER.norm>
-1.99984

>  <SCORE.INTRA>
-2.63395

>  <SCORE.INTRA.DIHEDRAL>
-3.50711

>  <SCORE.INTRA.DIHEDRAL.0>
15.5708

>  <SCORE.INTRA.POLAR>
0.0677885

>  <SCORE.INTRA.POLAR.0>
-0.0677885

>  <SCORE.INTRA.REPUL>
0

>  <SCORE.INTRA.REPUL.0>
0

>  <SCORE.INTRA.SOLV>
-3.81847

>  <SCORE.INTRA.SOLV.lig_0>
-87.6316

>  <SCORE.INTRA.VDW>
0.798358

>  <SCORE.INTRA.VDW.0>
-2.87309

>  <SCORE.INTRA.norm>
-0.0849661

>  <SCORE.RESTR>
0

>  <SCORE.RESTR.CAVITY>
0

>  <SCORE.RESTR.norm>
0

>  <SCORE.SYSTEM>
0

>  <SCORE.SYSTEM.CONST>
0

>  <SCORE.SYSTEM.DIHEDRAL>
0

>  <SCORE.SYSTEM.SOLV>
0

>  <SCORE.SYSTEM.norm>
0

>  <SCORE.heavy>
31

>  <SCORE.norm>
-2.08481

>  <SYMMETRIC_BONDS>
33 34 3

>  <RMSD>
1.953

$$$$
1fmn_cryst
 OpenBabel11021811393D
libRbt.so/2013.1/901 2013/11/27
 31 33  0  0  0  0  0  0  0  0999 V2000
   -8.7071   -6.1718    3.4612 N   0  0  0  0  0  0  0  0  0  0  0  0
   -9.4661   -6.2546    4.6051 C   0  0  0  0  0  0  0  0  0  0  0  0
   -9.0475   -6.7968    5.6285 O   0  0  0  0  0  0  0  0  0  0  0  0
  -10.7605   -5.6815    4.5294 N   0  0  0  0  0  0  0  0  0  0  0  0
  -11.3373   -5.0446    3.4087 C   0  0  0  0  0  0  0  0  0  0  0  0
  -12.4835   -4.5839    3.4809 O   0  0  0  0  0  0  0  0  0  0  0  0
  -10.4666   -4.9982    2.2318 C   0  0  0  0  0  0  0  0  0  0  0  0
  -10.9538   -4.3946    1.0993 N   0  0  0  0  0  0  0  0  0  0  0  0
  -10.2171   -4.5114   -0.0436 C   0  0  0  0  0  0  0  0  0  0  0  0
  -10.7841   -4.0692   -1.2257 C   0  0  0  0  0  0  0  0  0  0  0  0
  -10.1114   -4.1533   -2.3970 C   0  0  0  0  0  0  0  0  0  0  0  0
  -10.7683   -3.6581   -3.6459 C   0  0  0  0  0  0  0  0  0  0  0  0
   -8.8573   -4.6796   -2.4333 C   0  0  0  0  0  0  0  0  0  0  0  0
   -8.1247   -4.7749   -3.7318 C   0  0  0  0  0  0  0  0  0  0  0  0
   -8.2607   -5.1254   -1.2983 C   0  0  0  0  0  0  0  0  0  0  0  0
   -8.9103   -5.0610   -0.0657 C   0  0  0  0  0  0  0  0  0  0  0  0
   -8.3480   -5.5023    1.1505 N   0  0  0  0  0  0  0  0  0  0  0  0
   -9.1471   -5.5797    2.3096 C   0  0  0  0  0  0  0  0  0  0  0  0
   -6.8605   -5.3361    1.3452 C   0  0  0  0  0  0  0  0  0  0  0  0
   -6.0570   -6.6304    1.6759 C   0  0  1  0  0  0  0  0  0  0  0  0
   -5.2124   -6.9738    0.5866 O   0  0  0  0  0  0  0  0  0  0  0  0
   -5.2790   -6.5413    3.0104 C   0  0  1  0  0  0  0  0  0  0  0  0
   -4.6188   -7.7746    3.2799 O   0  0  0  0  0  0  0  0  0  0  0  0
   -4.2829   -5.3656    3.1638 C   0  0  1  0  0  0  0  0  0  0  0  0
   -5.0202   -4.1481    3.1562 O   0  0  0  0  0  0  0  0  0  0  0  0
   -3.4592   -5.4401    4.4690 C   0  0  0  0  0  0  0  0  0  0  0  0
   -2.3909   -6.3760    4.3847 O   0  0  0  0  0  0  0  0  0  0  0  0
   -1.0602   -6.0859    3.5746 P   0  0  0  0  0  0  0  0  0  0  0  0
   -1.3460   -5.9153    2.1320 O   0  0  0  0  0  0  0  0  0  0  0  0
   -0.2451   -5.0604    4.2610 O   0  5  0  0  0  0  0  0  0  0  0  0
   -0.2450   -7.4488    3.6877 O   0  5  0  0  0  0  0  0  0  0  0  0
  1 18  1  0  0  0  0
  1  2  1  0  0  0  0
  2  4  1  0  0  0  0
  2  3  2  0  0  0  0
  4  5  1  0  0  0  0
  5  7  1  0  0  0  0
  5  6  2  0  0  0  0
  7 18  2  0  0  0  0
  7  8  1  0  0  0  0
  8  9  1  0  0  0  0
  9 10  2  0  0  0  0
  9 16  1  0  0  0  0
 10 11  1  0  0  0  0
 11 12  1  0  0  0  0
 11 13  2  0  0  0  0
 13 14  1  0  0  0  0
 13 15  1  0  0  0  0
 15 16  2  0  0  0  0
 16 17  1  0  0  0  0
 17 19  1  0  0  0  0
 17 18  1  0  0  0  0
 20 19  1  6  0  0  0
 20 22  1  0  0  0  0
 20 21  1  0  0  0  0
 22 24  1  0  0  0  0
 22 23  1  6  0  0  0
 24 26  1  1  0  0  0
 24 25  1  0  0  0  0
 26 27  1  0  0  0  0
 27 28  1  0  0  0  0
 28 30  1  0  0  0  0
 28 29  2  0  0  0  0
 28 31  1  0  0  0  0
M  CHG  2  30  -1  31  -1
M  END
>  <CHROM.1>
-123.76191762,111.44196964,177.37025523,-63.34269287,64.91607620,62.67697570
78.38947392,62.76376347,75.14456183,-63.06495361,-6.78293691,-5.55033499
1.95367423,2.73343218,0.09757194,-1.38528692

>  <Name>
1fmn_cryst

>  <RI>
0

>  <Rbt.Current_Directory>
/home/itssahil/PROJECTS/Mol_Feturizer/New_Systems/rnas/1fmn

>  <Rbt.Executable>
rbdock ($Id: //depot/dev/client3/rdock/2013.1/src/exe/rbdock.cxx#4 $)

>  <Rbt.Library>
libRbt.so (2013.1, Build901 2013/11/27)

>  <Rbt.Parameter_File>
/export/apps/rDock/src/rDock_2013.1_src/data/scripts/dock_solv.prm

>  <Rbt.Receptor>
prm/pocket_docking_6.prm

>  <SCORE>
-58.4208

>  <SCORE.INTER>
-55.4036

>  <SCORE.INTER.CONST>
1

>  <SCORE.INTER.POLAR>
-3.88326

>  <SCORE.INTER.ROT>
7

>  <SCORE.INTER.SOLV>
14.813

>  <SCORE.INTER.VDW>
-37.1959

>  <SCORE.INTER.norm>
-1.78721

>  <SCORE.INTRA>
-3.01717

>  <SCORE.INTRA.DIHEDRAL>
-5.85985

>  <SCORE.INTRA.DIHEDRAL.0>
15.5708

>  <SCORE.INTRA.POLAR>
0.0677885

>  <SCORE.INTRA.POLAR.0>
-0.0677885

>  <SCORE.INTRA.REPUL>
0

>  <SCORE.INTRA.REPUL.0>
0

>  <SCORE.INTRA.SOLV>
-1.80932

>  <SCORE.INTRA.SOLV.lig_0>
-87.6316

>  <SCORE.INTRA.VDW>
0.58693

>  <SCORE.INTRA.VDW.0>
-2.87309

>  <SCORE.INTRA.norm>
-0.0973282

>  <SCORE.RESTR>
0

>  <SCORE.RESTR.CAVITY>
0

>  <SCORE.RESTR.norm>
0

>  <SCORE.SYSTEM>
0

>  <SCORE.SYSTEM.CONST>
0

>  <SCORE.SYSTEM.DIHEDRAL>
0

>  <SCORE.SYSTEM.SOLV>
0

>  <SCORE.SYSTEM.norm>
0

>  <SCORE.heavy>
31

>  <SCORE.norm>
-1.88454

>  <SYMMETRIC_BONDS>
33 34 3

>  <RMSD>
1.957

$$$$
1fmn_cryst
 OpenBabel11021811393D
libRbt.so/2013.1/901 2013/11/27
 31 33  0  0  0  0  0  0  0  0999 V2000
   -8.8151   -6.1585    3.7227 N   0  0  0  0  0  0  0  0  0  0  0  0
   -9.7483   -6.0995    4.7312 C   0  0  0  0  0  0  0  0  0  0  0  0
   -9.5377   -6.5818    5.8445 O   0  0  0  0  0  0  0  0  0  0  0  0
  -10.9676   -5.4536    4.4062 N   0  0  0  0  0  0  0  0  0  0  0  0
  -11.3116   -4.8751    3.1647 C   0  0  0  0  0  0  0  0  0  0  0  0
  -12.4168   -4.3383    3.0173 O   0  0  0  0  0  0  0  0  0  0  0  0
  -10.2661   -4.9802    2.1444 C   0  0  0  0  0  0  0  0  0  0  0  0
  -10.5224   -4.4415    0.9082 N   0  0  0  0  0  0  0  0  0  0  0  0
   -9.6264   -4.6976   -0.0889 C   0  0  0  0  0  0  0  0  0  0  0  0
   -9.9658   -4.3184   -1.3756 C   0  0  0  0  0  0  0  0  0  0  0  0
   -9.1259   -4.5403   -2.4133 C   0  0  0  0  0  0  0  0  0  0  0  0
   -9.5393   -4.1081   -3.7839 C   0  0  0  0  0  0  0  0  0  0  0  0
   -7.9251   -5.1461   -2.2084 C   0  0  0  0  0  0  0  0  0  0  0  0
   -7.0070   -5.3934   -3.3608 C   0  0  0  0  0  0  0  0  0  0  0  0
   -7.5495   -5.5347   -0.9631 C   0  0  0  0  0  0  0  0  0  0  0  0
   -8.3777   -5.3289    0.1402 C   0  0  0  0  0  0  0  0  0  0  0  0
   -8.0483   -5.7041    1.4595 N   0  0  0  0  0  0  0  0  0  0  0  0
   -9.0229   -5.6358    2.4761 C   0  0  0  0  0  0  0  0  0  0  0  0
   -6.6014   -5.6171    1.8808 C   0  0  0  0  0  0  0  0  0  0  0  0
   -5.9398   -6.9441    2.3618 C   0  0  1  0  0  0  0  0  0  0  0  0
   -6.7837   -7.6006    3.2972 O   0  0  0  0  0  0  0  0  0  0  0  0
   -5.5246   -7.8757    1.1983 C   0  0  1  0  0  0  0  0  0  0  0  0
   -4.5933   -7.2156    0.3459 O   0  0  0  0  0  0  0  0  0  0  0  0
   -4.9883   -9.2774    1.5799 C   0  0  1  0  0  0  0  0  0  0  0  0
   -4.3729   -9.8509    0.4317 O   0  0  0  0  0  0  0  0  0  0  0  0
   -3.9559   -9.2353    2.7288 C   0  0  0  0  0  0  0  0  0  0  0  0
   -3.4429  -10.5239    3.0458 O   0  0  0  0  0  0  0  0  0  0  0  0
   -2.3739  -10.7620    4.1912 P   0  0  0  0  0  0  0  0  0  0  0  0
   -2.8716  -10.2590    5.4917 O   0  0  0  0  0  0  0  0  0  0  0  0
   -1.8350  -12.1375    4.1235 O   0  5  0  0  0  0  0  0  0  0  0  0
   -1.1731   -9.7952    3.7934 O   0  5  0  0  0  0  0  0  0  0  0  0
  1 18  1  0  0  0  0
  1  2  1  0  0  0  0
  2  4  1  0  0  0  0
  2  3  2  0  0  0  0
  4  5  1  0  0  0  0
  5  7  1  0  0  0  0
  5  6  2  0  0  0  0
  7 18  2  0  0  0  0
  7  8  1  0  0  0  0
  8  9  1  0  0  0  0
  9 10  2  0  0  0  0
  9 16  1  0  0  0  0
 10 11  1  0  0  0  0
 11 12  1  0  0  0  0
 11 13  2  0  0  0  0
 13 14  1  0  0  0  0
 13 15  1  0  0  0  0
 15 16  2  0  0  0  0
 16 17  1  0  0  0  0
 17 19  1  0  0  0  0
 17 18  1  0  0  0  0
 20 19  1  6  0  0  0
 20 22  1  0  0  0  0
 20 21  1  0  0  0  0
 22 24  1  0  0  0  0
 22 23  1  1  0  0  0
 24 26  1  1  0  0  0
 24 25  1  0  0  0  0
 26 27  1  0  0  0  0
 27 28  1  0  0  0  0
 28 30  1  0  0  0  0
 28 29  2  0  0  0  0
 28 31  1  0  0  0  0
M  CHG  2  30  -1  31  -1
M  END
>  <CHROM.1>
-120.85414174,-47.79318706,59.44740156,-175.57694185,-166.38720865,61.36040128
-178.37656547,61.72788633,-179.70423944,57.16734118,-6.90917773,-7.05829459
1.86436383,2.63734066,0.56017484,-1.28570829

>  <Name>
1fmn_cryst

>  <RI>
0

>  <Rbt.Current_Directory>
/home/itssahil/PROJECTS/Mol_Feturizer/New_Systems/rnas/1fmn

>  <Rbt.Executable>
rbdock ($Id: //depot/dev/client3/rdock/2013.1/src/exe/rbdock.cxx#4 $)

>  <Rbt.Library>
libRbt.so (2013.1, Build901 2013/11/27)

>  <Rbt.Parameter_File>
/export/apps/rDock/src/rDock_2013.1_src/data/scripts/dock_solv.prm

>  <Rbt.Receptor>
prm/pocket_docking_4.prm

>  <SCORE>
-59.0369

>  <SCORE.INTER>
-49.786

>  <SCORE.INTER.CONST>
1

>  <SCORE.INTER.POLAR>
-2.14891

>  <SCORE.INTER.ROT>
7

>  <SCORE.INTER.SOLV>
17.7759

>  <SCORE.INTER.VDW>
-40.2196

>  <SCORE.INTER.norm>
-1.606

>  <SCORE.INTRA>
-9.25097

>  <SCORE.INTRA.DIHEDRAL>
-11.809

>  <SCORE.INTRA.DIHEDRAL.0>
15.5708

>  <SCORE.INTRA.POLAR>
-0.784401

>  <SCORE.INTRA.POLAR.0>
-0.0677885

>  <SCORE.INTRA.REPUL>
0

>  <SCORE.INTRA.REPUL.0>
0

>  <SCORE.INTRA.SOLV>
-3.49114

>  <SCORE.INTRA.SOLV.lig_0>
-87.6316

>  <SCORE.INTRA.VDW>
1.06606

>  <SCORE.INTRA.VDW.0>
-2.87309

>  <SCORE.INTRA.norm>
-0.298418

>  <SCORE.RESTR>
0

>  <SCORE.RESTR.CAVITY>
0

>  <SCORE.RESTR.norm>
0

>  <SCORE.SYSTEM>
0

>  <SCORE.SYSTEM.CONST>
0

>  <SCORE.SYSTEM.DIHEDRAL>
0

>  <SCORE.SYSTEM.SOLV>
0

>  <SCORE.SYSTEM.norm>
0

>  <SCORE.heavy>
31

>  <SCORE.norm>
-1.90442

>  <SYMMETRIC_BONDS>
33 34 3

>  <RMSD>
1.991

$$$$
1fmn_cryst
 OpenBabel11021811393D
libRbt.so/2013.1/901 2013/11/27
 31 33  0  0  0  0  0  0  0  0999 V2000
   -9.0653   -6.8004    3.5942 N   0  0  0  0  0  0  0  0  0  0  0  0
   -9.9240   -6.7651    4.6679 C   0  0  0  0  0  0  0  0  0  0  0  0
   -9.7290   -7.4360    5.6820 O   0  0  0  0  0  0  0  0  0  0  0  0
  -11.0482   -5.9125    4.5308 N   0  0  0  0  0  0  0  0  0  0  0  0
  -11.3672   -5.1094    3.4140 C   0  0  0  0  0  0  0  0  0  0  0  0
  -12.3857   -4.4066    3.4281 O   0  0  0  0  0  0  0  0  0  0  0  0
  -10.4052   -5.2036    2.3137 C   0  0  0  0  0  0  0  0  0  0  0  0
  -10.6433   -4.4524    1.1898 N   0  0  0  0  0  0  0  0  0  0  0  0
   -9.8504   -4.6770    0.1020 C   0  0  0  0  0  0  0  0  0  0  0  0
  -10.1971   -4.0626   -1.0883 C   0  0  0  0  0  0  0  0  0  0  0  0
   -9.4566   -4.2396   -2.2071 C   0  0  0  0  0  0  0  0  0  0  0  0
   -9.8730   -3.5501   -3.4671 C   0  0  0  0  0  0  0  0  0  0  0  0
   -8.3510   -5.0321   -2.1814 C   0  0  0  0  0  0  0  0  0  0  0  0
   -7.5432   -5.2275   -3.4229 C   0  0  0  0  0  0  0  0  0  0  0  0
   -7.9721   -5.6546   -1.0361 C   0  0  0  0  0  0  0  0  0  0  0  0
   -8.7001   -5.5049    0.1442 C   0  0  0  0  0  0  0  0  0  0  0  0
   -8.3608   -6.1191    1.3680 N   0  0  0  0  0  0  0  0  0  0  0  0
   -9.2585   -6.0701    2.4541 C   0  0  0  0  0  0  0  0  0  0  0  0
   -6.8969   -6.3012    1.6877 C   0  0  0  0  0  0  0  0  0  0  0  0
   -6.2438   -5.2081    2.5870 C   0  0  1  0  0  0  0  0  0  0  0  0
   -6.3583   -5.5685    3.9563 O   0  0  0  0  0  0  0  0  0  0  0  0
   -4.7839   -4.8837    2.1904 C   0  0  1  0  0  0  0  0  0  0  0  0
   -4.5928   -3.4736    2.1219 O   0  0  0  0  0  0  0  0  0  0  0  0
   -3.6655   -5.5262    3.0473 C   0  0  1  0  0  0  0  0  0  0  0  0
   -3.7424   -4.9884    4.3629 O   0  0  0  0  0  0  0  0  0  0  0  0
   -3.7796   -7.0649    3.1315 C   0  0  0  0  0  0  0  0  0  0  0  0
   -3.2941   -7.5791    4.3660 O   0  0  0  0  0  0  0  0  0  0  0  0
   -1.7894   -7.4073    4.8326 P   0  0  0  0  0  0  0  0  0  0  0  0
   -1.5526   -6.0453    5.3628 O   0  0  0  0  0  0  0  0  0  0  0  0
   -1.3593   -8.5671    5.6430 O   0  5  0  0  0  0  0  0  0  0  0  0
   -0.9621   -7.4840    3.4745 O   0  5  0  0  0  0  0  0  0  0  0  0
  1 18  1  0  0  0  0
  1  2  1  0  0  0  0
  2  4  1  0  0  0  0
  2  3  2  0  0  0  0
  4  5  1  0  0  0  0
  5  7  1  0  0  0  0
  5  6  2  0  0  0  0
  7 18  2  0  0  0  0
  7  8  1  0  0  0  0
  8  9  1  0  0  0  0
  9 10  2  0  0  0  0
  9 16  1  0  0  0  0
 10 11  1  0  0  0  0
 11 12  1  0  0  0  0
 11 13  2  0  0  0  0
 13 14  1  0  0  0  0
 13 15  1  0  0  0  0
 15 16  2  0  0  0  0
 16 17  1  0  0  0  0
 17 19  1  0  0  0  0
 17 18  1  0  0  0  0
 20 19  1  6  0  0  0
 20 22  1  0  0  0  0
 20 21  1  0  0  0  0
 22 24  1  0  0  0  0
 22 23  1  1  0  0  0
 24 26  1  1  0  0  0
 24 25  1  0  0  0  0
 26 27  1  0  0  0  0
 27 28  1  0  0  0  0
 28 30  1  0  0  0  0
 28 29  2  0  0  0  0
 28 31  1  0  0  0  0
M  CHG  2  30  -1  31  -1
M  END
>  <CHROM.1>
96.35347558,90.25316978,132.81649523,-62.16391091,-65.44715589,-177.17286538
-148.76798833,55.16138797,-61.71458915,78.24604407,-6.84195178,-5.77754534
2.36119308,2.60053148,0.10474320,-1.28807941

>  <Name>
1fmn_cryst

>  <RI>
0

>  <Rbt.Current_Directory>
/home/itssahil/PROJECTS/Mol_Feturizer/New_Systems/rnas/1fmn

>  <Rbt.Executable>
rbdock ($Id: //depot/dev/client3/rdock/2013.1/src/exe/rbdock.cxx#4 $)

>  <Rbt.Library>
libRbt.so (2013.1, Build901 2013/11/27)

>  <Rbt.Parameter_File>
/export/apps/rDock/src/rDock_2013.1_src/data/scripts/dock_solv.prm

>  <Rbt.Receptor>
prm/pocket_docking_3.prm

>  <SCORE>
-49.5678

>  <SCORE.INTER>
-48.3579

>  <SCORE.INTER.CONST>
1

>  <SCORE.INTER.POLAR>
-2.89685

>  <SCORE.INTER.ROT>
7

>  <SCORE.INTER.SOLV>
16.5482

>  <SCORE.INTER.VDW>
-36.3652

>  <SCORE.INTER.norm>
-1.55993

>  <SCORE.INTRA>
-1.99199

>  <SCORE.INTRA.DIHEDRAL>
-2.75442

>  <SCORE.INTRA.DIHEDRAL.0>
15.5708

>  <SCORE.INTRA.POLAR>
-0.636787

>  <SCORE.INTRA.POLAR.0>
-0.0677885

>  <SCORE.INTRA.REPUL>
0

>  <SCORE.INTRA.REPUL.0>
0

>  <SCORE.INTRA.SOLV>
0.875654

>  <SCORE.INTRA.SOLV.lig_0>
-87.6316

>  <SCORE.INTRA.VDW>
1.11247

>  <SCORE.INTRA.VDW.0>
-2.87309

>  <SCORE.INTRA.norm>
-0.0642577

>  <SCORE.RESTR>
0.782092

>  <SCORE.RESTR.CAVITY>
0.782092

>  <SCORE.RESTR.norm>
0.0252288

>  <SCORE.SYSTEM>
0

>  <SCORE.SYSTEM.CONST>
0

>  <SCORE.SYSTEM.DIHEDRAL>
0

>  <SCORE.SYSTEM.SOLV>
0

>  <SCORE.SYSTEM.norm>
0

>  <SCORE.heavy>
31

>  <SCORE.norm>
-1.59896

>  <SYMMETRIC_BONDS>
33 34 3

>  <RMSD>
1.994

$$$$
1fmn_cryst
 OpenBabel11021811393D
libRbt.so/2013.1/901 2013/11/27
 31 33  0  0  0  0  0  0  0  0999 V2000
   -8.9211   -6.6794    3.7663 N   0  0  0  0  0  0  0  0  0  0  0  0
   -9.7655   -6.6250    4.8506 C   0  0  0  0  0  0  0  0  0  0  0  0
   -9.5498   -7.2676    5.8787 O   0  0  0  0  0  0  0  0  0  0  0  0
  -10.9002   -5.7876    4.7073 N   0  0  0  0  0  0  0  0  0  0  0  0
  -11.2427   -5.0167    3.5748 C   0  0  0  0  0  0  0  0  0  0  0  0
  -12.2681   -4.3240    3.5850 O   0  0  0  0  0  0  0  0  0  0  0  0
  -10.2948   -5.1296    2.4640 C   0  0  0  0  0  0  0  0  0  0  0  0
  -10.5559   -4.4099    1.3247 N   0  0  0  0  0  0  0  0  0  0  0  0
   -9.7755   -4.6545    0.2321 C   0  0  0  0  0  0  0  0  0  0  0  0
  -10.1447   -4.0744   -0.9685 C   0  0  0  0  0  0  0  0  0  0  0  0
   -9.4177   -4.2727   -2.0926 C   0  0  0  0  0  0  0  0  0  0  0  0
   -9.8582   -3.6200   -3.3639 C   0  0  0  0  0  0  0  0  0  0  0  0
   -8.3037   -5.0531   -2.0619 C   0  0  0  0  0  0  0  0  0  0  0  0
   -7.5108   -5.2723   -3.3091 C   0  0  0  0  0  0  0  0  0  0  0  0
   -7.9028   -5.6421   -0.9064 C   0  0  0  0  0  0  0  0  0  0  0  0
   -8.6162   -5.4694    0.2797 C   0  0  0  0  0  0  0  0  0  0  0  0
   -8.2540   -6.0484    1.5139 N   0  0  0  0  0  0  0  0  0  0  0  0
   -9.1373   -5.9806    2.6108 C   0  0  0  0  0  0  0  0  0  0  0  0
   -6.7840   -6.2076    1.8179 C   0  0  0  0  0  0  0  0  0  0  0  0
   -6.2345   -7.6663    1.8327 C   0  0  1  0  0  0  0  0  0  0  0  0
   -6.0382   -8.1288    0.5040 O   0  0  0  0  0  0  0  0  0  0  0  0
   -4.9640   -7.8310    2.7003 C   0  0  1  0  0  0  0  0  0  0  0  0
   -4.5840   -9.2026    2.7636 O   0  0  0  0  0  0  0  0  0  0  0  0
   -3.7396   -6.9617    2.3222 C   0  0  1  0  0  0  0  0  0  0  0  0
   -4.0832   -5.5938    2.5142 O   0  0  0  0  0  0  0  0  0  0  0  0
   -2.4876   -7.2835    3.1687 C   0  0  0  0  0  0  0  0  0  0  0  0
   -1.3334   -6.5831    2.7198 O   0  0  0  0  0  0  0  0  0  0  0  0
    0.0895   -6.7551    3.3959 P   0  0  0  0  0  0  0  0  0  0  0  0
    0.0876   -6.2179    4.7756 O   0  0  0  0  0  0  0  0  0  0  0  0
    0.6136   -8.1190    3.1680 O   0  5  0  0  0  0  0  0  0  0  0  0
    1.0253   -5.7751    2.5600 O   0  5  0  0  0  0  0  0  0  0  0  0
  1 18  1  0  0  0  0
  1  2  1  0  0  0  0
  2  4  1  0  0  0  0
  2  3  2  0  0  0  0
  4  5  1  0  0  0  0
  5  7  1  0  0  0  0
  5  6  2  0  0  0  0
  7 18  2  0  0  0  0
  7  8  1  0  0  0  0
  8  9  1  0  0  0  0
  9 10  2  0  0  0  0
  9 16  1  0  0  0  0
 10 11  1  0  0  0  0
 11 12  1  0  0  0  0
 11 13  2  0  0  0  0
 13 14  1  0  0  0  0
 13 15  1  0  0  0  0
 15 16  2  0  0  0  0
 16 17  1  0  0  0  0
 17 19  1  0  0  0  0
 17 18  1  0  0  0  0
 20 19  1  6  0  0  0
 20 22  1  0  0  0  0
 20 21  1  0  0  0  0
 22 24  1  0  0  0  0
 22 23  1  6  0  0  0
 24 26  1  1  0  0  0
 24 25  1  0  0  0  0
 26 27  1  0  0  0  0
 27 28  1  0  0  0  0
 28 30  1  0  0  0  0
 28 29  2  0  0  0  0
 28 31  1  0  0  0  0
M  CHG  2  30  -1  31  -1
M  END
>  <CHROM.1>
-110.30635710,78.18221614,174.97251734,-152.50184385,64.23771288,60.46382432
173.72334037,-172.11561581,-178.76250573,-66.81825867,-6.35854984,-6.13362876
1.94424255,2.88310949,0.14238426,-1.31624431

>  <Name>
1fmn_cryst

>  <RI>
0

>  <Rbt.Current_Directory>
/home/itssahil/PROJECTS/Mol_Feturizer/New_Systems/rnas/1fmn

>  <Rbt.Executable>
rbdock ($Id: //depot/dev/client3/rdock/2013.1/src/exe/rbdock.cxx#4 $)

>  <Rbt.Library>
libRbt.so (2013.1, Build901 2013/11/27)

>  <Rbt.Parameter_File>
/export/apps/rDock/src/rDock_2013.1_src/data/scripts/dock_solv.prm

>  <Rbt.Receptor>
prm/pocket_docking_5.prm

>  <SCORE>
-53.5004

>  <SCORE.INTER>
-47.7454

>  <SCORE.INTER.CONST>
1

>  <SCORE.INTER.POLAR>
-2.68998

>  <SCORE.INTER.ROT>
7

>  <SCORE.INTER.SOLV>
15.193

>  <SCORE.INTER.VDW>
-36.1947

>  <SCORE.INTER.norm>
-1.54018

>  <SCORE.INTRA>
-5.75498

>  <SCORE.INTRA.DIHEDRAL>
-8.15129

>  <SCORE.INTRA.DIHEDRAL.0>
15.5708

>  <SCORE.INTRA.POLAR>
0.0677885

>  <SCORE.INTRA.POLAR.0>
-0.0677885

>  <SCORE.INTRA.REPUL>
0

>  <SCORE.INTRA.REPUL.0>
0

>  <SCORE.INTRA.SOLV>
-5.07114

>  <SCORE.INTRA.SOLV.lig_0>
-87.6316

>  <SCORE.INTRA.VDW>
0.625757

>  <SCORE.INTRA.VDW.0>
-2.87309

>  <SCORE.INTRA.norm>
-0.185645

>  <SCORE.RESTR>
0

>  <SCORE.RESTR.CAVITY>
0

>  <SCORE.RESTR.norm>
0

>  <SCORE.SYSTEM>
0

>  <SCORE.SYSTEM.CONST>
0

>  <SCORE.SYSTEM.DIHEDRAL>
0

>  <SCORE.SYSTEM.SOLV>
0

>  <SCORE.SYSTEM.norm>
0

>  <SCORE.heavy>
31

>  <SCORE.norm>
-1.72582

>  <SYMMETRIC_BONDS>
33 34 3

>  <RMSD>
1.996

$$$$
1fmn_cryst
 OpenBabel11021811393D
libRbt.so/2013.1/901 2013/11/27
 31 33  0  0  0  0  0  0  0  0999 V2000
   -9.1911   -6.1371    3.3769 N   0  0  0  0  0  0  0  0  0  0  0  0
   -9.8149   -6.1831    4.6017 C   0  0  0  0  0  0  0  0  0  0  0  0
   -9.3636   -6.8410    5.5398 O   0  0  0  0  0  0  0  0  0  0  0  0
  -11.0108   -5.4302    4.7136 N   0  0  0  0  0  0  0  0  0  0  0  0
  -11.6149   -4.6505    3.7030 C   0  0  0  0  0  0  0  0  0  0  0  0
  -12.6645   -4.0386    3.9380 O   0  0  0  0  0  0  0  0  0  0  0  0
  -10.8907   -4.6541    2.4299 C   0  0  0  0  0  0  0  0  0  0  0  0
  -11.4131   -3.9192    1.3948 N   0  0  0  0  0  0  0  0  0  0  0  0
  -10.8405   -4.0674    0.1649 C   0  0  0  0  0  0  0  0  0  0  0  0
  -11.4707   -3.4777   -0.9165 C   0  0  0  0  0  0  0  0  0  0  0  0
  -10.9596   -3.5828   -2.1651 C   0  0  0  0  0  0  0  0  0  0  0  0
  -11.6782   -2.9239   -3.2991 C   0  0  0  0  0  0  0  0  0  0  0  0
   -9.8094   -4.2769   -2.3809 C   0  0  0  0  0  0  0  0  0  0  0  0
   -9.2559   -4.3937   -3.7636 C   0  0  0  0  0  0  0  0  0  0  0  0
   -9.1561   -4.8715   -1.3501 C   0  0  0  0  0  0  0  0  0  0  0  0
   -9.6404   -4.7928   -0.0444 C   0  0  0  0  0  0  0  0  0  0  0  0
   -9.0106   -5.3832    1.0714 N   0  0  0  0  0  0  0  0  0  0  0  0
   -9.6711   -5.4190    2.3165 C   0  0  0  0  0  0  0  0  0  0  0  0
   -7.5023   -5.4399    1.0860 C   0  0  0  0  0  0  0  0  0  0  0  0
   -6.8344   -6.3654    0.0241 C   0  0  1  0  0  0  0  0  0  0  0  0
   -6.6996   -5.6757   -1.2105 O   0  0  0  0  0  0  0  0  0  0  0  0
   -5.4937   -6.9729    0.5011 C   0  0  1  0  0  0  0  0  0  0  0  0
   -4.5942   -5.9390    0.8904 O   0  0  0  0  0  0  0  0  0  0  0  0
   -5.5680   -8.0520    1.6092 C   0  0  1  0  0  0  0  0  0  0  0  0
   -4.4212   -8.8879    1.5000 O   0  0  0  0  0  0  0  0  0  0  0  0
   -5.6125   -7.4520    3.0325 C   0  0  0  0  0  0  0  0  0  0  0  0
   -4.3446   -6.9664    3.4574 O   0  0  0  0  0  0  0  0  0  0  0  0
   -4.1250   -6.2544    4.8560 P   0  0  0  0  0  0  0  0  0  0  0  0
   -2.6824   -6.0822    5.1409 O   0  0  0  0  0  0  0  0  0  0  0  0
   -5.0180   -5.0833    4.9907 O   0  5  0  0  0  0  0  0  0  0  0  0
   -4.6410   -7.3290    5.9115 O   0  5  0  0  0  0  0  0  0  0  0  0
  1 18  1  0  0  0  0
  1  2  1  0  0  0  0
  2  4  1  0  0  0  0
  2  3  2  0  0  0  0
  4  5  1  0  0  0  0
  5  7  1  0  0  0  0
  5  6  2  0  0  0  0
  7 18  2  0  0  0  0
  7  8  1  0  0  0  0
  8  9  1  0  0  0  0
  9 10  2  0  0  0  0
  9 16  1  0  0  0  0
 10 11  1  0  0  0  0
 11 12  1  0  0  0  0
 11 13  2  0  0  0  0
 13 14  1  0  0  0  0
 13 15  1  0  0  0  0
 15 16  2  0  0  0  0
 16 17  1  0  0  0  0
 17 19  1  0  0  0  0
 17 18  1  0  0  0  0
 20 19  1  1  0  0  0
 20 22  1  0  0  0  0
 20 21  1  0  0  0  0
 22 24  1  0  0  0  0
 22 23  1  1  0  0  0
 24 26  1  1  0  0  0
 24 25  1  0  0  0  0
 26 27  1  0  0  0  0
 27 28  1  0  0  0  0
 28 30  1  0  0  0  0
 28 29  2  0  0  0  0
 28 31  1  0  0  0  0
M  CHG  2  30  -1  31  -1
M  END
>  <CHROM.1>
-67.13056340,84.21454789,-55.91850114,59.28348714,154.27002725,-171.62133189
-75.30395541,-62.63464098,177.70773211,169.43653961,-7.92024493,-5.61340557
1.85252726,0.66227695,-0.32486209,1.69721522

>  <Name>
1fmn_cryst

>  <RI>
0

>  <Rbt.Current_Directory>
/home/itssahil/PROJECTS/Mol_Feturizer/New_Systems/rnas/1fmn

>  <Rbt.Executable>
rbdock ($Id: //depot/dev/client3/rdock/2013.1/src/exe/rbdock.cxx#4 $)

>  <Rbt.Library>
libRbt.so (2013.1, Build901 2013/11/27)

>  <Rbt.Parameter_File>
/export/apps/rDock/src/rDock_2013.1_src/data/scripts/dock_solv.prm

>  <Rbt.Receptor>
prm/pocket_docking_4.prm

>  <SCORE>
-56.5997

>  <SCORE.INTER>
-52.3174

>  <SCORE.INTER.CONST>
1

>  <SCORE.INTER.POLAR>
-3.13253

>  <SCORE.INTER.ROT>
7

>  <SCORE.INTER.SOLV>
22.0996

>  <SCORE.INTER.VDW>
-40.0697

>  <SCORE.INTER.norm>
-1.68766

>  <SCORE.INTRA>
-4.28221

>  <SCORE.INTRA.DIHEDRAL>
-8.51308

>  <SCORE.INTRA.DIHEDRAL.0>
15.5708

>  <SCORE.INTRA.POLAR>
0.0677885

>  <SCORE.INTRA.POLAR.0>
-0.0677885

>  <SCORE.INTRA.REPUL>
0

>  <SCORE.INTRA.REPUL.0>
0

>  <SCORE.INTRA.SOLV>
-3.61171

>  <SCORE.INTRA.SOLV.lig_0>
-87.6316

>  <SCORE.INTRA.VDW>
1.5497

>  <SCORE.INTRA.VDW.0>
-2.87309

>  <SCORE.INTRA.norm>
-0.138136

>  <SCORE.RESTR>
0

>  <SCORE.RESTR.CAVITY>
0

>  <SCORE.RESTR.norm>
0

>  <SCORE.SYSTEM>
0

>  <SCORE.SYSTEM.CONST>
0

>  <SCORE.SYSTEM.DIHEDRAL>
0

>  <SCORE.SYSTEM.SOLV>
0

>  <SCORE.SYSTEM.norm>
0

>  <SCORE.heavy>
31

>  <SCORE.norm>
-1.8258

>  <SYMMETRIC_BONDS>
33 34 3

>  <RMSD>
1.997

$$$$
1fmn_cryst
 OpenBabel11021811393D
libRbt.so/2013.1/901 2013/11/27
 31 33  0  0  0  0  0  0  0  0999 V2000
   -8.7905   -6.1893    3.6439 N   0  0  0  0  0  0  0  0  0  0  0  0
   -9.5775   -6.2499    4.7702 C   0  0  0  0  0  0  0  0  0  0  0  0
   -9.1962   -6.7994    5.8042 O   0  0  0  0  0  0  0  0  0  0  0  0
  -10.8550   -5.6448    4.6633 N   0  0  0  0  0  0  0  0  0  0  0  0
  -11.3899   -4.9971    3.5282 C   0  0  0  0  0  0  0  0  0  0  0  0
  -12.5256   -4.5077    3.5729 O   0  0  0  0  0  0  0  0  0  0  0  0
  -10.4915   -4.9758    2.3715 C   0  0  0  0  0  0  0  0  0  0  0  0
  -10.9373   -4.3636    1.2267 N   0  0  0  0  0  0  0  0  0  0  0  0
  -10.1777   -4.5021    0.1013 C   0  0  0  0  0  0  0  0  0  0  0  0
  -10.7062   -4.0494   -1.0946 C   0  0  0  0  0  0  0  0  0  0  0  0
  -10.0091   -4.1537   -2.2499 C   0  0  0  0  0  0  0  0  0  0  0  0
  -10.6246   -3.6459   -3.5147 C   0  0  0  0  0  0  0  0  0  0  0  0
   -8.7681   -4.7112   -2.2560 C   0  0  0  0  0  0  0  0  0  0  0  0
   -8.0084   -4.8286   -3.5371 C   0  0  0  0  0  0  0  0  0  0  0  0
   -8.2090   -5.1684   -1.1066 C   0  0  0  0  0  0  0  0  0  0  0  0
   -8.8849   -5.0842    0.1106 C   0  0  0  0  0  0  0  0  0  0  0  0
   -8.3619   -5.5359    1.3405 N   0  0  0  0  0  0  0  0  0  0  0  0
   -9.1891   -5.5898    2.4811 C   0  0  0  0  0  0  0  0  0  0  0  0
   -6.8755   -5.4062    1.5689 C   0  0  0  0  0  0  0  0  0  0  0  0
   -6.0902   -6.7353    1.7856 C   0  0  1  0  0  0  0  0  0  0  0  0
   -6.4473   -7.6826    0.7890 O   0  0  0  0  0  0  0  0  0  0  0  0
   -4.5589   -6.5319    1.8735 C   0  0  1  0  0  0  0  0  0  0  0  0
   -4.2411   -5.6271    2.9271 O   0  0  0  0  0  0  0  0  0  0  0  0
   -3.6882   -7.8068    1.9929 C   0  0  1  0  0  0  0  0  0  0  0  0
   -3.9371   -8.6288    0.8578 O   0  0  0  0  0  0  0  0  0  0  0  0
   -2.1755   -7.4992    2.0621 C   0  0  0  0  0  0  0  0  0  0  0  0
   -1.8183   -6.7925    3.2441 O   0  0  0  0  0  0  0  0  0  0  0  0
   -0.3280   -6.3606    3.5662 P   0  0  0  0  0  0  0  0  0  0  0  0
    0.5287   -7.5465    3.7937 O   0  0  0  0  0  0  0  0  0  0  0  0
    0.1324   -5.3267    2.6143 O   0  5  0  0  0  0  0  0  0  0  0  0
   -0.4414   -5.6409    4.9819 O   0  5  0  0  0  0  0  0  0  0  0  0
  1 18  1  0  0  0  0
  1  2  1  0  0  0  0
  2  4  1  0  0  0  0
  2  3  2  0  0  0  0
  4  5  1  0  0  0  0
  5  7  1  0  0  0  0
  5  6  2  0  0  0  0
  7 18  2  0  0  0  0
  7  8  1  0  0  0  0
  8  9  1  0  0  0  0
  9 10  2  0  0  0  0
  9 16  1  0  0  0  0
 10 11  1  0  0  0  0
 11 12  1  0  0  0  0
 11 13  2  0  0  0  0
 13 14  1  0  0  0  0
 13 15  1  0  0  0  0
 15 16  2  0  0  0  0
 16 17  1  0  0  0  0
 17 19  1  0  0  0  0
 17 18  1  0  0  0  0
 20 19  1  6  0  0  0
 20 22  1  0  0  0  0
 20 21  1  0  0  0  0
 22 24  1  0  0  0  0
 22 23  1  1  0  0  0
 24 26  1  6  0  0  0
 24 25  1  0  0  0  0
 26 27  1  0  0  0  0
 27 28  1  0  0  0  0
 28 30  1  0  0  0  0
 28 29  2  0  0  0  0
 28 31  1  0  0  0  0
M  CHG  2  30  -1  31  -1
M  END
>  <CHROM.1>
-118.08385875,47.91212011,57.52377126,62.22546220,58.88750908,59.54110894
65.51475544,-54.40622615,179.65710443,-66.14258010,-6.55785548,-5.83580953
1.82167519,2.84822198,0.15761247,-1.41108512

>  <Name>
1fmn_cryst

>  <RI>
0

>  <Rbt.Current_Directory>
/home/itssahil/PROJECTS/Mol_Feturizer/New_Systems/rnas/1fmn

>  <Rbt.Executable>
rbdock ($Id: //depot/dev/client3/rdock/2013.1/src/exe/rbdock.cxx#4 $)

>  <Rbt.Library>
libRbt.so (2013.1, Build901 2013/11/27)

>  <Rbt.Parameter_File>
/export/apps/rDock/src/rDock_2013.1_src/data/scripts/dock_solv.prm

>  <Rbt.Receptor>
prm/pocket_docking_6.prm

>  <SCORE>
-58.0854

>  <SCORE.INTER>
-49.5235

>  <SCORE.INTER.CONST>
1

>  <SCORE.INTER.POLAR>
-2.65498

>  <SCORE.INTER.ROT>
7

>  <SCORE.INTER.SOLV>
14.9983

>  <SCORE.INTER.VDW>
-37.4318

>  <SCORE.INTER.norm>
-1.59753

>  <SCORE.INTRA>
-8.56187

>  <SCORE.INTRA.DIHEDRAL>
-12.1024

>  <SCORE.INTRA.DIHEDRAL.0>
15.5708

>  <SCORE.INTRA.POLAR>
-0.282313

>  <SCORE.INTRA.POLAR.0>
-0.0677885

>  <SCORE.INTRA.REPUL>
0

>  <SCORE.INTRA.REPUL.0>
0

>  <SCORE.INTRA.SOLV>
-4.30059

>  <SCORE.INTRA.SOLV.lig_0>
-87.6316

>  <SCORE.INTRA.VDW>
0.59949

>  <SCORE.INTRA.VDW.0>
-2.87309

>  <SCORE.INTRA.norm>
-0.276189

>  <SCORE.RESTR>
0

>  <SCORE.RESTR.CAVITY>
0

>  <SCORE.RESTR.norm>
0

>  <SCORE.SYSTEM>
0

>  <SCORE.SYSTEM.CONST>
0

>  <SCORE.SYSTEM.DIHEDRAL>
0

>  <SCORE.SYSTEM.SOLV>
0

>  <SCORE.SYSTEM.norm>
0

>  <SCORE.heavy>
31

>  <SCORE.norm>
-1.87372

>  <SYMMETRIC_BONDS>
33 34 3

>  <RMSD>
1.997

$$$$
1fmn_cryst
 OpenBabel11021811393D
libRbt.so/2013.1/901 2013/11/27
 31 33  0  0  0  0  0  0  0  0999 V2000
   -8.9700   -6.3880    3.4420 N   0  0  0  0  0  0  0  0  0  0  0  0
   -9.8250   -6.3229    4.5173 C   0  0  0  0  0  0  0  0  0  0  0  0
   -9.5969   -6.9204    5.5697 O   0  0  0  0  0  0  0  0  0  0  0  0
  -10.9856   -5.5296    4.3354 N   0  0  0  0  0  0  0  0  0  0  0  0
  -11.3438   -4.8119    3.1732 C   0  0  0  0  0  0  0  0  0  0  0  0
  -12.3917   -4.1540    3.1507 O   0  0  0  0  0  0  0  0  0  0  0  0
  -10.3832   -4.9330    2.0742 C   0  0  0  0  0  0  0  0  0  0  0  0
  -10.6584   -4.2640    0.9076 N   0  0  0  0  0  0  0  0  0  0  0  0
   -9.8610   -4.5216   -0.1696 C   0  0  0  0  0  0  0  0  0  0  0  0
  -10.2390   -3.9978   -1.3932 C   0  0  0  0  0  0  0  0  0  0  0  0
   -9.4962   -4.2121   -2.5039 C   0  0  0  0  0  0  0  0  0  0  0  0
   -9.9473   -3.6208   -3.8014 C   0  0  0  0  0  0  0  0  0  0  0  0
   -8.3572   -4.9533   -2.4368 C   0  0  0  0  0  0  0  0  0  0  0  0
   -7.5470   -5.1906   -3.6694 C   0  0  0  0  0  0  0  0  0  0  0  0
   -7.9469   -5.4864   -1.2578 C   0  0  0  0  0  0  0  0  0  0  0  0
   -8.6757   -5.2950   -0.0840 C   0  0  0  0  0  0  0  0  0  0  0  0
   -8.3050   -5.8168    1.1731 N   0  0  0  0  0  0  0  0  0  0  0  0
   -9.1995   -5.7390    2.2602 C   0  0  0  0  0  0  0  0  0  0  0  0
   -6.8333   -5.9156    1.4933 C   0  0  0  0  0  0  0  0  0  0  0  0
   -6.4117   -5.5167    2.9402 C   0  0  1  0  0  0  0  0  0  0  0  0
   -6.5218   -6.6360    3.8080 O   0  0  0  0  0  0  0  0  0  0  0  0
   -5.0115   -4.8619    3.0092 C   0  0  1  0  0  0  0  0  0  0  0  0
   -4.7586   -4.3754    4.3240 O   0  0  0  0  0  0  0  0  0  0  0  0
   -3.8141   -5.7151    2.5233 C   0  0  1  0  0  0  0  0  0  0  0  0
   -3.9030   -5.8502    1.1092 O   0  0  0  0  0  0  0  0  0  0  0  0
   -2.4459   -5.0908    2.8783 C   0  0  0  0  0  0  0  0  0  0  0  0
   -2.1497   -5.1844    4.2667 O   0  0  0  0  0  0  0  0  0  0  0  0
   -1.8012   -6.5572    4.9774 P   0  0  0  0  0  0  0  0  0  0  0  0
   -2.9489   -7.4906    4.9159 O   0  0  0  0  0  0  0  0  0  0  0  0
   -0.4708   -7.0420    4.5508 O   0  5  0  0  0  0  0  0  0  0  0  0
   -1.6575   -6.1614    6.5128 O   0  5  0  0  0  0  0  0  0  0  0  0
  1 18  1  0  0  0  0
  1  2  1  0  0  0  0
  2  4  1  0  0  0  0
  2  3  2  0  0  0  0
  4  5  1  0  0  0  0
  5  7  1  0  0  0  0
  5  6  2  0  0  0  0
  7 18  2  0  0  0  0
  7  8  1  0  0  0  0
  8  9  1  0  0  0  0
  9 10  2  0  0  0  0
  9 16  1  0  0  0  0
 10 11  1  0  0  0  0
 11 12  1  0  0  0  0
 11 13  2  0  0  0  0
 13 14  1  0  0  0  0
 13 15  1  0  0  0  0
 15 16  2  0  0  0  0
 16 17  1  0  0  0  0
 17 19  1  0  0  0  0
 17 18  1  0  0  0  0
 20 19  1  6  0  0  0
 20 22  1  0  0  0  0
 20 21  1  0  0  0  0
 22 24  1  0  0  0  0
 22 23  1  1  0  0  0
 24 26  1  6  0  0  0
 24 25  1  0  0  0  0
 26 27  1  0  0  0  0
 27 28  1  0  0  0  0
 28 30  1  0  0  0  0
 28 29  2  0  0  0  0
 28 31  1  0  0  0  0
M  CHG  2  30  -1  31  -1
M  END
>  <CHROM.1>
138.78013680,86.78202577,172.87554879,175.83738676,70.39741874,-79.44455538
72.35802025,63.05194842,70.56890295,-63.27997847,-6.82143241,-5.50707548
2.25679394,2.57228740,0.08162939,-1.38707324

>  <Name>
1fmn_cryst

>  <RI>
0

>  <Rbt.Current_Directory>
/home/itssahil/PROJECTS/Mol_Feturizer/New_Systems/rnas/1fmn

>  <Rbt.Executable>
rbdock ($Id: //depot/dev/client3/rdock/2013.1/src/exe/rbdock.cxx#4 $)

>  <Rbt.Library>
libRbt.so (2013.1, Build901 2013/11/27)

>  <Rbt.Parameter_File>
/export/apps/rDock/src/rDock_2013.1_src/data/scripts/dock_solv.prm

>  <Rbt.Receptor>
prm/pocket_docking_3.prm

>  <SCORE>
-52.0596

>  <SCORE.INTER>
-49.3438

>  <SCORE.INTER.CONST>
1

>  <SCORE.INTER.POLAR>
-2.71875

>  <SCORE.INTER.ROT>
7

>  <SCORE.INTER.SOLV>
14.6073

>  <SCORE.INTER.VDW>
-36.9691

>  <SCORE.INTER.norm>
-1.59174

>  <SCORE.INTRA>
-3.36217

>  <SCORE.INTRA.DIHEDRAL>
-7.34134

>  <SCORE.INTRA.DIHEDRAL.0>
15.5708

>  <SCORE.INTRA.POLAR>
-0.612043

>  <SCORE.INTRA.POLAR.0>
-0.0677885

>  <SCORE.INTRA.REPUL>
0

>  <SCORE.INTRA.REPUL.0>
0

>  <SCORE.INTRA.SOLV>
0.332805

>  <SCORE.INTRA.SOLV.lig_0>
-87.6316

>  <SCORE.INTRA.VDW>
2.22304

>  <SCORE.INTRA.VDW.0>
-2.87309

>  <SCORE.INTRA.norm>
-0.108457

>  <SCORE.RESTR>
0.646419

>  <SCORE.RESTR.CAVITY>
0.646419

>  <SCORE.RESTR.norm>
0.0208522

>  <SCORE.SYSTEM>
0

>  <SCORE.SYSTEM.CONST>
0

>  <SCORE.SYSTEM.DIHEDRAL>
0

>  <SCORE.SYSTEM.SOLV>
0

>  <SCORE.SYSTEM.norm>
0

>  <SCORE.heavy>
31

>  <SCORE.norm>
-1.67934

>  <SYMMETRIC_BONDS>
33 34 3

>  <RMSD>
2.020

$$$$
1fmn_cryst
 OpenBabel11021811393D
libRbt.so/2013.1/901 2013/11/27
 31 33  0  0  0  0  0  0  0  0999 V2000
   -8.7663   -6.6348    3.8370 N   0  0  0  0  0  0  0  0  0  0  0  0
   -9.6668   -6.5719    4.8747 C   0  0  0  0  0  0  0  0  0  0  0  0
   -9.4749   -7.1558    5.9418 O   0  0  0  0  0  0  0  0  0  0  0  0
  -10.8299   -5.7975    4.6359 N   0  0  0  0  0  0  0  0  0  0  0  0
  -11.1488   -5.0963    3.4523 C   0  0  0  0  0  0  0  0  0  0  0  0
  -12.2040   -4.4541    3.3789 O   0  0  0  0  0  0  0  0  0  0  0  0
  -10.1409   -5.2139    2.3961 C   0  0  0  0  0  0  0  0  0  0  0  0
  -10.3760   -4.5604    1.2121 N   0  0  0  0  0  0  0  0  0  0  0  0
   -9.5303   -4.8166    0.1722 C   0  0  0  0  0  0  0  0  0  0  0  0
   -9.8636   -4.3102   -1.0716 C   0  0  0  0  0  0  0  0  0  0  0  0
   -9.0715   -4.5243   -2.1478 C   0  0  0  0  0  0  0  0  0  0  0  0
   -9.4758   -3.9523   -3.4691 C   0  0  0  0  0  0  0  0  0  0  0  0
   -7.9260   -5.2480   -2.0252 C   0  0  0  0  0  0  0  0  0  0  0  0
   -7.0610   -5.4853   -3.2200 C   0  0  0  0  0  0  0  0  0  0  0  0
   -7.5583   -5.7637   -0.8244 C   0  0  0  0  0  0  0  0  0  0  0  0
   -8.3387   -5.5717    0.3155 C   0  0  0  0  0  0  0  0  0  0  0  0
   -8.0141   -6.0758    1.5924 N   0  0  0  0  0  0  0  0  0  0  0  0
   -8.9548   -6.0006    2.6401 C   0  0  0  0  0  0  0  0  0  0  0  0
   -6.5560   -6.1499    1.9754 C   0  0  0  0  0  0  0  0  0  0  0  0
   -5.5402   -5.5636    0.9485 C   0  0  1  0  0  0  0  0  0  0  0  0
   -5.3534   -4.1751    1.1832 O   0  0  0  0  0  0  0  0  0  0  0  0
   -4.1985   -6.3333    0.9099 C   0  0  1  0  0  0  0  0  0  0  0  0
   -3.4424   -6.0662    2.0874 O   0  0  0  0  0  0  0  0  0  0  0  0
   -4.2735   -7.8607    0.6667 C   0  0  1  0  0  0  0  0  0  0  0  0
   -3.2000   -8.2324   -0.1909 O   0  0  0  0  0  0  0  0  0  0  0  0
   -4.1764   -8.6840    1.9707 C   0  0  0  0  0  0  0  0  0  0  0  0
   -5.2650   -8.4357    2.8524 O   0  0  0  0  0  0  0  0  0  0  0  0
   -5.0963   -8.3820    4.4272 P   0  0  0  0  0  0  0  0  0  0  0  0
   -4.6316   -9.6853    4.9539 O   0  0  0  0  0  0  0  0  0  0  0  0
   -4.3746   -7.1566    4.8327 O   0  5  0  0  0  0  0  0  0  0  0  0
   -6.5871   -8.2155    4.9608 O   0  5  0  0  0  0  0  0  0  0  0  0
  1 18  1  0  0  0  0
  1  2  1  0  0  0  0
  2  4  1  0  0  0  0
  2  3  2  0  0  0  0
  4  5  1  0  0  0  0
  5  7  1  0  0  0  0
  5  6  2  0  0  0  0
  7 18  2  0  0  0  0
  7  8  1  0  0  0  0
  8  9  1  0  0  0  0
  9 10  2  0  0  0  0
  9 16  1  0  0  0  0
 10 11  1  0  0  0  0
 11 12  1  0  0  0  0
 11 13  2  0  0  0  0
 13 14  1  0  0  0  0
 13 15  1  0  0  0  0
 15 16  2  0  0  0  0
 16 17  1  0  0  0  0
 17 19  1  0  0  0  0
 17 18  1  0  0  0  0
 20 19  1  1  0  0  0
 20 22  1  0  0  0  0
 20 21  1  0  0  0  0
 22 24  1  0  0  0  0
 22 23  1  1  0  0  0
 24 26  1  1  0  0  0
 24 25  1  0  0  0  0
 26 27  1  0  0  0  0
 27 28  1  0  0  0  0
 28 30  1  0  0  0  0
 28 29  2  0  0  0  0
 28 31  1  0  0  0  0
M  CHG  2  30  -1  31  -1
M  END
>  <CHROM.1>
4.11944408,87.82609055,-72.11716025,-176.44594228,140.83928749,57.92495743
63.37147947,-52.16856612,-142.97387889,-62.22154039,-7.25729653,-6.33318426
1.90045927,0.73291088,-0.37380410,1.91290344

>  <Name>
1fmn_cryst

>  <RI>
0

>  <Rbt.Current_Directory>
/home/itssahil/PROJECTS/Mol_Feturizer/New_Systems/rnas/1fmn

>  <Rbt.Executable>
rbdock ($Id: //depot/dev/client3/rdock/2013.1/src/exe/rbdock.cxx#4 $)

>  <Rbt.Library>
libRbt.so (2013.1, Build901 2013/11/27)

>  <Rbt.Parameter_File>
/export/apps/rDock/src/rDock_2013.1_src/data/scripts/dock_solv.prm

>  <Rbt.Receptor>
prm/pocket_docking_2.prm

>  <SCORE>
-55.5628

>  <SCORE.INTER>
-54.2516

>  <SCORE.INTER.CONST>
1

>  <SCORE.INTER.POLAR>
-3.43418

>  <SCORE.INTER.ROT>
7

>  <SCORE.INTER.SOLV>
23.6532

>  <SCORE.INTER.VDW>
-40.8715

>  <SCORE.INTER.norm>
-1.75005

>  <SCORE.INTRA>
-2.49091

>  <SCORE.INTRA.DIHEDRAL>
-0.936605

>  <SCORE.INTRA.DIHEDRAL.0>
15.5708

>  <SCORE.INTRA.POLAR>
-1.86208

>  <SCORE.INTRA.POLAR.0>
-0.0677885

>  <SCORE.INTRA.REPUL>
0

>  <SCORE.INTRA.REPUL.0>
0

>  <SCORE.INTRA.SOLV>
3.38787

>  <SCORE.INTRA.SOLV.lig_0>
-87.6316

>  <SCORE.INTRA.VDW>
2.61454

>  <SCORE.INTRA.VDW.0>
-2.87309

>  <SCORE.INTRA.norm>
-0.0803519

>  <SCORE.RESTR>
1.17971

>  <SCORE.RESTR.CAVITY>
1.17971

>  <SCORE.RESTR.norm>
0.038055

>  <SCORE.SYSTEM>
0

>  <SCORE.SYSTEM.CONST>
0

>  <SCORE.SYSTEM.DIHEDRAL>
0

>  <SCORE.SYSTEM.SOLV>
0

>  <SCORE.SYSTEM.norm>
0

>  <SCORE.heavy>
31

>  <SCORE.norm>
-1.79235

>  <SYMMETRIC_BONDS>
33 34 3

>  <RMSD>
2.033

$$$$
1fmn_cryst
 OpenBabel11021811393D
libRbt.so/2013.1/901 2013/11/27
 31 33  0  0  0  0  0  0  0  0999 V2000
   -8.5823   -6.6784    3.5796 N   0  0  0  0  0  0  0  0  0  0  0  0
   -9.4533   -6.6041    4.6415 C   0  0  0  0  0  0  0  0  0  0  0  0
   -9.2599   -7.2226    5.6887 O   0  0  0  0  0  0  0  0  0  0  0  0
  -10.5879   -5.7758    4.4519 N   0  0  0  0  0  0  0  0  0  0  0  0
  -10.9059   -5.0319    3.2944 C   0  0  0  0  0  0  0  0  0  0  0  0
  -11.9344   -4.3443    3.2641 O   0  0  0  0  0  0  0  0  0  0  0  0
   -9.9306   -5.1648    2.2099 C   0  0  0  0  0  0  0  0  0  0  0  0
  -10.1670   -4.4721    1.0487 N   0  0  0  0  0  0  0  0  0  0  0  0
   -9.3591   -4.7370   -0.0188 C   0  0  0  0  0  0  0  0  0  0  0  0
   -9.7014   -4.1856   -1.2408 C   0  0  0  0  0  0  0  0  0  0  0  0
   -8.9462   -4.4053   -2.3421 C   0  0  0  0  0  0  0  0  0  0  0  0
   -9.3584   -3.7833   -3.6381 C   0  0  0  0  0  0  0  0  0  0  0  0
   -7.8298   -5.1793   -2.2669 C   0  0  0  0  0  0  0  0  0  0  0  0
   -7.0057   -5.4222   -3.4891 C   0  0  0  0  0  0  0  0  0  0  0  0
   -7.4547   -5.7404   -1.0890 C   0  0  0  0  0  0  0  0  0  0  0  0
   -8.1976   -5.5448    0.0752 C   0  0  0  0  0  0  0  0  0  0  0  0
   -7.8631   -6.0945    1.3305 N   0  0  0  0  0  0  0  0  0  0  0  0
   -8.7734   -6.0066    2.4037 C   0  0  0  0  0  0  0  0  0  0  0  0
   -6.4004   -6.2395    1.6737 C   0  0  0  0  0  0  0  0  0  0  0  0
   -5.7377   -5.0314    2.4028 C   0  0  1  0  0  0  0  0  0  0  0  0
   -6.4656   -4.7111    3.5798 O   0  0  0  0  0  0  0  0  0  0  0  0
   -4.2318   -5.2428    2.6889 C   0  0  1  0  0  0  0  0  0  0  0  0
   -3.7787   -4.3076    3.6634 O   0  0  0  0  0  0  0  0  0  0  0  0
   -3.7873   -6.6726    3.0837 C   0  0  1  0  0  0  0  0  0  0  0  0
   -2.3943   -6.6459    3.3745 O   0  0  0  0  0  0  0  0  0  0  0  0
   -4.5423   -7.2197    4.3159 C   0  0  0  0  0  0  0  0  0  0  0  0
   -4.7125   -8.6313    4.2663 O   0  0  0  0  0  0  0  0  0  0  0  0
   -3.5933   -9.6462    4.7447 P   0  0  0  0  0  0  0  0  0  0  0  0
   -3.2615   -9.4330    6.1717 O   0  0  0  0  0  0  0  0  0  0  0  0
   -3.9035  -11.0178    4.2872 O   0  5  0  0  0  0  0  0  0  0  0  0
   -2.3001   -9.1906    3.9353 O   0  5  0  0  0  0  0  0  0  0  0  0
  1 18  1  0  0  0  0
  1  2  1  0  0  0  0
  2  4  1  0  0  0  0
  2  3  2  0  0  0  0
  4  5  1  0  0  0  0
  5  7  1  0  0  0  0
  5  6  2  0  0  0  0
  7 18  2  0  0  0  0
  7  8  1  0  0  0  0
  8  9  1  0  0  0  0
  9 10  2  0  0  0  0
  9 16  1  0  0  0  0
 10 11  1  0  0  0  0
 11 12  1  0  0  0  0
 11 13  2  0  0  0  0
 13 14  1  0  0  0  0
 13 15  1  0  0  0  0
 15 16  2  0  0  0  0
 16 17  1  0  0  0  0
 17 19  1  0  0  0  0
 17 18  1  0  0  0  0
 20 19  1  1  0  0  0
 20 22  1  0  0  0  0
 20 21  1  0  0  0  0
 22 24  1  0  0  0  0
 22 23  1  1  0  0  0
 24 26  1  1  0  0  0
 24 25  1  0  0  0  0
 26 27  1  0  0  0  0
 27 28  1  0  0  0  0
 28 30  1  0  0  0  0
 28 29  2  0  0  0  0
 28 31  1  0  0  0  0
M  CHG  2  30  -1  31  -1
M  END
>  <CHROM.1>
90.48574240,54.97972888,-163.66238261,51.28942901,-176.86393677,176.83664086
148.29314667,-173.54618768,83.79639683,59.72833594,-6.84963205,-6.34034179
2.35575425,2.37553829,0.32957865,-1.22151464

>  <Name>
1fmn_cryst

>  <RI>
0

>  <Rbt.Current_Directory>
/home/itssahil/PROJECTS/Mol_Feturizer/New_Systems/rnas/1fmn

>  <Rbt.Executable>
rbdock ($Id: //depot/dev/client3/rdock/2013.1/src/exe/rbdock.cxx#4 $)

>  <Rbt.Library>
libRbt.so (2013.1, Build901 2013/11/27)

>  <Rbt.Parameter_File>
/export/apps/rDock/src/rDock_2013.1_src/data/scripts/dock_solv.prm

>  <Rbt.Receptor>
prm/pocket_docking_4.prm

>  <SCORE>
-57.8081

>  <SCORE.INTER>
-50.5587

>  <SCORE.INTER.CONST>
1

>  <SCORE.INTER.POLAR>
-3.77919

>  <SCORE.INTER.ROT>
7

>  <SCORE.INTER.SOLV>
17.934

>  <SCORE.INTER.VDW>
-35.3531

>  <SCORE.INTER.norm>
-1.63092

>  <SCORE.INTRA>
-7.24947

>  <SCORE.INTRA.DIHEDRAL>
-7.02371

>  <SCORE.INTRA.DIHEDRAL.0>
15.5708

>  <SCORE.INTRA.POLAR>
-1.37812

>  <SCORE.INTRA.POLAR.0>
-0.0677885

>  <SCORE.INTRA.REPUL>
0

>  <SCORE.INTRA.REPUL.0>
0

>  <SCORE.INTRA.SOLV>
0.634144

>  <SCORE.INTRA.SOLV.lig_0>
-87.6316

>  <SCORE.INTRA.VDW>
0.630931

>  <SCORE.INTRA.VDW.0>
-2.87309

>  <SCORE.INTRA.norm>
-0.233854

>  <SCORE.RESTR>
0

>  <SCORE.RESTR.CAVITY>
0

>  <SCORE.RESTR.norm>
0

>  <SCORE.SYSTEM>
0

>  <SCORE.SYSTEM.CONST>
0

>  <SCORE.SYSTEM.DIHEDRAL>
0

>  <SCORE.SYSTEM.SOLV>
0

>  <SCORE.SYSTEM.norm>
0

>  <SCORE.heavy>
31

>  <SCORE.norm>
-1.86478

>  <SYMMETRIC_BONDS>
33 34 3

>  <RMSD>
2.036

$$$$
1fmn_cryst
 OpenBabel11021811393D
libRbt.so/2013.1/901 2013/11/27
 31 33  0  0  0  0  0  0  0  0999 V2000
   -8.9964   -6.1388    3.4113 N   0  0  0  0  0  0  0  0  0  0  0  0
   -9.6697   -6.2153    4.6081 C   0  0  0  0  0  0  0  0  0  0  0  0
   -9.2166   -6.8307    5.5738 O   0  0  0  0  0  0  0  0  0  0  0  0
  -10.9184   -5.5461    4.6572 N   0  0  0  0  0  0  0  0  0  0  0  0
  -11.5290   -4.8207    3.6107 C   0  0  0  0  0  0  0  0  0  0  0  0
  -12.6277   -4.2807    3.7912 O   0  0  0  0  0  0  0  0  0  0  0  0
  -10.7501   -4.7872    2.3708 C   0  0  0  0  0  0  0  0  0  0  0  0
  -11.2749   -4.1010    1.3041 N   0  0  0  0  0  0  0  0  0  0  0  0
  -10.6391   -4.2218    0.1026 C   0  0  0  0  0  0  0  0  0  0  0  0
  -11.2594   -3.6884   -1.0132 C   0  0  0  0  0  0  0  0  0  0  0  0
  -10.6869   -3.7706   -2.2366 C   0  0  0  0  0  0  0  0  0  0  0  0
  -11.3977   -3.1749   -3.4098 C   0  0  0  0  0  0  0  0  0  0  0  0
   -9.4832   -4.3854   -2.3924 C   0  0  0  0  0  0  0  0  0  0  0  0
   -8.8616   -4.4777   -3.7478 C   0  0  0  0  0  0  0  0  0  0  0  0
   -8.8373   -4.9225   -1.3261 C   0  0  0  0  0  0  0  0  0  0  0  0
   -9.3837   -4.8643   -0.0440 C   0  0  0  0  0  0  0  0  0  0  0  0
   -8.7653   -5.3979    1.1061 N   0  0  0  0  0  0  0  0  0  0  0  0
   -9.4768   -5.4667    2.3214 C   0  0  0  0  0  0  0  0  0  0  0  0
   -7.2588   -5.3498    1.1877 C   0  0  0  0  0  0  0  0  0  0  0  0
   -6.4823   -6.2599    0.1884 C   0  0  1  0  0  0  0  0  0  0  0  0
   -6.3107   -5.5895   -1.0522 O   0  0  0  0  0  0  0  0  0  0  0  0
   -5.1425   -6.7856    0.7564 C   0  0  1  0  0  0  0  0  0  0  0  0
   -4.3460   -5.7015    1.2251 O   0  0  0  0  0  0  0  0  0  0  0  0
   -5.2254   -7.8868    1.8419 C   0  0  1  0  0  0  0  0  0  0  0  0
   -6.2500   -8.8039    1.4744 O   0  0  0  0  0  0  0  0  0  0  0  0
   -3.9009   -8.6637    2.0145 C   0  0  0  0  0  0  0  0  0  0  0  0
   -2.8411   -7.8351    2.4773 O   0  0  0  0  0  0  0  0  0  0  0  0
   -1.3442   -8.3426    2.5909 P   0  0  0  0  0  0  0  0  0  0  0  0
   -0.9142   -9.0050    1.3386 O   0  0  0  0  0  0  0  0  0  0  0  0
   -0.4796   -7.2910    3.1685 O   0  5  0  0  0  0  0  0  0  0  0  0
   -1.4204   -9.5016    3.6798 O   0  5  0  0  0  0  0  0  0  0  0  0
  1 18  1  0  0  0  0
  1  2  1  0  0  0  0
  2  4  1  0  0  0  0
  2  3  2  0  0  0  0
  4  5  1  0  0  0  0
  5  7  1  0  0  0  0
  5  6  2  0  0  0  0
  7 18  2  0  0  0  0
  7  8  1  0  0  0  0
  8  9  1  0  0  0  0
  9 10  2  0  0  0  0
  9 16  1  0  0  0  0
 10 11  1  0  0  0  0
 11 12  1  0  0  0  0
 11 13  2  0  0  0  0
 13 14  1  0  0  0  0
 13 15  1  0  0  0  0
 15 16  2  0  0  0  0
 16 17  1  0  0  0  0
 17 19  1  0  0  0  0
 17 18  1  0  0  0  0
 20 19  1  1  0  0  0
 20 22  1  0  0  0  0
 20 21  1  0  0  0  0
 22 24  1  0  0  0  0
 22 23  1  1  0  0  0
 24 26  1  6  0  0  0
 24 25  1  0  0  0  0
 26 27  1  0  0  0  0
 27 28  1  0  0  0  0
 28 30  1  0  0  0  0
 28 29  2  0  0  0  0
 28 31  1  0  0  0  0
M  CHG  2  30  -1  31  -1
M  END
>  <CHROM.1>
-68.35586678,85.60524695,-53.45293224,-167.75374529,40.63433017,-55.71302708
63.85328333,65.77292664,-173.30148489,49.31612222,-7.19289535,-6.10956574
1.37389485,2.83326883,0.35543244,-1.30188689

>  <Name>
1fmn_cryst

>  <RI>
0

>  <Rbt.Current_Directory>
/home/itssahil/PROJECTS/Mol_Feturizer/New_Systems/rnas/1fmn

>  <Rbt.Executable>
rbdock ($Id: //depot/dev/client3/rdock/2013.1/src/exe/rbdock.cxx#4 $)

>  <Rbt.Library>
libRbt.so (2013.1, Build901 2013/11/27)

>  <Rbt.Parameter_File>
/export/apps/rDock/src/rDock_2013.1_src/data/scripts/dock_solv.prm

>  <Rbt.Receptor>
prm/pocket_docking_6.prm

>  <SCORE>
-65.0682

>  <SCORE.INTER>
-59.9845

>  <SCORE.INTER.CONST>
1

>  <SCORE.INTER.POLAR>
-4.38342

>  <SCORE.INTER.ROT>
7

>  <SCORE.INTER.SOLV>
18.586

>  <SCORE.INTER.VDW>
-39.8403

>  <SCORE.INTER.norm>
-1.93499

>  <SCORE.INTRA>
-5.08369

>  <SCORE.INTRA.DIHEDRAL>
-8.98976

>  <SCORE.INTRA.DIHEDRAL.0>
15.5708

>  <SCORE.INTRA.POLAR>
0.0677885

>  <SCORE.INTRA.POLAR.0>
-0.0677885

>  <SCORE.INTRA.REPUL>
0

>  <SCORE.INTRA.REPUL.0>
0

>  <SCORE.INTRA.SOLV>
-4.35659

>  <SCORE.INTRA.SOLV.lig_0>
-87.6316

>  <SCORE.INTRA.VDW>
1.359

>  <SCORE.INTRA.VDW.0>
-2.87309

>  <SCORE.INTRA.norm>
-0.16399

>  <SCORE.RESTR>
0

>  <SCORE.RESTR.CAVITY>
0

>  <SCORE.RESTR.norm>
0

>  <SCORE.SYSTEM>
0

>  <SCORE.SYSTEM.CONST>
0

>  <SCORE.SYSTEM.DIHEDRAL>
0

>  <SCORE.SYSTEM.SOLV>
0

>  <SCORE.SYSTEM.norm>
0

>  <SCORE.heavy>
31

>  <SCORE.norm>
-2.09898

>  <SYMMETRIC_BONDS>
33 34 3

>  <RMSD>
2.040

$$$$
1fmn_cryst
 OpenBabel11021811393D
libRbt.so/2013.1/901 2013/11/27
 31 33  0  0  0  0  0  0  0  0999 V2000
   -8.8677   -6.1755    3.6421 N   0  0  0  0  0  0  0  0  0  0  0  0
   -9.6376   -6.2398    4.7799 C   0  0  0  0  0  0  0  0  0  0  0  0
   -9.2448   -6.8013    5.8030 O   0  0  0  0  0  0  0  0  0  0  0  0
  -10.9118   -5.6239    4.6980 N   0  0  0  0  0  0  0  0  0  0  0  0
  -11.4589   -4.9621    3.5770 C   0  0  0  0  0  0  0  0  0  0  0  0
  -12.5899   -4.4642    3.6435 O   0  0  0  0  0  0  0  0  0  0  0  0
  -10.5785   -4.9377    2.4068 C   0  0  0  0  0  0  0  0  0  0  0  0
  -11.0370   -4.3120    1.2743 N   0  0  0  0  0  0  0  0  0  0  0  0
  -10.2960   -4.4465    0.1361 C   0  0  0  0  0  0  0  0  0  0  0  0
  -10.8392   -3.9793   -1.0475 C   0  0  0  0  0  0  0  0  0  0  0  0
  -10.1609   -4.0788   -2.2143 C   0  0  0  0  0  0  0  0  0  0  0  0
  -10.7918   -3.5552   -3.4650 C   0  0  0  0  0  0  0  0  0  0  0  0
   -8.9246   -4.6459   -2.2445 C   0  0  0  0  0  0  0  0  0  0  0  0
   -8.1857   -4.7580   -3.5382 C   0  0  0  0  0  0  0  0  0  0  0  0
   -8.3515   -5.1175   -1.1079 C   0  0  0  0  0  0  0  0  0  0  0  0
   -9.0078   -5.0388    0.1204 C   0  0  0  0  0  0  0  0  0  0  0  0
   -8.4695   -5.5052    1.3380 N   0  0  0  0  0  0  0  0  0  0  0  0
   -9.2794   -5.5627    2.4908 C   0  0  0  0  0  0  0  0  0  0  0  0
   -6.9788   -5.3891    1.5445 C   0  0  0  0  0  0  0  0  0  0  0  0
   -6.0916   -6.4127    0.7729 C   0  0  1  0  0  0  0  0  0  0  0  0
   -5.9108   -5.9884   -0.5707 O   0  0  0  0  0  0  0  0  0  0  0  0
   -4.7454   -6.7060    1.4770 C   0  0  1  0  0  0  0  0  0  0  0  0
   -4.9733   -7.3321    2.7362 O   0  0  0  0  0  0  0  0  0  0  0  0
   -3.6936   -7.5083    0.6721 C   0  0  1  0  0  0  0  0  0  0  0  0
   -3.5787   -6.9266   -0.6219 O   0  0  0  0  0  0  0  0  0  0  0  0
   -2.3003   -7.5148    1.3400 C   0  0  0  0  0  0  0  0  0  0  0  0
   -2.1981   -8.4861    2.3746 O   0  0  0  0  0  0  0  0  0  0  0  0
   -0.8664   -8.7202    3.2010 P   0  0  0  0  0  0  0  0  0  0  0  0
    0.2907   -8.9088    2.2967 O   0  0  0  0  0  0  0  0  0  0  0  0
   -0.7540   -7.7354    4.2985 O   0  5  0  0  0  0  0  0  0  0  0  0
   -1.0971  -10.1340    3.8958 O   0  5  0  0  0  0  0  0  0  0  0  0
  1 18  1  0  0  0  0
  1  2  1  0  0  0  0
  2  4  1  0  0  0  0
  2  3  2  0  0  0  0
  4  5  1  0  0  0  0
  5  7  1  0  0  0  0
  5  6  2  0  0  0  0
  7 18  2  0  0  0  0
  7  8  1  0  0  0  0
  8  9  1  0  0  0  0
  9 10  2  0  0  0  0
  9 16  1  0  0  0  0
 10 11  1  0  0  0  0
 11 12  1  0  0  0  0
 11 13  2  0  0  0  0
 13 14  1  0  0  0  0
 13 15  1  0  0  0  0
 15 16  2  0  0  0  0
 16 17  1  0  0  0  0
 17 19  1  0  0  0  0
 17 18  1  0  0  0  0
 20 19  1  1  0  0  0
 20 22  1  0  0  0  0
 20 21  1  0  0  0  0
 22 24  1  0  0  0  0
 22 23  1  1  0  0  0
 24 26  1  1  0  0  0
 24 25  1  0  0  0  0
 26 27  1  0  0  0  0
 27 28  1  0  0  0  0
 28 30  1  0  0  0  0
 28 29  2  0  0  0  0
 28 31  1  0  0  0  0
M  CHG  2  30  -1  31  -1
M  END
>  <CHROM.1>
-75.25533479,80.86120050,64.09803328,-120.93918673,48.21156105,59.63641659
81.58781921,-62.23549650,178.76065236,-51.05440184,-6.73463872,-6.24907300
1.53178504,2.85241266,0.34209264,-1.32407368

>  <Name>
1fmn_cryst

>  <RI>
0

>  <Rbt.Current_Directory>
/home/itssahil/PROJECTS/Mol_Feturizer/New_Systems/rnas/1fmn

>  <Rbt.Executable>
rbdock ($Id: //depot/dev/client3/rdock/2013.1/src/exe/rbdock.cxx#4 $)

>  <Rbt.Library>
libRbt.so (2013.1, Build901 2013/11/27)

>  <Rbt.Parameter_File>
/export/apps/rDock/src/rDock_2013.1_src/data/scripts/dock_solv.prm

>  <Rbt.Receptor>
prm/pocket_docking_5.prm

>  <SCORE>
-61.3591

>  <SCORE.INTER>
-59.6035

>  <SCORE.INTER.CONST>
1

>  <SCORE.INTER.POLAR>
-4.59854

>  <SCORE.INTER.ROT>
7

>  <SCORE.INTER.SOLV>
17.8019

>  <SCORE.INTER.VDW>
-38.6079

>  <SCORE.INTER.norm>
-1.92269

>  <SCORE.INTRA>
-1.75555

>  <SCORE.INTRA.DIHEDRAL>
-2.59719

>  <SCORE.INTRA.DIHEDRAL.0>
15.5708

>  <SCORE.INTRA.POLAR>
-0.0511315

>  <SCORE.INTRA.POLAR.0>
-0.0677885

>  <SCORE.INTRA.REPUL>
0

>  <SCORE.INTRA.REPUL.0>
0

>  <SCORE.INTRA.SOLV>
-4.39836

>  <SCORE.INTRA.SOLV.lig_0>
-87.6316

>  <SCORE.INTRA.VDW>
1.91607

>  <SCORE.INTRA.VDW.0>
-2.87309

>  <SCORE.INTRA.norm>
-0.0566307

>  <SCORE.RESTR>
0

>  <SCORE.RESTR.CAVITY>
0

>  <SCORE.RESTR.norm>
0

>  <SCORE.SYSTEM>
0

>  <SCORE.SYSTEM.CONST>
0

>  <SCORE.SYSTEM.DIHEDRAL>
0

>  <SCORE.SYSTEM.SOLV>
0

>  <SCORE.SYSTEM.norm>
0

>  <SCORE.heavy>
31

>  <SCORE.norm>
-1.97933

>  <SYMMETRIC_BONDS>
33 34 3

>  <RMSD>
2.045

$$$$
1fmn_cryst
 OpenBabel11021811393D
libRbt.so/2013.1/901 2013/11/27
 31 33  0  0  0  0  0  0  0  0999 V2000
   -8.6356   -6.1292    3.7721 N   0  0  0  0  0  0  0  0  0  0  0  0
   -9.5706   -6.1829    4.7792 C   0  0  0  0  0  0  0  0  0  0  0  0
   -9.2993   -6.6167    5.8993 O   0  0  0  0  0  0  0  0  0  0  0  0
  -10.8653   -5.7124    4.4446 N   0  0  0  0  0  0  0  0  0  0  0  0
  -11.2815   -5.2031    3.1950 C   0  0  0  0  0  0  0  0  0  0  0  0
  -12.4488   -4.8229    3.0395 O   0  0  0  0  0  0  0  0  0  0  0  0
  -10.2289   -5.1799    2.1767 C   0  0  0  0  0  0  0  0  0  0  0  0
  -10.5528   -4.6981    0.9329 N   0  0  0  0  0  0  0  0  0  0  0  0
   -9.6281   -4.8445   -0.0601 C   0  0  0  0  0  0  0  0  0  0  0  0
  -10.0126   -4.5326   -1.3521 C   0  0  0  0  0  0  0  0  0  0  0  0
   -9.1480   -4.6533   -2.3862 C   0  0  0  0  0  0  0  0  0  0  0  0
   -9.6128   -4.3001   -3.7630 C   0  0  0  0  0  0  0  0  0  0  0  0
   -7.8768   -5.0882   -2.1723 C   0  0  0  0  0  0  0  0  0  0  0  0
   -6.9310   -5.2250   -3.3207 C   0  0  0  0  0  0  0  0  0  0  0  0
   -7.4550   -5.4050   -0.9215 C   0  0  0  0  0  0  0  0  0  0  0  0
   -8.3060   -5.2978    0.1784 C   0  0  0  0  0  0  0  0  0  0  0  0
   -7.9320   -5.6067    1.5031 N   0  0  0  0  0  0  0  0  0  0  0  0
   -8.9093   -5.6567    2.5182 C   0  0  0  0  0  0  0  0  0  0  0  0
   -6.5112   -5.3189    1.9237 C   0  0  0  0  0  0  0  0  0  0  0  0
   -5.6994   -6.5237    2.4891 C   0  0  1  0  0  0  0  0  0  0  0  0
   -6.1820   -6.8774    3.7775 O   0  0  0  0  0  0  0  0  0  0  0  0
   -5.6593   -7.7366    1.5292 C   0  0  1  0  0  0  0  0  0  0  0  0
   -5.0405   -7.3720    0.2989 O   0  0  0  0  0  0  0  0  0  0  0  0
   -5.0240   -9.0400    2.0729 C   0  0  1  0  0  0  0  0  0  0  0  0
   -4.8663   -9.9490    0.9891 O   0  0  0  0  0  0  0  0  0  0  0  0
   -3.6461   -8.8090    2.7329 C   0  0  0  0  0  0  0  0  0  0  0  0
   -2.7369   -8.1347    1.8710 O   0  0  0  0  0  0  0  0  0  0  0  0
   -1.2731   -7.7268    2.3206 P   0  0  0  0  0  0  0  0  0  0  0  0
   -0.5523   -7.0470    1.2204 O   0  0  0  0  0  0  0  0  0  0  0  0
   -1.2966   -7.0866    3.6535 O   0  5  0  0  0  0  0  0  0  0  0  0
   -0.5344   -9.1239    2.5128 O   0  5  0  0  0  0  0  0  0  0  0  0
  1 18  1  0  0  0  0
  1  2  1  0  0  0  0
  2  4  1  0  0  0  0
  2  3  2  0  0  0  0
  4  5  1  0  0  0  0
  5  7  1  0  0  0  0
  5  6  2  0  0  0  0
  7 18  2  0  0  0  0
  7  8  1  0  0  0  0
  8  9  1  0  0  0  0
  9 10  2  0  0  0  0
  9 16  1  0  0  0  0
 10 11  1  0  0  0  0
 11 12  1  0  0  0  0
 11 13  2  0  0  0  0
 13 14  1  0  0  0  0
 13 15  1  0  0  0  0
 15 16  2  0  0  0  0
 16 17  1  0  0  0  0
 17 19  1  0  0  0  0
 17 18  1  0  0  0  0
 20 19  1  6  0  0  0
 20 22  1  0  0  0  0
 20 21  1  0  0  0  0
 22 24  1  0  0  0  0
 22 23  1  6  0  0  0
 24 26  1  6  0  0  0
 24 25  1  0  0  0  0
 26 27  1  0  0  0  0
 27 28  1  0  0  0  0
 28 30  1  0  0  0  0
 28 29  2  0  0  0  0
 28 31  1  0  0  0  0
M  CHG  2  30  -1  31  -1
M  END
>  <CHROM.1>
-123.74048331,-71.47272894,60.73444784,-75.80869413,-169.90832494,71.15247258
-54.15063092,-60.09038316,177.67871822,179.68725441,-6.65654522,-6.44722919
1.56925673,2.93962861,0.32329319,-1.34790333

>  <Name>
1fmn_cryst

>  <RI>
0

>  <Rbt.Current_Directory>
/home/itssahil/PROJECTS/Mol_Feturizer/New_Systems/rnas/1fmn

>  <Rbt.Executable>
rbdock ($Id: //depot/dev/client3/rdock/2013.1/src/exe/rbdock.cxx#4 $)

>  <Rbt.Library>
libRbt.so (2013.1, Build901 2013/11/27)

>  <Rbt.Parameter_File>
/export/apps/rDock/src/rDock_2013.1_src/data/scripts/dock_solv.prm

>  <Rbt.Receptor>
prm/pocket_docking_6.prm

>  <SCORE>
-62.3435

>  <SCORE.INTER>
-51.8631

>  <SCORE.INTER.CONST>
1

>  <SCORE.INTER.POLAR>
-3.26247

>  <SCORE.INTER.ROT>
7

>  <SCORE.INTER.SOLV>
16.7519

>  <SCORE.INTER.VDW>
-37.5511

>  <SCORE.INTER.norm>
-1.673

>  <SCORE.INTRA>
-10.4804

>  <SCORE.INTRA.DIHEDRAL>
-10.4627

>  <SCORE.INTRA.DIHEDRAL.0>
15.5708

>  <SCORE.INTRA.POLAR>
-1.25894

>  <SCORE.INTRA.POLAR.0>
-0.0677885

>  <SCORE.INTRA.REPUL>
0

>  <SCORE.INTRA.REPUL.0>
0

>  <SCORE.INTRA.SOLV>
-2.40484

>  <SCORE.INTRA.SOLV.lig_0>
-87.6316

>  <SCORE.INTRA.VDW>
0.233771

>  <SCORE.INTRA.VDW.0>
-2.87309

>  <SCORE.INTRA.norm>
-0.338078

>  <SCORE.RESTR>
0

>  <SCORE.RESTR.CAVITY>
0

>  <SCORE.RESTR.norm>
0

>  <SCORE.SYSTEM>
0

>  <SCORE.SYSTEM.CONST>
0

>  <SCORE.SYSTEM.DIHEDRAL>
0

>  <SCORE.SYSTEM.SOLV>
0

>  <SCORE.SYSTEM.norm>
0

>  <SCORE.heavy>
31

>  <SCORE.norm>
-2.01108

>  <SYMMETRIC_BONDS>
33 34 3

>  <RMSD>
2.055

$$$$
1fmn_cryst
 OpenBabel11021811393D
libRbt.so/2013.1/901 2013/11/27
 31 33  0  0  0  0  0  0  0  0999 V2000
   -8.8360   -6.1696    3.5432 N   0  0  0  0  0  0  0  0  0  0  0  0
   -9.6008   -6.2098    4.6855 C   0  0  0  0  0  0  0  0  0  0  0  0
   -9.2141   -6.7723    5.7105 O   0  0  0  0  0  0  0  0  0  0  0  0
  -10.8623   -5.5681    4.6062 N   0  0  0  0  0  0  0  0  0  0  0  0
  -11.4017   -4.9029    3.4834 C   0  0  0  0  0  0  0  0  0  0  0  0
  -12.5217   -4.3811    3.5524 O   0  0  0  0  0  0  0  0  0  0  0  0
  -10.5273   -4.9049    2.3084 C   0  0  0  0  0  0  0  0  0  0  0  0
  -10.9790   -4.2777    1.1740 N   0  0  0  0  0  0  0  0  0  0  0  0
  -10.2472   -4.4356    0.0328 C   0  0  0  0  0  0  0  0  0  0  0  0
  -10.7871   -3.9654   -1.1511 C   0  0  0  0  0  0  0  0  0  0  0  0
  -10.1174   -4.0871   -2.3208 C   0  0  0  0  0  0  0  0  0  0  0  0
  -10.7441   -3.5592   -3.5718 C   0  0  0  0  0  0  0  0  0  0  0  0
   -8.8933   -4.6801   -2.3536 C   0  0  0  0  0  0  0  0  0  0  0  0
   -8.1641   -4.8165   -3.6504 C   0  0  0  0  0  0  0  0  0  0  0  0
   -8.3239   -5.1556   -1.2168 C   0  0  0  0  0  0  0  0  0  0  0  0
   -8.9717   -5.0547    0.0144 C   0  0  0  0  0  0  0  0  0  0  0  0
   -8.4366   -5.5238    1.2324 N   0  0  0  0  0  0  0  0  0  0  0  0
   -9.2411   -5.5564    2.3898 C   0  0  0  0  0  0  0  0  0  0  0  0
   -6.9426   -5.4373    1.4301 C   0  0  0  0  0  0  0  0  0  0  0  0
   -6.1780   -6.7924    1.5272 C   0  0  1  0  0  0  0  0  0  0  0  0
   -6.9136   -7.8172    0.8741 O   0  0  0  0  0  0  0  0  0  0  0  0
   -4.7194   -6.7078    1.0180 C   0  0  1  0  0  0  0  0  0  0  0  0
   -4.6978   -6.3446   -0.3594 O   0  0  0  0  0  0  0  0  0  0  0  0
   -3.7495   -5.8028    1.8170 C   0  0  1  0  0  0  0  0  0  0  0  0
   -4.1732   -4.4518    1.6720 O   0  0  0  0  0  0  0  0  0  0  0  0
   -3.7025   -6.1506    3.3218 C   0  0  0  0  0  0  0  0  0  0  0  0
   -3.2356   -7.4733    3.5596 O   0  0  0  0  0  0  0  0  0  0  0  0
   -1.7374   -7.9140    3.2901 P   0  0  0  0  0  0  0  0  0  0  0  0
   -0.7870   -6.9326    3.8608 O   0  0  0  0  0  0  0  0  0  0  0  0
   -1.5506   -9.3466    3.6059 O   0  5  0  0  0  0  0  0  0  0  0  0
   -1.5843   -7.7845    1.7107 O   0  5  0  0  0  0  0  0  0  0  0  0
  1 18  1  0  0  0  0
  1  2  1  0  0  0  0
  2  4  1  0  0  0  0
  2  3  2  0  0  0  0
  4  5  1  0  0  0  0
  5  7  1  0  0  0  0
  5  6  2  0  0  0  0
  7 18  2  0  0  0  0
  7  8  1  0  0  0  0
  8  9  1  0  0  0  0
  9 10  2  0  0  0  0
  9 16  1  0  0  0  0
 10 11  1  0  0  0  0
 11 12  1  0  0  0  0
 11 13  2  0  0  0  0
 13 14  1  0  0  0  0
 13 15  1  0  0  0  0
 15 16  2  0  0  0  0
 16 17  1  0  0  0  0
 17 19  1  0  0  0  0
 17 18  1  0  0  0  0
 20 19  1  6  0  0  0
 20 22  1  0  0  0  0
 20 21  1  0  0  0  0
 22 24  1  0  0  0  0
 22 23  1  6  0  0  0
 24 26  1  1  0  0  0
 24 25  1  0  0  0  0
 26 27  1  0  0  0  0
 27 28  1  0  0  0  0
 28 30  1  0  0  0  0
 28 29  2  0  0  0  0
 28 31  1  0  0  0  0
M  CHG  2  30  -1  31  -1
M  END
>  <CHROM.1>
-113.89660275,24.26868272,-61.53006904,-178.72257908,-66.44676480,-54.95136339
61.92730104,-58.64008977,68.84194308,47.19267662,-6.98131781,-5.91786266
1.60151532,2.79045064,0.26603771,-1.33922970

>  <Name>
1fmn_cryst

>  <RI>
0

>  <Rbt.Current_Directory>
/home/itssahil/PROJECTS/Mol_Feturizer/New_Systems/rnas/1fmn

>  <Rbt.Executable>
rbdock ($Id: //depot/dev/client3/rdock/2013.1/src/exe/rbdock.cxx#4 $)

>  <Rbt.Library>
libRbt.so (2013.1, Build901 2013/11/27)

>  <Rbt.Parameter_File>
/export/apps/rDock/src/rDock_2013.1_src/data/scripts/dock_solv.prm

>  <Rbt.Receptor>
prm/pocket_docking_8.prm

>  <SCORE>
-63.7703

>  <SCORE.INTER>
-59.0775

>  <SCORE.INTER.CONST>
1

>  <SCORE.INTER.POLAR>
-4.2879

>  <SCORE.INTER.ROT>
7

>  <SCORE.INTER.SOLV>
17.8768

>  <SCORE.INTER.VDW>
-39.3175

>  <SCORE.INTER.norm>
-1.90572

>  <SCORE.INTRA>
-4.69281

>  <SCORE.INTRA.DIHEDRAL>
-8.74942

>  <SCORE.INTRA.DIHEDRAL.0>
15.5708

>  <SCORE.INTRA.POLAR>
0.0611396

>  <SCORE.INTRA.POLAR.0>
-0.0677885

>  <SCORE.INTRA.REPUL>
0

>  <SCORE.INTRA.REPUL.0>
0

>  <SCORE.INTRA.SOLV>
-0.955848

>  <SCORE.INTRA.SOLV.lig_0>
-87.6316

>  <SCORE.INTRA.VDW>
-0.0480565

>  <SCORE.INTRA.VDW.0>
-2.87309

>  <SCORE.INTRA.norm>
-0.151381

>  <SCORE.RESTR>
0

>  <SCORE.RESTR.CAVITY>
0

>  <SCORE.RESTR.norm>
0

>  <SCORE.SYSTEM>
0

>  <SCORE.SYSTEM.CONST>
0

>  <SCORE.SYSTEM.DIHEDRAL>
0

>  <SCORE.SYSTEM.SOLV>
0

>  <SCORE.SYSTEM.norm>
0

>  <SCORE.heavy>
31

>  <SCORE.norm>
-2.05711

>  <SYMMETRIC_BONDS>
33 34 3

>  <RMSD>
2.058

$$$$
1fmn_cryst
 OpenBabel11021811393D
libRbt.so/2013.1/901 2013/11/27
 31 33  0  0  0  0  0  0  0  0999 V2000
   -8.7695   -6.1586    3.5112 N   0  0  0  0  0  0  0  0  0  0  0  0
   -9.5375   -6.2290    4.6499 C   0  0  0  0  0  0  0  0  0  0  0  0
   -9.1334   -6.7750    5.6770 O   0  0  0  0  0  0  0  0  0  0  0  0
  -10.8233   -5.6384    4.5642 N   0  0  0  0  0  0  0  0  0  0  0  0
  -11.3836   -4.9958    3.4384 C   0  0  0  0  0  0  0  0  0  0  0  0
  -12.5240   -4.5193    3.5019 O   0  0  0  0  0  0  0  0  0  0  0  0
  -10.5043   -4.9633    2.2675 C   0  0  0  0  0  0  0  0  0  0  0  0
  -10.9753   -4.3553    1.1306 N   0  0  0  0  0  0  0  0  0  0  0  0
  -10.2324   -4.4842   -0.0069 C   0  0  0  0  0  0  0  0  0  0  0  0
  -10.7851   -4.0364   -1.1937 C   0  0  0  0  0  0  0  0  0  0  0  0
  -10.1056   -4.1318   -2.3602 C   0  0  0  0  0  0  0  0  0  0  0  0
  -10.7470   -3.6300   -3.6144 C   0  0  0  0  0  0  0  0  0  0  0  0
   -8.8585   -4.6752   -2.3868 C   0  0  0  0  0  0  0  0  0  0  0  0
   -8.1183   -4.7828   -3.6801 C   0  0  0  0  0  0  0  0  0  0  0  0
   -8.2760   -5.1270   -1.2470 C   0  0  0  0  0  0  0  0  0  0  0  0
   -8.9331   -5.0516   -0.0190 C   0  0  0  0  0  0  0  0  0  0  0  0
   -8.3854   -5.4983    1.2018 N   0  0  0  0  0  0  0  0  0  0  0  0
   -9.1934   -5.5626    2.3555 C   0  0  0  0  0  0  0  0  0  0  0  0
   -6.8971   -5.3520    1.4065 C   0  0  0  0  0  0  0  0  0  0  0  0
   -6.1070   -6.6631    1.7014 C   0  0  1  0  0  0  0  0  0  0  0  0
   -6.4447   -7.6624    0.7500 O   0  0  0  0  0  0  0  0  0  0  0  0
   -4.5782   -6.4453    1.7994 C   0  0  1  0  0  0  0  0  0  0  0  0
   -4.2719   -5.5803    2.8892 O   0  0  0  0  0  0  0  0  0  0  0  0
   -3.6926   -7.7137    1.8681 C   0  0  1  0  0  0  0  0  0  0  0  0
   -3.9638   -8.5137    0.7225 O   0  0  0  0  0  0  0  0  0  0  0  0
   -2.1816   -7.3923    1.9039 C   0  0  0  0  0  0  0  0  0  0  0  0
   -1.7855   -6.7774    3.1242 O   0  0  0  0  0  0  0  0  0  0  0  0
   -0.2865   -6.3618    3.4267 P   0  0  0  0  0  0  0  0  0  0  0  0
    0.5990   -7.5483    3.4384 O   0  0  0  0  0  0  0  0  0  0  0  0
    0.1057   -5.1938    2.6089 O   0  5  0  0  0  0  0  0  0  0  0  0
   -0.3333   -5.8519    4.9342 O   0  5  0  0  0  0  0  0  0  0  0  0
  1 18  1  0  0  0  0
  1  2  1  0  0  0  0
  2  4  1  0  0  0  0
  2  3  2  0  0  0  0
  4  5  1  0  0  0  0
  5  7  1  0  0  0  0
  5  6  2  0  0  0  0
  7 18  2  0  0  0  0
  7  8  1  0  0  0  0
  8  9  1  0  0  0  0
  9 10  2  0  0  0  0
  9 16  1  0  0  0  0
 10 11  1  0  0  0  0
 11 12  1  0  0  0  0
 11 13  2  0  0  0  0
 13 14  1  0  0  0  0
 13 15  1  0  0  0  0
 15 16  2  0  0  0  0
 16 17  1  0  0  0  0
 17 19  1  0  0  0  0
 17 18  1  0  0  0  0
 20 19  1  6  0  0  0
 20 22  1  0  0  0  0
 20 21  1  0  0  0  0
 22 24  1  0  0  0  0
 22 23  1  1  0  0  0
 24 26  1  6  0  0  0
 24 25  1  0  0  0  0
 26 27  1  0  0  0  0
 27 28  1  0  0  0  0
 28 30  1  0  0  0  0
 28 29  2  0  0  0  0
 28 31  1  0  0  0  0
M  CHG  2  30  -1  31  -1
M  END
>  <CHROM.1>
-121.92869858,49.50276442,62.83494883,58.58660478,56.96267836,-65.25659351
68.94586635,-59.07755962,179.22139762,-62.24407408,-6.56939169,-5.80556246
1.70472325,2.84767486,0.15616854,-1.41031617

>  <Name>
1fmn_cryst

>  <RI>
0

>  <Rbt.Current_Directory>
/home/itssahil/PROJECTS/Mol_Feturizer/New_Systems/rnas/1fmn

>  <Rbt.Executable>
rbdock ($Id: //depot/dev/client3/rdock/2013.1/src/exe/rbdock.cxx#4 $)

>  <Rbt.Library>
libRbt.so (2013.1, Build901 2013/11/27)

>  <Rbt.Parameter_File>
/export/apps/rDock/src/rDock_2013.1_src/data/scripts/dock_solv.prm

>  <Rbt.Receptor>
prm/pocket_docking_8.prm

>  <SCORE>
-58.1753

>  <SCORE.INTER>
-49.7378

>  <SCORE.INTER.CONST>
1

>  <SCORE.INTER.POLAR>
-2.71677

>  <SCORE.INTER.ROT>
7

>  <SCORE.INTER.SOLV>
15.0897

>  <SCORE.INTER.VDW>
-37.3992

>  <SCORE.INTER.norm>
-1.60445

>  <SCORE.INTRA>
-8.43753

>  <SCORE.INTRA.DIHEDRAL>
-12.1358

>  <SCORE.INTRA.DIHEDRAL.0>
15.5708

>  <SCORE.INTRA.POLAR>
-0.28348

>  <SCORE.INTRA.POLAR.0>
-0.0677885

>  <SCORE.INTRA.REPUL>
0

>  <SCORE.INTRA.REPUL.0>
0

>  <SCORE.INTRA.SOLV>
-4.31131

>  <SCORE.INTRA.SOLV.lig_0>
-87.6316

>  <SCORE.INTRA.VDW>
0.749884

>  <SCORE.INTRA.VDW.0>
-2.87309

>  <SCORE.INTRA.norm>
-0.272178

>  <SCORE.RESTR>
0

>  <SCORE.RESTR.CAVITY>
0

>  <SCORE.RESTR.norm>
0

>  <SCORE.SYSTEM>
0

>  <SCORE.SYSTEM.CONST>
0

>  <SCORE.SYSTEM.DIHEDRAL>
0

>  <SCORE.SYSTEM.SOLV>
0

>  <SCORE.SYSTEM.norm>
0

>  <SCORE.heavy>
31

>  <SCORE.norm>
-1.87662

>  <SYMMETRIC_BONDS>
33 34 3

>  <RMSD>
2.058

$$$$
1fmn_cryst
 OpenBabel11021811393D
libRbt.so/2013.1/901 2013/11/27
 31 33  0  0  0  0  0  0  0  0999 V2000
   -8.7952   -6.7244    3.6163 N   0  0  0  0  0  0  0  0  0  0  0  0
   -9.6407   -6.6338    4.6973 C   0  0  0  0  0  0  0  0  0  0  0  0
   -9.4545   -7.2818    5.7277 O   0  0  0  0  0  0  0  0  0  0  0  0
  -10.7407   -5.7522    4.5478 N   0  0  0  0  0  0  0  0  0  0  0  0
  -11.0482   -4.9711    3.4123 C   0  0  0  0  0  0  0  0  0  0  0  0
  -12.0452   -4.2382    3.4170 O   0  0  0  0  0  0  0  0  0  0  0  0
  -10.1014   -5.1244    2.3053 C   0  0  0  0  0  0  0  0  0  0  0  0
  -10.3297   -4.3979    1.1632 N   0  0  0  0  0  0  0  0  0  0  0  0
   -9.5557   -4.6760    0.0741 C   0  0  0  0  0  0  0  0  0  0  0  0
   -9.8972   -4.0847   -1.1292 C   0  0  0  0  0  0  0  0  0  0  0  0
   -9.1746   -4.3146   -2.2501 C   0  0  0  0  0  0  0  0  0  0  0  0
   -9.5843   -3.6482   -3.5246 C   0  0  0  0  0  0  0  0  0  0  0  0
   -8.0926   -5.1387   -2.2135 C   0  0  0  0  0  0  0  0  0  0  0  0
   -7.3046   -5.3923   -3.4572 C   0  0  0  0  0  0  0  0  0  0  0  0
   -7.7196   -5.7402   -1.0551 C   0  0  0  0  0  0  0  0  0  0  0  0
   -8.4299   -5.5362    0.1279 C   0  0  0  0  0  0  0  0  0  0  0  0
   -8.0954   -6.1262    1.3649 N   0  0  0  0  0  0  0  0  0  0  0  0
   -8.9793   -6.0204    2.4583 C   0  0  0  0  0  0  0  0  0  0  0  0
   -6.6341   -6.3429    1.6746 C   0  0  0  0  0  0  0  0  0  0  0  0
   -6.1854   -6.0452    3.1376 C   0  0  1  0  0  0  0  0  0  0  0  0
   -5.6254   -7.2113    3.7245 O   0  0  0  0  0  0  0  0  0  0  0  0
   -5.2400   -4.8255    3.2496 C   0  0  1  0  0  0  0  0  0  0  0  0
   -5.9005   -3.7480    3.9071 O   0  0  0  0  0  0  0  0  0  0  0  0
   -3.8552   -5.0693    3.8983 C   0  0  1  0  0  0  0  0  0  0  0  0
   -3.0812   -3.8822    3.7649 O   0  0  0  0  0  0  0  0  0  0  0  0
   -3.9477   -5.4372    5.3962 C   0  0  0  0  0  0  0  0  0  0  0  0
   -3.6401   -6.8046    5.6399 O   0  0  0  0  0  0  0  0  0  0  0  0
   -2.1870   -7.4044    5.4399 P   0  0  0  0  0  0  0  0  0  0  0  0
   -1.8141   -7.4198    4.0071 O   0  0  0  0  0  0  0  0  0  0  0  0
   -1.2411   -6.8141    6.4113 O   0  5  0  0  0  0  0  0  0  0  0  0
   -2.3498   -8.9335    5.8527 O   0  5  0  0  0  0  0  0  0  0  0  0
  1 18  1  0  0  0  0
  1  2  1  0  0  0  0
  2  4  1  0  0  0  0
  2  3  2  0  0  0  0
  4  5  1  0  0  0  0
  5  7  1  0  0  0  0
  5  6  2  0  0  0  0
  7 18  2  0  0  0  0
  7  8  1  0  0  0  0
  8  9  1  0  0  0  0
  9 10  2  0  0  0  0
  9 16  1  0  0  0  0
 10 11  1  0  0  0  0
 11 12  1  0  0  0  0
 11 13  2  0  0  0  0
 13 14  1  0  0  0  0
 13 15  1  0  0  0  0
 15 16  2  0  0  0  0
 16 17  1  0  0  0  0
 17 19  1  0  0  0  0
 17 18  1  0  0  0  0
 20 19  1  6  0  0  0
 20 22  1  0  0  0  0
 20 21  1  0  0  0  0
 22 24  1  0  0  0  0
 22 23  1  1  0  0  0
 24 26  1  1  0  0  0
 24 25  1  0  0  0  0
 26 27  1  0  0  0  0
 27 28  1  0  0  0  0
 28 30  1  0  0  0  0
 28 29  2  0  0  0  0
 28 31  1  0  0  0  0
M  CHG  2  30  -1  31  -1
M  END
>  <CHROM.1>
139.64337760,120.85220027,110.89473330,-56.11513590,173.12006388,171.42901193
108.32128028,-62.65544595,67.81609950,-68.00592147,-6.79055217,-5.76411314
2.67671193,2.44419367,0.11241931,-1.34378935

>  <Name>
1fmn_cryst

>  <RI>
0

>  <Rbt.Current_Directory>
/home/itssahil/PROJECTS/Mol_Feturizer/New_Systems/rnas/1fmn

>  <Rbt.Executable>
rbdock ($Id: //depot/dev/client3/rdock/2013.1/src/exe/rbdock.cxx#4 $)

>  <Rbt.Library>
libRbt.so (2013.1, Build901 2013/11/27)

>  <Rbt.Parameter_File>
/export/apps/rDock/src/rDock_2013.1_src/data/scripts/dock_solv.prm

>  <Rbt.Receptor>
prm/pocket_docking_5.prm

>  <SCORE>
-49.9319

>  <SCORE.INTER>
-53.5747

>  <SCORE.INTER.CONST>
1

>  <SCORE.INTER.POLAR>
-3.77539

>  <SCORE.INTER.ROT>
7

>  <SCORE.INTER.SOLV>
15.9801

>  <SCORE.INTER.VDW>
-36.7252

>  <SCORE.INTER.norm>
-1.72822

>  <SCORE.INTRA>
3.64284

>  <SCORE.INTRA.DIHEDRAL>
2.85807

>  <SCORE.INTRA.DIHEDRAL.0>
15.5708

>  <SCORE.INTRA.POLAR>
0.0584711

>  <SCORE.INTRA.POLAR.0>
-0.0677885

>  <SCORE.INTRA.REPUL>
0

>  <SCORE.INTRA.REPUL.0>
0

>  <SCORE.INTRA.SOLV>
-0.944681

>  <SCORE.INTRA.SOLV.lig_0>
-87.6316

>  <SCORE.INTRA.VDW>
2.48734

>  <SCORE.INTRA.VDW.0>
-2.87309

>  <SCORE.INTRA.norm>
0.117511

>  <SCORE.RESTR>
0

>  <SCORE.RESTR.CAVITY>
0

>  <SCORE.RESTR.norm>
0

>  <SCORE.SYSTEM>
0

>  <SCORE.SYSTEM.CONST>
0

>  <SCORE.SYSTEM.DIHEDRAL>
0

>  <SCORE.SYSTEM.SOLV>
0

>  <SCORE.SYSTEM.norm>
0

>  <SCORE.heavy>
31

>  <SCORE.norm>
-1.6107

>  <SYMMETRIC_BONDS>
33 34 3

>  <RMSD>
2.083

$$$$
1fmn_cryst
 OpenBabel11021811393D
libRbt.so/2013.1/901 2013/11/27
 31 33  0  0  0  0  0  0  0  0999 V2000
   -8.8718   -6.0628    3.5000 N   0  0  0  0  0  0  0  0  0  0  0  0
   -9.7112   -6.1856    4.5825 C   0  0  0  0  0  0  0  0  0  0  0  0
   -9.3292   -6.6559    5.6546 O   0  0  0  0  0  0  0  0  0  0  0  0
  -11.0427   -5.7417    4.3841 N   0  0  0  0  0  0  0  0  0  0  0  0
  -11.5825   -5.1952    3.1991 C   0  0  0  0  0  0  0  0  0  0  0  0
  -12.7688   -4.8448    3.1638 O   0  0  0  0  0  0  0  0  0  0  0  0
  -10.6264   -5.0989    2.0938 C   0  0  0  0  0  0  0  0  0  0  0  0
  -11.0731   -4.5772    0.9053 N   0  0  0  0  0  0  0  0  0  0  0  0
  -10.2374   -4.6552   -0.1708 C   0  0  0  0  0  0  0  0  0  0  0  0
  -10.7442   -4.3032   -1.4093 C   0  0  0  0  0  0  0  0  0  0  0  0
   -9.9727   -4.3556   -2.5199 C   0  0  0  0  0  0  0  0  0  0  0  0
  -10.5682   -3.9614   -3.8339 C   0  0  0  0  0  0  0  0  0  0  0  0
   -8.6762   -4.7598   -2.4380 C   0  0  0  0  0  0  0  0  0  0  0  0
   -7.8337   -4.8212   -3.6702 C   0  0  0  0  0  0  0  0  0  0  0  0
   -8.1358   -5.1139   -1.2441 C   0  0  0  0  0  0  0  0  0  0  0  0
   -8.8876   -5.0773   -0.0697 C   0  0  0  0  0  0  0  0  0  0  0  0
   -8.3883   -5.4278    1.2022 N   0  0  0  0  0  0  0  0  0  0  0  0
   -9.2691   -5.5486    2.2966 C   0  0  0  0  0  0  0  0  0  0  0  0
   -6.9438   -5.1141    1.5077 C   0  0  0  0  0  0  0  0  0  0  0  0
   -6.1599   -6.1876    2.3220 C   0  0  1  0  0  0  0  0  0  0  0  0
   -6.1866   -7.4341    1.6413 O   0  0  0  0  0  0  0  0  0  0  0  0
   -4.7194   -5.7504    2.6799 C   0  0  1  0  0  0  0  0  0  0  0  0
   -3.9677   -5.5100    1.4938 O   0  0  0  0  0  0  0  0  0  0  0  0
   -4.5712   -4.5524    3.6498 C   0  0  1  0  0  0  0  0  0  0  0  0
   -5.8488   -3.9474    3.8152 O   0  0  0  0  0  0  0  0  0  0  0  0
   -4.0324   -4.9644    5.0383 C   0  0  0  0  0  0  0  0  0  0  0  0
   -4.9110   -5.8511    5.7209 O   0  0  0  0  0  0  0  0  0  0  0  0
   -4.5827   -6.4492    7.1512 P   0  0  0  0  0  0  0  0  0  0  0  0
   -3.1214   -6.4868    7.3858 O   0  0  0  0  0  0  0  0  0  0  0  0
   -5.4499   -5.8398    8.1826 O   0  5  0  0  0  0  0  0  0  0  0  0
   -5.0337   -7.9718    7.0360 O   0  5  0  0  0  0  0  0  0  0  0  0
  1 18  1  0  0  0  0
  1  2  1  0  0  0  0
  2  4  1  0  0  0  0
  2  3  2  0  0  0  0
  4  5  1  0  0  0  0
  5  7  1  0  0  0  0
  5  6  2  0  0  0  0
  7 18  2  0  0  0  0
  7  8  1  0  0  0  0
  8  9  1  0  0  0  0
  9 10  2  0  0  0  0
  9 16  1  0  0  0  0
 10 11  1  0  0  0  0
 11 12  1  0  0  0  0
 11 13  2  0  0  0  0
 13 14  1  0  0  0  0
 13 15  1  0  0  0  0
 15 16  2  0  0  0  0
 16 17  1  0  0  0  0
 17 19  1  0  0  0  0
 17 18  1  0  0  0  0
 20 19  1  6  0  0  0
 20 22  1  0  0  0  0
 20 21  1  0  0  0  0
 22 24  1  0  0  0  0
 22 23  1  6  0  0  0
 24 26  1  1  0  0  0
 24 25  1  0  0  0  0
 26 27  1  0  0  0  0
 27 28  1  0  0  0  0
 28 30  1  0  0  0  0
 28 29  2  0  0  0  0
 28 31  1  0  0  0  0
M  CHG  2  30  -1  31  -1
M  END
>  <CHROM.1>
-140.64008930,57.63883627,-60.66589363,-175.82871434,-10.64072462,-64.34716007
-62.74701925,-174.95661957,178.72105164,-25.29131812,-7.60972761,-5.50835531
2.68450915,0.98009716,-0.05162043,1.73915752

>  <Name>
1fmn_cryst

>  <RI>
0

>  <Rbt.Current_Directory>
/home/itssahil/PROJECTS/Mol_Feturizer/New_Systems/rnas/1fmn

>  <Rbt.Executable>
rbdock ($Id: //depot/dev/client3/rdock/2013.1/src/exe/rbdock.cxx#4 $)

>  <Rbt.Library>
libRbt.so (2013.1, Build901 2013/11/27)

>  <Rbt.Parameter_File>
/export/apps/rDock/src/rDock_2013.1_src/data/scripts/dock_solv.prm

>  <Rbt.Receptor>
prm/pocket_docking_5.prm

>  <SCORE>
-61.0698

>  <SCORE.INTER>
-58.8009

>  <SCORE.INTER.CONST>
1

>  <SCORE.INTER.POLAR>
-5.06988

>  <SCORE.INTER.ROT>
7

>  <SCORE.INTER.SOLV>
20.9683

>  <SCORE.INTER.VDW>
-37.5571

>  <SCORE.INTER.norm>
-1.8968

>  <SCORE.INTRA>
-2.26884

>  <SCORE.INTRA.DIHEDRAL>
-6.79881

>  <SCORE.INTRA.DIHEDRAL.0>
15.5708

>  <SCORE.INTRA.POLAR>
0.0677885

>  <SCORE.INTRA.POLAR.0>
-0.0677885

>  <SCORE.INTRA.REPUL>
0

>  <SCORE.INTRA.REPUL.0>
0

>  <SCORE.INTRA.SOLV>
-4.0554

>  <SCORE.INTRA.SOLV.lig_0>
-87.6316

>  <SCORE.INTRA.VDW>
2.92778

>  <SCORE.INTRA.VDW.0>
-2.87309

>  <SCORE.INTRA.norm>
-0.0731885

>  <SCORE.RESTR>
0

>  <SCORE.RESTR.CAVITY>
0

>  <SCORE.RESTR.norm>
0

>  <SCORE.SYSTEM>
0

>  <SCORE.SYSTEM.CONST>
0

>  <SCORE.SYSTEM.DIHEDRAL>
0

>  <SCORE.SYSTEM.SOLV>
0

>  <SCORE.SYSTEM.norm>
0

>  <SCORE.heavy>
31

>  <SCORE.norm>
-1.96999

>  <SYMMETRIC_BONDS>
33 34 3

>  <RMSD>
2.087

$$$$
1fmn_cryst
 OpenBabel11021811393D
libRbt.so/2013.1/901 2013/11/27
 31 33  0  0  0  0  0  0  0  0999 V2000
   -9.0131   -6.7960    3.7777 N   0  0  0  0  0  0  0  0  0  0  0  0
   -9.8618   -6.7224    4.8573 C   0  0  0  0  0  0  0  0  0  0  0  0
   -9.6786   -7.3864    5.8781 O   0  0  0  0  0  0  0  0  0  0  0  0
  -10.9616   -5.8388    4.7183 N   0  0  0  0  0  0  0  0  0  0  0  0
  -11.2658   -5.0402    3.5941 C   0  0  0  0  0  0  0  0  0  0  0  0
  -12.2631   -4.3077    3.6072 O   0  0  0  0  0  0  0  0  0  0  0  0
  -10.3157   -5.1761    2.4877 C   0  0  0  0  0  0  0  0  0  0  0  0
  -10.5407   -4.4319    1.3565 N   0  0  0  0  0  0  0  0  0  0  0  0
   -9.7634   -4.6929    0.2655 C   0  0  0  0  0  0  0  0  0  0  0  0
  -10.1014   -4.0830   -0.9295 C   0  0  0  0  0  0  0  0  0  0  0  0
   -9.3753   -4.2953   -2.0517 C   0  0  0  0  0  0  0  0  0  0  0  0
   -9.7813   -3.6092   -3.3169 C   0  0  0  0  0  0  0  0  0  0  0  0
   -8.2933   -5.1196   -2.0246 C   0  0  0  0  0  0  0  0  0  0  0  0
   -7.5015   -5.3538   -3.2698 C   0  0  0  0  0  0  0  0  0  0  0  0
   -7.9236   -5.7390   -0.8746 C   0  0  0  0  0  0  0  0  0  0  0  0
   -8.6375   -5.5537    0.3093 C   0  0  0  0  0  0  0  0  0  0  0  0
   -8.3066   -6.1627    1.5379 N   0  0  0  0  0  0  0  0  0  0  0  0
   -9.1939   -6.0741    2.6302 C   0  0  0  0  0  0  0  0  0  0  0  0
   -6.8462   -6.3839    1.8487 C   0  0  0  0  0  0  0  0  0  0  0  0
   -5.9967   -5.1066    2.1264 C   0  0  1  0  0  0  0  0  0  0  0  0
   -6.2322   -4.6400    3.4472 O   0  0  0  0  0  0  0  0  0  0  0  0
   -4.4891   -5.3019    1.8379 C   0  0  1  0  0  0  0  0  0  0  0  0
   -3.8390   -4.0385    1.7338 O   0  0  0  0  0  0  0  0  0  0  0  0
   -3.7036   -6.2208    2.8056 C   0  0  1  0  0  0  0  0  0  0  0  0
   -4.2213   -6.0376    4.1188 O   0  0  0  0  0  0  0  0  0  0  0  0
   -3.8081   -7.7170    2.4340 C   0  0  0  0  0  0  0  0  0  0  0  0
   -3.1053   -8.5536    3.3451 O   0  0  0  0  0  0  0  0  0  0  0  0
   -2.9086  -10.1074    3.1039 P   0  0  0  0  0  0  0  0  0  0  0  0
   -4.2113  -10.7789    2.8938 O   0  0  0  0  0  0  0  0  0  0  0  0
   -1.8218  -10.3504    2.1308 O   0  5  0  0  0  0  0  0  0  0  0  0
   -2.3763  -10.6425    4.5057 O   0  5  0  0  0  0  0  0  0  0  0  0
  1 18  1  0  0  0  0
  1  2  1  0  0  0  0
  2  4  1  0  0  0  0
  2  3  2  0  0  0  0
  4  5  1  0  0  0  0
  5  7  1  0  0  0  0
  5  6  2  0  0  0  0
  7 18  2  0  0  0  0
  7  8  1  0  0  0  0
  8  9  1  0  0  0  0
  9 10  2  0  0  0  0
  9 16  1  0  0  0  0
 10 11  1  0  0  0  0
 11 12  1  0  0  0  0
 11 13  2  0  0  0  0
 13 14  1  0  0  0  0
 13 15  1  0  0  0  0
 15 16  2  0  0  0  0
 16 17  1  0  0  0  0
 17 19  1  0  0  0  0
 17 18  1  0  0  0  0
 20 19  1  1  0  0  0
 20 22  1  0  0  0  0
 20 21  1  0  0  0  0
 22 24  1  0  0  0  0
 22 23  1  1  0  0  0
 24 26  1  6  0  0  0
 24 25  1  0  0  0  0
 26 27  1  0  0  0  0
 27 28  1  0  0  0  0
 28 30  1  0  0  0  0
 28 29  2  0  0  0  0
 28 31  1  0  0  0  0
M  CHG  2  30  -1  31  -1
M  END
>  <CHROM.1>
69.33913686,78.34125825,163.28485200,74.48881757,-35.88629260,-87.78854646
-178.80734271,177.78839257,-172.65806223,-54.90716205,-6.99622494,-6.41691823
2.03645597,2.66251671,0.41883224,-1.18094449

>  <Name>
1fmn_cryst

>  <RI>
0

>  <Rbt.Current_Directory>
/home/itssahil/PROJECTS/Mol_Feturizer/New_Systems/rnas/1fmn

>  <Rbt.Executable>
rbdock ($Id: //depot/dev/client3/rdock/2013.1/src/exe/rbdock.cxx#4 $)

>  <Rbt.Library>
libRbt.so (2013.1, Build901 2013/11/27)

>  <Rbt.Parameter_File>
/export/apps/rDock/src/rDock_2013.1_src/data/scripts/dock_solv.prm

>  <Rbt.Receptor>
prm/pocket_docking_5.prm

>  <SCORE>
-57.3954

>  <SCORE.INTER>
-50.58

>  <SCORE.INTER.CONST>
1

>  <SCORE.INTER.POLAR>
-3.6666

>  <SCORE.INTER.ROT>
7

>  <SCORE.INTER.SOLV>
20.1115

>  <SCORE.INTER.VDW>
-36.4685

>  <SCORE.INTER.norm>
-1.63161

>  <SCORE.INTRA>
-6.81538

>  <SCORE.INTRA.DIHEDRAL>
-5.99006

>  <SCORE.INTRA.DIHEDRAL.0>
15.5708

>  <SCORE.INTRA.POLAR>
-0.636093

>  <SCORE.INTRA.POLAR.0>
-0.0677885

>  <SCORE.INTRA.REPUL>
0

>  <SCORE.INTRA.REPUL.0>
0

>  <SCORE.INTRA.SOLV>
-4.42185

>  <SCORE.INTRA.SOLV.lig_0>
-87.6316

>  <SCORE.INTRA.VDW>
0.553296

>  <SCORE.INTRA.VDW.0>
-2.87309

>  <SCORE.INTRA.norm>
-0.219851

>  <SCORE.RESTR>
0

>  <SCORE.RESTR.CAVITY>
0

>  <SCORE.RESTR.norm>
0

>  <SCORE.SYSTEM>
0

>  <SCORE.SYSTEM.CONST>
0

>  <SCORE.SYSTEM.DIHEDRAL>
0

>  <SCORE.SYSTEM.SOLV>
0

>  <SCORE.SYSTEM.norm>
0

>  <SCORE.heavy>
31

>  <SCORE.norm>
-1.85146

>  <SYMMETRIC_BONDS>
33 34 3

>  <RMSD>
2.142

$$$$
1fmn_cryst
 OpenBabel11021811393D
libRbt.so/2013.1/901 2013/11/27
 31 33  0  0  0  0  0  0  0  0999 V2000
   -8.8411   -6.1829    3.6167 N   0  0  0  0  0  0  0  0  0  0  0  0
   -9.6120   -6.2300    4.7547 C   0  0  0  0  0  0  0  0  0  0  0  0
   -9.2270   -6.7909    5.7812 O   0  0  0  0  0  0  0  0  0  0  0  0
  -10.8777   -5.5973    4.6690 N   0  0  0  0  0  0  0  0  0  0  0  0
  -11.4156   -4.9347    3.5440 C   0  0  0  0  0  0  0  0  0  0  0  0
  -12.5397   -4.4211    3.6073 O   0  0  0  0  0  0  0  0  0  0  0  0
  -10.5347   -4.9291    2.3739 C   0  0  0  0  0  0  0  0  0  0  0  0
  -10.9844   -4.3038    1.2377 N   0  0  0  0  0  0  0  0  0  0  0  0
  -10.2452   -4.4550    0.1005 C   0  0  0  0  0  0  0  0  0  0  0  0
  -10.7818   -3.9873   -1.0860 C   0  0  0  0  0  0  0  0  0  0  0  0
  -10.1048   -4.1029   -2.2520 C   0  0  0  0  0  0  0  0  0  0  0  0
  -10.7282   -3.5780   -3.5059 C   0  0  0  0  0  0  0  0  0  0  0  0
   -8.8762   -4.6869   -2.2786 C   0  0  0  0  0  0  0  0  0  0  0  0
   -8.1388   -4.8166   -3.5715 C   0  0  0  0  0  0  0  0  0  0  0  0
   -8.3098   -5.1597   -1.1391 C   0  0  0  0  0  0  0  0  0  0  0  0
   -8.9652   -5.0649    0.0885 C   0  0  0  0  0  0  0  0  0  0  0  0
   -8.4335   -5.5315    1.3089 N   0  0  0  0  0  0  0  0  0  0  0  0
   -9.2442   -5.5713    2.4618 C   0  0  0  0  0  0  0  0  0  0  0  0
   -6.9414   -5.4345    1.5151 C   0  0  0  0  0  0  0  0  0  0  0  0
   -6.1797   -6.7818    1.7020 C   0  0  1  0  0  0  0  0  0  0  0  0
   -6.5417   -7.6950    0.6759 O   0  0  0  0  0  0  0  0  0  0  0  0
   -4.6463   -6.6059    1.8106 C   0  0  1  0  0  0  0  0  0  0  0  0
   -4.3270   -5.6966    2.8598 O   0  0  0  0  0  0  0  0  0  0  0  0
   -3.8014   -7.8955    1.9553 C   0  0  1  0  0  0  0  0  0  0  0  0
   -4.1636   -8.7898    0.9089 O   0  0  0  0  0  0  0  0  0  0  0  0
   -2.2808   -7.6313    1.8797 C   0  0  0  0  0  0  0  0  0  0  0  0
   -1.8179   -6.8117    2.9466 O   0  0  0  0  0  0  0  0  0  0  0  0
   -0.3113   -6.3361    3.0696 P   0  0  0  0  0  0  0  0  0  0  0  0
    0.1085   -5.5920    1.8604 O   0  0  0  0  0  0  0  0  0  0  0  0
   -0.0625   -5.7305    4.3955 O   0  5  0  0  0  0  0  0  0  0  0  0
    0.5170   -7.6955    3.0405 O   0  5  0  0  0  0  0  0  0  0  0  0
  1 18  1  0  0  0  0
  1  2  1  0  0  0  0
  2  4  1  0  0  0  0
  2  3  2  0  0  0  0
  4  5  1  0  0  0  0
  5  7  1  0  0  0  0
  5  6  2  0  0  0  0
  7 18  2  0  0  0  0
  7  8  1  0  0  0  0
  8  9  1  0  0  0  0
  9 10  2  0  0  0  0
  9 16  1  0  0  0  0
 10 11  1  0  0  0  0
 11 12  1  0  0  0  0
 11 13  2  0  0  0  0
 13 14  1  0  0  0  0
 13 15  1  0  0  0  0
 15 16  2  0  0  0  0
 16 17  1  0  0  0  0
 17 19  1  0  0  0  0
 17 18  1  0  0  0  0
 20 19  1  6  0  0  0
 20 22  1  0  0  0  0
 20 21  1  0  0  0  0
 22 24  1  0  0  0  0
 22 23  1  1  0  0  0
 24 26  1  6  0  0  0
 24 25  1  0  0  0  0
 26 27  1  0  0  0  0
 27 28  1  0  0  0  0
 28 30  1  0  0  0  0
 28 29  2  0  0  0  0
 28 31  1  0  0  0  0
M  CHG  2  30  -1  31  -1
M  END
>  <CHROM.1>
-117.50585117,49.64209019,55.33019239,167.53652134,52.24075191,-65.28930956
63.39474328,-176.18865621,-177.20732759,57.38880585,-6.60328765,-5.85411181
1.68268788,2.90258203,0.17374732,-1.39217184

>  <Name>
1fmn_cryst

>  <RI>
0

>  <Rbt.Current_Directory>
/home/itssahil/PROJECTS/Mol_Feturizer/New_Systems/rnas/1fmn

>  <Rbt.Executable>
rbdock ($Id: //depot/dev/client3/rdock/2013.1/src/exe/rbdock.cxx#4 $)

>  <Rbt.Library>
libRbt.so (2013.1, Build901 2013/11/27)

>  <Rbt.Parameter_File>
/export/apps/rDock/src/rDock_2013.1_src/data/scripts/dock_solv.prm

>  <Rbt.Receptor>
prm/pocket_docking_6.prm

>  <SCORE>
-56.1178

>  <SCORE.INTER>
-47.1055

>  <SCORE.INTER.CONST>
1

>  <SCORE.INTER.POLAR>
-2.14325

>  <SCORE.INTER.ROT>
7

>  <SCORE.INTER.SOLV>
15.4065

>  <SCORE.INTER.VDW>
-37.6616

>  <SCORE.INTER.norm>
-1.51953

>  <SCORE.INTRA>
-9.01233

>  <SCORE.INTRA.DIHEDRAL>
-11.1992

>  <SCORE.INTRA.DIHEDRAL.0>
15.5708

>  <SCORE.INTRA.POLAR>
-0.727969

>  <SCORE.INTRA.POLAR.0>
-0.0677885

>  <SCORE.INTRA.REPUL>
0

>  <SCORE.INTRA.REPUL.0>
0

>  <SCORE.INTRA.SOLV>
-4.11058

>  <SCORE.INTRA.SOLV.lig_0>
-87.6316

>  <SCORE.INTRA.VDW>
1.11766

>  <SCORE.INTRA.VDW.0>
-2.87309

>  <SCORE.INTRA.norm>
-0.29072

>  <SCORE.RESTR>
0

>  <SCORE.RESTR.CAVITY>
0

>  <SCORE.RESTR.norm>
0

>  <SCORE.SYSTEM>
0

>  <SCORE.SYSTEM.CONST>
0

>  <SCORE.SYSTEM.DIHEDRAL>
0

>  <SCORE.SYSTEM.SOLV>
0

>  <SCORE.SYSTEM.norm>
0

>  <SCORE.heavy>
31

>  <SCORE.norm>
-1.81025

>  <SYMMETRIC_BONDS>
33 34 3

>  <RMSD>
2.143

$$$$
1fmn_cryst
 OpenBabel11021811393D
libRbt.so/2013.1/901 2013/11/27
 31 33  0  0  0  0  0  0  0  0999 V2000
   -9.0528   -6.2685    3.5869 N   0  0  0  0  0  0  0  0  0  0  0  0
   -9.8407   -6.2549    4.7142 C   0  0  0  0  0  0  0  0  0  0  0  0
   -9.5206   -6.8537    5.7415 O   0  0  0  0  0  0  0  0  0  0  0  0
  -11.0447   -5.5131    4.6162 N   0  0  0  0  0  0  0  0  0  0  0  0
  -11.5068   -4.7989    3.4891 C   0  0  0  0  0  0  0  0  0  0  0  0
  -12.5823   -4.1891    3.5412 O   0  0  0  0  0  0  0  0  0  0  0  0
  -10.6126   -4.8634    2.3309 C   0  0  0  0  0  0  0  0  0  0  0  0
  -10.9900   -4.1941    1.1934 N   0  0  0  0  0  0  0  0  0  0  0  0
  -10.2511   -4.4025    0.0651 C   0  0  0  0  0  0  0  0  0  0  0  0
  -10.7281   -3.8822   -1.1249 C   0  0  0  0  0  0  0  0  0  0  0  0
  -10.0476   -4.0495   -2.2827 C   0  0  0  0  0  0  0  0  0  0  0  0
  -10.6052   -3.4643   -3.5408 C   0  0  0  0  0  0  0  0  0  0  0  0
   -8.8748   -4.7389   -2.2972 C   0  0  0  0  0  0  0  0  0  0  0  0
   -8.1336   -4.9247   -3.5811 C   0  0  0  0  0  0  0  0  0  0  0  0
   -8.3679   -5.2666   -1.1538 C   0  0  0  0  0  0  0  0  0  0  0  0
   -9.0294   -5.1222    0.0656 C   0  0  0  0  0  0  0  0  0  0  0  0
   -8.5577   -5.6412    1.2896 N   0  0  0  0  0  0  0  0  0  0  0  0
   -9.3847   -5.6168    2.4312 C   0  0  0  0  0  0  0  0  0  0  0  0
   -7.0658   -5.6768    1.5163 C   0  0  0  0  0  0  0  0  0  0  0  0
   -6.4638   -7.0489    1.9463 C   0  0  1  0  0  0  0  0  0  0  0  0
   -6.4648   -7.9495    0.8477 O   0  0  0  0  0  0  0  0  0  0  0  0
   -5.0651   -6.9249    2.5962 C   0  0  1  0  0  0  0  0  0  0  0  0
   -4.6312   -8.1930    3.0791 O   0  0  0  0  0  0  0  0  0  0  0  0
   -3.9494   -6.2768    1.7401 C   0  0  1  0  0  0  0  0  0  0  0  0
   -4.2786   -4.9074    1.5349 O   0  0  0  0  0  0  0  0  0  0  0  0
   -2.5561   -6.3596    2.4032 C   0  0  0  0  0  0  0  0  0  0  0  0
   -1.7305   -7.3552    1.8105 O   0  0  0  0  0  0  0  0  0  0  0  0
   -1.8897   -8.8996    2.1275 P   0  0  0  0  0  0  0  0  0  0  0  0
   -2.2780   -9.1121    3.5404 O   0  0  0  0  0  0  0  0  0  0  0  0
   -2.6746   -9.5708    1.0690 O   0  5  0  0  0  0  0  0  0  0  0  0
   -0.4063   -9.4648    2.0052 O   0  5  0  0  0  0  0  0  0  0  0  0
  1 18  1  0  0  0  0
  1  2  1  0  0  0  0
  2  4  1  0  0  0  0
  2  3  2  0  0  0  0
  4  5  1  0  0  0  0
  5  7  1  0  0  0  0
  5  6  2  0  0  0  0
  7 18  2  0  0  0  0
  7  8  1  0  0  0  0
  8  9  1  0  0  0  0
  9 10  2  0  0  0  0
  9 16  1  0  0  0  0
 10 11  1  0  0  0  0
 11 12  1  0  0  0  0
 11 13  2  0  0  0  0
 13 14  1  0  0  0  0
 13 15  1  0  0  0  0
 15 16  2  0  0  0  0
 16 17  1  0  0  0  0
 17 19  1  0  0  0  0
 17 18  1  0  0  0  0
 20 19  1  6  0  0  0
 20 22  1  0  0  0  0
 20 21  1  0  0  0  0
 22 24  1  0  0  0  0
 22 23  1  6  0  0  0
 24 26  1  1  0  0  0
 24 25  1  0  0  0  0
 26 27  1  0  0  0  0
 27 28  1  0  0  0  0
 28 30  1  0  0  0  0
 28 29  2  0  0  0  0
 28 31  1  0  0  0  0
M  CHG  2  30  -1  31  -1
M  END
>  <CHROM.1>
-127.70713426,72.36853979,174.45704277,-174.71426354,66.65066276,-169.79353129
104.05296707,-162.31372760,-78.20297550,-35.19592155,-7.00103394,-6.25360705
1.54386633,2.88263257,0.37462865,-1.29562104

>  <Name>
1fmn_cryst

>  <RI>
0

>  <Rbt.Current_Directory>
/home/itssahil/PROJECTS/Mol_Feturizer/New_Systems/rnas/1fmn

>  <Rbt.Executable>
rbdock ($Id: //depot/dev/client3/rdock/2013.1/src/exe/rbdock.cxx#4 $)

>  <Rbt.Library>
libRbt.so (2013.1, Build901 2013/11/27)

>  <Rbt.Parameter_File>
/export/apps/rDock/src/rDock_2013.1_src/data/scripts/dock_solv.prm

>  <Rbt.Receptor>
prm/pocket_docking_4.prm

>  <SCORE>
-50.4713

>  <SCORE.INTER>
-50.165

>  <SCORE.INTER.CONST>
1

>  <SCORE.INTER.POLAR>
-2.84537

>  <SCORE.INTER.ROT>
7

>  <SCORE.INTER.SOLV>
15.8958

>  <SCORE.INTER.VDW>
-37.5241

>  <SCORE.INTER.norm>
-1.61823

>  <SCORE.INTRA>
-0.306264

>  <SCORE.INTRA.DIHEDRAL>
-3.32696

>  <SCORE.INTRA.DIHEDRAL.0>
15.5708

>  <SCORE.INTRA.POLAR>
-0.290123

>  <SCORE.INTRA.POLAR.0>
-0.0677885

>  <SCORE.INTRA.REPUL>
0

>  <SCORE.INTRA.REPUL.0>
0

>  <SCORE.INTRA.SOLV>
2.15185

>  <SCORE.INTRA.SOLV.lig_0>
-87.6316

>  <SCORE.INTRA.VDW>
1.26771

>  <SCORE.INTRA.VDW.0>
-2.87309

>  <SCORE.INTRA.norm>
-0.0098795

>  <SCORE.RESTR>
0

>  <SCORE.RESTR.CAVITY>
0

>  <SCORE.RESTR.norm>
0

>  <SCORE.SYSTEM>
0

>  <SCORE.SYSTEM.CONST>
0

>  <SCORE.SYSTEM.DIHEDRAL>
0

>  <SCORE.SYSTEM.SOLV>
0

>  <SCORE.SYSTEM.norm>
0

>  <SCORE.heavy>
31

>  <SCORE.norm>
-1.62811

>  <SYMMETRIC_BONDS>
33 34 3

>  <RMSD>
2.154

$$$$
1fmn_cryst
 OpenBabel11021811393D
libRbt.so/2013.1/901 2013/11/27
 31 33  0  0  0  0  0  0  0  0999 V2000
   -8.7851   -6.2502    3.5603 N   0  0  0  0  0  0  0  0  0  0  0  0
   -9.5601   -6.2500    4.6965 C   0  0  0  0  0  0  0  0  0  0  0  0
   -9.2076   -6.8247    5.7270 O   0  0  0  0  0  0  0  0  0  0  0  0
  -10.7902   -5.5517    4.6041 N   0  0  0  0  0  0  0  0  0  0  0  0
  -11.2897   -4.8678    3.4740 C   0  0  0  0  0  0  0  0  0  0  0  0
  -12.3852   -4.2951    3.5317 O   0  0  0  0  0  0  0  0  0  0  0  0
  -10.4070   -4.9154    2.3062 C   0  0  0  0  0  0  0  0  0  0  0  0
  -10.8205   -4.2736    1.1654 N   0  0  0  0  0  0  0  0  0  0  0  0
  -10.0877   -4.4701    0.0310 C   0  0  0  0  0  0  0  0  0  0  0  0
  -10.5961   -3.9813   -1.1594 C   0  0  0  0  0  0  0  0  0  0  0  0
   -9.9235   -4.1391   -2.3230 C   0  0  0  0  0  0  0  0  0  0  0  0
  -10.5154   -3.5890   -3.5814 C   0  0  0  0  0  0  0  0  0  0  0  0
   -8.7275   -4.7875   -2.3433 C   0  0  0  0  0  0  0  0  0  0  0  0
   -7.9950   -4.9632   -3.6335 C   0  0  0  0  0  0  0  0  0  0  0  0
   -8.1896   -5.2832   -1.1997 C   0  0  0  0  0  0  0  0  0  0  0  0
   -8.8418   -5.1469    0.0256 C   0  0  0  0  0  0  0  0  0  0  0  0
   -8.3383   -5.6342    1.2500 N   0  0  0  0  0  0  0  0  0  0  0  0
   -9.1527   -5.6245    2.4010 C   0  0  0  0  0  0  0  0  0  0  0  0
   -6.8436   -5.6152    1.4594 C   0  0  0  0  0  0  0  0  0  0  0  0
   -6.0259   -6.7105    0.7098 C   0  0  1  0  0  0  0  0  0  0  0  0
   -5.1010   -6.1055   -0.1827 O   0  0  0  0  0  0  0  0  0  0  0  0
   -5.3413   -7.7197    1.6620 C   0  0  1  0  0  0  0  0  0  0  0  0
   -6.0487   -8.9562    1.6619 O   0  0  0  0  0  0  0  0  0  0  0  0
   -3.8302   -7.9768    1.4420 C   0  0  1  0  0  0  0  0  0  0  0  0
   -3.6085   -8.1909    0.0524 O   0  0  0  0  0  0  0  0  0  0  0  0
   -2.9443   -6.8011    1.9116 C   0  0  0  0  0  0  0  0  0  0  0  0
   -1.5783   -7.1727    2.0531 O   0  0  0  0  0  0  0  0  0  0  0  0
   -0.4790   -6.1898    2.6334 P   0  0  0  0  0  0  0  0  0  0  0  0
   -0.8605   -5.7058    3.9797 O   0  0  0  0  0  0  0  0  0  0  0  0
    0.8758   -6.7505    2.4403 O   0  5  0  0  0  0  0  0  0  0  0  0
   -0.5716   -4.9164    1.6823 O   0  5  0  0  0  0  0  0  0  0  0  0
  1 18  1  0  0  0  0
  1  2  1  0  0  0  0
  2  4  1  0  0  0  0
  2  3  2  0  0  0  0
  4  5  1  0  0  0  0
  5  7  1  0  0  0  0
  5  6  2  0  0  0  0
  7 18  2  0  0  0  0
  7  8  1  0  0  0  0
  8  9  1  0  0  0  0
  9 10  2  0  0  0  0
  9 16  1  0  0  0  0
 10 11  1  0  0  0  0
 11 12  1  0  0  0  0
 11 13  2  0  0  0  0
 13 14  1  0  0  0  0
 13 15  1  0  0  0  0
 15 16  2  0  0  0  0
 16 17  1  0  0  0  0
 17 19  1  0  0  0  0
 17 18  1  0  0  0  0
 20 19  1  1  0  0  0
 20 22  1  0  0  0  0
 20 21  1  0  0  0  0
 22 24  1  0  0  0  0
 22 23  1  6  0  0  0
 24 26  1  6  0  0  0
 24 25  1  0  0  0  0
 26 27  1  0  0  0  0
 27 28  1  0  0  0  0
 28 30  1  0  0  0  0
 28 29  2  0  0  0  0
 28 31  1  0  0  0  0
M  CHG  2  30  -1  31  -1
M  END
>  <CHROM.1>
-75.66524321,119.17083619,104.29280245,-62.70410922,-47.03310813,60.10019392
163.80196813,58.60137665,-174.89341532,56.36518183,-6.60619981,-5.86168890
1.38420282,2.97181450,0.17029733,-1.38221070

>  <Name>
1fmn_cryst

>  <RI>
0

>  <Rbt.Current_Directory>
/home/itssahil/PROJECTS/Mol_Feturizer/New_Systems/rnas/1fmn

>  <Rbt.Executable>
rbdock ($Id: //depot/dev/client3/rdock/2013.1/src/exe/rbdock.cxx#4 $)

>  <Rbt.Library>
libRbt.so (2013.1, Build901 2013/11/27)

>  <Rbt.Parameter_File>
/export/apps/rDock/src/rDock_2013.1_src/data/scripts/dock_solv.prm

>  <Rbt.Receptor>
prm/pocket_docking_7.prm

>  <SCORE>
-59.1651

>  <SCORE.INTER>
-54.7104

>  <SCORE.INTER.CONST>
1

>  <SCORE.INTER.POLAR>
-3.3903

>  <SCORE.INTER.ROT>
7

>  <SCORE.INTER.SOLV>
17.6865

>  <SCORE.INTER.VDW>
-39.3348

>  <SCORE.INTER.norm>
-1.76485

>  <SCORE.INTRA>
-4.45467

>  <SCORE.INTRA.DIHEDRAL>
-2.37194

>  <SCORE.INTRA.DIHEDRAL.0>
15.5708

>  <SCORE.INTRA.POLAR>
-0.646183

>  <SCORE.INTRA.POLAR.0>
-0.0677885

>  <SCORE.INTRA.REPUL>
0

>  <SCORE.INTRA.REPUL.0>
0

>  <SCORE.INTRA.SOLV>
-4.36684

>  <SCORE.INTRA.SOLV.lig_0>
-87.6316

>  <SCORE.INTRA.VDW>
1.11174

>  <SCORE.INTRA.VDW.0>
-2.87309

>  <SCORE.INTRA.norm>
-0.143699

>  <SCORE.RESTR>
0

>  <SCORE.RESTR.CAVITY>
0

>  <SCORE.RESTR.norm>
0

>  <SCORE.SYSTEM>
0

>  <SCORE.SYSTEM.CONST>
0

>  <SCORE.SYSTEM.DIHEDRAL>
0

>  <SCORE.SYSTEM.SOLV>
0

>  <SCORE.SYSTEM.norm>
0

>  <SCORE.heavy>
31

>  <SCORE.norm>
-1.90855

>  <SYMMETRIC_BONDS>
33 34 3

>  <RMSD>
2.168

$$$$
1fmn_cryst
 OpenBabel11021811393D
libRbt.so/2013.1/901 2013/11/27
 31 33  0  0  0  0  0  0  0  0999 V2000
   -8.7905   -6.1601    3.5634 N   0  0  0  0  0  0  0  0  0  0  0  0
   -9.5661   -6.2351    4.6966 C   0  0  0  0  0  0  0  0  0  0  0  0
   -9.1669   -6.7806    5.7260 O   0  0  0  0  0  0  0  0  0  0  0  0
  -10.8538   -5.6499    4.6026 N   0  0  0  0  0  0  0  0  0  0  0  0
  -11.4090   -5.0083    3.4736 C   0  0  0  0  0  0  0  0  0  0  0  0
  -12.5517   -4.5368    3.5296 O   0  0  0  0  0  0  0  0  0  0  0  0
  -10.5216   -4.9708    2.3090 C   0  0  0  0  0  0  0  0  0  0  0  0
  -10.9873   -4.3634    1.1695 N   0  0  0  0  0  0  0  0  0  0  0  0
  -10.2359   -4.4879    0.0370 C   0  0  0  0  0  0  0  0  0  0  0  0
  -10.7822   -4.0411   -1.1531 C   0  0  0  0  0  0  0  0  0  0  0  0
  -10.0941   -4.1323   -2.3149 C   0  0  0  0  0  0  0  0  0  0  0  0
  -10.7288   -3.6317   -3.5731 C   0  0  0  0  0  0  0  0  0  0  0  0
   -8.8446   -4.6703   -2.3334 C   0  0  0  0  0  0  0  0  0  0  0  0
   -8.0949   -4.7734   -3.6216 C   0  0  0  0  0  0  0  0  0  0  0  0
   -8.2681   -5.1210   -1.1901 C   0  0  0  0  0  0  0  0  0  0  0  0
   -8.9341   -5.0498    0.0334 C   0  0  0  0  0  0  0  0  0  0  0  0
   -8.3930   -5.4956    1.2575 N   0  0  0  0  0  0  0  0  0  0  0  0
   -9.2089   -5.5646    2.4054 C   0  0  0  0  0  0  0  0  0  0  0  0
   -6.9068   -5.3432    1.4728 C   0  0  0  0  0  0  0  0  0  0  0  0
   -6.1093   -6.6544    1.7465 C   0  0  1  0  0  0  0  0  0  0  0  0
   -6.4296   -7.6349    0.7698 O   0  0  0  0  0  0  0  0  0  0  0  0
   -4.5834   -6.4270    1.8648 C   0  0  1  0  0  0  0  0  0  0  0  0
   -4.2856   -5.6789    3.0401 O   0  0  0  0  0  0  0  0  0  0  0  0
   -3.6803   -7.6830    1.7966 C   0  0  1  0  0  0  0  0  0  0  0  0
   -3.9719   -8.3811    0.5909 O   0  0  0  0  0  0  0  0  0  0  0  0
   -2.1730   -7.3436    1.8227 C   0  0  0  0  0  0  0  0  0  0  0  0
   -1.7671   -6.7673    3.0585 O   0  0  0  0  0  0  0  0  0  0  0  0
   -0.2745   -6.3187    3.3449 P   0  0  0  0  0  0  0  0  0  0  0  0
   -0.1602   -5.6815    4.6765 O   0  0  0  0  0  0  0  0  0  0  0  0
    0.6713   -7.4001    2.9941 O   0  5  0  0  0  0  0  0  0  0  0  0
   -0.0229   -5.1509    2.2924 O   0  5  0  0  0  0  0  0  0  0  0  0
  1 18  1  0  0  0  0
  1  2  1  0  0  0  0
  2  4  1  0  0  0  0
  2  3  2  0  0  0  0
  4  5  1  0  0  0  0
  5  7  1  0  0  0  0
  5  6  2  0  0  0  0
  7 18  2  0  0  0  0
  7  8  1  0  0  0  0
  8  9  1  0  0  0  0
  9 10  2  0  0  0  0
  9 16  1  0  0  0  0
 10 11  1  0  0  0  0
 11 12  1  0  0  0  0
 11 13  2  0  0  0  0
 13 14  1  0  0  0  0
 13 15  1  0  0  0  0
 15 16  2  0  0  0  0
 16 17  1  0  0  0  0
 17 19  1  0  0  0  0
 17 18  1  0  0  0  0
 20 19  1  6  0  0  0
 20 22  1  0  0  0  0
 20 21  1  0  0  0  0
 22 24  1  0  0  0  0
 22 23  1  1  0  0  0
 24 26  1  6  0  0  0
 24 25  1  0  0  0  0
 26 27  1  0  0  0  0
 27 28  1  0  0  0  0
 28 30  1  0  0  0  0
 28 29  2  0  0  0  0
 28 31  1  0  0  0  0
M  CHG  2  30  -1  31  -1
M  END
>  <CHROM.1>
-120.87597526,49.83548479,67.74455508,65.06195108,55.29197012,-62.51888996
65.75866955,-175.25137254,-179.62067244,176.63715892,-6.56523003,-5.78708313
1.68795872,2.88005348,0.15112271,-1.40618983

>  <Name>
1fmn_cryst

>  <RI>
0

>  <Rbt.Current_Directory>
/home/itssahil/PROJECTS/Mol_Feturizer/New_Systems/rnas/1fmn

>  <Rbt.Executable>
rbdock ($Id: //depot/dev/client3/rdock/2013.1/src/exe/rbdock.cxx#4 $)

>  <Rbt.Library>
libRbt.so (2013.1, Build901 2013/11/27)

>  <Rbt.Parameter_File>
/export/apps/rDock/src/rDock_2013.1_src/data/scripts/dock_solv.prm

>  <Rbt.Receptor>
prm/pocket_docking_6.prm

>  <SCORE>
-56.4586

>  <SCORE.INTER>
-49.5864

>  <SCORE.INTER.CONST>
1

>  <SCORE.INTER.POLAR>
-2.7055

>  <SCORE.INTER.ROT>
7

>  <SCORE.INTER.SOLV>
15.2111

>  <SCORE.INTER.VDW>
-37.3763

>  <SCORE.INTER.norm>
-1.59956

>  <SCORE.INTRA>
-6.87221

>  <SCORE.INTRA.DIHEDRAL>
-11.9663

>  <SCORE.INTRA.DIHEDRAL.0>
15.5708

>  <SCORE.INTRA.POLAR>
0.0677885

>  <SCORE.INTRA.POLAR.0>
-0.0677885

>  <SCORE.INTRA.REPUL>
0

>  <SCORE.INTRA.REPUL.0>
0

>  <SCORE.INTRA.SOLV>
-4.0007

>  <SCORE.INTRA.SOLV.lig_0>
-87.6316

>  <SCORE.INTRA.VDW>
0.880817

>  <SCORE.INTRA.VDW.0>
-2.87309

>  <SCORE.INTRA.norm>
-0.221684

>  <SCORE.RESTR>
0

>  <SCORE.RESTR.CAVITY>
0

>  <SCORE.RESTR.norm>
0

>  <SCORE.SYSTEM>
0

>  <SCORE.SYSTEM.CONST>
0

>  <SCORE.SYSTEM.DIHEDRAL>
0

>  <SCORE.SYSTEM.SOLV>
0

>  <SCORE.SYSTEM.norm>
0

>  <SCORE.heavy>
31

>  <SCORE.norm>
-1.82125

>  <SYMMETRIC_BONDS>
33 34 3

>  <RMSD>
2.174

$$$$
1fmn_cryst
 OpenBabel11021811393D
libRbt.so/2013.1/901 2013/11/27
 31 33  0  0  0  0  0  0  0  0999 V2000
   -8.9685   -6.2171    3.5226 N   0  0  0  0  0  0  0  0  0  0  0  0
   -9.6609   -6.2417    4.7106 C   0  0  0  0  0  0  0  0  0  0  0  0
   -9.2523   -6.8643    5.6914 O   0  0  0  0  0  0  0  0  0  0  0  0
  -10.8750   -5.5103    4.7324 N   0  0  0  0  0  0  0  0  0  0  0  0
  -11.4342   -4.7712    3.6669 C   0  0  0  0  0  0  0  0  0  0  0  0
  -12.5068   -4.1743    3.8240 O   0  0  0  0  0  0  0  0  0  0  0  0
  -10.6380   -4.7954    2.4379 C   0  0  0  0  0  0  0  0  0  0  0  0
  -11.1134   -4.1000    1.3541 N   0  0  0  0  0  0  0  0  0  0  0  0
  -10.4682   -4.2705    0.1636 C   0  0  0  0  0  0  0  0  0  0  0  0
  -11.0460   -3.7237   -0.9685 C   0  0  0  0  0  0  0  0  0  0  0  0
  -10.4619   -3.8530   -2.1824 C   0  0  0  0  0  0  0  0  0  0  0  0
  -11.1260   -3.2403   -3.3740 C   0  0  0  0  0  0  0  0  0  0  0  0
   -9.2885   -4.5294   -2.3122 C   0  0  0  0  0  0  0  0  0  0  0  0
   -8.6542   -4.6732   -3.6572 C   0  0  0  0  0  0  0  0  0  0  0  0
   -8.6848   -5.0820   -1.2291 C   0  0  0  0  0  0  0  0  0  0  0  0
   -9.2448   -4.9771    0.0440 C   0  0  0  0  0  0  0  0  0  0  0  0
   -8.6695   -5.5236    1.2104 N   0  0  0  0  0  0  0  0  0  0  0  0
   -9.3999   -5.5383    2.4164 C   0  0  0  0  0  0  0  0  0  0  0  0
   -7.1638   -5.5495    1.3127 C   0  0  0  0  0  0  0  0  0  0  0  0
   -6.4274   -6.5930    0.4188 C   0  0  1  0  0  0  0  0  0  0  0  0
   -5.9318   -5.9675   -0.7564 O   0  0  0  0  0  0  0  0  0  0  0  0
   -5.3239   -7.3722    1.1733 C   0  0  1  0  0  0  0  0  0  0  0  0
   -5.0159   -8.5814    0.4860 O   0  0  0  0  0  0  0  0  0  0  0  0
   -4.0196   -6.6031    1.4973 C   0  0  1  0  0  0  0  0  0  0  0  0
   -4.2912   -5.2077    1.4260 O   0  0  0  0  0  0  0  0  0  0  0  0
   -3.4600   -6.9298    2.9001 C   0  0  0  0  0  0  0  0  0  0  0  0
   -2.1848   -6.3411    3.1271 O   0  0  0  0  0  0  0  0  0  0  0  0
   -0.8787   -6.8041    2.3584 P   0  0  0  0  0  0  0  0  0  0  0  0
   -1.0250   -6.6029    0.8989 O   0  0  0  0  0  0  0  0  0  0  0  0
    0.3325   -6.2818    3.0272 O   0  5  0  0  0  0  0  0  0  0  0  0
   -0.8561   -8.3820    2.5694 O   0  5  0  0  0  0  0  0  0  0  0  0
  1 18  1  0  0  0  0
  1  2  1  0  0  0  0
  2  4  1  0  0  0  0
  2  3  2  0  0  0  0
  4  5  1  0  0  0  0
  5  7  1  0  0  0  0
  5  6  2  0  0  0  0
  7 18  2  0  0  0  0
  7  8  1  0  0  0  0
  8  9  1  0  0  0  0
  9 10  2  0  0  0  0
  9 16  1  0  0  0  0
 10 11  1  0  0  0  0
 11 12  1  0  0  0  0
 11 13  2  0  0  0  0
 13 14  1  0  0  0  0
 13 15  1  0  0  0  0
 15 16  2  0  0  0  0
 16 17  1  0  0  0  0
 17 19  1  0  0  0  0
 17 18  1  0  0  0  0
 20 19  1  1  0  0  0
 20 22  1  0  0  0  0
 20 21  1  0  0  0  0
 22 24  1  0  0  0  0
 22 23  1  6  0  0  0
 24 26  1  1  0  0  0
 24 25  1  0  0  0  0
 26 27  1  0  0  0  0
 27 28  1  0  0  0  0
 28 30  1  0  0  0  0
 28 29  2  0  0  0  0
 28 31  1  0  0  0  0
M  CHG  2  30  -1  31  -1
M  END
>  <CHROM.1>
-73.05617562,98.99344751,160.05316734,-163.48219510,19.59071983,-55.31310033
173.14490889,-70.85228025,-68.37990554,60.87179461,-6.92093052,-5.75326465
1.38438923,2.94691375,0.22634354,-1.36549123

>  <Name>
1fmn_cryst

>  <RI>
0

>  <Rbt.Current_Directory>
/home/itssahil/PROJECTS/Mol_Feturizer/New_Systems/rnas/1fmn

>  <Rbt.Executable>
rbdock ($Id: //depot/dev/client3/rdock/2013.1/src/exe/rbdock.cxx#4 $)

>  <Rbt.Library>
libRbt.so (2013.1, Build901 2013/11/27)

>  <Rbt.Parameter_File>
/export/apps/rDock/src/rDock_2013.1_src/data/scripts/dock_solv.prm

>  <Rbt.Receptor>
prm/pocket_docking_7.prm

>  <SCORE>
-60.908

>  <SCORE.INTER>
-59.0283

>  <SCORE.INTER.CONST>
1

>  <SCORE.INTER.POLAR>
-4.46334

>  <SCORE.INTER.ROT>
7

>  <SCORE.INTER.SOLV>
18.438

>  <SCORE.INTER.VDW>
-38.8871

>  <SCORE.INTER.norm>
-1.90414

>  <SCORE.INTRA>
-1.87975

>  <SCORE.INTRA.DIHEDRAL>
-1.94068

>  <SCORE.INTRA.DIHEDRAL.0>
15.5708

>  <SCORE.INTRA.POLAR>
-0.199922

>  <SCORE.INTRA.POLAR.0>
-0.0677885

>  <SCORE.INTRA.REPUL>
0

>  <SCORE.INTRA.REPUL.0>
0

>  <SCORE.INTRA.SOLV>
-1.45866

>  <SCORE.INTRA.SOLV.lig_0>
-87.6316

>  <SCORE.INTRA.VDW>
0.499661

>  <SCORE.INTRA.VDW.0>
-2.87309

>  <SCORE.INTRA.norm>
-0.0606369

>  <SCORE.RESTR>
0

>  <SCORE.RESTR.CAVITY>
0

>  <SCORE.RESTR.norm>
0

>  <SCORE.SYSTEM>
0

>  <SCORE.SYSTEM.CONST>
0

>  <SCORE.SYSTEM.DIHEDRAL>
0

>  <SCORE.SYSTEM.SOLV>
0

>  <SCORE.SYSTEM.norm>
0

>  <SCORE.heavy>
31

>  <SCORE.norm>
-1.96478

>  <SYMMETRIC_BONDS>
33 34 3

>  <RMSD>
2.184

$$$$
1fmn_cryst
 OpenBabel11021811393D
libRbt.so/2013.1/901 2013/11/27
 31 33  0  0  0  0  0  0  0  0999 V2000
   -8.9359   -6.1608    3.5404 N   0  0  0  0  0  0  0  0  0  0  0  0
   -9.6467   -6.2300    4.7158 C   0  0  0  0  0  0  0  0  0  0  0  0
   -9.2168   -6.8252    5.7045 O   0  0  0  0  0  0  0  0  0  0  0  0
  -10.9053   -5.5779    4.7149 N   0  0  0  0  0  0  0  0  0  0  0  0
  -11.4915   -4.8760    3.6388 C   0  0  0  0  0  0  0  0  0  0  0  0
  -12.6028   -4.3491    3.7758 O   0  0  0  0  0  0  0  0  0  0  0  0
  -10.6732   -4.8489    2.4243 C   0  0  0  0  0  0  0  0  0  0  0  0
  -11.1725   -4.1853    1.3314 N   0  0  0  0  0  0  0  0  0  0  0  0
  -10.4963   -4.3139    0.1529 C   0  0  0  0  0  0  0  0  0  0  0  0
  -11.0873   -3.8051   -0.9900 C   0  0  0  0  0  0  0  0  0  0  0  0
  -10.4743   -3.8965   -2.1930 C   0  0  0  0  0  0  0  0  0  0  0  0
  -11.1547   -3.3275   -3.3970 C   0  0  0  0  0  0  0  0  0  0  0  0
   -9.2578   -4.4962   -2.3008 C   0  0  0  0  0  0  0  0  0  0  0  0
   -8.5913   -4.5989   -3.6340 C   0  0  0  0  0  0  0  0  0  0  0  0
   -8.6396   -5.0092   -1.2065 C   0  0  0  0  0  0  0  0  0  0  0  0
   -9.2281   -4.9406    0.0562 C   0  0  0  0  0  0  0  0  0  0  0  0
   -8.6402   -5.4492    1.2333 N   0  0  0  0  0  0  0  0  0  0  0  0
   -9.3898   -5.5109    2.4259 C   0  0  0  0  0  0  0  0  0  0  0  0
   -7.1380   -5.3785    1.3629 C   0  0  0  0  0  0  0  0  0  0  0  0
   -6.3219   -6.4066    0.5219 C   0  0  1  0  0  0  0  0  0  0  0  0
   -6.1250   -5.9142   -0.7960 O   0  0  0  0  0  0  0  0  0  0  0  0
   -4.9913   -6.8240    1.1923 C   0  0  1  0  0  0  0  0  0  0  0  0
   -4.4494   -7.9699    0.5419 O   0  0  0  0  0  0  0  0  0  0  0  0
   -3.9026   -5.7315    1.3294 C   0  0  1  0  0  0  0  0  0  0  0  0
   -4.5015   -4.5682    1.8899 O   0  0  0  0  0  0  0  0  0  0  0  0
   -2.7229   -6.1658    2.2280 C   0  0  0  0  0  0  0  0  0  0  0  0
   -2.0299   -7.2939    1.7074 O   0  0  0  0  0  0  0  0  0  0  0  0
   -0.7517   -7.9130    2.4103 P   0  0  0  0  0  0  0  0  0  0  0  0
   -1.0558   -8.3126    3.8032 O   0  0  0  0  0  0  0  0  0  0  0  0
   -0.0908   -8.8926    1.5211 O   0  5  0  0  0  0  0  0  0  0  0  0
    0.2473   -6.6792    2.5310 O   0  5  0  0  0  0  0  0  0  0  0  0
  1 18  1  0  0  0  0
  1  2  1  0  0  0  0
  2  4  1  0  0  0  0
  2  3  2  0  0  0  0
  4  5  1  0  0  0  0
  5  7  1  0  0  0  0
  5  6  2  0  0  0  0
  7 18  2  0  0  0  0
  7  8  1  0  0  0  0
  8  9  1  0  0  0  0
  9 10  2  0  0  0  0
  9 16  1  0  0  0  0
 10 11  1  0  0  0  0
 11 12  1  0  0  0  0
 11 13  2  0  0  0  0
 13 14  1  0  0  0  0
 13 15  1  0  0  0  0
 15 16  2  0  0  0  0
 16 17  1  0  0  0  0
 17 19  1  0  0  0  0
 17 18  1  0  0  0  0
 20 19  1  1  0  0  0
 20 22  1  0  0  0  0
 20 21  1  0  0  0  0
 22 24  1  0  0  0  0
 22 23  1  6  0  0  0
 24 26  1  1  0  0  0
 24 25  1  0  0  0  0
 26 27  1  0  0  0  0
 27 28  1  0  0  0  0
 28 30  1  0  0  0  0
 28 29  2  0  0  0  0
 28 31  1  0  0  0  0
M  CHG  2  30  -1  31  -1
M  END
>  <CHROM.1>
-75.16158491,84.65386566,166.78260885,-167.87466438,49.04695505,175.90440571
62.08943196,-176.66980163,177.99144569,57.41523144,-6.83658097,-5.83893622
1.38484172,2.93701301,0.26992058,-1.34263416

>  <Name>
1fmn_cryst

>  <RI>
0

>  <Rbt.Current_Directory>
/home/itssahil/PROJECTS/Mol_Feturizer/New_Systems/rnas/1fmn

>  <Rbt.Executable>
rbdock ($Id: //depot/dev/client3/rdock/2013.1/src/exe/rbdock.cxx#4 $)

>  <Rbt.Library>
libRbt.so (2013.1, Build901 2013/11/27)

>  <Rbt.Parameter_File>
/export/apps/rDock/src/rDock_2013.1_src/data/scripts/dock_solv.prm

>  <Rbt.Receptor>
prm/pocket_docking_6.prm

>  <SCORE>
-60.1188

>  <SCORE.INTER>
-52.5933

>  <SCORE.INTER.CONST>
1

>  <SCORE.INTER.POLAR>
-3.03637

>  <SCORE.INTER.ROT>
7

>  <SCORE.INTER.SOLV>
17.8238

>  <SCORE.INTER.VDW>
-39.1489

>  <SCORE.INTER.norm>
-1.69656

>  <SCORE.INTRA>
-7.52546

>  <SCORE.INTRA.DIHEDRAL>
-9.57094

>  <SCORE.INTRA.DIHEDRAL.0>
15.5708

>  <SCORE.INTRA.POLAR>
-0.737407

>  <SCORE.INTRA.POLAR.0>
-0.0677885

>  <SCORE.INTRA.REPUL>
0

>  <SCORE.INTRA.REPUL.0>
0

>  <SCORE.INTRA.SOLV>
-3.77467

>  <SCORE.INTRA.SOLV.lig_0>
-87.6316

>  <SCORE.INTRA.VDW>
1.65453

>  <SCORE.INTRA.VDW.0>
-2.87309

>  <SCORE.INTRA.norm>
-0.242757

>  <SCORE.RESTR>
0

>  <SCORE.RESTR.CAVITY>
0

>  <SCORE.RESTR.norm>
0

>  <SCORE.SYSTEM>
0

>  <SCORE.SYSTEM.CONST>
0

>  <SCORE.SYSTEM.DIHEDRAL>
0

>  <SCORE.SYSTEM.SOLV>
0

>  <SCORE.SYSTEM.norm>
0

>  <SCORE.heavy>
31

>  <SCORE.norm>
-1.93932

>  <SYMMETRIC_BONDS>
33 34 3

>  <RMSD>
2.192

$$$$
1fmn_cryst
 OpenBabel11021811393D
libRbt.so/2013.1/901 2013/11/27
 31 33  0  0  0  0  0  0  0  0999 V2000
   -8.8209   -6.0813    3.2919 N   0  0  0  0  0  0  0  0  0  0  0  0
   -9.5804   -6.2134    4.4309 C   0  0  0  0  0  0  0  0  0  0  0  0
   -9.1267   -6.7058    5.4644 O   0  0  0  0  0  0  0  0  0  0  0  0
  -10.9175   -5.7520    4.3376 N   0  0  0  0  0  0  0  0  0  0  0  0
  -11.5358   -5.1798    3.2043 C   0  0  0  0  0  0  0  0  0  0  0  0
  -12.7173   -4.8160    3.2616 O   0  0  0  0  0  0  0  0  0  0  0  0
  -10.6619   -5.0750    2.0337 C   0  0  0  0  0  0  0  0  0  0  0  0
  -11.1880   -4.5286    0.8896 N   0  0  0  0  0  0  0  0  0  0  0  0
  -10.4341   -4.5972   -0.2459 C   0  0  0  0  0  0  0  0  0  0  0  0
  -11.0258   -4.2190   -1.4381 C   0  0  0  0  0  0  0  0  0  0  0  0
  -10.3382   -4.2608   -2.6030 C   0  0  0  0  0  0  0  0  0  0  0  0
  -11.0233   -3.8380   -3.8633 C   0  0  0  0  0  0  0  0  0  0  0  0
   -9.0441   -4.6803   -2.6227 C   0  0  0  0  0  0  0  0  0  0  0  0
   -8.2947   -4.7299   -3.9142 C   0  0  0  0  0  0  0  0  0  0  0  0
   -8.4222   -5.0603   -1.4774 C   0  0  0  0  0  0  0  0  0  0  0  0
   -9.0857   -5.0354   -0.2508 C   0  0  0  0  0  0  0  0  0  0  0  0
   -8.4991   -5.4128    0.9754 N   0  0  0  0  0  0  0  0  0  0  0  0
   -9.2990   -5.5426    2.1292 C   0  0  0  0  0  0  0  0  0  0  0  0
   -7.0324   -5.1198    1.1793 C   0  0  0  0  0  0  0  0  0  0  0  0
   -6.1364   -6.3271    1.5914 C   0  0  1  0  0  0  0  0  0  0  0  0
   -6.4356   -7.4567    0.7837 O   0  0  0  0  0  0  0  0  0  0  0  0
   -4.6254   -5.9940    1.5899 C   0  0  1  0  0  0  0  0  0  0  0  0
   -4.0558   -6.2916    0.3185 O   0  0  0  0  0  0  0  0  0  0  0  0
   -4.2225   -4.5640    2.0265 C   0  0  1  0  0  0  0  0  0  0  0  0
   -5.0419   -4.1822    3.1258 O   0  0  0  0  0  0  0  0  0  0  0  0
   -2.7404   -4.4585    2.4505 C   0  0  0  0  0  0  0  0  0  0  0  0
   -2.4035   -5.3785    3.4821 O   0  0  0  0  0  0  0  0  0  0  0  0
   -0.9367   -5.5095    4.0674 P   0  0  0  0  0  0  0  0  0  0  0  0
    0.0357   -5.8146    2.9934 O   0  0  0  0  0  0  0  0  0  0  0  0
   -0.6429   -4.3937    4.9924 O   0  5  0  0  0  0  0  0  0  0  0  0
   -1.0044   -6.8231    4.9646 O   0  5  0  0  0  0  0  0  0  0  0  0
  1 18  1  0  0  0  0
  1  2  1  0  0  0  0
  2  4  1  0  0  0  0
  2  3  2  0  0  0  0
  4  5  1  0  0  0  0
  5  7  1  0  0  0  0
  5  6  2  0  0  0  0
  7 18  2  0  0  0  0
  7  8  1  0  0  0  0
  8  9  1  0  0  0  0
  9 10  2  0  0  0  0
  9 16  1  0  0  0  0
 10 11  1  0  0  0  0
 11 12  1  0  0  0  0
 11 13  2  0  0  0  0
 13 14  1  0  0  0  0
 13 15  1  0  0  0  0
 15 16  2  0  0  0  0
 16 17  1  0  0  0  0
 17 19  1  0  0  0  0
 17 18  1  0  0  0  0
 20 19  1  6  0  0  0
 20 22  1  0  0  0  0
 20 21  1  0  0  0  0
 22 24  1  0  0  0  0
 22 23  1  6  0  0  0
 24 26  1  1  0  0  0
 24 25  1  0  0  0  0
 26 27  1  0  0  0  0
 27 28  1  0  0  0  0
 28 30  1  0  0  0  0
 28 29  2  0  0  0  0
 28 31  1  0  0  0  0
M  CHG  2  30  -1  31  -1
M  END
>  <CHROM.1>
-126.22678133,45.58910666,-91.26754869,61.29802817,40.00927844,-168.49423020
-55.65547413,56.66741656,177.99605729,-56.81048263,-6.85014521,-5.32837835
1.70815296,2.74228107,0.01392574,-1.41809411

>  <Name>
1fmn_cryst

>  <RI>
0

>  <Rbt.Current_Directory>
/home/itssahil/PROJECTS/Mol_Feturizer/New_Systems/rnas/1fmn

>  <Rbt.Executable>
rbdock ($Id: //depot/dev/client3/rdock/2013.1/src/exe/rbdock.cxx#4 $)

>  <Rbt.Library>
libRbt.so (2013.1, Build901 2013/11/27)

>  <Rbt.Parameter_File>
/export/apps/rDock/src/rDock_2013.1_src/data/scripts/dock_solv.prm

>  <Rbt.Receptor>
prm/pocket_docking_5.prm

>  <SCORE>
-59.0315

>  <SCORE.INTER>
-54.5798

>  <SCORE.INTER.CONST>
1

>  <SCORE.INTER.POLAR>
-4.30039

>  <SCORE.INTER.ROT>
7

>  <SCORE.INTER.SOLV>
17.5036

>  <SCORE.INTER.VDW>
-36.1531

>  <SCORE.INTER.norm>
-1.76064

>  <SCORE.INTRA>
-4.4517

>  <SCORE.INTRA.DIHEDRAL>
-7.48801

>  <SCORE.INTRA.DIHEDRAL.0>
15.5708

>  <SCORE.INTRA.POLAR>
0.0677885

>  <SCORE.INTRA.POLAR.0>
-0.0677885

>  <SCORE.INTRA.REPUL>
0

>  <SCORE.INTRA.REPUL.0>
0

>  <SCORE.INTRA.SOLV>
-4.65343

>  <SCORE.INTRA.SOLV.lig_0>
-87.6316

>  <SCORE.INTRA.VDW>
1.38853

>  <SCORE.INTRA.VDW.0>
-2.87309

>  <SCORE.INTRA.norm>
-0.143603

>  <SCORE.RESTR>
0

>  <SCORE.RESTR.CAVITY>
0

>  <SCORE.RESTR.norm>
0

>  <SCORE.SYSTEM>
0

>  <SCORE.SYSTEM.CONST>
0

>  <SCORE.SYSTEM.DIHEDRAL>
0

>  <SCORE.SYSTEM.SOLV>
0

>  <SCORE.SYSTEM.norm>
0

>  <SCORE.heavy>
31

>  <SCORE.norm>
-1.90424

>  <SYMMETRIC_BONDS>
33 34 3

>  <RMSD>
2.204

$$$$
1fmn_cryst
 OpenBabel11021811393D
libRbt.so/2013.1/901 2013/11/27
 31 33  0  0  0  0  0  0  0  0999 V2000
   -8.5580   -6.7154    3.6478 N   0  0  0  0  0  0  0  0  0  0  0  0
   -9.4437   -6.6237    4.6960 C   0  0  0  0  0  0  0  0  0  0  0  0
   -9.2747   -7.2393    5.7490 O   0  0  0  0  0  0  0  0  0  0  0  0
  -10.5638   -5.7809    4.4851 N   0  0  0  0  0  0  0  0  0  0  0  0
  -10.8541   -5.0388    3.3193 C   0  0  0  0  0  0  0  0  0  0  0  0
  -11.8724   -4.3373    3.2700 O   0  0  0  0  0  0  0  0  0  0  0  0
   -9.8645   -5.1906    2.2503 C   0  0  0  0  0  0  0  0  0  0  0  0
  -10.0738   -4.5007    1.0822 N   0  0  0  0  0  0  0  0  0  0  0  0
   -9.2536   -4.7822    0.0284 C   0  0  0  0  0  0  0  0  0  0  0  0
   -9.5698   -4.2324   -1.2013 C   0  0  0  0  0  0  0  0  0  0  0  0
   -8.8012   -4.4681   -2.2899 C   0  0  0  0  0  0  0  0  0  0  0  0
   -9.1853   -3.8473   -3.5951 C   0  0  0  0  0  0  0  0  0  0  0  0
   -7.6969   -5.2570   -2.1940 C   0  0  0  0  0  0  0  0  0  0  0  0
   -6.8579   -5.5175   -3.4025 C   0  0  0  0  0  0  0  0  0  0  0  0
   -7.3473   -5.8170   -1.0079 C   0  0  0  0  0  0  0  0  0  0  0  0
   -8.1050   -5.6053    0.1440 C   0  0  0  0  0  0  0  0  0  0  0  0
   -7.7970   -6.1530    1.4070 N   0  0  0  0  0  0  0  0  0  0  0  0
   -8.7220   -6.0471    2.4658 C   0  0  0  0  0  0  0  0  0  0  0  0
   -6.3417   -6.3163    1.7729 C   0  0  0  0  0  0  0  0  0  0  0  0
   -5.6633   -5.0991    2.4717 C   0  0  1  0  0  0  0  0  0  0  0  0
   -6.4347   -4.6845    3.5902 O   0  0  0  0  0  0  0  0  0  0  0  0
   -4.1848   -5.3576    2.8477 C   0  0  1  0  0  0  0  0  0  0  0  0
   -3.5461   -4.1359    3.2069 O   0  0  0  0  0  0  0  0  0  0  0  0
   -3.9143   -6.4318    3.9297 C   0  0  1  0  0  0  0  0  0  0  0  0
   -2.5158   -6.6948    3.9621 O   0  0  0  0  0  0  0  0  0  0  0  0
   -4.3711   -5.9952    5.3398 C   0  0  0  0  0  0  0  0  0  0  0  0
   -4.1536   -7.0048    6.3184 O   0  0  0  0  0  0  0  0  0  0  0  0
   -4.3536   -6.7510    7.8698 P   0  0  0  0  0  0  0  0  0  0  0  0
   -5.6462   -6.0789    8.1332 O   0  0  0  0  0  0  0  0  0  0  0  0
   -4.0158   -7.9646    8.6443 O   0  5  0  0  0  0  0  0  0  0  0  0
   -3.2354   -5.6741    8.2231 O   0  5  0  0  0  0  0  0  0  0  0  0
  1 18  1  0  0  0  0
  1  2  1  0  0  0  0
  2  4  1  0  0  0  0
  2  3  2  0  0  0  0
  4  5  1  0  0  0  0
  5  7  1  0  0  0  0
  5  6  2  0  0  0  0
  7 18  2  0  0  0  0
  7  8  1  0  0  0  0
  8  9  1  0  0  0  0
  9 10  2  0  0  0  0
  9 16  1  0  0  0  0
 10 11  1  0  0  0  0
 11 12  1  0  0  0  0
 11 13  2  0  0  0  0
 13 14  1  0  0  0  0
 13 15  1  0  0  0  0
 15 16  2  0  0  0  0
 16 17  1  0  0  0  0
 17 19  1  0  0  0  0
 17 18  1  0  0  0  0
 20 19  1  1  0  0  0
 20 22  1  0  0  0  0
 20 21  1  0  0  0  0
 22 24  1  0  0  0  0
 22 23  1  1  0  0  0
 24 26  1  1  0  0  0
 24 25  1  0  0  0  0
 26 27  1  0  0  0  0
 27 28  1  0  0  0  0
 28 30  1  0  0  0  0
 28 29  2  0  0  0  0
 28 31  1  0  0  0  0
M  CHG  2  30  -1  31  -1
M  END
>  <CHROM.1>
88.90139611,52.06852649,167.34919500,43.21002959,169.64990765,57.54353430
178.27818671,62.23193145,171.73724151,47.97028804,-6.94995776,-5.71338599
3.11134581,2.09359727,0.05548191,-1.39336124

>  <Name>
1fmn_cryst

>  <RI>
0

>  <Rbt.Current_Directory>
/home/itssahil/PROJECTS/Mol_Feturizer/New_Systems/rnas/1fmn

>  <Rbt.Executable>
rbdock ($Id: //depot/dev/client3/rdock/2013.1/src/exe/rbdock.cxx#4 $)

>  <Rbt.Library>
libRbt.so (2013.1, Build901 2013/11/27)

>  <Rbt.Parameter_File>
/export/apps/rDock/src/rDock_2013.1_src/data/scripts/dock_solv.prm

>  <Rbt.Receptor>
prm/pocket_docking_4.prm

>  <SCORE>
-60.7845

>  <SCORE.INTER>
-54.2624

>  <SCORE.INTER.CONST>
1

>  <SCORE.INTER.POLAR>
-4.61829

>  <SCORE.INTER.ROT>
7

>  <SCORE.INTER.SOLV>
18.1858

>  <SCORE.INTER.VDW>
-35.1093

>  <SCORE.INTER.norm>
-1.7504

>  <SCORE.INTRA>
-6.52205

>  <SCORE.INTRA.DIHEDRAL>
-11.1274

>  <SCORE.INTRA.DIHEDRAL.0>
15.5708

>  <SCORE.INTRA.POLAR>
0.0677885

>  <SCORE.INTRA.POLAR.0>
-0.0677885

>  <SCORE.INTRA.REPUL>
0

>  <SCORE.INTRA.REPUL.0>
0

>  <SCORE.INTRA.SOLV>
-3.89604

>  <SCORE.INTRA.SOLV.lig_0>
-87.6316

>  <SCORE.INTRA.VDW>
0.759169

>  <SCORE.INTRA.VDW.0>
-2.87309

>  <SCORE.INTRA.norm>
-0.210389

>  <SCORE.RESTR>
0

>  <SCORE.RESTR.CAVITY>
0

>  <SCORE.RESTR.norm>
0

>  <SCORE.SYSTEM>
0

>  <SCORE.SYSTEM.CONST>
0

>  <SCORE.SYSTEM.DIHEDRAL>
0

>  <SCORE.SYSTEM.SOLV>
0

>  <SCORE.SYSTEM.norm>
0

>  <SCORE.heavy>
31

>  <SCORE.norm>
-1.96079

>  <SYMMETRIC_BONDS>
33 34 3

>  <RMSD>
2.210

$$$$
1fmn_cryst
 OpenBabel11021811393D
libRbt.so/2013.1/901 2013/11/27
 31 33  0  0  0  0  0  0  0  0999 V2000
   -8.7057   -6.3365    3.6660 N   0  0  0  0  0  0  0  0  0  0  0  0
   -9.5615   -6.2825    4.7414 C   0  0  0  0  0  0  0  0  0  0  0  0
   -9.2995   -6.8314    5.8122 O   0  0  0  0  0  0  0  0  0  0  0  0
  -10.7640   -5.5603    4.5371 N   0  0  0  0  0  0  0  0  0  0  0  0
  -11.1626   -4.9022    3.3529 C   0  0  0  0  0  0  0  0  0  0  0  0
  -12.2449   -4.3037    3.3120 O   0  0  0  0  0  0  0  0  0  0  0  0
  -10.1983   -5.0071    2.2555 C   0  0  0  0  0  0  0  0  0  0  0  0
  -10.5114   -4.3933    1.0682 N   0  0  0  0  0  0  0  0  0  0  0  0
   -9.7026   -4.6425   -0.0024 C   0  0  0  0  0  0  0  0  0  0  0  0
  -10.1104   -4.1811   -1.2415 C   0  0  0  0  0  0  0  0  0  0  0  0
   -9.3586   -4.3912   -2.3469 C   0  0  0  0  0  0  0  0  0  0  0  0
   -9.8432   -3.8689   -3.6617 C   0  0  0  0  0  0  0  0  0  0  0  0
   -8.1807   -5.0664   -2.2590 C   0  0  0  0  0  0  0  0  0  0  0  0
   -7.3604   -5.2999   -3.4856 C   0  0  0  0  0  0  0  0  0  0  0  0
   -7.7401   -5.5369   -1.0643 C   0  0  0  0  0  0  0  0  0  0  0  0
   -8.4767   -5.3467    0.1049 C   0  0  0  0  0  0  0  0  0  0  0  0
   -8.0762   -5.8054    1.3773 N   0  0  0  0  0  0  0  0  0  0  0  0
   -8.9720   -5.7405    2.4642 C   0  0  0  0  0  0  0  0  0  0  0  0
   -6.6008   -5.8129    1.6960 C   0  0  0  0  0  0  0  0  0  0  0  0
   -5.8708   -7.1837    1.5608 C   0  0  1  0  0  0  0  0  0  0  0  0
   -4.9678   -7.1512    0.4646 O   0  0  0  0  0  0  0  0  0  0  0  0
   -5.1821   -7.6399    2.8691 C   0  0  1  0  0  0  0  0  0  0  0  0
   -6.1516   -7.8363    3.8944 O   0  0  0  0  0  0  0  0  0  0  0  0
   -4.2532   -8.8755    2.7782 C   0  0  1  0  0  0  0  0  0  0  0  0
   -5.0073   -9.9678    2.2643 O   0  0  0  0  0  0  0  0  0  0  0  0
   -3.0287   -8.6429    1.8648 C   0  0  0  0  0  0  0  0  0  0  0  0
   -2.1945   -7.5895    2.3321 O   0  0  0  0  0  0  0  0  0  0  0  0
   -0.9162   -7.0929    1.5379 P   0  0  0  0  0  0  0  0  0  0  0  0
   -1.2733   -6.6953    0.1571 O   0  0  0  0  0  0  0  0  0  0  0  0
   -0.1222   -6.1558    2.3615 O   0  5  0  0  0  0  0  0  0  0  0  0
   -0.0320   -8.4082    1.3858 O   0  5  0  0  0  0  0  0  0  0  0  0
  1 18  1  0  0  0  0
  1  2  1  0  0  0  0
  2  4  1  0  0  0  0
  2  3  2  0  0  0  0
  4  5  1  0  0  0  0
  5  7  1  0  0  0  0
  5  6  2  0  0  0  0
  7 18  2  0  0  0  0
  7  8  1  0  0  0  0
  8  9  1  0  0  0  0
  9 10  2  0  0  0  0
  9 16  1  0  0  0  0
 10 11  1  0  0  0  0
 11 12  1  0  0  0  0
 11 13  2  0  0  0  0
 13 14  1  0  0  0  0
 13 15  1  0  0  0  0
 15 16  2  0  0  0  0
 16 17  1  0  0  0  0
 17 19  1  0  0  0  0
 17 18  1  0  0  0  0
 20 19  1  1  0  0  0
 20 22  1  0  0  0  0
 20 21  1  0  0  0  0
 22 24  1  0  0  0  0
 22 23  1  1  0  0  0
 24 26  1  6  0  0  0
 24 25  1  0  0  0  0
 26 27  1  0  0  0  0
 27 28  1  0  0  0  0
 28 30  1  0  0  0  0
 28 29  2  0  0  0  0
 28 31  1  0  0  0  0
M  CHG  2  30  -1  31  -1
M  END
>  <CHROM.1>
-99.62201890,111.28889460,62.62301923,-72.22279059,-57.24950437,73.08503691
61.40709917,-72.78479290,-176.52643402,55.79430928,-6.58353921,-6.31839390
1.47073469,2.99781256,0.28386399,-1.26129272

>  <Name>
1fmn_cryst

>  <RI>
0

>  <Rbt.Current_Directory>
/home/itssahil/PROJECTS/Mol_Feturizer/New_Systems/rnas/1fmn

>  <Rbt.Executable>
rbdock ($Id: //depot/dev/client3/rdock/2013.1/src/exe/rbdock.cxx#4 $)

>  <Rbt.Library>
libRbt.so (2013.1, Build901 2013/11/27)

>  <Rbt.Parameter_File>
/export/apps/rDock/src/rDock_2013.1_src/data/scripts/dock_solv.prm

>  <Rbt.Receptor>
prm/pocket_docking_7.prm

>  <SCORE>
-63.8445

>  <SCORE.INTER>
-56.5176

>  <SCORE.INTER.CONST>
1

>  <SCORE.INTER.POLAR>
-3.83694

>  <SCORE.INTER.ROT>
7

>  <SCORE.INTER.SOLV>
15.9824

>  <SCORE.INTER.VDW>
-38.4828

>  <SCORE.INTER.norm>
-1.82315

>  <SCORE.INTRA>
-7.32682

>  <SCORE.INTRA.DIHEDRAL>
-5.61249

>  <SCORE.INTRA.DIHEDRAL.0>
15.5708

>  <SCORE.INTRA.POLAR>
-0.859521

>  <SCORE.INTRA.POLAR.0>
-0.0677885

>  <SCORE.INTRA.REPUL>
0

>  <SCORE.INTRA.REPUL.0>
0

>  <SCORE.INTRA.SOLV>
-2.72147

>  <SCORE.INTRA.SOLV.lig_0>
-87.6316

>  <SCORE.INTRA.VDW>
-0.237475

>  <SCORE.INTRA.VDW.0>
-2.87309

>  <SCORE.INTRA.norm>
-0.236349

>  <SCORE.RESTR>
0

>  <SCORE.RESTR.CAVITY>
0

>  <SCORE.RESTR.norm>
0

>  <SCORE.SYSTEM>
0

>  <SCORE.SYSTEM.CONST>
0

>  <SCORE.SYSTEM.DIHEDRAL>
0

>  <SCORE.SYSTEM.SOLV>
0

>  <SCORE.SYSTEM.norm>
0

>  <SCORE.heavy>
31

>  <SCORE.norm>
-2.0595

>  <SYMMETRIC_BONDS>
33 34 3

>  <RMSD>
2.217

$$$$
1fmn_cryst
 OpenBabel11021811393D
libRbt.so/2013.1/901 2013/11/27
 31 33  0  0  0  0  0  0  0  0999 V2000
   -8.7115   -6.7756    3.8225 N   0  0  0  0  0  0  0  0  0  0  0  0
   -9.5922   -6.6973    4.8760 C   0  0  0  0  0  0  0  0  0  0  0  0
   -9.4157   -7.3226    5.9221 O   0  0  0  0  0  0  0  0  0  0  0  0
  -10.7163   -5.8563    4.6791 N   0  0  0  0  0  0  0  0  0  0  0  0
  -11.0151   -5.1039    3.5220 C   0  0  0  0  0  0  0  0  0  0  0  0
  -12.0360   -4.4055    3.4848 O   0  0  0  0  0  0  0  0  0  0  0  0
  -10.0304   -5.2418    2.4466 C   0  0  0  0  0  0  0  0  0  0  0  0
  -10.2481   -4.5413    1.2864 N   0  0  0  0  0  0  0  0  0  0  0  0
   -9.4323   -4.8096    0.2258 C   0  0  0  0  0  0  0  0  0  0  0  0
   -9.7566   -4.2490   -0.9969 C   0  0  0  0  0  0  0  0  0  0  0  0
   -8.9928   -4.4714   -2.0917 C   0  0  0  0  0  0  0  0  0  0  0  0
   -9.3856   -3.8392   -3.3887 C   0  0  0  0  0  0  0  0  0  0  0  0
   -7.8853   -5.2573   -2.0090 C   0  0  0  0  0  0  0  0  0  0  0  0
   -7.0516   -5.5030   -3.2242 C   0  0  0  0  0  0  0  0  0  0  0  0
   -7.5277   -5.8276   -0.8302 C   0  0  0  0  0  0  0  0  0  0  0  0
   -8.2802   -5.6298    0.3274 C   0  0  0  0  0  0  0  0  0  0  0  0
   -7.9639   -6.1887    1.5835 N   0  0  0  0  0  0  0  0  0  0  0  0
   -8.8839   -6.0964    2.6480 C   0  0  0  0  0  0  0  0  0  0  0  0
   -6.5063   -6.3505    1.9404 C   0  0  0  0  0  0  0  0  0  0  0  0
   -5.7690   -5.0695    2.4361 C   0  0  1  0  0  0  0  0  0  0  0  0
   -6.3403   -4.6170    3.6555 O   0  0  0  0  0  0  0  0  0  0  0  0
   -4.2361   -5.2505    2.5431 C   0  0  1  0  0  0  0  0  0  0  0  0
   -3.6055   -3.9935    2.7707 O   0  0  0  0  0  0  0  0  0  0  0  0
   -3.7232   -6.2910    3.5688 C   0  0  1  0  0  0  0  0  0  0  0  0
   -2.5909   -6.9500    3.0124 O   0  0  0  0  0  0  0  0  0  0  0  0
   -3.3166   -5.6573    4.9181 C   0  0  0  0  0  0  0  0  0  0  0  0
   -4.2665   -5.9117    5.9462 O   0  0  0  0  0  0  0  0  0  0  0  0
   -3.9735   -5.6161    7.4753 P   0  0  0  0  0  0  0  0  0  0  0  0
   -3.2140   -6.7272    8.0923 O   0  0  0  0  0  0  0  0  0  0  0  0
   -3.4770   -4.2345    7.6533 O   0  5  0  0  0  0  0  0  0  0  0  0
   -5.4144   -5.6600    8.1509 O   0  5  0  0  0  0  0  0  0  0  0  0
  1 18  1  0  0  0  0
  1  2  1  0  0  0  0
  2  4  1  0  0  0  0
  2  3  2  0  0  0  0
  4  5  1  0  0  0  0
  5  7  1  0  0  0  0
  5  6  2  0  0  0  0
  7 18  2  0  0  0  0
  7  8  1  0  0  0  0
  8  9  1  0  0  0  0
  9 10  2  0  0  0  0
  9 16  1  0  0  0  0
 10 11  1  0  0  0  0
 11 12  1  0  0  0  0
 11 13  2  0  0  0  0
 13 14  1  0  0  0  0
 13 15  1  0  0  0  0
 15 16  2  0  0  0  0
 16 17  1  0  0  0  0
 17 19  1  0  0  0  0
 17 18  1  0  0  0  0
 20 19  1  1  0  0  0
 20 22  1  0  0  0  0
 20 21  1  0  0  0  0
 22 24  1  0  0  0  0
 22 23  1  1  0  0  0
 24 26  1  1  0  0  0
 24 25  1  0  0  0  0
 26 27  1  0  0  0  0
 27 28  1  0  0  0  0
 28 30  1  0  0  0  0
 28 29  2  0  0  0  0
 28 31  1  0  0  0  0
M  CHG  2  30  -1  31  -1
M  END
>  <CHROM.1>
79.45231434,63.72755768,169.85650945,171.07380551,142.62696147,-173.34914435
105.58715452,58.47539805,168.25105301,-82.68372215,-6.95915616,-5.49215341
3.05436460,2.19421761,0.00140122,-1.45947459

>  <Name>
1fmn_cryst

>  <RI>
0

>  <Rbt.Current_Directory>
/home/itssahil/PROJECTS/Mol_Feturizer/New_Systems/rnas/1fmn

>  <Rbt.Executable>
rbdock ($Id: //depot/dev/client3/rdock/2013.1/src/exe/rbdock.cxx#4 $)

>  <Rbt.Library>
libRbt.so (2013.1, Build901 2013/11/27)

>  <Rbt.Parameter_File>
/export/apps/rDock/src/rDock_2013.1_src/data/scripts/dock_solv.prm

>  <Rbt.Receptor>
prm/pocket_docking_4.prm

>  <SCORE>
-54.7316

>  <SCORE.INTER>
-51.1554

>  <SCORE.INTER.CONST>
1

>  <SCORE.INTER.POLAR>
-4.03775

>  <SCORE.INTER.ROT>
7

>  <SCORE.INTER.SOLV>
21.0751

>  <SCORE.INTER.VDW>
-35.9362

>  <SCORE.INTER.norm>
-1.65018

>  <SCORE.INTRA>
-3.5762

>  <SCORE.INTRA.DIHEDRAL>
-3.90092

>  <SCORE.INTRA.DIHEDRAL.0>
15.5708

>  <SCORE.INTRA.POLAR>
0.0677885

>  <SCORE.INTRA.POLAR.0>
-0.0677885

>  <SCORE.INTRA.REPUL>
0

>  <SCORE.INTRA.REPUL.0>
0

>  <SCORE.INTRA.SOLV>
-4.66647

>  <SCORE.INTRA.SOLV.lig_0>
-87.6316

>  <SCORE.INTRA.VDW>
0.47702

>  <SCORE.INTRA.VDW.0>
-2.87309

>  <SCORE.INTRA.norm>
-0.115361

>  <SCORE.RESTR>
0

>  <SCORE.RESTR.CAVITY>
0

>  <SCORE.RESTR.norm>
0

>  <SCORE.SYSTEM>
0

>  <SCORE.SYSTEM.CONST>
0

>  <SCORE.SYSTEM.DIHEDRAL>
0

>  <SCORE.SYSTEM.SOLV>
0

>  <SCORE.SYSTEM.norm>
0

>  <SCORE.heavy>
31

>  <SCORE.norm>
-1.76554

>  <SYMMETRIC_BONDS>
33 34 3

>  <RMSD>
2.237

$$$$
1fmn_cryst
 OpenBabel11021811393D
libRbt.so/2013.1/901 2013/11/27
 31 33  0  0  0  0  0  0  0  0999 V2000
   -8.8319   -6.3529    3.6558 N   0  0  0  0  0  0  0  0  0  0  0  0
   -9.6923   -6.3048    4.7277 C   0  0  0  0  0  0  0  0  0  0  0  0
   -9.4477   -6.8825    5.7874 O   0  0  0  0  0  0  0  0  0  0  0  0
  -10.8784   -5.5533    4.5333 N   0  0  0  0  0  0  0  0  0  0  0  0
  -11.2566   -4.8611    3.3619 C   0  0  0  0  0  0  0  0  0  0  0  0
  -12.3260   -4.2394    3.3288 O   0  0  0  0  0  0  0  0  0  0  0  0
  -10.2887   -4.9619    2.2674 C   0  0  0  0  0  0  0  0  0  0  0  0
  -10.5822   -4.3157    1.0925 N   0  0  0  0  0  0  0  0  0  0  0  0
   -9.7729   -4.5581    0.0207 C   0  0  0  0  0  0  0  0  0  0  0  0
  -10.1641   -4.0611   -1.2099 C   0  0  0  0  0  0  0  0  0  0  0  0
   -9.4107   -4.2625   -2.3159 C   0  0  0  0  0  0  0  0  0  0  0  0
   -9.8770   -3.7013   -3.6213 C   0  0  0  0  0  0  0  0  0  0  0  0
   -8.2475   -4.9639   -2.2369 C   0  0  0  0  0  0  0  0  0  0  0  0
   -7.4254   -5.1874   -3.4642 C   0  0  0  0  0  0  0  0  0  0  0  0
   -7.8235   -5.4696   -1.0507 C   0  0  0  0  0  0  0  0  0  0  0  0
   -8.5624   -5.2899    0.1186 C   0  0  0  0  0  0  0  0  0  0  0  0
   -8.1787   -5.7848    1.3827 N   0  0  0  0  0  0  0  0  0  0  0  0
   -9.0790   -5.7252    2.4661 C   0  0  0  0  0  0  0  0  0  0  0  0
   -6.7056   -5.8302    1.7086 C   0  0  0  0  0  0  0  0  0  0  0  0
   -6.3172   -5.5636    3.1946 C   0  0  1  0  0  0  0  0  0  0  0  0
   -6.3319   -6.7790    3.9298 O   0  0  0  0  0  0  0  0  0  0  0  0
   -4.9767   -4.8063    3.3485 C   0  0  1  0  0  0  0  0  0  0  0  0
   -5.2092   -3.4031    3.4294 O   0  0  0  0  0  0  0  0  0  0  0  0
   -4.0472   -5.2541    4.5032 C   0  0  1  0  0  0  0  0  0  0  0  0
   -4.8577   -5.6619    5.5999 O   0  0  0  0  0  0  0  0  0  0  0  0
   -3.1177   -6.4239    4.1095 C   0  0  0  0  0  0  0  0  0  0  0  0
   -3.8394   -7.5593    3.6467 O   0  0  0  0  0  0  0  0  0  0  0  0
   -3.1254   -8.8868    3.1574 P   0  0  0  0  0  0  0  0  0  0  0  0
   -2.1967   -8.6062    2.0391 O   0  0  0  0  0  0  0  0  0  0  0  0
   -2.6288   -9.6673    4.3112 O   0  5  0  0  0  0  0  0  0  0  0  0
   -4.3099   -9.7400    2.5219 O   0  5  0  0  0  0  0  0  0  0  0  0
  1 18  1  0  0  0  0
  1  2  1  0  0  0  0
  2  4  1  0  0  0  0
  2  3  2  0  0  0  0
  4  5  1  0  0  0  0
  5  7  1  0  0  0  0
  5  6  2  0  0  0  0
  7 18  2  0  0  0  0
  7  8  1  0  0  0  0
  8  9  1  0  0  0  0
  9 10  2  0  0  0  0
  9 16  1  0  0  0  0
 10 11  1  0  0  0  0
 11 12  1  0  0  0  0
 11 13  2  0  0  0  0
 13 14  1  0  0  0  0
 13 15  1  0  0  0  0
 15 16  2  0  0  0  0
 16 17  1  0  0  0  0
 17 19  1  0  0  0  0
 17 18  1  0  0  0  0
 20 19  1  6  0  0  0
 20 22  1  0  0  0  0
 20 21  1  0  0  0  0
 22 24  1  0  0  0  0
 22 23  1  1  0  0  0
 24 26  1  6  0  0  0
 24 25  1  0  0  0  0
 26 27  1  0  0  0  0
 27 28  1  0  0  0  0
 28 30  1  0  0  0  0
 28 29  2  0  0  0  0
 28 31  1  0  0  0  0
M  CHG  2  30  -1  31  -1
M  END
>  <CHROM.1>
145.69611840,88.25832079,93.01394517,71.96674560,-34.20144073,76.02723610
-56.86260695,-176.23583272,178.97191206,-57.98071823,-7.11970315,-6.00719879
2.22583381,2.59528993,0.39266322,-1.41778499

>  <Name>
1fmn_cryst

>  <RI>
0

>  <Rbt.Current_Directory>
/home/itssahil/PROJECTS/Mol_Feturizer/New_Systems/rnas/1fmn

>  <Rbt.Executable>
rbdock ($Id: //depot/dev/client3/rdock/2013.1/src/exe/rbdock.cxx#4 $)

>  <Rbt.Library>
libRbt.so (2013.1, Build901 2013/11/27)

>  <Rbt.Parameter_File>
/export/apps/rDock/src/rDock_2013.1_src/data/scripts/dock_solv.prm

>  <Rbt.Receptor>
prm/pocket_docking_4.prm

>  <SCORE>
-57.6876

>  <SCORE.INTER>
-52.8795

>  <SCORE.INTER.CONST>
1

>  <SCORE.INTER.POLAR>
-3.24062

>  <SCORE.INTER.ROT>
7

>  <SCORE.INTER.SOLV>
18.1566

>  <SCORE.INTER.VDW>
-38.7698

>  <SCORE.INTER.norm>
-1.70579

>  <SCORE.INTRA>
-4.80814

>  <SCORE.INTRA.DIHEDRAL>
-3.6805

>  <SCORE.INTRA.DIHEDRAL.0>
15.5708

>  <SCORE.INTRA.POLAR>
-1.793

>  <SCORE.INTRA.POLAR.0>
-0.0677885

>  <SCORE.INTRA.REPUL>
0

>  <SCORE.INTRA.REPUL.0>
0

>  <SCORE.INTRA.SOLV>
-1.80011

>  <SCORE.INTRA.SOLV.lig_0>
-87.6316

>  <SCORE.INTRA.VDW>
4.02835

>  <SCORE.INTRA.VDW.0>
-2.87309

>  <SCORE.INTRA.norm>
-0.155101

>  <SCORE.RESTR>
0

>  <SCORE.RESTR.CAVITY>
0

>  <SCORE.RESTR.norm>
0

>  <SCORE.SYSTEM>
0

>  <SCORE.SYSTEM.CONST>
0

>  <SCORE.SYSTEM.DIHEDRAL>
0

>  <SCORE.SYSTEM.SOLV>
0

>  <SCORE.SYSTEM.norm>
0

>  <SCORE.heavy>
31

>  <SCORE.norm>
-1.86089

>  <SYMMETRIC_BONDS>
33 34 3

>  <RMSD>
2.255

$$$$
1fmn_cryst
 OpenBabel11021811393D
libRbt.so/2013.1/901 2013/11/27
 31 33  0  0  0  0  0  0  0  0999 V2000
   -8.7231   -6.1745    3.3412 N   0  0  0  0  0  0  0  0  0  0  0  0
   -9.5247   -6.2342    4.4572 C   0  0  0  0  0  0  0  0  0  0  0  0
   -9.1555   -6.7799    5.4975 O   0  0  0  0  0  0  0  0  0  0  0  0
  -10.8023   -5.6329    4.3318 N   0  0  0  0  0  0  0  0  0  0  0  0
  -11.3238   -4.9897    3.1880 C   0  0  0  0  0  0  0  0  0  0  0  0
  -12.4614   -4.5032    3.2164 O   0  0  0  0  0  0  0  0  0  0  0  0
  -10.4104   -4.9690    2.0433 C   0  0  0  0  0  0  0  0  0  0  0  0
  -10.8427   -4.3610    0.8910 N   0  0  0  0  0  0  0  0  0  0  0  0
  -10.0679   -4.5004   -0.2239 C   0  0  0  0  0  0  0  0  0  0  0  0
  -10.5818   -4.0523   -1.4279 C   0  0  0  0  0  0  0  0  0  0  0  0
   -9.8693   -4.1577   -2.5736 C   0  0  0  0  0  0  0  0  0  0  0  0
  -10.4693   -3.6549   -3.8478 C   0  0  0  0  0  0  0  0  0  0  0  0
   -8.6267   -4.7118   -2.5619 C   0  0  0  0  0  0  0  0  0  0  0  0
   -7.8499   -4.8305   -3.8325 C   0  0  0  0  0  0  0  0  0  0  0  0
   -8.0817   -5.1645   -1.4039 C   0  0  0  0  0  0  0  0  0  0  0  0
   -8.7738   -5.0790   -0.1960 C   0  0  0  0  0  0  0  0  0  0  0  0
   -8.2659   -5.5259    1.0419 N   0  0  0  0  0  0  0  0  0  0  0  0
   -9.1079   -5.5791    2.1716 C   0  0  0  0  0  0  0  0  0  0  0  0
   -6.7830   -5.3916    1.2896 C   0  0  0  0  0  0  0  0  0  0  0  0
   -6.0082   -6.7119    1.5838 C   0  0  1  0  0  0  0  0  0  0  0  0
   -6.9223   -7.7740    1.8172 O   0  0  0  0  0  0  0  0  0  0  0  0
   -4.9700   -7.0663    0.4927 C   0  0  1  0  0  0  0  0  0  0  0  0
   -5.1340   -6.2166   -0.6390 O   0  0  0  0  0  0  0  0  0  0  0  0
   -3.4825   -7.0911    0.9222 C   0  0  1  0  0  0  0  0  0  0  0  0
   -2.7136   -7.6221   -0.1515 O   0  0  0  0  0  0  0  0  0  0  0  0
   -2.9355   -5.6913    1.2810 C   0  0  0  0  0  0  0  0  0  0  0  0
   -3.7182   -5.0403    2.2749 O   0  0  0  0  0  0  0  0  0  0  0  0
   -3.6491   -5.4287    3.8097 P   0  0  0  0  0  0  0  0  0  0  0  0
   -2.2921   -5.1947    4.3536 O   0  0  0  0  0  0  0  0  0  0  0  0
   -4.8098   -4.8754    4.5402 O   0  5  0  0  0  0  0  0  0  0  0  0
   -3.8390   -7.0095    3.8077 O   0  5  0  0  0  0  0  0  0  0  0  0
  1 18  1  0  0  0  0
  1  2  1  0  0  0  0
  2  4  1  0  0  0  0
  2  3  2  0  0  0  0
  4  5  1  0  0  0  0
  5  7  1  0  0  0  0
  5  6  2  0  0  0  0
  7 18  2  0  0  0  0
  7  8  1  0  0  0  0
  8  9  1  0  0  0  0
  9 10  2  0  0  0  0
  9 16  1  0  0  0  0
 10 11  1  0  0  0  0
 11 12  1  0  0  0  0
 11 13  2  0  0  0  0
 13 14  1  0  0  0  0
 13 15  1  0  0  0  0
 15 16  2  0  0  0  0
 16 17  1  0  0  0  0
 17 19  1  0  0  0  0
 17 18  1  0  0  0  0
 20 19  1  6  0  0  0
 20 22  1  0  0  0  0
 20 21  1  0  0  0  0
 22 24  1  0  0  0  0
 22 23  1  6  0  0  0
 24 26  1  6  0  0  0
 24 25  1  0  0  0  0
 26 27  1  0  0  0  0
 27 28  1  0  0  0  0
 28 30  1  0  0  0  0
 28 29  2  0  0  0  0
 28 31  1  0  0  0  0
M  CHG  2  30  -1  31  -1
M  END
>  <CHROM.1>
-120.75021120,-11.41709205,-10.02984595,66.28632542,171.58443851,-154.16245607
54.75789839,46.83742866,76.00314314,62.05886161,-7.21742890,-5.58401243,1.43435978
2.72873473,0.16858175,-1.45516187

>  <Name>
1fmn_cryst

>  <RI>
0

>  <Rbt.Current_Directory>
/home/itssahil/PROJECTS/Mol_Feturizer/New_Systems/rnas/1fmn

>  <Rbt.Executable>
rbdock ($Id: //depot/dev/client3/rdock/2013.1/src/exe/rbdock.cxx#4 $)

>  <Rbt.Library>
libRbt.so (2013.1, Build901 2013/11/27)

>  <Rbt.Parameter_File>
/export/apps/rDock/src/rDock_2013.1_src/data/scripts/dock_solv.prm

>  <Rbt.Receptor>
prm/pocket_docking_7.prm

>  <SCORE>
-60.6369

>  <SCORE.INTER>
-62.59

>  <SCORE.INTER.CONST>
1

>  <SCORE.INTER.POLAR>
-5.08027

>  <SCORE.INTER.ROT>
7

>  <SCORE.INTER.SOLV>
20.0095

>  <SCORE.INTER.VDW>
-39.7289

>  <SCORE.INTER.norm>
-2.01903

>  <SCORE.INTRA>
1.95132

>  <SCORE.INTRA.DIHEDRAL>
1.5582

>  <SCORE.INTRA.DIHEDRAL.0>
15.5708

>  <SCORE.INTRA.POLAR>
-0.246244

>  <SCORE.INTRA.POLAR.0>
-0.0677885

>  <SCORE.INTRA.REPUL>
0

>  <SCORE.INTRA.REPUL.0>
0

>  <SCORE.INTRA.SOLV>
2.97329

>  <SCORE.INTRA.SOLV.lig_0>
-87.6316

>  <SCORE.INTRA.VDW>
0.522805

>  <SCORE.INTRA.VDW.0>
-2.87309

>  <SCORE.INTRA.norm>
0.0629457

>  <SCORE.RESTR>
0.00175791

>  <SCORE.RESTR.CAVITY>
0.00175791

>  <SCORE.RESTR.norm>
5.67068e-05

>  <SCORE.SYSTEM>
0

>  <SCORE.SYSTEM.CONST>
0

>  <SCORE.SYSTEM.DIHEDRAL>
0

>  <SCORE.SYSTEM.SOLV>
0

>  <SCORE.SYSTEM.norm>
0

>  <SCORE.heavy>
31

>  <SCORE.norm>
-1.95603

>  <SYMMETRIC_BONDS>
33 34 3

>  <RMSD>
2.262

$$$$
1fmn_cryst
 OpenBabel11021811393D
libRbt.so/2013.1/901 2013/11/27
 31 33  0  0  0  0  0  0  0  0999 V2000
   -8.7287   -6.7031    3.5584 N   0  0  0  0  0  0  0  0  0  0  0  0
   -9.6097   -6.6325    4.6121 C   0  0  0  0  0  0  0  0  0  0  0  0
   -9.4324   -7.2637    5.6546 O   0  0  0  0  0  0  0  0  0  0  0  0
  -10.7352   -5.7923    4.4200 N   0  0  0  0  0  0  0  0  0  0  0  0
  -11.0350   -5.0335    3.2674 C   0  0  0  0  0  0  0  0  0  0  0  0
  -12.0571   -4.3367    3.2340 O   0  0  0  0  0  0  0  0  0  0  0  0
  -10.0499   -5.1634    2.1914 C   0  0  0  0  0  0  0  0  0  0  0  0
  -10.2685   -4.4563    1.0353 N   0  0  0  0  0  0  0  0  0  0  0  0
   -9.4520   -4.7170   -0.0267 C   0  0  0  0  0  0  0  0  0  0  0  0
   -9.7770   -4.1497   -1.2461 C   0  0  0  0  0  0  0  0  0  0  0  0
   -9.0126   -4.3643   -2.3420 C   0  0  0  0  0  0  0  0  0  0  0  0
   -9.4062   -3.7250   -3.6354 C   0  0  0  0  0  0  0  0  0  0  0  0
   -7.9037   -5.1488   -2.2638 C   0  0  0  0  0  0  0  0  0  0  0  0
   -7.0693   -5.3859   -3.4802 C   0  0  0  0  0  0  0  0  0  0  0  0
   -7.5455   -5.7255   -1.0883 C   0  0  0  0  0  0  0  0  0  0  0  0
   -8.2985   -5.5359    0.0703 C   0  0  0  0  0  0  0  0  0  0  0  0
   -7.9816   -6.1017    1.3231 N   0  0  0  0  0  0  0  0  0  0  0  0
   -8.9019   -6.0172    2.3879 C   0  0  0  0  0  0  0  0  0  0  0  0
   -6.5237   -6.2631    1.6794 C   0  0  0  0  0  0  0  0  0  0  0  0
   -5.8378   -5.0389    2.3584 C   0  0  1  0  0  0  0  0  0  0  0  0
   -6.4792   -4.7396    3.5901 O   0  0  0  0  0  0  0  0  0  0  0  0
   -4.3091   -5.2107    2.5247 C   0  0  1  0  0  0  0  0  0  0  0  0
   -3.7641   -4.1085    3.2443 O   0  0  0  0  0  0  0  0  0  0  0  0
   -3.8167   -6.5410    3.1457 C   0  0  1  0  0  0  0  0  0  0  0  0
   -2.4140   -6.6464    2.9283 O   0  0  0  0  0  0  0  0  0  0  0  0
   -4.0935   -6.6366    4.6629 C   0  0  0  0  0  0  0  0  0  0  0  0
   -5.4031   -7.1140    4.9474 O   0  0  0  0  0  0  0  0  0  0  0  0
   -5.8364   -7.6209    6.3850 P   0  0  0  0  0  0  0  0  0  0  0  0
   -5.7235   -6.5347    7.3847 O   0  0  0  0  0  0  0  0  0  0  0  0
   -7.1004   -8.3849    6.3093 O   0  5  0  0  0  0  0  0  0  0  0  0
   -4.7051   -8.6726    6.7710 O   0  5  0  0  0  0  0  0  0  0  0  0
  1 18  1  0  0  0  0
  1  2  1  0  0  0  0
  2  4  1  0  0  0  0
  2  3  2  0  0  0  0
  4  5  1  0  0  0  0
  5  7  1  0  0  0  0
  5  6  2  0  0  0  0
  7 18  2  0  0  0  0
  7  8  1  0  0  0  0
  8  9  1  0  0  0  0
  9 10  2  0  0  0  0
  9 16  1  0  0  0  0
 10 11  1  0  0  0  0
 11 12  1  0  0  0  0
 11 13  2  0  0  0  0
 13 14  1  0  0  0  0
 13 15  1  0  0  0  0
 15 16  2  0  0  0  0
 16 17  1  0  0  0  0
 17 19  1  0  0  0  0
 17 18  1  0  0  0  0
 20 19  1  1  0  0  0
 20 22  1  0  0  0  0
 20 21  1  0  0  0  0
 22 24  1  0  0  0  0
 22 23  1  1  0  0  0
 24 26  1  1  0  0  0
 24 25  1  0  0  0  0
 26 27  1  0  0  0  0
 27 28  1  0  0  0  0
 28 30  1  0  0  0  0
 28 29  2  0  0  0  0
 28 31  1  0  0  0  0
M  CHG  2  30  -1  31  -1
M  END
>  <CHROM.1>
87.27044757,61.07901902,-175.38165146,56.27511726,166.45450833,-58.44850943
85.06514234,-178.27200712,165.56837859,61.56017973,-7.36583501,-5.90330003
2.67058403,1.10534227,-0.10647894,1.86557931

>  <Name>
1fmn_cryst

>  <RI>
0

>  <Rbt.Current_Directory>
/home/itssahil/PROJECTS/Mol_Feturizer/New_Systems/rnas/1fmn

>  <Rbt.Executable>
rbdock ($Id: //depot/dev/client3/rdock/2013.1/src/exe/rbdock.cxx#4 $)

>  <Rbt.Library>
libRbt.so (2013.1, Build901 2013/11/27)

>  <Rbt.Parameter_File>
/export/apps/rDock/src/rDock_2013.1_src/data/scripts/dock_solv.prm

>  <Rbt.Receptor>
prm/pocket_docking_4.prm

>  <SCORE>
-60.6436

>  <SCORE.INTER>
-51.7761

>  <SCORE.INTER.CONST>
1

>  <SCORE.INTER.POLAR>
-3.95609

>  <SCORE.INTER.ROT>
7

>  <SCORE.INTER.SOLV>
21.5065

>  <SCORE.INTER.VDW>
-36.766

>  <SCORE.INTER.norm>
-1.6702

>  <SCORE.INTRA>
-8.86745

>  <SCORE.INTRA.DIHEDRAL>
-10.1549

>  <SCORE.INTRA.DIHEDRAL.0>
15.5708

>  <SCORE.INTRA.POLAR>
-0.897258

>  <SCORE.INTRA.POLAR.0>
-0.0677885

>  <SCORE.INTRA.REPUL>
0.0138111

>  <SCORE.INTRA.REPUL.0>
0

>  <SCORE.INTRA.SOLV>
0.347807

>  <SCORE.INTRA.SOLV.lig_0>
-87.6316

>  <SCORE.INTRA.VDW>
-0.98227

>  <SCORE.INTRA.VDW.0>
-2.87309

>  <SCORE.INTRA.norm>
-0.286047

>  <SCORE.RESTR>
0

>  <SCORE.RESTR.CAVITY>
0

>  <SCORE.RESTR.norm>
0

>  <SCORE.SYSTEM>
0

>  <SCORE.SYSTEM.CONST>
0

>  <SCORE.SYSTEM.DIHEDRAL>
0

>  <SCORE.SYSTEM.SOLV>
0

>  <SCORE.SYSTEM.norm>
0

>  <SCORE.heavy>
31

>  <SCORE.norm>
-1.95624

>  <SYMMETRIC_BONDS>
33 34 3

>  <RMSD>
2.271

$$$$
1fmn_cryst
 OpenBabel11021811393D
libRbt.so/2013.1/901 2013/11/27
 31 33  0  0  0  0  0  0  0  0999 V2000
   -9.0036   -6.3019    3.6008 N   0  0  0  0  0  0  0  0  0  0  0  0
   -9.7817   -6.2740    4.7345 C   0  0  0  0  0  0  0  0  0  0  0  0
   -9.4670   -6.8833    5.7574 O   0  0  0  0  0  0  0  0  0  0  0  0
  -10.9692   -5.5045    4.6488 N   0  0  0  0  0  0  0  0  0  0  0  0
  -11.4239   -4.7762    3.5276 C   0  0  0  0  0  0  0  0  0  0  0  0
  -12.4848   -4.1422    3.5905 O   0  0  0  0  0  0  0  0  0  0  0  0
  -10.5409   -4.8573    2.3620 C   0  0  0  0  0  0  0  0  0  0  0  0
  -10.9121   -4.1759    1.2297 N   0  0  0  0  0  0  0  0  0  0  0  0
  -10.1873   -4.3975    0.0947 C   0  0  0  0  0  0  0  0  0  0  0  0
  -10.6620   -3.8625   -1.0897 C   0  0  0  0  0  0  0  0  0  0  0  0
   -9.9950   -4.0415   -2.2535 C   0  0  0  0  0  0  0  0  0  0  0  0
  -10.5492   -3.4396   -3.5053 C   0  0  0  0  0  0  0  0  0  0  0  0
   -8.8383   -4.7575   -2.2798 C   0  0  0  0  0  0  0  0  0  0  0  0
   -8.1121   -4.9560   -3.5703 C   0  0  0  0  0  0  0  0  0  0  0  0
   -8.3344   -5.3004   -1.1422 C   0  0  0  0  0  0  0  0  0  0  0  0
   -8.9825   -5.1449    0.0830 C   0  0  0  0  0  0  0  0  0  0  0  0
   -8.5128   -5.6786    1.3015 N   0  0  0  0  0  0  0  0  0  0  0  0
   -9.3298   -5.6390    2.4499 C   0  0  0  0  0  0  0  0  0  0  0  0
   -7.0204   -5.7490    1.5158 C   0  0  0  0  0  0  0  0  0  0  0  0
   -6.3655   -7.1557    1.3663 C   0  0  1  0  0  0  0  0  0  0  0  0
   -5.1529   -7.0556    0.6331 O   0  0  0  0  0  0  0  0  0  0  0  0
   -6.1707   -7.8848    2.7171 C   0  0  1  0  0  0  0  0  0  0  0  0
   -5.2057   -8.9240    2.5822 O   0  0  0  0  0  0  0  0  0  0  0  0
   -5.8303   -7.0055    3.9454 C   0  0  1  0  0  0  0  0  0  0  0  0
   -5.8268   -7.8331    5.1034 O   0  0  0  0  0  0  0  0  0  0  0  0
   -4.4553   -6.3105    3.8266 C   0  0  0  0  0  0  0  0  0  0  0  0
   -4.3840   -5.4347    2.7077 O   0  0  0  0  0  0  0  0  0  0  0  0
   -3.5917   -4.0627    2.7432 P   0  0  0  0  0  0  0  0  0  0  0  0
   -2.6298   -3.9785    1.6209 O   0  0  0  0  0  0  0  0  0  0  0  0
   -4.5176   -2.9317    2.9684 O   0  5  0  0  0  0  0  0  0  0  0  0
   -2.7012   -4.1752    4.0582 O   0  5  0  0  0  0  0  0  0  0  0  0
  1 18  1  0  0  0  0
  1  2  1  0  0  0  0
  2  4  1  0  0  0  0
  2  3  2  0  0  0  0
  4  5  1  0  0  0  0
  5  7  1  0  0  0  0
  5  6  2  0  0  0  0
  7 18  2  0  0  0  0
  7  8  1  0  0  0  0
  8  9  1  0  0  0  0
  9 10  2  0  0  0  0
  9 16  1  0  0  0  0
 10 11  1  0  0  0  0
 11 12  1  0  0  0  0
 11 13  2  0  0  0  0
 13 14  1  0  0  0  0
 13 15  1  0  0  0  0
 15 16  2  0  0  0  0
 16 17  1  0  0  0  0
 17 19  1  0  0  0  0
 17 18  1  0  0  0  0
 20 19  1  1  0  0  0
 20 22  1  0  0  0  0
 20 21  1  0  0  0  0
 22 24  1  0  0  0  0
 22 23  1  6  0  0  0
 24 26  1  6  0  0  0
 24 25  1  0  0  0  0
 26 27  1  0  0  0  0
 27 28  1  0  0  0  0
 28 30  1  0  0  0  0
 28 29  2  0  0  0  0
 28 31  1  0  0  0  0
M  CHG  2  30  -1  31  -1
M  END
>  <CHROM.1>
-103.89700048,136.92842061,-161.05134984,-85.38219481,174.11444260,-61.29794837
61.02944198,55.34284293,143.62659418,126.79853687,-7.50880304,-5.41932748
1.89795585,2.61772780,0.02660838,-1.26938431

>  <Name>
1fmn_cryst

>  <RI>
0

>  <Rbt.Current_Directory>
/home/itssahil/PROJECTS/Mol_Feturizer/New_Systems/rnas/1fmn

>  <Rbt.Executable>
rbdock ($Id: //depot/dev/client3/rdock/2013.1/src/exe/rbdock.cxx#4 $)

>  <Rbt.Library>
libRbt.so (2013.1, Build901 2013/11/27)

>  <Rbt.Parameter_File>
/export/apps/rDock/src/rDock_2013.1_src/data/scripts/dock_solv.prm

>  <Rbt.Receptor>
prm/pocket_docking_5.prm

>  <SCORE>
-57.1089

>  <SCORE.INTER>
-59.148

>  <SCORE.INTER.CONST>
1

>  <SCORE.INTER.POLAR>
-4.26666

>  <SCORE.INTER.ROT>
7

>  <SCORE.INTER.SOLV>
22.817

>  <SCORE.INTER.VDW>
-41.0822

>  <SCORE.INTER.norm>
-1.908

>  <SCORE.INTRA>
2.03908

>  <SCORE.INTRA.DIHEDRAL>
2.24719

>  <SCORE.INTRA.DIHEDRAL.0>
15.5708

>  <SCORE.INTRA.POLAR>
0.0523403

>  <SCORE.INTRA.POLAR.0>
-0.0677885

>  <SCORE.INTRA.REPUL>
0

>  <SCORE.INTRA.REPUL.0>
0

>  <SCORE.INTRA.SOLV>
-2.02207

>  <SCORE.INTRA.SOLV.lig_0>
-87.6316

>  <SCORE.INTRA.VDW>
1.74856

>  <SCORE.INTRA.VDW.0>
-2.87309

>  <SCORE.INTRA.norm>
0.0657766

>  <SCORE.RESTR>
0

>  <SCORE.RESTR.CAVITY>
0

>  <SCORE.RESTR.norm>
0

>  <SCORE.SYSTEM>
0

>  <SCORE.SYSTEM.CONST>
0

>  <SCORE.SYSTEM.DIHEDRAL>
0

>  <SCORE.SYSTEM.SOLV>
0

>  <SCORE.SYSTEM.norm>
0

>  <SCORE.heavy>
31

>  <SCORE.norm>
-1.84222

>  <SYMMETRIC_BONDS>
33 34 3

>  <RMSD>
2.276

$$$$
1fmn_cryst
 OpenBabel11021811393D
libRbt.so/2013.1/901 2013/11/27
 31 33  0  0  0  0  0  0  0  0999 V2000
   -8.6711   -6.1875    3.6387 N   0  0  0  0  0  0  0  0  0  0  0  0
   -9.5380   -6.2243    4.7058 C   0  0  0  0  0  0  0  0  0  0  0  0
   -9.2231   -6.7255    5.7856 O   0  0  0  0  0  0  0  0  0  0  0  0
  -10.8163   -5.6539    4.4819 N   0  0  0  0  0  0  0  0  0  0  0  0
  -11.2787   -5.0620    3.2861 C   0  0  0  0  0  0  0  0  0  0  0  0
  -12.4245   -4.5981    3.2283 O   0  0  0  0  0  0  0  0  0  0  0  0
  -10.2978   -5.0629    2.1986 C   0  0  0  0  0  0  0  0  0  0  0  0
  -10.6700   -4.5047    1.0010 N   0  0  0  0  0  0  0  0  0  0  0  0
   -9.8263   -4.6674   -0.0593 C   0  0  0  0  0  0  0  0  0  0  0  0
  -10.2738   -4.2724   -1.3076 C   0  0  0  0  0  0  0  0  0  0  0  0
   -9.4910   -4.4034   -2.4037 C   0  0  0  0  0  0  0  0  0  0  0  0
  -10.0213   -3.9581   -3.7291 C   0  0  0  0  0  0  0  0  0  0  0  0
   -8.2416   -4.9314   -2.2970 C   0  0  0  0  0  0  0  0  0  0  0  0
   -7.3868   -5.0788   -3.5134 C   0  0  0  0  0  0  0  0  0  0  0  0
   -7.7601   -5.3320   -1.0927 C   0  0  0  0  0  0  0  0  0  0  0  0
   -8.5260   -5.2182    0.0675 C   0  0  0  0  0  0  0  0  0  0  0  0
   -8.0864   -5.6109    1.3491 N   0  0  0  0  0  0  0  0  0  0  0  0
   -8.9946   -5.6416    2.4272 C   0  0  0  0  0  0  0  0  0  0  0  0
   -6.6241   -5.4378    1.6807 C   0  0  0  0  0  0  0  0  0  0  0  0
   -5.6593   -6.5425    1.1523 C   0  0  1  0  0  0  0  0  0  0  0  0
   -4.3128   -6.0980    1.2378 O   0  0  0  0  0  0  0  0  0  0  0  0
   -5.8650   -7.9127    1.8409 C   0  0  1  0  0  0  0  0  0  0  0  0
   -5.9588   -8.9463    0.8650 O   0  0  0  0  0  0  0  0  0  0  0  0
   -4.8406   -8.3094    2.9323 C   0  0  1  0  0  0  0  0  0  0  0  0
   -5.5214   -9.0491    3.9399 O   0  0  0  0  0  0  0  0  0  0  0  0
   -3.6786   -9.1681    2.3844 C   0  0  0  0  0  0  0  0  0  0  0  0
   -2.9441   -8.5014    1.3646 O   0  0  0  0  0  0  0  0  0  0  0  0
   -1.6932   -9.1547    0.6438 P   0  0  0  0  0  0  0  0  0  0  0  0
   -2.0285  -10.4966    0.1158 O   0  0  0  0  0  0  0  0  0  0  0  0
   -1.0446   -8.1802   -0.2599 O   0  5  0  0  0  0  0  0  0  0  0  0
   -0.6645   -9.4106    1.8317 O   0  5  0  0  0  0  0  0  0  0  0  0
  1 18  1  0  0  0  0
  1  2  1  0  0  0  0
  2  4  1  0  0  0  0
  2  3  2  0  0  0  0
  4  5  1  0  0  0  0
  5  7  1  0  0  0  0
  5  6  2  0  0  0  0
  7 18  2  0  0  0  0
  7  8  1  0  0  0  0
  8  9  1  0  0  0  0
  9 10  2  0  0  0  0
  9 16  1  0  0  0  0
 10 11  1  0  0  0  0
 11 12  1  0  0  0  0
 11 13  2  0  0  0  0
 13 14  1  0  0  0  0
 13 15  1  0  0  0  0
 15 16  2  0  0  0  0
 16 17  1  0  0  0  0
 17 19  1  0  0  0  0
 17 18  1  0  0  0  0
 20 19  1  1  0  0  0
 20 22  1  0  0  0  0
 20 21  1  0  0  0  0
 22 24  1  0  0  0  0
 22 23  1  6  0  0  0
 24 26  1  6  0  0  0
 24 25  1  0  0  0  0
 26 27  1  0  0  0  0
 27 28  1  0  0  0  0
 28 30  1  0  0  0  0
 28 29  2  0  0  0  0
 28 31  1  0  0  0  0
M  CHG  2  30  -1  31  -1
M  END
>  <CHROM.1>
-80.82063534,165.51826863,131.30291921,174.39491135,145.34367710,178.74664153
59.43795979,70.63786327,179.40607522,52.44856462,-6.81496015,-6.66903305
1.23042137,3.01684556,0.46377298,-1.26638639

>  <Name>
1fmn_cryst

>  <RI>
0

>  <Rbt.Current_Directory>
/home/itssahil/PROJECTS/Mol_Feturizer/New_Systems/rnas/1fmn

>  <Rbt.Executable>
rbdock ($Id: //depot/dev/client3/rdock/2013.1/src/exe/rbdock.cxx#4 $)

>  <Rbt.Library>
libRbt.so (2013.1, Build901 2013/11/27)

>  <Rbt.Parameter_File>
/export/apps/rDock/src/rDock_2013.1_src/data/scripts/dock_solv.prm

>  <Rbt.Receptor>
prm/pocket_docking_5.prm

>  <SCORE>
-58.7301

>  <SCORE.INTER>
-52.5619

>  <SCORE.INTER.CONST>
1

>  <SCORE.INTER.POLAR>
-2.91654

>  <SCORE.INTER.ROT>
7

>  <SCORE.INTER.SOLV>
18.6292

>  <SCORE.INTER.VDW>
-39.7959

>  <SCORE.INTER.norm>
-1.69555

>  <SCORE.INTRA>
-6.16821

>  <SCORE.INTRA.DIHEDRAL>
-3.71774

>  <SCORE.INTRA.DIHEDRAL.0>
15.5708

>  <SCORE.INTRA.POLAR>
-0.932211

>  <SCORE.INTRA.POLAR.0>
-0.0677885

>  <SCORE.INTRA.REPUL>
0

>  <SCORE.INTRA.REPUL.0>
0

>  <SCORE.INTRA.SOLV>
-3.73054

>  <SCORE.INTRA.SOLV.lig_0>
-87.6316

>  <SCORE.INTRA.VDW>
0.725453

>  <SCORE.INTRA.VDW.0>
-2.87309

>  <SCORE.INTRA.norm>
-0.198974

>  <SCORE.RESTR>
0

>  <SCORE.RESTR.CAVITY>
0

>  <SCORE.RESTR.norm>
0

>  <SCORE.SYSTEM>
0

>  <SCORE.SYSTEM.CONST>
0

>  <SCORE.SYSTEM.DIHEDRAL>
0

>  <SCORE.SYSTEM.SOLV>
0

>  <SCORE.SYSTEM.norm>
0

>  <SCORE.heavy>
31

>  <SCORE.norm>
-1.89452

>  <SYMMETRIC_BONDS>
33 34 3

>  <RMSD>
2.290

$$$$
1fmn_cryst
 OpenBabel11021811393D
libRbt.so/2013.1/901 2013/11/27
 31 33  0  0  0  0  0  0  0  0999 V2000
   -9.3249   -6.6925    3.4966 N   0  0  0  0  0  0  0  0  0  0  0  0
  -10.0352   -6.6124    4.6717 C   0  0  0  0  0  0  0  0  0  0  0  0
   -9.7981   -7.3496    5.6292 O   0  0  0  0  0  0  0  0  0  0  0  0
  -11.0587   -5.6323    4.7082 N   0  0  0  0  0  0  0  0  0  0  0  0
  -11.4149   -4.7448    3.6691 C   0  0  0  0  0  0  0  0  0  0  0  0
  -12.3335   -3.9327    3.8368 O   0  0  0  0  0  0  0  0  0  0  0  0
  -10.6131   -4.8938    2.4525 C   0  0  0  0  0  0  0  0  0  0  0  0
  -10.8967   -4.0667    1.3944 N   0  0  0  0  0  0  0  0  0  0  0  0
  -10.2755   -4.3265    0.2073 C   0  0  0  0  0  0  0  0  0  0  0  0
  -10.6903   -3.6196   -0.9074 C   0  0  0  0  0  0  0  0  0  0  0  0
  -10.1189   -3.8247   -2.1168 C   0  0  0  0  0  0  0  0  0  0  0  0
  -10.6021   -3.0320   -3.2893 C   0  0  0  0  0  0  0  0  0  0  0  0
   -9.1203   -4.7377   -2.2594 C   0  0  0  0  0  0  0  0  0  0  0  0
   -8.4998   -4.9627   -3.5997 C   0  0  0  0  0  0  0  0  0  0  0  0
   -8.6801   -5.4540   -1.1935 C   0  0  0  0  0  0  0  0  0  0  0  0
   -9.2349   -5.2804    0.0744 C   0  0  0  0  0  0  0  0  0  0  0  0
   -8.8232   -5.9878    1.2233 N   0  0  0  0  0  0  0  0  0  0  0  0
   -9.5687   -5.8904    2.4161 C   0  0  0  0  0  0  0  0  0  0  0  0
   -7.3631   -6.3499    1.3473 C   0  0  0  0  0  0  0  0  0  0  0  0
   -6.3636   -5.1603    1.4745 C   0  0  1  0  0  0  0  0  0  0  0  0
   -6.0957   -4.8905    2.8432 O   0  0  0  0  0  0  0  0  0  0  0  0
   -5.0661   -5.3633    0.6563 C   0  0  1  0  0  0  0  0  0  0  0  0
   -4.0346   -4.5124    1.1478 O   0  0  0  0  0  0  0  0  0  0  0  0
   -4.5375   -6.8132    0.5289 C   0  0  1  0  0  0  0  0  0  0  0  0
   -3.4090   -6.8054   -0.3386 O   0  0  0  0  0  0  0  0  0  0  0  0
   -4.1180   -7.4231    1.8852 C   0  0  0  0  0  0  0  0  0  0  0  0
   -3.5218   -8.7069    1.7427 O   0  0  0  0  0  0  0  0  0  0  0  0
   -2.9877   -9.5450    2.9771 P   0  0  0  0  0  0  0  0  0  0  0  0
   -4.0943   -9.8968    3.8956 O   0  0  0  0  0  0  0  0  0  0  0  0
   -2.0759  -10.6173    2.5237 O   0  5  0  0  0  0  0  0  0  0  0  0
   -2.0859   -8.5051    3.7772 O   0  5  0  0  0  0  0  0  0  0  0  0
  1 18  1  0  0  0  0
  1  2  1  0  0  0  0
  2  4  1  0  0  0  0
  2  3  2  0  0  0  0
  4  5  1  0  0  0  0
  5  7  1  0  0  0  0
  5  6  2  0  0  0  0
  7 18  2  0  0  0  0
  7  8  1  0  0  0  0
  8  9  1  0  0  0  0
  9 10  2  0  0  0  0
  9 16  1  0  0  0  0
 10 11  1  0  0  0  0
 11 12  1  0  0  0  0
 11 13  2  0  0  0  0
 13 14  1  0  0  0  0
 13 15  1  0  0  0  0
 15 16  2  0  0  0  0
 16 17  1  0  0  0  0
 17 19  1  0  0  0  0
 17 18  1  0  0  0  0
 20 19  1  1  0  0  0
 20 22  1  0  0  0  0
 20 21  1  0  0  0  0
 22 24  1  0  0  0  0
 22 23  1  1  0  0  0
 24 26  1  1  0  0  0
 24 25  1  0  0  0  0
 26 27  1  0  0  0  0
 27 28  1  0  0  0  0
 28 30  1  0  0  0  0
 28 29  2  0  0  0  0
 28 31  1  0  0  0  0
M  CHG  2  30  -1  31  -1
M  END
>  <CHROM.1>
64.75019914,94.30182600,-160.28573286,59.33856406,175.48514426,55.52010654
-174.64696415,-175.26820272,179.30837848,63.24065492,-7.30145104,-6.19805631
1.57494700,2.74609802,0.41099336,-1.18056643

>  <Name>
1fmn_cryst

>  <RI>
0

>  <Rbt.Current_Directory>
/home/itssahil/PROJECTS/Mol_Feturizer/New_Systems/rnas/1fmn

>  <Rbt.Executable>
rbdock ($Id: //depot/dev/client3/rdock/2013.1/src/exe/rbdock.cxx#4 $)

>  <Rbt.Library>
libRbt.so (2013.1, Build901 2013/11/27)

>  <Rbt.Parameter_File>
/export/apps/rDock/src/rDock_2013.1_src/data/scripts/dock_solv.prm

>  <Rbt.Receptor>
prm/pocket_docking_3.prm

>  <SCORE>
-50.0444

>  <SCORE.INTER>
-44.52

>  <SCORE.INTER.CONST>
1

>  <SCORE.INTER.POLAR>
-2.81305

>  <SCORE.INTER.ROT>
7

>  <SCORE.INTER.SOLV>
21.3749

>  <SCORE.INTER.VDW>
-35.6948

>  <SCORE.INTER.norm>
-1.43613

>  <SCORE.INTRA>
-5.57868

>  <SCORE.INTRA.DIHEDRAL>
-9.14577

>  <SCORE.INTRA.DIHEDRAL.0>
15.5708

>  <SCORE.INTRA.POLAR>
0.0668535

>  <SCORE.INTRA.POLAR.0>
-0.0677885

>  <SCORE.INTRA.REPUL>
0

>  <SCORE.INTRA.REPUL.0>
0

>  <SCORE.INTRA.SOLV>
-4.90943

>  <SCORE.INTRA.SOLV.lig_0>
-87.6316

>  <SCORE.INTRA.VDW>
1.22162

>  <SCORE.INTRA.VDW.0>
-2.87309

>  <SCORE.INTRA.norm>
-0.179957

>  <SCORE.RESTR>
0.0543517

>  <SCORE.RESTR.CAVITY>
0.0543517

>  <SCORE.RESTR.norm>
0.00175328

>  <SCORE.SYSTEM>
0

>  <SCORE.SYSTEM.CONST>
0

>  <SCORE.SYSTEM.DIHEDRAL>
0

>  <SCORE.SYSTEM.SOLV>
0

>  <SCORE.SYSTEM.norm>
0

>  <SCORE.heavy>
31

>  <SCORE.norm>
-1.61433

>  <SYMMETRIC_BONDS>
33 34 3

>  <RMSD>
2.291

$$$$
1fmn_cryst
 OpenBabel11021811393D
libRbt.so/2013.1/901 2013/11/27
 31 33  0  0  0  0  0  0  0  0999 V2000
   -9.1934   -6.6603    3.6103 N   0  0  0  0  0  0  0  0  0  0  0  0
  -10.0905   -6.6226    4.6521 C   0  0  0  0  0  0  0  0  0  0  0  0
   -9.9133   -7.2621    5.6894 O   0  0  0  0  0  0  0  0  0  0  0  0
  -11.2321   -5.8060    4.4538 N   0  0  0  0  0  0  0  0  0  0  0  0
  -11.5331   -5.0403    3.3061 C   0  0  0  0  0  0  0  0  0  0  0  0
  -12.5704   -4.3666    3.2664 O   0  0  0  0  0  0  0  0  0  0  0  0
  -10.5303   -5.1346    2.2428 C   0  0  0  0  0  0  0  0  0  0  0  0
  -10.7489   -4.4188    1.0921 N   0  0  0  0  0  0  0  0  0  0  0  0
   -9.9118   -4.6479    0.0388 C   0  0  0  0  0  0  0  0  0  0  0  0
  -10.2327   -4.0734   -1.1783 C   0  0  0  0  0  0  0  0  0  0  0  0
   -9.4483   -4.2572   -2.2656 C   0  0  0  0  0  0  0  0  0  0  0  0
   -9.8384   -3.6115   -3.5568 C   0  0  0  0  0  0  0  0  0  0  0  0
   -8.3230   -5.0172   -2.1809 C   0  0  0  0  0  0  0  0  0  0  0  0
   -7.4664   -5.2205   -3.3880 C   0  0  0  0  0  0  0  0  0  0  0  0
   -7.9680   -5.5998   -1.0073 C   0  0  0  0  0  0  0  0  0  0  0  0
   -8.7414   -5.4414    0.1427 C   0  0  0  0  0  0  0  0  0  0  0  0
   -8.4291   -6.0150    1.3931 N   0  0  0  0  0  0  0  0  0  0  0  0
   -9.3660   -5.9644    2.4456 C   0  0  0  0  0  0  0  0  0  0  0  0
   -6.9731   -6.1475    1.7682 C   0  0  0  0  0  0  0  0  0  0  0  0
   -6.6132   -5.8591    3.2574 C   0  0  1  0  0  0  0  0  0  0  0  0
   -6.4386   -7.0791    3.9637 O   0  0  0  0  0  0  0  0  0  0  0  0
   -5.3994   -4.9134    3.4197 C   0  0  1  0  0  0  0  0  0  0  0  0
   -5.8237   -3.6459    3.9125 O   0  0  0  0  0  0  0  0  0  0  0  0
   -4.2114   -5.4365    4.2641 C   0  0  1  0  0  0  0  0  0  0  0  0
   -3.7448   -6.6482    3.6810 O   0  0  0  0  0  0  0  0  0  0  0  0
   -3.0369   -4.4351    4.3370 C   0  0  0  0  0  0  0  0  0  0  0  0
   -1.9918   -4.8846    5.1913 O   0  0  0  0  0  0  0  0  0  0  0  0
   -2.1991   -5.1269    6.7436 P   0  0  0  0  0  0  0  0  0  0  0  0
   -2.7627   -3.9232    7.3959 O   0  0  0  0  0  0  0  0  0  0  0  0
   -2.8493   -6.4330    6.9851 O   0  5  0  0  0  0  0  0  0  0  0  0
   -0.7156   -5.2594    7.3062 O   0  5  0  0  0  0  0  0  0  0  0  0
  1 18  1  0  0  0  0
  1  2  1  0  0  0  0
  2  4  1  0  0  0  0
  2  3  2  0  0  0  0
  4  5  1  0  0  0  0
  5  7  1  0  0  0  0
  5  6  2  0  0  0  0
  7 18  2  0  0  0  0
  7  8  1  0  0  0  0
  8  9  1  0  0  0  0
  9 10  2  0  0  0  0
  9 16  1  0  0  0  0
 10 11  1  0  0  0  0
 11 12  1  0  0  0  0
 11 13  2  0  0  0  0
 13 14  1  0  0  0  0
 13 15  1  0  0  0  0
 15 16  2  0  0  0  0
 16 17  1  0  0  0  0
 17 19  1  0  0  0  0
 17 18  1  0  0  0  0
 20 19  1  6  0  0  0
 20 22  1  0  0  0  0
 20 21  1  0  0  0  0
 22 24  1  0  0  0  0
 22 23  1  1  0  0  0
 24 26  1  6  0  0  0
 24 25  1  0  0  0  0
 26 27  1  0  0  0  0
 27 28  1  0  0  0  0
 28 30  1  0  0  0  0
 28 29  2  0  0  0  0
 28 31  1  0  0  0  0
M  CHG  2  30  -1  31  -1
M  END
>  <CHROM.1>
140.92247549,101.28483978,109.63580695,-176.53605439,57.94974851,-177.12210300
175.82814480,-60.64850620,-62.53200622,-53.73236166,-7.02244434,-5.32477382
2.92201624,2.43574856,-0.08886986,-1.40939646

>  <Name>
1fmn_cryst

>  <RI>
0

>  <Rbt.Current_Directory>
/home/itssahil/PROJECTS/Mol_Feturizer/New_Systems/rnas/1fmn

>  <Rbt.Executable>
rbdock ($Id: //depot/dev/client3/rdock/2013.1/src/exe/rbdock.cxx#4 $)

>  <Rbt.Library>
libRbt.so (2013.1, Build901 2013/11/27)

>  <Rbt.Parameter_File>
/export/apps/rDock/src/rDock_2013.1_src/data/scripts/dock_solv.prm

>  <Rbt.Receptor>
prm/pocket_docking_4.prm

>  <SCORE>
-54.6187

>  <SCORE.INTER>
-53.2217

>  <SCORE.INTER.CONST>
1

>  <SCORE.INTER.POLAR>
-3.37849

>  <SCORE.INTER.ROT>
7

>  <SCORE.INTER.SOLV>
17.2884

>  <SCORE.INTER.VDW>
-38.2489

>  <SCORE.INTER.norm>
-1.71683

>  <SCORE.INTRA>
-1.40002

>  <SCORE.INTRA.DIHEDRAL>
-3.63011

>  <SCORE.INTRA.DIHEDRAL.0>
15.5708

>  <SCORE.INTRA.POLAR>
-0.515304

>  <SCORE.INTRA.POLAR.0>
-0.0677885

>  <SCORE.INTRA.REPUL>
0

>  <SCORE.INTRA.REPUL.0>
0

>  <SCORE.INTRA.SOLV>
-1.11438

>  <SCORE.INTRA.SOLV.lig_0>
-87.6316

>  <SCORE.INTRA.VDW>
2.72426

>  <SCORE.INTRA.VDW.0>
-2.87309

>  <SCORE.INTRA.norm>
-0.045162

>  <SCORE.RESTR>
0.00297953

>  <SCORE.RESTR.CAVITY>
0.00297953

>  <SCORE.RESTR.norm>
9.6114e-05

>  <SCORE.SYSTEM>
0

>  <SCORE.SYSTEM.CONST>
0

>  <SCORE.SYSTEM.DIHEDRAL>
0

>  <SCORE.SYSTEM.SOLV>
0

>  <SCORE.SYSTEM.norm>
0

>  <SCORE.heavy>
31

>  <SCORE.norm>
-1.76189

>  <SYMMETRIC_BONDS>
33 34 3

>  <RMSD>
2.291

$$$$
1fmn_cryst
 OpenBabel11021811393D
libRbt.so/2013.1/901 2013/11/27
 31 33  0  0  0  0  0  0  0  0999 V2000
   -8.9982   -6.1441    3.5392 N   0  0  0  0  0  0  0  0  0  0  0  0
   -9.6787   -6.2230    4.7317 C   0  0  0  0  0  0  0  0  0  0  0  0
   -9.2210   -6.8210    5.7061 O   0  0  0  0  0  0  0  0  0  0  0  0
  -10.9404   -5.5776    4.7659 N   0  0  0  0  0  0  0  0  0  0  0  0
  -11.5571   -4.8734    3.7085 C   0  0  0  0  0  0  0  0  0  0  0  0
  -12.6673   -4.3531    3.8763 O   0  0  0  0  0  0  0  0  0  0  0  0
  -10.7698   -4.8358    2.4740 C   0  0  0  0  0  0  0  0  0  0  0  0
  -11.2999   -4.1693    1.3975 N   0  0  0  0  0  0  0  0  0  0  0  0
  -10.6530   -4.2883    0.2017 C   0  0  0  0  0  0  0  0  0  0  0  0
  -11.2752   -3.7769   -0.9233 C   0  0  0  0  0  0  0  0  0  0  0  0
  -10.6922   -3.8589   -2.1418 C   0  0  0  0  0  0  0  0  0  0  0  0
  -11.4057   -3.2874   -3.3253 C   0  0  0  0  0  0  0  0  0  0  0  0
   -9.4758   -4.4516   -2.2834 C   0  0  0  0  0  0  0  0  0  0  0  0
   -8.8426   -4.5439   -3.6334 C   0  0  0  0  0  0  0  0  0  0  0  0
   -8.8275   -4.9668   -1.2076 C   0  0  0  0  0  0  0  0  0  0  0  0
   -9.3844   -4.9078    0.0698 C   0  0  0  0  0  0  0  0  0  0  0  0
   -8.7644   -5.4192    1.2291 N   0  0  0  0  0  0  0  0  0  0  0  0
   -9.4834   -5.4910    2.4399 C   0  0  0  0  0  0  0  0  0  0  0  0
   -7.2598   -5.3413    1.3212 C   0  0  0  0  0  0  0  0  0  0  0  0
   -6.4601   -6.0074    0.1606 C   0  0  1  0  0  0  0  0  0  0  0  0
   -6.2594   -5.0759   -0.8930 O   0  0  0  0  0  0  0  0  0  0  0  0
   -5.1340   -6.6546    0.6261 C   0  0  1  0  0  0  0  0  0  0  0  0
   -4.1404   -6.5269   -0.3868 O   0  0  0  0  0  0  0  0  0  0  0  0
   -4.5638   -6.1833    1.9865 C   0  0  1  0  0  0  0  0  0  0  0  0
   -3.3715   -6.9142    2.2514 O   0  0  0  0  0  0  0  0  0  0  0  0
   -4.2376   -4.6731    2.0124 C   0  0  0  0  0  0  0  0  0  0  0  0
   -4.1247   -4.1643    3.3362 O   0  0  0  0  0  0  0  0  0  0  0  0
   -2.8079   -4.3197    4.2041 P   0  0  0  0  0  0  0  0  0  0  0  0
   -2.4179   -5.7430    4.3227 O   0  0  0  0  0  0  0  0  0  0  0  0
   -1.7857   -3.3385    3.7807 O   0  5  0  0  0  0  0  0  0  0  0  0
   -3.2650   -3.8815    5.6649 O   0  5  0  0  0  0  0  0  0  0  0  0
  1 18  1  0  0  0  0
  1  2  1  0  0  0  0
  2  4  1  0  0  0  0
  2  3  2  0  0  0  0
  4  5  1  0  0  0  0
  5  7  1  0  0  0  0
  5  6  2  0  0  0  0
  7 18  2  0  0  0  0
  7  8  1  0  0  0  0
  8  9  1  0  0  0  0
  9 10  2  0  0  0  0
  9 16  1  0  0  0  0
 10 11  1  0  0  0  0
 11 12  1  0  0  0  0
 11 13  2  0  0  0  0
 13 14  1  0  0  0  0
 13 15  1  0  0  0  0
 15 16  2  0  0  0  0
 16 17  1  0  0  0  0
 17 19  1  0  0  0  0
 17 18  1  0  0  0  0
 20 19  1  1  0  0  0
 20 22  1  0  0  0  0
 20 21  1  0  0  0  0
 22 24  1  0  0  0  0
 22 23  1  6  0  0  0
 24 26  1  6  0  0  0
 24 25  1  0  0  0  0
 26 27  1  0  0  0  0
 27 28  1  0  0  0  0
 28 30  1  0  0  0  0
 28 29  2  0  0  0  0
 28 31  1  0  0  0  0
M  CHG  2  30  -1  31  -1
M  END
>  <CHROM.1>
-56.22503318,88.40658706,-145.70739859,43.70959113,178.48157131,-56.16920763
161.39282579,-169.23625289,81.29790092,-55.83478577,-7.38019581,-5.04065386
1.75088583,2.70689309,0.02614911,-1.48664169

>  <Name>
1fmn_cryst

>  <RI>
0

>  <Rbt.Current_Directory>
/home/itssahil/PROJECTS/Mol_Feturizer/New_Systems/rnas/1fmn

>  <Rbt.Executable>
rbdock ($Id: //depot/dev/client3/rdock/2013.1/src/exe/rbdock.cxx#4 $)

>  <Rbt.Library>
libRbt.so (2013.1, Build901 2013/11/27)

>  <Rbt.Parameter_File>
/export/apps/rDock/src/rDock_2013.1_src/data/scripts/dock_solv.prm

>  <Rbt.Receptor>
prm/pocket_docking_7.prm

>  <SCORE>
-64.497

>  <SCORE.INTER>
-62.5921

>  <SCORE.INTER.CONST>
1

>  <SCORE.INTER.POLAR>
-4.95432

>  <SCORE.INTER.ROT>
7

>  <SCORE.INTER.SOLV>
20.0431

>  <SCORE.INTER.VDW>
-40.1614

>  <SCORE.INTER.norm>
-2.0191

>  <SCORE.INTRA>
-1.9049

>  <SCORE.INTRA.DIHEDRAL>
-3.42459

>  <SCORE.INTRA.DIHEDRAL.0>
15.5708

>  <SCORE.INTRA.POLAR>
-1.08182

>  <SCORE.INTRA.POLAR.0>
-0.0677885

>  <SCORE.INTRA.REPUL>
0

>  <SCORE.INTRA.REPUL.0>
0

>  <SCORE.INTRA.SOLV>
-0.405564

>  <SCORE.INTRA.SOLV.lig_0>
-87.6316

>  <SCORE.INTRA.VDW>
3.68835

>  <SCORE.INTRA.VDW.0>
-2.87309

>  <SCORE.INTRA.norm>
-0.0614483

>  <SCORE.RESTR>
0

>  <SCORE.RESTR.CAVITY>
0

>  <SCORE.RESTR.norm>
0

>  <SCORE.SYSTEM>
0

>  <SCORE.SYSTEM.CONST>
0

>  <SCORE.SYSTEM.DIHEDRAL>
0

>  <SCORE.SYSTEM.SOLV>
0

>  <SCORE.SYSTEM.norm>
0

>  <SCORE.heavy>
31

>  <SCORE.norm>
-2.08055

>  <SYMMETRIC_BONDS>
33 34 3

>  <RMSD>
2.293

$$$$
1fmn_cryst
 OpenBabel11021811393D
libRbt.so/2013.1/901 2013/11/27
 31 33  0  0  0  0  0  0  0  0999 V2000
   -8.8487   -6.1965    3.2644 N   0  0  0  0  0  0  0  0  0  0  0  0
   -9.6385   -6.1844    4.3903 C   0  0  0  0  0  0  0  0  0  0  0  0
   -9.3101   -6.7670    5.4243 O   0  0  0  0  0  0  0  0  0  0  0  0
  -10.8546   -5.4640    4.2830 N   0  0  0  0  0  0  0  0  0  0  0  0
  -11.3268   -4.7694    3.1477 C   0  0  0  0  0  0  0  0  0  0  0  0
  -12.4125   -4.1772    3.1920 O   0  0  0  0  0  0  0  0  0  0  0  0
  -10.4297   -4.8308    1.9916 C   0  0  0  0  0  0  0  0  0  0  0  0
  -10.8165   -4.1798    0.8467 N   0  0  0  0  0  0  0  0  0  0  0  0
  -10.0723   -4.3875   -0.2783 C   0  0  0  0  0  0  0  0  0  0  0  0
  -10.5561   -3.8876   -1.4744 C   0  0  0  0  0  0  0  0  0  0  0  0
   -9.8711   -4.0555   -2.6293 C   0  0  0  0  0  0  0  0  0  0  0  0
  -10.4363   -3.4928   -3.8943 C   0  0  0  0  0  0  0  0  0  0  0  0
   -8.6867   -4.7252   -2.6350 C   0  0  0  0  0  0  0  0  0  0  0  0
   -7.9405   -4.9119   -3.9158 C   0  0  0  0  0  0  0  0  0  0  0  0
   -8.1729   -5.2324   -1.4854 C   0  0  0  0  0  0  0  0  0  0  0  0
   -8.8388   -5.0865   -0.2685 C   0  0  0  0  0  0  0  0  0  0  0  0
   -8.3604   -5.5848    0.9614 N   0  0  0  0  0  0  0  0  0  0  0  0
   -9.1896   -5.5624    2.1016 C   0  0  0  0  0  0  0  0  0  0  0  0
   -6.8685   -5.5929    1.1907 C   0  0  0  0  0  0  0  0  0  0  0  0
   -6.0537   -6.6655    0.4059 C   0  0  1  0  0  0  0  0  0  0  0  0
   -5.2727   -6.0439   -0.6049 O   0  0  0  0  0  0  0  0  0  0  0  0
   -5.2021   -7.5759    1.3223 C   0  0  1  0  0  0  0  0  0  0  0  0
   -4.8430   -8.7708    0.6347 O   0  0  0  0  0  0  0  0  0  0  0  0
   -3.9458   -6.9417    1.9683 C   0  0  1  0  0  0  0  0  0  0  0  0
   -3.0192   -6.6271    0.9346 O   0  0  0  0  0  0  0  0  0  0  0  0
   -4.2613   -5.6541    2.7623 C   0  0  0  0  0  0  0  0  0  0  0  0
   -3.1402   -5.1824    3.5003 O   0  0  0  0  0  0  0  0  0  0  0  0
   -3.1802   -3.8533    4.3624 P   0  0  0  0  0  0  0  0  0  0  0  0
   -2.1987   -3.9115    5.4693 O   0  0  0  0  0  0  0  0  0  0  0  0
   -3.1882   -2.6629    3.4851 O   0  5  0  0  0  0  0  0  0  0  0  0
   -4.6105   -3.8993    5.0603 O   0  5  0  0  0  0  0  0  0  0  0  0
  1 18  1  0  0  0  0
  1  2  1  0  0  0  0
  2  4  1  0  0  0  0
  2  3  2  0  0  0  0
  4  5  1  0  0  0  0
  5  7  1  0  0  0  0
  5  6  2  0  0  0  0
  7 18  2  0  0  0  0
  7  8  1  0  0  0  0
  8  9  1  0  0  0  0
  9 10  2  0  0  0  0
  9 16  1  0  0  0  0
 10 11  1  0  0  0  0
 11 12  1  0  0  0  0
 11 13  2  0  0  0  0
 13 14  1  0  0  0  0
 13 15  1  0  0  0  0
 15 16  2  0  0  0  0
 16 17  1  0  0  0  0
 17 19  1  0  0  0  0
 17 18  1  0  0  0  0
 20 19  1  1  0  0  0
 20 22  1  0  0  0  0
 20 21  1  0  0  0  0
 22 24  1  0  0  0  0
 22 23  1  6  0  0  0
 24 26  1  6  0  0  0
 24 25  1  0  0  0  0
 26 27  1  0  0  0  0
 27 28  1  0  0  0  0
 28 30  1  0  0  0  0
 28 29  2  0  0  0  0
 28 31  1  0  0  0  0
M  CHG  2  30  -1  31  -1
M  END
>  <CHROM.1>
-73.32353447,109.44693788,161.02188070,-165.70393608,-65.95275134,-64.69554470
171.92876731,-56.23148152,177.95882636,153.64583242,-7.16003471,-5.21926828
1.59125580,2.59039813,0.07982046,-1.61544669

>  <Name>
1fmn_cryst

>  <RI>
0

>  <Rbt.Current_Directory>
/home/itssahil/PROJECTS/Mol_Feturizer/New_Systems/rnas/1fmn

>  <Rbt.Executable>
rbdock ($Id: //depot/dev/client3/rdock/2013.1/src/exe/rbdock.cxx#4 $)

>  <Rbt.Library>
libRbt.so (2013.1, Build901 2013/11/27)

>  <Rbt.Parameter_File>
/export/apps/rDock/src/rDock_2013.1_src/data/scripts/dock_solv.prm

>  <Rbt.Receptor>
prm/pocket_docking_7.prm

>  <SCORE>
-69.4746

>  <SCORE.INTER>
-65.7638

>  <SCORE.INTER.CONST>
1

>  <SCORE.INTER.POLAR>
-5.96939

>  <SCORE.INTER.ROT>
7

>  <SCORE.INTER.SOLV>
23.6192

>  <SCORE.INTER.VDW>
-40.0843

>  <SCORE.INTER.norm>
-2.12141

>  <SCORE.INTRA>
-3.71078

>  <SCORE.INTRA.DIHEDRAL>
-5.47431

>  <SCORE.INTRA.DIHEDRAL.0>
15.5708

>  <SCORE.INTRA.POLAR>
0.0552208

>  <SCORE.INTRA.POLAR.0>
-0.0677885

>  <SCORE.INTRA.REPUL>
0

>  <SCORE.INTRA.REPUL.0>
0

>  <SCORE.INTRA.SOLV>
-4.01356

>  <SCORE.INTRA.SOLV.lig_0>
-87.6316

>  <SCORE.INTRA.VDW>
0.845402

>  <SCORE.INTRA.VDW.0>
-2.87309

>  <SCORE.INTRA.norm>
-0.119703

>  <SCORE.RESTR>
0

>  <SCORE.RESTR.CAVITY>
0

>  <SCORE.RESTR.norm>
0

>  <SCORE.SYSTEM>
0

>  <SCORE.SYSTEM.CONST>
0

>  <SCORE.SYSTEM.DIHEDRAL>
0

>  <SCORE.SYSTEM.SOLV>
0

>  <SCORE.SYSTEM.norm>
0

>  <SCORE.heavy>
31

>  <SCORE.norm>
-2.24112

>  <SYMMETRIC_BONDS>
33 34 3

>  <RMSD>
2.304

$$$$
1fmn_cryst
 OpenBabel11021811393D
libRbt.so/2013.1/901 2013/11/27
 31 33  0  0  0  0  0  0  0  0999 V2000
   -8.8544   -6.1658    3.6121 N   0  0  0  0  0  0  0  0  0  0  0  0
   -9.6343   -6.2246    4.7434 C   0  0  0  0  0  0  0  0  0  0  0  0
   -9.2501   -6.7805    5.7729 O   0  0  0  0  0  0  0  0  0  0  0  0
  -10.9080   -5.6099    4.6472 N   0  0  0  0  0  0  0  0  0  0  0  0
  -11.4456   -4.9543    3.5179 C   0  0  0  0  0  0  0  0  0  0  0  0
  -12.5774   -4.4568    3.5719 O   0  0  0  0  0  0  0  0  0  0  0  0
  -10.5549   -4.9354    2.3554 C   0  0  0  0  0  0  0  0  0  0  0  0
  -11.0038   -4.3159    1.2157 N   0  0  0  0  0  0  0  0  0  0  0  0
  -10.2527   -4.4559    0.0848 C   0  0  0  0  0  0  0  0  0  0  0  0
  -10.7858   -3.9951   -1.1060 C   0  0  0  0  0  0  0  0  0  0  0  0
  -10.0972   -4.1004   -2.2662 C   0  0  0  0  0  0  0  0  0  0  0  0
  -10.7173   -3.5836   -3.5252 C   0  0  0  0  0  0  0  0  0  0  0  0
   -8.8603   -4.6668   -2.2826 C   0  0  0  0  0  0  0  0  0  0  0  0
   -8.1100   -4.7852   -3.5692 C   0  0  0  0  0  0  0  0  0  0  0  0
   -8.2970   -5.1322   -1.1385 C   0  0  0  0  0  0  0  0  0  0  0  0
   -8.9641   -5.0475    0.0834 C   0  0  0  0  0  0  0  0  0  0  0  0
   -8.4363   -5.5073    1.3082 N   0  0  0  0  0  0  0  0  0  0  0  0
   -9.2563   -5.5593    2.4540 C   0  0  0  0  0  0  0  0  0  0  0  0
   -6.9475   -5.3892    1.5272 C   0  0  0  0  0  0  0  0  0  0  0  0
   -6.2028   -6.6957    1.9378 C   0  0  1  0  0  0  0  0  0  0  0  0
   -6.3342   -7.6752    0.9174 O   0  0  0  0  0  0  0  0  0  0  0  0
   -4.7251   -6.4582    2.3302 C   0  0  1  0  0  0  0  0  0  0  0  0
   -3.9409   -6.2037    1.1684 O   0  0  0  0  0  0  0  0  0  0  0  0
   -4.4497   -5.3731    3.4001 C   0  0  1  0  0  0  0  0  0  0  0  0
   -5.2753   -5.6359    4.5294 O   0  0  0  0  0  0  0  0  0  0  0  0
   -2.9747   -5.3402    3.8592 C   0  0  0  0  0  0  0  0  0  0  0  0
   -2.0888   -4.9555    2.8145 O   0  0  0  0  0  0  0  0  0  0  0  0
   -0.5150   -4.9193    2.9961 P   0  0  0  0  0  0  0  0  0  0  0  0
   -0.0053   -6.2321    3.4534 O   0  0  0  0  0  0  0  0  0  0  0  0
    0.1296   -4.2766    1.8306 O   0  5  0  0  0  0  0  0  0  0  0  0
   -0.2995   -3.9290    4.2240 O   0  5  0  0  0  0  0  0  0  0  0  0
  1 18  1  0  0  0  0
  1  2  1  0  0  0  0
  2  4  1  0  0  0  0
  2  3  2  0  0  0  0
  4  5  1  0  0  0  0
  5  7  1  0  0  0  0
  5  6  2  0  0  0  0
  7 18  2  0  0  0  0
  7  8  1  0  0  0  0
  8  9  1  0  0  0  0
  9 10  2  0  0  0  0
  9 16  1  0  0  0  0
 10 11  1  0  0  0  0
 11 12  1  0  0  0  0
 11 13  2  0  0  0  0
 13 14  1  0  0  0  0
 13 15  1  0  0  0  0
 15 16  2  0  0  0  0
 16 17  1  0  0  0  0
 17 19  1  0  0  0  0
 17 18  1  0  0  0  0
 20 19  1  6  0  0  0
 20 22  1  0  0  0  0
 20 21  1  0  0  0  0
 22 24  1  0  0  0  0
 22 23  1  6  0  0  0
 24 26  1  1  0  0  0
 24 25  1  0  0  0  0
 26 27  1  0  0  0  0
 27 28  1  0  0  0  0
 28 30  1  0  0  0  0
 28 29  2  0  0  0  0
 28 31  1  0  0  0  0
M  CHG  2  30  -1  31  -1
M  END
>  <CHROM.1>
-126.64423220,61.43681096,-73.96436970,-62.15143476,51.73379114,-60.33028905
65.26284429,57.67983063,-176.52805316,55.50084053,-6.72267779,-5.28324424
1.87780736,2.88323907,-0.00650871,-1.38455153

>  <Name>
1fmn_cryst

>  <RI>
0

>  <Rbt.Current_Directory>
/home/itssahil/PROJECTS/Mol_Feturizer/New_Systems/rnas/1fmn

>  <Rbt.Executable>
rbdock ($Id: //depot/dev/client3/rdock/2013.1/src/exe/rbdock.cxx#4 $)

>  <Rbt.Library>
libRbt.so (2013.1, Build901 2013/11/27)

>  <Rbt.Parameter_File>
/export/apps/rDock/src/rDock_2013.1_src/data/scripts/dock_solv.prm

>  <Rbt.Receptor>
prm/pocket_docking_7.prm

>  <SCORE>
-57.8341

>  <SCORE.INTER>
-50.6046

>  <SCORE.INTER.CONST>
1

>  <SCORE.INTER.POLAR>
-2.87259

>  <SCORE.INTER.ROT>
7

>  <SCORE.INTER.SOLV>
15.5522

>  <SCORE.INTER.VDW>
-37.6118

>  <SCORE.INTER.norm>
-1.63241

>  <SCORE.INTRA>
-7.22951

>  <SCORE.INTRA.DIHEDRAL>
-12.0452

>  <SCORE.INTRA.DIHEDRAL.0>
15.5708

>  <SCORE.INTRA.POLAR>
0.0668041

>  <SCORE.INTRA.POLAR.0>
-0.0677885

>  <SCORE.INTRA.REPUL>
0

>  <SCORE.INTRA.REPUL.0>
0

>  <SCORE.INTRA.SOLV>
-4.1039

>  <SCORE.INTRA.SOLV.lig_0>
-87.6316

>  <SCORE.INTRA.VDW>
0.617906

>  <SCORE.INTRA.VDW.0>
-2.87309

>  <SCORE.INTRA.norm>
-0.23321

>  <SCORE.RESTR>
0

>  <SCORE.RESTR.CAVITY>
0

>  <SCORE.RESTR.norm>
0

>  <SCORE.SYSTEM>
0

>  <SCORE.SYSTEM.CONST>
0

>  <SCORE.SYSTEM.DIHEDRAL>
0

>  <SCORE.SYSTEM.SOLV>
0

>  <SCORE.SYSTEM.norm>
0

>  <SCORE.heavy>
31

>  <SCORE.norm>
-1.86562

>  <SYMMETRIC_BONDS>
33 34 3

>  <RMSD>
2.304

$$$$
1fmn_cryst
 OpenBabel11021811393D
libRbt.so/2013.1/901 2013/11/27
 31 33  0  0  0  0  0  0  0  0999 V2000
   -8.4776   -6.1979    3.5639 N   0  0  0  0  0  0  0  0  0  0  0  0
   -9.3350   -6.2486    4.6381 C   0  0  0  0  0  0  0  0  0  0  0  0
   -9.0038   -6.7462    5.7147 O   0  0  0  0  0  0  0  0  0  0  0  0
  -10.6234   -5.6969    4.4255 N   0  0  0  0  0  0  0  0  0  0  0  0
  -11.1045   -5.1106    3.2343 C   0  0  0  0  0  0  0  0  0  0  0  0
  -12.2574   -4.6637    3.1864 O   0  0  0  0  0  0  0  0  0  0  0  0
  -10.1327   -5.0959    2.1386 C   0  0  0  0  0  0  0  0  0  0  0  0
  -10.5230   -4.5421    0.9448 N   0  0  0  0  0  0  0  0  0  0  0  0
   -9.6859   -4.6911   -0.1227 C   0  0  0  0  0  0  0  0  0  0  0  0
  -10.1496   -4.3015   -1.3667 C   0  0  0  0  0  0  0  0  0  0  0  0
   -9.3740   -4.4198   -2.4694 C   0  0  0  0  0  0  0  0  0  0  0  0
   -9.9218   -3.9810   -3.7899 C   0  0  0  0  0  0  0  0  0  0  0  0
   -8.1162   -4.9294   -2.3737 C   0  0  0  0  0  0  0  0  0  0  0  0
   -7.2694   -5.0629   -3.5973 C   0  0  0  0  0  0  0  0  0  0  0  0
   -7.6187   -5.3240   -1.1739 C   0  0  0  0  0  0  0  0  0  0  0  0
   -8.3765   -5.2228   -0.0073 C   0  0  0  0  0  0  0  0  0  0  0  0
   -7.9206   -5.6103    1.2702 N   0  0  0  0  0  0  0  0  0  0  0  0
   -8.8192   -5.6555    2.3557 C   0  0  0  0  0  0  0  0  0  0  0  0
   -6.4583   -5.4160    1.5898 C   0  0  0  0  0  0  0  0  0  0  0  0
   -5.6246   -6.7111    1.8305 C   0  0  1  0  0  0  0  0  0  0  0  0
   -6.3888   -7.6551    2.5673 O   0  0  0  0  0  0  0  0  0  0  0  0
   -5.0489   -7.3170    0.5284 C   0  0  1  0  0  0  0  0  0  0  0  0
   -4.9448   -6.3145   -0.4784 O   0  0  0  0  0  0  0  0  0  0  0  0
   -3.7108   -8.0874    0.6456 C   0  0  1  0  0  0  0  0  0  0  0  0
   -2.7186   -7.1925    1.1362 O   0  0  0  0  0  0  0  0  0  0  0  0
   -3.7968   -9.3036    1.5949 C   0  0  0  0  0  0  0  0  0  0  0  0
   -2.5169   -9.8398    1.9085 O   0  0  0  0  0  0  0  0  0  0  0  0
   -2.3142  -11.0236    2.9423 P   0  0  0  0  0  0  0  0  0  0  0  0
   -2.9336  -10.6979    4.2471 O   0  0  0  0  0  0  0  0  0  0  0  0
   -2.6300  -12.3244    2.3137 O   0  5  0  0  0  0  0  0  0  0  0  0
   -0.7442  -11.0287    3.2070 O   0  5  0  0  0  0  0  0  0  0  0  0
  1 18  1  0  0  0  0
  1  2  1  0  0  0  0
  2  4  1  0  0  0  0
  2  3  2  0  0  0  0
  4  5  1  0  0  0  0
  5  7  1  0  0  0  0
  5  6  2  0  0  0  0
  7 18  2  0  0  0  0
  7  8  1  0  0  0  0
  8  9  1  0  0  0  0
  9 10  2  0  0  0  0
  9 16  1  0  0  0  0
 10 11  1  0  0  0  0
 11 12  1  0  0  0  0
 11 13  2  0  0  0  0
 13 14  1  0  0  0  0
 13 15  1  0  0  0  0
 15 16  2  0  0  0  0
 16 17  1  0  0  0  0
 17 19  1  0  0  0  0
 17 18  1  0  0  0  0
 20 19  1  6  0  0  0
 20 22  1  0  0  0  0
 20 21  1  0  0  0  0
 22 24  1  0  0  0  0
 22 23  1  6  0  0  0
 24 26  1  1  0  0  0
 24 25  1  0  0  0  0
 26 27  1  0  0  0  0
 27 28  1  0  0  0  0
 28 30  1  0  0  0  0
 28 29  2  0  0  0  0
 28 31  1  0  0  0  0
M  CHG  2  30  -1  31  -1
M  END
>  <CHROM.1>
-114.85226896,-39.42841243,23.39138628,-175.08783885,-60.25242217,-166.70655769
-168.08085493,58.32795539,175.50157893,-54.36082291,-6.72516493,-6.93518389
1.43889693,2.71205932,0.54002689,-1.21267616

>  <Name>
1fmn_cryst

>  <RI>
0

>  <Rbt.Current_Directory>
/home/itssahil/PROJECTS/Mol_Feturizer/New_Systems/rnas/1fmn

>  <Rbt.Executable>
rbdock ($Id: //depot/dev/client3/rdock/2013.1/src/exe/rbdock.cxx#4 $)

>  <Rbt.Library>
libRbt.so (2013.1, Build901 2013/11/27)

>  <Rbt.Parameter_File>
/export/apps/rDock/src/rDock_2013.1_src/data/scripts/dock_solv.prm

>  <Rbt.Receptor>
prm/pocket_docking_5.prm

>  <SCORE>
-61.4292

>  <SCORE.INTER>
-55.4434

>  <SCORE.INTER.CONST>
1

>  <SCORE.INTER.POLAR>
-3.46818

>  <SCORE.INTER.ROT>
7

>  <SCORE.INTER.SOLV>
18.136

>  <SCORE.INTER.VDW>
-39.7137

>  <SCORE.INTER.norm>
-1.7885

>  <SCORE.INTRA>
-5.98584

>  <SCORE.INTRA.DIHEDRAL>
-6.39698

>  <SCORE.INTRA.DIHEDRAL.0>
15.5708

>  <SCORE.INTRA.POLAR>
-0.59076

>  <SCORE.INTRA.POLAR.0>
-0.0677885

>  <SCORE.INTRA.REPUL>
0

>  <SCORE.INTRA.REPUL.0>
0

>  <SCORE.INTRA.SOLV>
-3.2548

>  <SCORE.INTRA.SOLV.lig_0>
-87.6316

>  <SCORE.INTRA.VDW>
0.848636

>  <SCORE.INTRA.VDW.0>
-2.87309

>  <SCORE.INTRA.norm>
-0.193091

>  <SCORE.RESTR>
0

>  <SCORE.RESTR.CAVITY>
0

>  <SCORE.RESTR.norm>
0

>  <SCORE.SYSTEM>
0

>  <SCORE.SYSTEM.CONST>
0

>  <SCORE.SYSTEM.DIHEDRAL>
0

>  <SCORE.SYSTEM.SOLV>
0

>  <SCORE.SYSTEM.norm>
0

>  <SCORE.heavy>
31

>  <SCORE.norm>
-1.98159

>  <SYMMETRIC_BONDS>
33 34 3

>  <RMSD>
2.305

$$$$
1fmn_cryst
 OpenBabel11021811393D
libRbt.so/2013.1/901 2013/11/27
 31 33  0  0  0  0  0  0  0  0999 V2000
   -9.3040   -6.8948    3.9068 N   0  0  0  0  0  0  0  0  0  0  0  0
  -10.2131   -6.8070    4.9350 C   0  0  0  0  0  0  0  0  0  0  0  0
  -10.1085   -7.4839    5.9584 O   0  0  0  0  0  0  0  0  0  0  0  0
  -11.2789   -5.8930    4.7396 N   0  0  0  0  0  0  0  0  0  0  0  0
  -11.4945   -5.0774    3.6071 C   0  0  0  0  0  0  0  0  0  0  0  0
  -12.4710   -4.3183    3.5683 O   0  0  0  0  0  0  0  0  0  0  0  0
  -10.4843   -5.2300    2.5577 C   0  0  0  0  0  0  0  0  0  0  0  0
  -10.6219   -4.4709    1.4223 N   0  0  0  0  0  0  0  0  0  0  0  0
   -9.7883   -4.7441    0.3768 C   0  0  0  0  0  0  0  0  0  0  0  0
  -10.0384   -4.1156   -0.8302 C   0  0  0  0  0  0  0  0  0  0  0  0
   -9.2529   -4.3384   -1.9094 C   0  0  0  0  0  0  0  0  0  0  0  0
   -9.5646   -3.6314   -3.1898 C   0  0  0  0  0  0  0  0  0  0  0  0
   -8.1965   -5.1919   -1.8263 C   0  0  0  0  0  0  0  0  0  0  0  0
   -7.3386   -5.4373   -3.0246 C   0  0  0  0  0  0  0  0  0  0  0  0
   -7.9124   -5.8302   -0.6625 C   0  0  0  0  0  0  0  0  0  0  0  0
   -8.6902   -5.6352    0.4788 C   0  0  0  0  0  0  0  0  0  0  0  0
   -8.4492   -6.2628    1.7190 N   0  0  0  0  0  0  0  0  0  0  0  0
   -9.3971   -6.1591    2.7576 C   0  0  0  0  0  0  0  0  0  0  0  0
   -7.0161   -6.5259    2.1135 C   0  0  0  0  0  0  0  0  0  0  0  0
   -6.1225   -5.2709    2.3517 C   0  0  1  0  0  0  0  0  0  0  0  0
   -6.4227   -4.6886    3.6121 O   0  0  0  0  0  0  0  0  0  0  0  0
   -4.6110   -5.5582    2.1882 C   0  0  1  0  0  0  0  0  0  0  0  0
   -4.0226   -5.8409    3.4545 O   0  0  0  0  0  0  0  0  0  0  0  0
   -4.2118   -6.6506    1.1658 C   0  0  1  0  0  0  0  0  0  0  0  0
   -4.7175   -6.2772   -0.1112 O   0  0  0  0  0  0  0  0  0  0  0  0
   -2.6826   -6.8449    1.0578 C   0  0  0  0  0  0  0  0  0  0  0  0
   -2.2975   -8.2083    1.1883 O   0  0  0  0  0  0  0  0  0  0  0  0
   -2.5528   -9.0477    2.5080 P   0  0  0  0  0  0  0  0  0  0  0  0
   -1.9888  -10.4110    2.3847 O   0  0  0  0  0  0  0  0  0  0  0  0
   -2.2184   -8.2489    3.7068 O   0  5  0  0  0  0  0  0  0  0  0  0
   -4.1328   -9.2423    2.5315 O   0  5  0  0  0  0  0  0  0  0  0  0
  1 18  1  0  0  0  0
  1  2  1  0  0  0  0
  2  4  1  0  0  0  0
  2  3  2  0  0  0  0
  4  5  1  0  0  0  0
  5  7  1  0  0  0  0
  5  6  2  0  0  0  0
  7 18  2  0  0  0  0
  7  8  1  0  0  0  0
  8  9  1  0  0  0  0
  9 10  2  0  0  0  0
  9 16  1  0  0  0  0
 10 11  1  0  0  0  0
 11 12  1  0  0  0  0
 11 13  2  0  0  0  0
 13 14  1  0  0  0  0
 13 15  1  0  0  0  0
 15 16  2  0  0  0  0
 16 17  1  0  0  0  0
 17 19  1  0  0  0  0
 17 18  1  0  0  0  0
 20 19  1  1  0  0  0
 20 22  1  0  0  0  0
 20 21  1  0  0  0  0
 22 24  1  0  0  0  0
 22 23  1  1  0  0  0
 24 26  1  6  0  0  0
 24 25  1  0  0  0  0
 26 27  1  0  0  0  0
 27 28  1  0  0  0  0
 28 30  1  0  0  0  0
 28 29  2  0  0  0  0
 28 31  1  0  0  0  0
M  CHG  2  30  -1  31  -1
M  END
>  <CHROM.1>
65.00899758,76.73365220,-95.07545541,169.72588309,58.35608155,-60.08330735
129.05967838,-160.77488354,-62.63362613,-177.11748943,-7.02292280,-6.30717025
1.79557772,2.95508029,0.36263529,-1.23729369

>  <Name>
1fmn_cryst

>  <RI>
0

>  <Rbt.Current_Directory>
/home/itssahil/PROJECTS/Mol_Feturizer/New_Systems/rnas/1fmn

>  <Rbt.Executable>
rbdock ($Id: //depot/dev/client3/rdock/2013.1/src/exe/rbdock.cxx#4 $)

>  <Rbt.Library>
libRbt.so (2013.1, Build901 2013/11/27)

>  <Rbt.Parameter_File>
/export/apps/rDock/src/rDock_2013.1_src/data/scripts/dock_solv.prm

>  <Rbt.Receptor>
prm/pocket_docking_3.prm

>  <SCORE>
-52.0985

>  <SCORE.INTER>
-51.9663

>  <SCORE.INTER.CONST>
1

>  <SCORE.INTER.POLAR>
-4.05182

>  <SCORE.INTER.ROT>
7

>  <SCORE.INTER.SOLV>
18.6878

>  <SCORE.INTER.VDW>
-35.6341

>  <SCORE.INTER.norm>
-1.67633

>  <SCORE.INTRA>
-0.136938

>  <SCORE.INTRA.DIHEDRAL>
-2.51313

>  <SCORE.INTRA.DIHEDRAL.0>
15.5708

>  <SCORE.INTRA.POLAR>
0.0677885

>  <SCORE.INTRA.POLAR.0>
-0.0677885

>  <SCORE.INTRA.REPUL>
0

>  <SCORE.INTRA.REPUL.0>
0

>  <SCORE.INTRA.SOLV>
1.73977

>  <SCORE.INTRA.SOLV.lig_0>
-87.6316

>  <SCORE.INTRA.VDW>
0.0192565

>  <SCORE.INTRA.VDW.0>
-2.87309

>  <SCORE.INTRA.norm>
-0.00441737

>  <SCORE.RESTR>
0.004763

>  <SCORE.RESTR.CAVITY>
0.004763

>  <SCORE.RESTR.norm>
0.000153645

>  <SCORE.SYSTEM>
0

>  <SCORE.SYSTEM.CONST>
0

>  <SCORE.SYSTEM.DIHEDRAL>
0

>  <SCORE.SYSTEM.SOLV>
0

>  <SCORE.SYSTEM.norm>
0

>  <SCORE.heavy>
31

>  <SCORE.norm>
-1.6806

>  <SYMMETRIC_BONDS>
33 34 3

>  <RMSD>
2.318

$$$$
1fmn_cryst
 OpenBabel11021811393D
libRbt.so/2013.1/901 2013/11/27
 31 33  0  0  0  0  0  0  0  0999 V2000
   -8.9579   -6.7498    3.6497 N   0  0  0  0  0  0  0  0  0  0  0  0
   -9.7873   -6.6745    4.7442 C   0  0  0  0  0  0  0  0  0  0  0  0
   -9.5875   -7.3390    5.7615 O   0  0  0  0  0  0  0  0  0  0  0  0
  -10.8874   -5.7885    4.6247 N   0  0  0  0  0  0  0  0  0  0  0  0
  -11.2097   -4.9890    3.5062 C   0  0  0  0  0  0  0  0  0  0  0  0
  -12.2050   -4.2543    3.5370 O   0  0  0  0  0  0  0  0  0  0  0  0
  -10.2796   -5.1268    2.3832 C   0  0  0  0  0  0  0  0  0  0  0  0
  -10.5229   -4.3819    1.2561 N   0  0  0  0  0  0  0  0  0  0  0  0
   -9.7655   -4.6445    0.1516 C   0  0  0  0  0  0  0  0  0  0  0  0
  -10.1232   -4.0336   -1.0372 C   0  0  0  0  0  0  0  0  0  0  0  0
   -9.4175   -4.2473   -2.1720 C   0  0  0  0  0  0  0  0  0  0  0  0
   -9.8443   -3.5601   -3.4298 C   0  0  0  0  0  0  0  0  0  0  0  0
   -8.3370   -5.0740   -2.1642 C   0  0  0  0  0  0  0  0  0  0  0  0
   -7.5678   -5.3097   -3.4231 C   0  0  0  0  0  0  0  0  0  0  0  0
   -7.9485   -5.6944   -1.0209 C   0  0  0  0  0  0  0  0  0  0  0  0
   -8.6409   -5.5077    0.1754 C   0  0  0  0  0  0  0  0  0  0  0  0
   -8.2897   -6.1176    1.3979 N   0  0  0  0  0  0  0  0  0  0  0  0
   -9.1574   -6.0273    2.5057 C   0  0  0  0  0  0  0  0  0  0  0  0
   -6.8245   -6.3421    1.6828 C   0  0  0  0  0  0  0  0  0  0  0  0
   -6.0372   -5.1257    2.2579 C   0  0  1  0  0  0  0  0  0  0  0  0
   -6.5663   -4.7542    3.5228 O   0  0  0  0  0  0  0  0  0  0  0  0
   -4.5085   -5.3587    2.3119 C   0  0  1  0  0  0  0  0  0  0  0  0
   -4.1419   -5.9414    3.5591 O   0  0  0  0  0  0  0  0  0  0  0  0
   -3.8810   -6.1652    1.1484 C   0  0  1  0  0  0  0  0  0  0  0  0
   -2.4800   -5.9140    1.1319 O   0  0  0  0  0  0  0  0  0  0  0  0
   -4.1119   -7.6876    1.2771 C   0  0  0  0  0  0  0  0  0  0  0  0
   -3.3579   -8.2639    2.3370 O   0  0  0  0  0  0  0  0  0  0  0  0
   -3.6158   -9.7335    2.8709 P   0  0  0  0  0  0  0  0  0  0  0  0
   -4.5587   -9.7233    4.0124 O   0  0  0  0  0  0  0  0  0  0  0  0
   -3.8753  -10.6586    1.7467 O   0  5  0  0  0  0  0  0  0  0  0  0
   -2.2111  -10.1641    3.4843 O   0  5  0  0  0  0  0  0  0  0  0  0
  1 18  1  0  0  0  0
  1  2  1  0  0  0  0
  2  4  1  0  0  0  0
  2  3  2  0  0  0  0
  4  5  1  0  0  0  0
  5  7  1  0  0  0  0
  5  6  2  0  0  0  0
  7 18  2  0  0  0  0
  7  8  1  0  0  0  0
  8  9  1  0  0  0  0
  9 10  2  0  0  0  0
  9 16  1  0  0  0  0
 10 11  1  0  0  0  0
 11 12  1  0  0  0  0
 11 13  2  0  0  0  0
 13 14  1  0  0  0  0
 13 15  1  0  0  0  0
 15 16  2  0  0  0  0
 16 17  1  0  0  0  0
 17 19  1  0  0  0  0
 17 18  1  0  0  0  0
 20 19  1  1  0  0  0
 20 22  1  0  0  0  0
 20 21  1  0  0  0  0
 22 24  1  0  0  0  0
 22 23  1  1  0  0  0
 24 26  1  1  0  0  0
 24 25  1  0  0  0  0
 26 27  1  0  0  0  0
 27 28  1  0  0  0  0
 28 30  1  0  0  0  0
 28 29  2  0  0  0  0
 28 31  1  0  0  0  0
M  CHG  2  30  -1  31  -1
M  END
>  <CHROM.1>
82.71452720,62.74460138,-89.81137121,54.06733566,161.53918712,-59.65513887
-70.58141491,69.24186094,167.66338355,-92.99964951,-7.09934463,-6.38119049
1.80586372,2.71194130,0.42331458,-1.20591709

>  <Name>
1fmn_cryst

>  <RI>
0

>  <Rbt.Current_Directory>
/home/itssahil/PROJECTS/Mol_Feturizer/New_Systems/rnas/1fmn

>  <Rbt.Executable>
rbdock ($Id: //depot/dev/client3/rdock/2013.1/src/exe/rbdock.cxx#4 $)

>  <Rbt.Library>
libRbt.so (2013.1, Build901 2013/11/27)

>  <Rbt.Parameter_File>
/export/apps/rDock/src/rDock_2013.1_src/data/scripts/dock_solv.prm

>  <Rbt.Receptor>
prm/pocket_docking_3.prm

>  <SCORE>
-54.2754

>  <SCORE.INTER>
-50.1081

>  <SCORE.INTER.CONST>
1

>  <SCORE.INTER.POLAR>
-3.38856

>  <SCORE.INTER.ROT>
7

>  <SCORE.INTER.SOLV>
21.0951

>  <SCORE.INTER.VDW>
-37.4085

>  <SCORE.INTER.norm>
-1.61639

>  <SCORE.INTRA>
-4.17127

>  <SCORE.INTRA.DIHEDRAL>
-7.73896

>  <SCORE.INTRA.DIHEDRAL.0>
15.5708

>  <SCORE.INTRA.POLAR>
0.0300639

>  <SCORE.INTRA.POLAR.0>
-0.0677885

>  <SCORE.INTRA.REPUL>
0

>  <SCORE.INTRA.REPUL.0>
0

>  <SCORE.INTRA.SOLV>
-3.26964

>  <SCORE.INTRA.SOLV.lig_0>
-87.6316

>  <SCORE.INTRA.VDW>
1.23081

>  <SCORE.INTRA.VDW.0>
-2.87309

>  <SCORE.INTRA.norm>
-0.134557

>  <SCORE.RESTR>
0.00391451

>  <SCORE.RESTR.CAVITY>
0.00391451

>  <SCORE.RESTR.norm>
0.000126275

>  <SCORE.SYSTEM>
0

>  <SCORE.SYSTEM.CONST>
0

>  <SCORE.SYSTEM.DIHEDRAL>
0

>  <SCORE.SYSTEM.SOLV>
0

>  <SCORE.SYSTEM.norm>
0

>  <SCORE.heavy>
31

>  <SCORE.norm>
-1.75082

>  <SYMMETRIC_BONDS>
33 34 3

>  <RMSD>
2.325

$$$$
1fmn_cryst
 OpenBabel11021811393D
libRbt.so/2013.1/901 2013/11/27
 31 33  0  0  0  0  0  0  0  0999 V2000
   -9.1345   -6.7639    3.7033 N   0  0  0  0  0  0  0  0  0  0  0  0
   -9.9446   -6.7503    4.8147 C   0  0  0  0  0  0  0  0  0  0  0  0
   -9.6915   -7.4224    5.8150 O   0  0  0  0  0  0  0  0  0  0  0  0
  -11.0896   -5.9186    4.7332 N   0  0  0  0  0  0  0  0  0  0  0  0
  -11.4736   -5.1161    3.6366 C   0  0  0  0  0  0  0  0  0  0  0  0
  -12.5035   -4.4329    3.7004 O   0  0  0  0  0  0  0  0  0  0  0  0
  -10.5605   -5.1865    2.4936 C   0  0  0  0  0  0  0  0  0  0  0  0
  -10.8631   -4.4344    1.3859 N   0  0  0  0  0  0  0  0  0  0  0  0
  -10.1158   -4.6384    0.2623 C   0  0  0  0  0  0  0  0  0  0  0  0
  -10.5273   -4.0248   -0.9075 C   0  0  0  0  0  0  0  0  0  0  0  0
   -9.8347   -4.1821   -2.0595 C   0  0  0  0  0  0  0  0  0  0  0  0
  -10.3203   -3.4943   -3.2955 C   0  0  0  0  0  0  0  0  0  0  0  0
   -8.7144   -4.9535   -2.0882 C   0  0  0  0  0  0  0  0  0  0  0  0
   -7.9597   -5.1273   -3.3658 C   0  0  0  0  0  0  0  0  0  0  0  0
   -8.2726   -5.5743   -0.9647 C   0  0  0  0  0  0  0  0  0  0  0  0
   -8.9494   -5.4444    0.2480 C   0  0  0  0  0  0  0  0  0  0  0  0
   -8.5439   -6.0581    1.4517 N   0  0  0  0  0  0  0  0  0  0  0  0
   -9.3926   -6.0317    2.5773 C   0  0  0  0  0  0  0  0  0  0  0  0
   -7.0639   -6.2139    1.7042 C   0  0  0  0  0  0  0  0  0  0  0  0
   -6.3909   -5.1108    2.5762 C   0  0  1  0  0  0  0  0  0  0  0  0
   -6.6632   -5.3401    3.9514 O   0  0  0  0  0  0  0  0  0  0  0  0
   -4.8763   -4.9547    2.3006 C   0  0  1  0  0  0  0  0  0  0  0  0
   -4.6609   -4.5162    0.9624 O   0  0  0  0  0  0  0  0  0  0  0  0
   -4.0733   -4.0663    3.2823 C   0  0  1  0  0  0  0  0  0  0  0  0
   -4.9295   -3.0327    3.7561 O   0  0  0  0  0  0  0  0  0  0  0  0
   -3.5237   -4.8517    4.4942 C   0  0  0  0  0  0  0  0  0  0  0  0
   -4.5344   -5.1560    5.4481 O   0  0  0  0  0  0  0  0  0  0  0  0
   -4.2493   -6.0017    6.7576 P   0  0  0  0  0  0  0  0  0  0  0  0
   -5.3787   -5.8992    7.7094 O   0  0  0  0  0  0  0  0  0  0  0  0
   -3.7364   -7.3444    6.4096 O   0  5  0  0  0  0  0  0  0  0  0  0
   -3.0400   -5.2307    7.4489 O   0  5  0  0  0  0  0  0  0  0  0  0
  1 18  1  0  0  0  0
  1  2  1  0  0  0  0
  2  4  1  0  0  0  0
  2  3  2  0  0  0  0
  4  5  1  0  0  0  0
  5  7  1  0  0  0  0
  5  6  2  0  0  0  0
  7 18  2  0  0  0  0
  7  8  1  0  0  0  0
  8  9  1  0  0  0  0
  9 10  2  0  0  0  0
  9 16  1  0  0  0  0
 10 11  1  0  0  0  0
 11 12  1  0  0  0  0
 11 13  2  0  0  0  0
 13 14  1  0  0  0  0
 13 15  1  0  0  0  0
 15 16  2  0  0  0  0
 16 17  1  0  0  0  0
 17 19  1  0  0  0  0
 17 18  1  0  0  0  0
 20 19  1  6  0  0  0
 20 22  1  0  0  0  0
 20 21  1  0  0  0  0
 22 24  1  0  0  0  0
 22 23  1  6  0  0  0
 24 26  1  1  0  0  0
 24 25  1  0  0  0  0
 26 27  1  0  0  0  0
 27 28  1  0  0  0  0
 28 30  1  0  0  0  0
 28 29  2  0  0  0  0
 28 31  1  0  0  0  0
M  CHG  2  30  -1  31  -1
M  END
>  <CHROM.1>
96.17456862,78.88056251,63.92793487,75.77741956,-31.96739511,57.56339688
-75.36319475,71.74244774,177.62166364,166.81228056,-7.52553655,-5.29579217
2.84451051,2.25217151,-0.10093802,-1.34846118

>  <Name>
1fmn_cryst

>  <RI>
0

>  <Rbt.Current_Directory>
/home/itssahil/PROJECTS/Mol_Feturizer/New_Systems/rnas/1fmn

>  <Rbt.Executable>
rbdock ($Id: //depot/dev/client3/rdock/2013.1/src/exe/rbdock.cxx#4 $)

>  <Rbt.Library>
libRbt.so (2013.1, Build901 2013/11/27)

>  <Rbt.Parameter_File>
/export/apps/rDock/src/rDock_2013.1_src/data/scripts/dock_solv.prm

>  <Rbt.Receptor>
prm/pocket_docking_6.prm

>  <SCORE>
-63.0832

>  <SCORE.INTER>
-57.2418

>  <SCORE.INTER.CONST>
1

>  <SCORE.INTER.POLAR>
-4.78653

>  <SCORE.INTER.ROT>
7

>  <SCORE.INTER.SOLV>
23.808

>  <SCORE.INTER.VDW>
-38.4087

>  <SCORE.INTER.norm>
-1.84651

>  <SCORE.INTRA>
-5.84138

>  <SCORE.INTRA.DIHEDRAL>
-7.7332

>  <SCORE.INTRA.DIHEDRAL.0>
15.5708

>  <SCORE.INTRA.POLAR>
-0.270131

>  <SCORE.INTRA.POLAR.0>
-0.0677885

>  <SCORE.INTRA.REPUL>
0

>  <SCORE.INTRA.REPUL.0>
0

>  <SCORE.INTRA.SOLV>
-2.16523

>  <SCORE.INTRA.SOLV.lig_0>
-87.6316

>  <SCORE.INTRA.VDW>
0.0262704

>  <SCORE.INTRA.VDW.0>
-2.87309

>  <SCORE.INTRA.norm>
-0.188432

>  <SCORE.RESTR>
0

>  <SCORE.RESTR.CAVITY>
0

>  <SCORE.RESTR.norm>
0

>  <SCORE.SYSTEM>
0

>  <SCORE.SYSTEM.CONST>
0

>  <SCORE.SYSTEM.DIHEDRAL>
0

>  <SCORE.SYSTEM.SOLV>
0

>  <SCORE.SYSTEM.norm>
0

>  <SCORE.heavy>
31

>  <SCORE.norm>
-2.03494

>  <SYMMETRIC_BONDS>
33 34 3

>  <RMSD>
2.332

$$$$
1fmn_cryst
 OpenBabel11021811393D
libRbt.so/2013.1/901 2013/11/27
 31 33  0  0  0  0  0  0  0  0999 V2000
   -8.8507   -6.1846    3.6539 N   0  0  0  0  0  0  0  0  0  0  0  0
   -9.6344   -6.2355    4.7830 C   0  0  0  0  0  0  0  0  0  0  0  0
   -9.2591   -6.7962    5.8132 O   0  0  0  0  0  0  0  0  0  0  0  0
  -10.9010   -5.6069    4.6836 N   0  0  0  0  0  0  0  0  0  0  0  0
  -11.4284   -4.9448    3.5532 C   0  0  0  0  0  0  0  0  0  0  0  0
  -12.5548   -4.4350    3.6044 O   0  0  0  0  0  0  0  0  0  0  0  0
  -10.5343   -4.9350    2.3932 C   0  0  0  0  0  0  0  0  0  0  0  0
  -10.9732   -4.3100    1.2526 N   0  0  0  0  0  0  0  0  0  0  0  0
  -10.2206   -4.4576    0.1237 C   0  0  0  0  0  0  0  0  0  0  0  0
  -10.7453   -3.9903   -1.0682 C   0  0  0  0  0  0  0  0  0  0  0  0
  -10.0548   -4.1024   -2.2266 C   0  0  0  0  0  0  0  0  0  0  0  0
  -10.6657   -3.5782   -3.4870 C   0  0  0  0  0  0  0  0  0  0  0  0
   -8.8241   -4.6823   -2.2400 C   0  0  0  0  0  0  0  0  0  0  0  0
   -8.0716   -4.8081   -3.5245 C   0  0  0  0  0  0  0  0  0  0  0  0
   -8.2691   -5.1545   -1.0946 C   0  0  0  0  0  0  0  0  0  0  0  0
   -8.9386   -5.0631    0.1256 C   0  0  0  0  0  0  0  0  0  0  0  0
   -8.4192   -5.5293    1.3515 N   0  0  0  0  0  0  0  0  0  0  0  0
   -9.2428   -5.5730    2.4951 C   0  0  0  0  0  0  0  0  0  0  0  0
   -6.9298   -5.4277    1.5746 C   0  0  0  0  0  0  0  0  0  0  0  0
   -6.1642   -6.7732    1.7580 C   0  0  1  0  0  0  0  0  0  0  0  0
   -6.1804   -7.5145    0.5463 O   0  0  0  0  0  0  0  0  0  0  0  0
   -4.7301   -6.5891    2.3088 C   0  0  1  0  0  0  0  0  0  0  0  0
   -4.1091   -7.8566    2.5018 O   0  0  0  0  0  0  0  0  0  0  0  0
   -3.7869   -5.6561    1.5102 C   0  0  1  0  0  0  0  0  0  0  0  0
   -4.3322   -4.3415    1.5307 O   0  0  0  0  0  0  0  0  0  0  0  0
   -2.3545   -5.6095    2.0878 C   0  0  0  0  0  0  0  0  0  0  0  0
   -1.6233   -6.8012    1.8244 O   0  0  0  0  0  0  0  0  0  0  0  0
   -0.1884   -7.0785    2.4370 P   0  0  0  0  0  0  0  0  0  0  0  0
   -0.2064   -6.9372    3.9107 O   0  0  0  0  0  0  0  0  0  0  0  0
    0.4015   -8.3012    1.8502 O   0  5  0  0  0  0  0  0  0  0  0  0
    0.6907   -5.8626    1.9044 O   0  5  0  0  0  0  0  0  0  0  0  0
  1 18  1  0  0  0  0
  1  2  1  0  0  0  0
  2  4  1  0  0  0  0
  2  3  2  0  0  0  0
  4  5  1  0  0  0  0
  5  7  1  0  0  0  0
  5  6  2  0  0  0  0
  7 18  2  0  0  0  0
  7  8  1  0  0  0  0
  8  9  1  0  0  0  0
  9 10  2  0  0  0  0
  9 16  1  0  0  0  0
 10 11  1  0  0  0  0
 11 12  1  0  0  0  0
 11 13  2  0  0  0  0
 13 14  1  0  0  0  0
 13 15  1  0  0  0  0
 15 16  2  0  0  0  0
 16 17  1  0  0  0  0
 17 19  1  0  0  0  0
 17 18  1  0  0  0  0
 20 19  1  6  0  0  0
 20 22  1  0  0  0  0
 20 21  1  0  0  0  0
 22 24  1  0  0  0  0
 22 23  1  6  0  0  0
 24 26  1  1  0  0  0
 24 25  1  0  0  0  0
 26 27  1  0  0  0  0
 27 28  1  0  0  0  0
 28 30  1  0  0  0  0
 28 29  2  0  0  0  0
 28 31  1  0  0  0  0
M  CHG  2  30  -1  31  -1
M  END
>  <CHROM.1>
-117.05811217,67.24628205,177.68748004,-178.94630388,63.09112176,-60.05066686
73.26049406,58.70191453,-173.25331087,53.86427275,-6.55925283,-5.76031832
1.57761188,2.96093234,0.17874383,-1.32818709

>  <Name>
1fmn_cryst

>  <RI>
0

>  <Rbt.Current_Directory>
/home/itssahil/PROJECTS/Mol_Feturizer/New_Systems/rnas/1fmn

>  <Rbt.Executable>
rbdock ($Id: //depot/dev/client3/rdock/2013.1/src/exe/rbdock.cxx#4 $)

>  <Rbt.Library>
libRbt.so (2013.1, Build901 2013/11/27)

>  <Rbt.Parameter_File>
/export/apps/rDock/src/rDock_2013.1_src/data/scripts/dock_solv.prm

>  <Rbt.Receptor>
prm/pocket_docking_5.prm

>  <SCORE>
-53.5219

>  <SCORE.INTER>
-46.7661

>  <SCORE.INTER.CONST>
1

>  <SCORE.INTER.POLAR>
-2.11383

>  <SCORE.INTER.ROT>
7

>  <SCORE.INTER.SOLV>
15.981

>  <SCORE.INTER.VDW>
-37.725

>  <SCORE.INTER.norm>
-1.50859

>  <SCORE.INTRA>
-6.75578

>  <SCORE.INTRA.DIHEDRAL>
-11.8551

>  <SCORE.INTRA.DIHEDRAL.0>
15.5708

>  <SCORE.INTRA.POLAR>
0.0677885

>  <SCORE.INTRA.POLAR.0>
-0.0677885

>  <SCORE.INTRA.REPUL>
0.0112777

>  <SCORE.INTRA.REPUL.0>
0

>  <SCORE.INTRA.SOLV>
-4.14529

>  <SCORE.INTRA.SOLV.lig_0>
-87.6316

>  <SCORE.INTRA.VDW>
0.957543

>  <SCORE.INTRA.VDW.0>
-2.87309

>  <SCORE.INTRA.norm>
-0.217928

>  <SCORE.RESTR>
0

>  <SCORE.RESTR.CAVITY>
0

>  <SCORE.RESTR.norm>
0

>  <SCORE.SYSTEM>
0

>  <SCORE.SYSTEM.CONST>
0

>  <SCORE.SYSTEM.DIHEDRAL>
0

>  <SCORE.SYSTEM.SOLV>
0

>  <SCORE.SYSTEM.norm>
0

>  <SCORE.heavy>
31

>  <SCORE.norm>
-1.72651

>  <SYMMETRIC_BONDS>
33 34 3

>  <RMSD>
2.338

$$$$
1fmn_cryst
 OpenBabel11021811393D
libRbt.so/2013.1/901 2013/11/27
 31 33  0  0  0  0  0  0  0  0999 V2000
   -6.3774   -7.7845    3.3664 N   0  0  0  0  0  0  0  0  0  0  0  0
   -6.5804   -8.1965    4.6628 C   0  0  0  0  0  0  0  0  0  0  0  0
   -5.7950   -8.9501    5.2387 O   0  0  0  0  0  0  0  0  0  0  0  0
   -7.7517   -7.7031    5.2906 N   0  0  0  0  0  0  0  0  0  0  0  0
   -8.7164   -6.8434    4.7210 C   0  0  0  0  0  0  0  0  0  0  0  0
   -9.6969   -6.4865    5.3863 O   0  0  0  0  0  0  0  0  0  0  0  0
   -8.4286   -6.4515    3.3394 C   0  0  0  0  0  0  0  0  0  0  0  0
   -9.3192   -5.6156    2.7130 N   0  0  0  0  0  0  0  0  0  0  0  0
   -9.1465   -5.3982    1.3768 C   0  0  0  0  0  0  0  0  0  0  0  0
  -10.1387   -4.7107    0.7005 C   0  0  0  0  0  0  0  0  0  0  0  0
  -10.0343   -4.4585   -0.6249 C   0  0  0  0  0  0  0  0  0  0  0  0
  -11.1334   -3.7087   -1.3077 C   0  0  0  0  0  0  0  0  0  0  0  0
   -8.9446   -4.8811   -1.3213 C   0  0  0  0  0  0  0  0  0  0  0  0
   -8.8407   -4.6043   -2.7858 C   0  0  0  0  0  0  0  0  0  0  0  0
   -7.9459   -5.5585   -0.6996 C   0  0  0  0  0  0  0  0  0  0  0  0
   -8.0044   -5.8437    0.6645 C   0  0  0  0  0  0  0  0  0  0  0  0
   -7.0018   -6.5391    1.3725 N   0  0  0  0  0  0  0  0  0  0  0  0
   -7.2342   -6.9520    2.7005 C   0  0  0  0  0  0  0  0  0  0  0  0
   -5.5665   -6.3357    0.9520 C   0  0  0  0  0  0  0  0  0  0  0  0
   -4.7108   -5.3887    1.8471 C   0  0  1  0  0  0  0  0  0  0  0  0
   -5.5377   -4.3990    2.4428 O   0  0  0  0  0  0  0  0  0  0  0  0
   -3.8596   -6.1442    2.8954 C   0  0  1  0  0  0  0  0  0  0  0  0
   -2.6736   -6.6542    2.2930 O   0  0  0  0  0  0  0  0  0  0  0  0
   -3.5043   -5.3783    4.1934 C   0  0  1  0  0  0  0  0  0  0  0  0
   -4.7095   -5.1120    4.9022 O   0  0  0  0  0  0  0  0  0  0  0  0
   -2.5485   -6.1674    5.1162 C   0  0  0  0  0  0  0  0  0  0  0  0
   -3.0893   -7.4218    5.5137 O   0  0  0  0  0  0  0  0  0  0  0  0
   -2.2916   -8.4507    6.4171 P   0  0  0  0  0  0  0  0  0  0  0  0
   -1.0168   -8.8417    5.7735 O   0  0  0  0  0  0  0  0  0  0  0  0
   -2.2641   -7.9968    7.8243 O   0  5  0  0  0  0  0  0  0  0  0  0
   -3.1992   -9.7586    6.3908 O   0  5  0  0  0  0  0  0  0  0  0  0
  1 18  1  0  0  0  0
  1  2  1  0  0  0  0
  2  4  1  0  0  0  0
  2  3  2  0  0  0  0
  4  5  1  0  0  0  0
  5  7  1  0  0  0  0
  5  6  2  0  0  0  0
  7 18  2  0  0  0  0
  7  8  1  0  0  0  0
  8  9  1  0  0  0  0
  9 10  2  0  0  0  0
  9 16  1  0  0  0  0
 10 11  1  0  0  0  0
 11 12  1  0  0  0  0
 11 13  2  0  0  0  0
 13 14  1  0  0  0  0
 13 15  1  0  0  0  0
 15 16  2  0  0  0  0
 16 17  1  0  0  0  0
 17 19  1  0  0  0  0
 17 18  1  0  0  0  0
 20 19  1  1  0  0  0
 20 22  1  0  0  0  0
 20 21  1  0  0  0  0
 22 24  1  0  0  0  0
 22 23  1  6  0  0  0
 24 26  1  1  0  0  0
 24 25  1  0  0  0  0
 26 27  1  0  0  0  0
 27 28  1  0  0  0  0
 28 30  1  0  0  0  0
 28 29  2  0  0  0  0
 28 31  1  0  0  0  0
M  CHG  2  30  -1  31  -1
M  END
>  <CHROM.1>
102.44372451,-29.89566926,80.66387607,73.91772850,64.61713931,62.58775049
-59.01430580,59.35545312,177.69524234,-58.65271127,-6.03699438,-6.53038231
3.19620374,0.80493876,-0.02358127,2.01925862

>  <Name>
1fmn_cryst

>  <RI>
0

>  <Rbt.Current_Directory>
/home/itssahil/PROJECTS/Mol_Feturizer/New_Systems/rnas/1fmn

>  <Rbt.Executable>
rbdock ($Id: //depot/dev/client3/rdock/2013.1/src/exe/rbdock.cxx#4 $)

>  <Rbt.Library>
libRbt.so (2013.1, Build901 2013/11/27)

>  <Rbt.Parameter_File>
/export/apps/rDock/src/rDock_2013.1_src/data/scripts/dock_solv.prm

>  <Rbt.Receptor>
prm/pocket_docking_8.prm

>  <SCORE>
-46.1883

>  <SCORE.INTER>
-39.493

>  <SCORE.INTER.CONST>
1

>  <SCORE.INTER.POLAR>
-2.42953

>  <SCORE.INTER.ROT>
7

>  <SCORE.INTER.SOLV>
12.7558

>  <SCORE.INTER.VDW>
-30.7489

>  <SCORE.INTER.norm>
-1.27397

>  <SCORE.INTRA>
-6.6953

>  <SCORE.INTRA.DIHEDRAL>
-8.69797

>  <SCORE.INTRA.DIHEDRAL.0>
15.5708

>  <SCORE.INTRA.POLAR>
0.0136508

>  <SCORE.INTRA.POLAR.0>
-0.0677885

>  <SCORE.INTRA.REPUL>
0

>  <SCORE.INTRA.REPUL.0>
0

>  <SCORE.INTRA.SOLV>
-0.855836

>  <SCORE.INTRA.SOLV.lig_0>
-87.6316

>  <SCORE.INTRA.VDW>
-1.96481

>  <SCORE.INTRA.VDW.0>
-2.87309

>  <SCORE.INTRA.norm>
-0.215977

>  <SCORE.RESTR>
0

>  <SCORE.RESTR.CAVITY>
0

>  <SCORE.RESTR.norm>
0

>  <SCORE.SYSTEM>
0

>  <SCORE.SYSTEM.CONST>
0

>  <SCORE.SYSTEM.DIHEDRAL>
0

>  <SCORE.SYSTEM.SOLV>
0

>  <SCORE.SYSTEM.norm>
0

>  <SCORE.heavy>
31

>  <SCORE.norm>
-1.48995

>  <SYMMETRIC_BONDS>
33 34 3

>  <RMSD>
2.338

$$$$
1fmn_cryst
 OpenBabel11021811393D
libRbt.so/2013.1/901 2013/11/27
 31 33  0  0  0  0  0  0  0  0999 V2000
   -8.7037   -6.7730    3.7063 N   0  0  0  0  0  0  0  0  0  0  0  0
   -9.5757   -6.6747    4.7653 C   0  0  0  0  0  0  0  0  0  0  0  0
   -9.4131   -7.3124    5.8061 O   0  0  0  0  0  0  0  0  0  0  0  0
  -10.6742   -5.7980    4.5804 N   0  0  0  0  0  0  0  0  0  0  0  0
  -10.9558   -5.0286    3.4302 C   0  0  0  0  0  0  0  0  0  0  0  0
  -11.9547   -4.2987    3.4034 O   0  0  0  0  0  0  0  0  0  0  0  0
   -9.9817   -5.1895    2.3484 C   0  0  0  0  0  0  0  0  0  0  0  0
  -10.1838   -4.4745    1.1942 N   0  0  0  0  0  0  0  0  0  0  0  0
   -9.3825   -4.7606    0.1271 C   0  0  0  0  0  0  0  0  0  0  0  0
   -9.6960   -4.1818   -1.0899 C   0  0  0  0  0  0  0  0  0  0  0  0
   -8.9454   -4.4201   -2.1904 C   0  0  0  0  0  0  0  0  0  0  0  0
   -9.3254   -3.7670   -3.4809 C   0  0  0  0  0  0  0  0  0  0  0  0
   -7.8623   -5.2405   -2.1193 C   0  0  0  0  0  0  0  0  0  0  0  0
   -7.0433   -5.5036   -3.3408 C   0  0  0  0  0  0  0  0  0  0  0  0
   -7.5163   -5.8299   -0.9464 C   0  0  0  0  0  0  0  0  0  0  0  0
   -8.2560   -5.6169    0.2168 C   0  0  0  0  0  0  0  0  0  0  0  0
   -7.9504   -6.1940    1.4672 N   0  0  0  0  0  0  0  0  0  0  0  0
   -8.8612   -6.0806    2.5374 C   0  0  0  0  0  0  0  0  0  0  0  0
   -6.4965   -6.4034    1.8148 C   0  0  0  0  0  0  0  0  0  0  0  0
   -5.5843   -5.1402    1.7646 C   0  0  1  0  0  0  0  0  0  0  0  0
   -5.8253   -4.3173    2.8971 O   0  0  0  0  0  0  0  0  0  0  0  0
   -4.0834   -5.4777    1.5988 C   0  0  1  0  0  0  0  0  0  0  0  0
   -3.8554   -6.1086    0.3420 O   0  0  0  0  0  0  0  0  0  0  0  0
   -3.0780   -4.3166    1.7959 C   0  0  1  0  0  0  0  0  0  0  0  0
   -3.6079   -3.1525    1.1713 O   0  0  0  0  0  0  0  0  0  0  0  0
   -2.8048   -4.0020    3.2838 C   0  0  0  0  0  0  0  0  0  0  0  0
   -1.6013   -4.5983    3.7532 O   0  0  0  0  0  0  0  0  0  0  0  0
   -1.4124   -6.1672    3.8715 P   0  0  0  0  0  0  0  0  0  0  0  0
   -1.6059   -6.8235    2.5585 O   0  0  0  0  0  0  0  0  0  0  0  0
   -0.1977   -6.4886    4.6514 O   0  5  0  0  0  0  0  0  0  0  0  0
   -2.6473   -6.6298    4.7636 O   0  5  0  0  0  0  0  0  0  0  0  0
  1 18  1  0  0  0  0
  1  2  1  0  0  0  0
  2  4  1  0  0  0  0
  2  3  2  0  0  0  0
  4  5  1  0  0  0  0
  5  7  1  0  0  0  0
  5  6  2  0  0  0  0
  7 18  2  0  0  0  0
  7  8  1  0  0  0  0
  8  9  1  0  0  0  0
  9 10  2  0  0  0  0
  9 16  1  0  0  0  0
 10 11  1  0  0  0  0
 11 12  1  0  0  0  0
 11 13  2  0  0  0  0
 13 14  1  0  0  0  0
 13 15  1  0  0  0  0
 15 16  2  0  0  0  0
 16 17  1  0  0  0  0
 17 19  1  0  0  0  0
 17 18  1  0  0  0  0
 20 19  1  1  0  0  0
 20 22  1  0  0  0  0
 20 21  1  0  0  0  0
 22 24  1  0  0  0  0
 22 23  1  6  0  0  0
 24 26  1  1  0  0  0
 24 25  1  0  0  0  0
 26 27  1  0  0  0  0
 27 28  1  0  0  0  0
 28 30  1  0  0  0  0
 28 29  2  0  0  0  0
 28 31  1  0  0  0  0
M  CHG  2  30  -1  31  -1
M  END
>  <CHROM.1>
56.06541224,75.33210414,64.33506328,62.74532432,-41.32592718,-170.96263725
98.64863276,-177.47170778,-66.10432541,58.52545128,-6.38928415,-5.41174897
1.92303977,2.82925707,0.00619240,-1.34637605

>  <Name>
1fmn_cryst

>  <RI>
0

>  <Rbt.Current_Directory>
/home/itssahil/PROJECTS/Mol_Feturizer/New_Systems/rnas/1fmn

>  <Rbt.Executable>
rbdock ($Id: //depot/dev/client3/rdock/2013.1/src/exe/rbdock.cxx#4 $)

>  <Rbt.Library>
libRbt.so (2013.1, Build901 2013/11/27)

>  <Rbt.Parameter_File>
/export/apps/rDock/src/rDock_2013.1_src/data/scripts/dock_solv.prm

>  <Rbt.Receptor>
prm/pocket_docking_6.prm

>  <SCORE>
-50.2656

>  <SCORE.INTER>
-46.7004

>  <SCORE.INTER.CONST>
1

>  <SCORE.INTER.POLAR>
-2.67875

>  <SCORE.INTER.ROT>
7

>  <SCORE.INTER.SOLV>
18.2226

>  <SCORE.INTER.VDW>
-36.5453

>  <SCORE.INTER.norm>
-1.50646

>  <SCORE.INTRA>
-3.5652

>  <SCORE.INTRA.DIHEDRAL>
-7.38433

>  <SCORE.INTRA.DIHEDRAL.0>
15.5708

>  <SCORE.INTRA.POLAR>
0.0677885

>  <SCORE.INTRA.POLAR.0>
-0.0677885

>  <SCORE.INTRA.REPUL>
0

>  <SCORE.INTRA.REPUL.0>
0

>  <SCORE.INTRA.SOLV>
0.65162

>  <SCORE.INTRA.SOLV.lig_0>
-87.6316

>  <SCORE.INTRA.VDW>
-0.429326

>  <SCORE.INTRA.VDW.0>
-2.87309

>  <SCORE.INTRA.norm>
-0.115006

>  <SCORE.RESTR>
0

>  <SCORE.RESTR.CAVITY>
0

>  <SCORE.RESTR.norm>
0

>  <SCORE.SYSTEM>
0

>  <SCORE.SYSTEM.CONST>
0

>  <SCORE.SYSTEM.DIHEDRAL>
0

>  <SCORE.SYSTEM.SOLV>
0

>  <SCORE.SYSTEM.norm>
0

>  <SCORE.heavy>
31

>  <SCORE.norm>
-1.62147

>  <SYMMETRIC_BONDS>
33 34 3

>  <RMSD>
2.356

$$$$
1fmn_cryst
 OpenBabel11021811393D
libRbt.so/2013.1/901 2013/11/27
 31 33  0  0  0  0  0  0  0  0999 V2000
   -8.8089   -6.7267    3.6705 N   0  0  0  0  0  0  0  0  0  0  0  0
   -9.6521   -6.6453    4.7540 C   0  0  0  0  0  0  0  0  0  0  0  0
   -9.4554   -7.2909    5.7841 O   0  0  0  0  0  0  0  0  0  0  0  0
  -10.7625   -5.7764    4.6077 N   0  0  0  0  0  0  0  0  0  0  0  0
  -11.0822   -4.9992    3.4728 C   0  0  0  0  0  0  0  0  0  0  0  0
  -12.0875   -4.2777    3.4803 O   0  0  0  0  0  0  0  0  0  0  0  0
  -10.1372   -5.1421    2.3630 C   0  0  0  0  0  0  0  0  0  0  0  0
  -10.3772   -4.4186    1.2214 N   0  0  0  0  0  0  0  0  0  0  0  0
   -9.6034   -4.6884    0.1301 C   0  0  0  0  0  0  0  0  0  0  0  0
   -9.9552   -4.1014   -1.0725 C   0  0  0  0  0  0  0  0  0  0  0  0
   -9.2335   -4.3234   -2.1954 C   0  0  0  0  0  0  0  0  0  0  0  0
   -9.6545   -3.6621   -3.4689 C   0  0  0  0  0  0  0  0  0  0  0  0
   -8.1421   -5.1352   -2.1619 C   0  0  0  0  0  0  0  0  0  0  0  0
   -7.3551   -5.3803   -3.4079 C   0  0  0  0  0  0  0  0  0  0  0  0
   -7.7588   -5.7320   -1.0044 C   0  0  0  0  0  0  0  0  0  0  0  0
   -8.4677   -5.5357    0.1807 C   0  0  0  0  0  0  0  0  0  0  0  0
   -8.1228   -6.1214    1.4168 N   0  0  0  0  0  0  0  0  0  0  0  0
   -9.0045   -6.0253    2.5128 C   0  0  0  0  0  0  0  0  0  0  0  0
   -6.6582   -6.3214    1.7222 C   0  0  0  0  0  0  0  0  0  0  0  0
   -5.8870   -5.0771    2.2582 C   0  0  1  0  0  0  0  0  0  0  0  0
   -6.3740   -4.7155    3.5427 O   0  0  0  0  0  0  0  0  0  0  0  0
   -4.3506   -5.2607    2.2485 C   0  0  1  0  0  0  0  0  0  0  0  0
   -3.7185   -4.1013    1.7140 O   0  0  0  0  0  0  0  0  0  0  0  0
   -3.6833   -5.6542    3.5893 C   0  0  1  0  0  0  0  0  0  0  0  0
   -4.4782   -6.6592    4.2089 O   0  0  0  0  0  0  0  0  0  0  0  0
   -2.2470   -6.1955    3.4115 C   0  0  0  0  0  0  0  0  0  0  0  0
   -2.2003   -7.3508    2.5826 O   0  0  0  0  0  0  0  0  0  0  0  0
   -0.8559   -8.1325    2.2779 P   0  0  0  0  0  0  0  0  0  0  0  0
   -0.1578   -8.4925    3.5329 O   0  0  0  0  0  0  0  0  0  0  0  0
   -1.0840   -9.1875    1.2669 O   0  5  0  0  0  0  0  0  0  0  0  0
    0.0658   -7.0393    1.5778 O   0  5  0  0  0  0  0  0  0  0  0  0
  1 18  1  0  0  0  0
  1  2  1  0  0  0  0
  2  4  1  0  0  0  0
  2  3  2  0  0  0  0
  4  5  1  0  0  0  0
  5  7  1  0  0  0  0
  5  6  2  0  0  0  0
  7 18  2  0  0  0  0
  7  8  1  0  0  0  0
  8  9  1  0  0  0  0
  9 10  2  0  0  0  0
  9 16  1  0  0  0  0
 10 11  1  0  0  0  0
 11 12  1  0  0  0  0
 11 13  2  0  0  0  0
 13 14  1  0  0  0  0
 13 15  1  0  0  0  0
 15 16  2  0  0  0  0
 16 17  1  0  0  0  0
 17 19  1  0  0  0  0
 17 18  1  0  0  0  0
 20 19  1  1  0  0  0
 20 22  1  0  0  0  0
 20 21  1  0  0  0  0
 22 24  1  0  0  0  0
 22 23  1  1  0  0  0
 24 26  1  6  0  0  0
 24 25  1  0  0  0  0
 26 27  1  0  0  0  0
 27 28  1  0  0  0  0
 28 30  1  0  0  0  0
 28 29  2  0  0  0  0
 28 31  1  0  0  0  0
M  CHG  2  30  -1  31  -1
M  END
>  <CHROM.1>
81.46002953,66.43075824,134.43114184,60.69250454,43.23973330,-64.43059789
-59.41730348,65.53007719,-177.89869191,52.91636232,-6.43004755,-5.94391132
1.84363150,2.93227780,0.24211906,-1.34369718

>  <Name>
1fmn_cryst

>  <RI>
0

>  <Rbt.Current_Directory>
/home/itssahil/PROJECTS/Mol_Feturizer/New_Systems/rnas/1fmn

>  <Rbt.Executable>
rbdock ($Id: //depot/dev/client3/rdock/2013.1/src/exe/rbdock.cxx#4 $)

>  <Rbt.Library>
libRbt.so (2013.1, Build901 2013/11/27)

>  <Rbt.Parameter_File>
/export/apps/rDock/src/rDock_2013.1_src/data/scripts/dock_solv.prm

>  <Rbt.Receptor>
prm/pocket_docking_7.prm

>  <SCORE>
-59.7515

>  <SCORE.INTER>
-52.6267

>  <SCORE.INTER.CONST>
1

>  <SCORE.INTER.POLAR>
-4.29119

>  <SCORE.INTER.ROT>
7

>  <SCORE.INTER.SOLV>
15.9201

>  <SCORE.INTER.VDW>
-34.3538

>  <SCORE.INTER.norm>
-1.69763

>  <SCORE.INTRA>
-7.12482

>  <SCORE.INTRA.DIHEDRAL>
-8.31717

>  <SCORE.INTRA.DIHEDRAL.0>
15.5708

>  <SCORE.INTRA.POLAR>
-0.312417

>  <SCORE.INTRA.POLAR.0>
-0.0677885

>  <SCORE.INTRA.REPUL>
0

>  <SCORE.INTRA.REPUL.0>
0

>  <SCORE.INTRA.SOLV>
-3.84399

>  <SCORE.INTRA.SOLV.lig_0>
-87.6316

>  <SCORE.INTRA.VDW>
0.0179781

>  <SCORE.INTRA.VDW.0>
-2.87309

>  <SCORE.INTRA.norm>
-0.229833

>  <SCORE.RESTR>
0

>  <SCORE.RESTR.CAVITY>
0

>  <SCORE.RESTR.norm>
0

>  <SCORE.SYSTEM>
0

>  <SCORE.SYSTEM.CONST>
0

>  <SCORE.SYSTEM.DIHEDRAL>
0

>  <SCORE.SYSTEM.SOLV>
0

>  <SCORE.SYSTEM.norm>
0

>  <SCORE.heavy>
31

>  <SCORE.norm>
-1.92747

>  <SYMMETRIC_BONDS>
33 34 3

>  <RMSD>
2.369

$$$$
1fmn_cryst
 OpenBabel11021811393D
libRbt.so/2013.1/901 2013/11/27
 31 33  0  0  0  0  0  0  0  0999 V2000
   -8.9396   -6.0880    3.5878 N   0  0  0  0  0  0  0  0  0  0  0  0
   -9.7617   -6.1347    4.6894 C   0  0  0  0  0  0  0  0  0  0  0  0
   -9.4036   -6.6485    5.7498 O   0  0  0  0  0  0  0  0  0  0  0  0
  -11.0468   -5.5593    4.5249 N   0  0  0  0  0  0  0  0  0  0  0  0
  -11.5568   -4.9533    3.3559 C   0  0  0  0  0  0  0  0  0  0  0  0
  -12.7029   -4.4865    3.3506 O   0  0  0  0  0  0  0  0  0  0  0  0
  -10.6217   -4.9443    2.2286 C   0  0  0  0  0  0  0  0  0  0  0  0
  -11.0418   -4.3723    1.0537 N   0  0  0  0  0  0  0  0  0  0  0  0
  -10.2432   -4.5250   -0.0424 C   0  0  0  0  0  0  0  0  0  0  0  0
  -10.7410   -4.1154   -1.2667 C   0  0  0  0  0  0  0  0  0  0  0  0
  -10.0046   -4.2360   -2.3956 C   0  0  0  0  0  0  0  0  0  0  0  0
  -10.5882   -3.7750   -3.6930 C   0  0  0  0  0  0  0  0  0  0  0  0
   -8.7532   -4.7676   -2.3465 C   0  0  0  0  0  0  0  0  0  0  0  0
   -7.9498   -4.9034   -3.5988 C   0  0  0  0  0  0  0  0  0  0  0  0
   -8.2231   -5.1824   -1.1676 C   0  0  0  0  0  0  0  0  0  0  0  0
   -8.9401   -5.0798    0.0245 C   0  0  0  0  0  0  0  0  0  0  0  0
   -8.4488   -5.4875    1.2824 N   0  0  0  0  0  0  0  0  0  0  0  0
   -9.3117   -5.5281    2.3968 C   0  0  0  0  0  0  0  0  0  0  0  0
   -6.9736   -5.3210    1.5550 C   0  0  0  0  0  0  0  0  0  0  0  0
   -6.2174   -6.5849    2.0660 C   0  0  1  0  0  0  0  0  0  0  0  0
   -5.2965   -7.0351    1.0826 O   0  0  0  0  0  0  0  0  0  0  0  0
   -5.5435   -6.3774    3.4432 C   0  0  1  0  0  0  0  0  0  0  0  0
   -4.6059   -7.4199    3.6958 O   0  0  0  0  0  0  0  0  0  0  0  0
   -4.8829   -5.0006    3.7000 C   0  0  1  0  0  0  0  0  0  0  0  0
   -5.9110   -4.0487    3.9503 O   0  0  0  0  0  0  0  0  0  0  0  0
   -3.9126   -5.0127    4.9025 C   0  0  0  0  0  0  0  0  0  0  0  0
   -3.3721   -3.7257    5.1776 O   0  0  0  0  0  0  0  0  0  0  0  0
   -2.2705   -3.4794    6.2898 P   0  0  0  0  0  0  0  0  0  0  0  0
   -1.0551   -4.2793    6.0163 O   0  0  0  0  0  0  0  0  0  0  0  0
   -2.1200   -2.0338    6.5633 O   0  5  0  0  0  0  0  0  0  0  0  0
   -2.9105   -4.1145    7.6020 O   0  5  0  0  0  0  0  0  0  0  0  0
  1 18  1  0  0  0  0
  1  2  1  0  0  0  0
  2  4  1  0  0  0  0
  2  3  2  0  0  0  0
  4  5  1  0  0  0  0
  5  7  1  0  0  0  0
  5  6  2  0  0  0  0
  7 18  2  0  0  0  0
  7  8  1  0  0  0  0
  8  9  1  0  0  0  0
  9 10  2  0  0  0  0
  9 16  1  0  0  0  0
 10 11  1  0  0  0  0
 11 12  1  0  0  0  0
 11 13  2  0  0  0  0
 13 14  1  0  0  0  0
 13 15  1  0  0  0  0
 15 16  2  0  0  0  0
 16 17  1  0  0  0  0
 17 19  1  0  0  0  0
 17 18  1  0  0  0  0
 20 19  1  6  0  0  0
 20 22  1  0  0  0  0
 20 21  1  0  0  0  0
 22 24  1  0  0  0  0
 22 23  1  6  0  0  0
 24 26  1  1  0  0  0
 24 25  1  0  0  0  0
 26 27  1  0  0  0  0
 27 28  1  0  0  0  0
 28 30  1  0  0  0  0
 28 29  2  0  0  0  0
 28 31  1  0  0  0  0
M  CHG  2  30  -1  31  -1
M  END
>  <CHROM.1>
-128.00481033,112.41250515,-165.33143979,61.39547560,75.53842763,-57.76749054
-176.53875743,175.01227611,-175.38104785,58.93365902,-7.17580367,-4.94459950
2.66298533,2.43323104,-0.11746583,-1.53358116

>  <Name>
1fmn_cryst

>  <RI>
0

>  <Rbt.Current_Directory>
/home/itssahil/PROJECTS/Mol_Feturizer/New_Systems/rnas/1fmn

>  <Rbt.Executable>
rbdock ($Id: //depot/dev/client3/rdock/2013.1/src/exe/rbdock.cxx#4 $)

>  <Rbt.Library>
libRbt.so (2013.1, Build901 2013/11/27)

>  <Rbt.Parameter_File>
/export/apps/rDock/src/rDock_2013.1_src/data/scripts/dock_solv.prm

>  <Rbt.Receptor>
prm/pocket_docking_7.prm

>  <SCORE>
-60.4626

>  <SCORE.INTER>
-57.2856

>  <SCORE.INTER.CONST>
1

>  <SCORE.INTER.POLAR>
-4.09185

>  <SCORE.INTER.ROT>
7

>  <SCORE.INTER.SOLV>
19.0213

>  <SCORE.INTER.VDW>
-39.158

>  <SCORE.INTER.norm>
-1.84792

>  <SCORE.INTRA>
-3.177

>  <SCORE.INTRA.DIHEDRAL>
-6.60696

>  <SCORE.INTRA.DIHEDRAL.0>
15.5708

>  <SCORE.INTRA.POLAR>
0.0391658

>  <SCORE.INTRA.POLAR.0>
-0.0677885

>  <SCORE.INTRA.REPUL>
0

>  <SCORE.INTRA.REPUL.0>
0

>  <SCORE.INTRA.SOLV>
-4.3449

>  <SCORE.INTRA.SOLV.lig_0>
-87.6316

>  <SCORE.INTRA.VDW>
2.16577

>  <SCORE.INTRA.VDW.0>
-2.87309

>  <SCORE.INTRA.norm>
-0.102484

>  <SCORE.RESTR>
0

>  <SCORE.RESTR.CAVITY>
0

>  <SCORE.RESTR.norm>
0

>  <SCORE.SYSTEM>
0

>  <SCORE.SYSTEM.CONST>
0

>  <SCORE.SYSTEM.DIHEDRAL>
0

>  <SCORE.SYSTEM.SOLV>
0

>  <SCORE.SYSTEM.norm>
0

>  <SCORE.heavy>
31

>  <SCORE.norm>
-1.95041

>  <SYMMETRIC_BONDS>
33 34 3

>  <RMSD>
2.378

$$$$
1fmn_cryst
 OpenBabel11021811393D
libRbt.so/2013.1/901 2013/11/27
 31 33  0  0  0  0  0  0  0  0999 V2000
   -8.7595   -6.1414    3.7173 N   0  0  0  0  0  0  0  0  0  0  0  0
   -9.6104   -6.1672    4.7976 C   0  0  0  0  0  0  0  0  0  0  0  0
   -9.2915   -6.6870    5.8674 O   0  0  0  0  0  0  0  0  0  0  0  0
  -10.8772   -5.5627    4.5995 N   0  0  0  0  0  0  0  0  0  0  0  0
  -11.3431   -4.9473    3.4169 C   0  0  0  0  0  0  0  0  0  0  0  0
  -12.4776   -4.4543    3.3817 O   0  0  0  0  0  0  0  0  0  0  0  0
  -10.3795   -4.9618    2.3141 C   0  0  0  0  0  0  0  0  0  0  0  0
  -10.7561   -4.3824    1.1280 N   0  0  0  0  0  0  0  0  0  0  0  0
   -9.9334   -4.5554    0.0530 C   0  0  0  0  0  0  0  0  0  0  0  0
  -10.3902   -4.1367   -1.1842 C   0  0  0  0  0  0  0  0  0  0  0  0
   -9.6281   -4.2763   -2.2937 C   0  0  0  0  0  0  0  0  0  0  0  0
  -10.1675   -3.8044   -3.6062 C   0  0  0  0  0  0  0  0  0  0  0  0
   -8.3909   -4.8364   -2.2119 C   0  0  0  0  0  0  0  0  0  0  0  0
   -7.5590   -4.9929   -3.4430 C   0  0  0  0  0  0  0  0  0  0  0  0
   -7.9009   -5.2611   -1.0193 C   0  0  0  0  0  0  0  0  0  0  0  0
   -8.6455   -5.1399    0.1539 C   0  0  0  0  0  0  0  0  0  0  0  0
   -8.1962   -5.5565    1.4245 N   0  0  0  0  0  0  0  0  0  0  0  0
   -9.0880   -5.5752    2.5165 C   0  0  0  0  0  0  0  0  0  0  0  0
   -6.7249   -5.4235    1.7346 C   0  0  0  0  0  0  0  0  0  0  0  0
   -5.9473   -6.7516    1.9829 C   0  0  1  0  0  0  0  0  0  0  0  0
   -5.1047   -7.0395    0.8762 O   0  0  0  0  0  0  0  0  0  0  0  0
   -5.1734   -6.7641    3.3227 C   0  0  1  0  0  0  0  0  0  0  0  0
   -5.8467   -5.9625    4.2890 O   0  0  0  0  0  0  0  0  0  0  0  0
   -4.8411   -8.1505    3.9272 C   0  0  1  0  0  0  0  0  0  0  0  0
   -5.9793   -8.9915    3.7751 O   0  0  0  0  0  0  0  0  0  0  0  0
   -3.6283   -8.8279    3.2506 C   0  0  0  0  0  0  0  0  0  0  0  0
   -3.9516   -9.3751    1.9777 O   0  0  0  0  0  0  0  0  0  0  0  0
   -2.9306  -10.2471    1.1360 P   0  0  0  0  0  0  0  0  0  0  0  0
   -3.6085  -10.8962   -0.0091 O   0  0  0  0  0  0  0  0  0  0  0  0
   -1.6837   -9.4925    0.8855 O   0  5  0  0  0  0  0  0  0  0  0  0
   -2.5408  -11.4317    2.1258 O   0  5  0  0  0  0  0  0  0  0  0  0
  1 18  1  0  0  0  0
  1  2  1  0  0  0  0
  2  4  1  0  0  0  0
  2  3  2  0  0  0  0
  4  5  1  0  0  0  0
  5  7  1  0  0  0  0
  5  6  2  0  0  0  0
  7 18  2  0  0  0  0
  7  8  1  0  0  0  0
  8  9  1  0  0  0  0
  9 10  2  0  0  0  0
  9 16  1  0  0  0  0
 10 11  1  0  0  0  0
 11 12  1  0  0  0  0
 11 13  2  0  0  0  0
 13 14  1  0  0  0  0
 13 15  1  0  0  0  0
 15 16  2  0  0  0  0
 16 17  1  0  0  0  0
 17 19  1  0  0  0  0
 17 18  1  0  0  0  0
 20 19  1  6  0  0  0
 20 22  1  0  0  0  0
 20 21  1  0  0  0  0
 22 24  1  0  0  0  0
 22 23  1  1  0  0  0
 24 26  1  6  0  0  0
 24 25  1  0  0  0  0
 26 27  1  0  0  0  0
 27 28  1  0  0  0  0
 28 30  1  0  0  0  0
 28 29  2  0  0  0  0
 28 31  1  0  0  0  0
M  CHG  2  30  -1  31  -1
M  END
>  <CHROM.1>
-115.90046113,107.09823454,30.38732000,-176.70230063,-41.82239150,-179.46996491
-76.22843075,172.79428594,-173.81947446,169.06613057,-7.16315103,-6.73250491
1.61992019,2.90329381,0.59527068,-1.34511542

>  <Name>
1fmn_cryst

>  <RI>
0

>  <Rbt.Current_Directory>
/home/itssahil/PROJECTS/Mol_Feturizer/New_Systems/rnas/1fmn

>  <Rbt.Executable>
rbdock ($Id: //depot/dev/client3/rdock/2013.1/src/exe/rbdock.cxx#4 $)

>  <Rbt.Library>
libRbt.so (2013.1, Build901 2013/11/27)

>  <Rbt.Parameter_File>
/export/apps/rDock/src/rDock_2013.1_src/data/scripts/dock_solv.prm

>  <Rbt.Receptor>
prm/pocket_docking_5.prm

>  <SCORE>
-61.7633

>  <SCORE.INTER>
-53.563

>  <SCORE.INTER.CONST>
1

>  <SCORE.INTER.POLAR>
-3.4663

>  <SCORE.INTER.ROT>
7

>  <SCORE.INTER.SOLV>
22.411

>  <SCORE.INTER.VDW>
-39.8913

>  <SCORE.INTER.norm>
-1.72784

>  <SCORE.INTRA>
-8.20028

>  <SCORE.INTRA.DIHEDRAL>
-3.42013

>  <SCORE.INTRA.DIHEDRAL.0>
15.5708

>  <SCORE.INTRA.POLAR>
-1.69894

>  <SCORE.INTRA.POLAR.0>
-0.0677885

>  <SCORE.INTRA.REPUL>
0

>  <SCORE.INTRA.REPUL.0>
0

>  <SCORE.INTRA.SOLV>
-1.81102

>  <SCORE.INTRA.SOLV.lig_0>
-87.6316

>  <SCORE.INTRA.VDW>
0.191684

>  <SCORE.INTRA.VDW.0>
-2.87309

>  <SCORE.INTRA.norm>
-0.264525

>  <SCORE.RESTR>
0

>  <SCORE.RESTR.CAVITY>
0

>  <SCORE.RESTR.norm>
0

>  <SCORE.SYSTEM>
0

>  <SCORE.SYSTEM.CONST>
0

>  <SCORE.SYSTEM.DIHEDRAL>
0

>  <SCORE.SYSTEM.SOLV>
0

>  <SCORE.SYSTEM.norm>
0

>  <SCORE.heavy>
31

>  <SCORE.norm>
-1.99236

>  <SYMMETRIC_BONDS>
33 34 3

>  <RMSD>
2.394

$$$$
1fmn_cryst
 OpenBabel11021811393D
libRbt.so/2013.1/901 2013/11/27
 31 33  0  0  0  0  0  0  0  0999 V2000
   -8.7359   -6.3831    3.3440 N   0  0  0  0  0  0  0  0  0  0  0  0
   -9.5027   -6.3220    4.4841 C   0  0  0  0  0  0  0  0  0  0  0  0
   -9.2045   -6.9425    5.5052 O   0  0  0  0  0  0  0  0  0  0  0  0
  -10.6584   -5.5047    4.4073 N   0  0  0  0  0  0  0  0  0  0  0  0
  -11.0924   -4.7597    3.2889 C   0  0  0  0  0  0  0  0  0  0  0  0
  -12.1258   -4.0827    3.3598 O   0  0  0  0  0  0  0  0  0  0  0  0
  -10.2233   -4.8782    2.1160 C   0  0  0  0  0  0  0  0  0  0  0  0
  -10.5759   -4.1834    0.9859 N   0  0  0  0  0  0  0  0  0  0  0  0
   -9.8705   -4.4357   -0.1548 C   0  0  0  0  0  0  0  0  0  0  0  0
  -10.3328   -3.8831   -1.3360 C   0  0  0  0  0  0  0  0  0  0  0  0
   -9.6836   -4.0906   -2.5051 C   0  0  0  0  0  0  0  0  0  0  0  0
  -10.2233   -3.4679   -3.7531 C   0  0  0  0  0  0  0  0  0  0  0  0
   -8.5574   -4.8533   -2.5401 C   0  0  0  0  0  0  0  0  0  0  0  0
   -7.8509   -5.0828   -3.8363 C   0  0  0  0  0  0  0  0  0  0  0  0
   -8.0665   -5.4150   -1.4060 C   0  0  0  0  0  0  0  0  0  0  0  0
   -8.6973   -5.2318   -0.1756 C   0  0  0  0  0  0  0  0  0  0  0  0
   -8.2396   -5.7829    1.0397 N   0  0  0  0  0  0  0  0  0  0  0  0
   -9.0445   -5.7086    2.1949 C   0  0  0  0  0  0  0  0  0  0  0  0
   -6.7495   -5.9140    1.2416 C   0  0  0  0  0  0  0  0  0  0  0  0
   -6.2027   -5.5068    2.6435 C   0  0  1  0  0  0  0  0  0  0  0  0
   -6.1920   -6.6321    3.5103 O   0  0  0  0  0  0  0  0  0  0  0  0
   -4.8243   -4.8067    2.5810 C   0  0  1  0  0  0  0  0  0  0  0  0
   -4.9760   -3.4552    2.1568 O   0  0  0  0  0  0  0  0  0  0  0  0
   -3.9509   -4.8634    3.8585 C   0  0  1  0  0  0  0  0  0  0  0  0
   -4.8118   -4.9691    4.9870 O   0  0  0  0  0  0  0  0  0  0  0  0
   -2.9715   -6.0585    3.8663 C   0  0  0  0  0  0  0  0  0  0  0  0
   -1.9321   -5.9156    2.9054 O   0  0  0  0  0  0  0  0  0  0  0  0
   -0.7473   -6.9585    2.7640 P   0  0  0  0  0  0  0  0  0  0  0  0
    0.0831   -6.6572    1.5758 O   0  0  0  0  0  0  0  0  0  0  0  0
   -0.0742   -7.1623    4.0649 O   0  5  0  0  0  0  0  0  0  0  0  0
   -1.4877   -8.3275    2.4286 O   0  5  0  0  0  0  0  0  0  0  0  0
  1 18  1  0  0  0  0
  1  2  1  0  0  0  0
  2  4  1  0  0  0  0
  2  3  2  0  0  0  0
  4  5  1  0  0  0  0
  5  7  1  0  0  0  0
  5  6  2  0  0  0  0
  7 18  2  0  0  0  0
  7  8  1  0  0  0  0
  8  9  1  0  0  0  0
  9 10  2  0  0  0  0
  9 16  1  0  0  0  0
 10 11  1  0  0  0  0
 11 12  1  0  0  0  0
 11 13  2  0  0  0  0
 13 14  1  0  0  0  0
 13 15  1  0  0  0  0
 15 16  2  0  0  0  0
 16 17  1  0  0  0  0
 17 19  1  0  0  0  0
 17 18  1  0  0  0  0
 20 19  1  6  0  0  0
 20 22  1  0  0  0  0
 20 21  1  0  0  0  0
 22 24  1  0  0  0  0
 22 23  1  1  0  0  0
 24 26  1  6  0  0  0
 24 25  1  0  0  0  0
 26 27  1  0  0  0  0
 27 28  1  0  0  0  0
 28 30  1  0  0  0  0
 28 29  2  0  0  0  0
 28 31  1  0  0  0  0
M  CHG  2  30  -1  31  -1
M  END
>  <CHROM.1>
136.93936220,90.34292899,77.00117721,60.68089061,-27.96446644,-71.18907302
69.52012135,64.02959189,176.32089823,172.52207277,-6.61858366,-5.52111784
1.86300117,2.79570400,0.16729974,-1.39952591

>  <Name>
1fmn_cryst

>  <RI>
0

>  <Rbt.Current_Directory>
/home/itssahil/PROJECTS/Mol_Feturizer/New_Systems/rnas/1fmn

>  <Rbt.Executable>
rbdock ($Id: //depot/dev/client3/rdock/2013.1/src/exe/rbdock.cxx#4 $)

>  <Rbt.Library>
libRbt.so (2013.1, Build901 2013/11/27)

>  <Rbt.Parameter_File>
/export/apps/rDock/src/rDock_2013.1_src/data/scripts/dock_solv.prm

>  <Rbt.Receptor>
prm/pocket_docking_8.prm

>  <SCORE>
-58.7404

>  <SCORE.INTER>
-53.5767

>  <SCORE.INTER.CONST>
1

>  <SCORE.INTER.POLAR>
-4.15309

>  <SCORE.INTER.ROT>
7

>  <SCORE.INTER.SOLV>
15.8605

>  <SCORE.INTER.VDW>
-35.4277

>  <SCORE.INTER.norm>
-1.72828

>  <SCORE.INTRA>
-5.16366

>  <SCORE.INTRA.DIHEDRAL>
-5.44631

>  <SCORE.INTRA.DIHEDRAL.0>
15.5708

>  <SCORE.INTRA.POLAR>
-0.941176

>  <SCORE.INTRA.POLAR.0>
-0.0677885

>  <SCORE.INTRA.REPUL>
0

>  <SCORE.INTRA.REPUL.0>
0

>  <SCORE.INTRA.SOLV>
-3.47876

>  <SCORE.INTRA.SOLV.lig_0>
-87.6316

>  <SCORE.INTRA.VDW>
2.49888

>  <SCORE.INTRA.VDW.0>
-2.87309

>  <SCORE.INTRA.norm>
-0.16657

>  <SCORE.RESTR>
0

>  <SCORE.RESTR.CAVITY>
0

>  <SCORE.RESTR.norm>
0

>  <SCORE.SYSTEM>
0

>  <SCORE.SYSTEM.CONST>
0

>  <SCORE.SYSTEM.DIHEDRAL>
0

>  <SCORE.SYSTEM.SOLV>
0

>  <SCORE.SYSTEM.norm>
0

>  <SCORE.heavy>
31

>  <SCORE.norm>
-1.89485

>  <SYMMETRIC_BONDS>
33 34 3

>  <RMSD>
2.394

$$$$
1fmn_cryst
 OpenBabel11021811393D
libRbt.so/2013.1/901 2013/11/27
 31 33  0  0  0  0  0  0  0  0999 V2000
   -8.7242   -6.1873    3.5118 N   0  0  0  0  0  0  0  0  0  0  0  0
   -9.4837   -6.2636    4.6559 C   0  0  0  0  0  0  0  0  0  0  0  0
   -9.0748   -6.8216    5.6747 O   0  0  0  0  0  0  0  0  0  0  0  0
  -10.7665   -5.6646    4.5858 N   0  0  0  0  0  0  0  0  0  0  0  0
  -11.3318   -5.0082    3.4705 C   0  0  0  0  0  0  0  0  0  0  0  0
  -12.4687   -4.5256    3.5474 O   0  0  0  0  0  0  0  0  0  0  0  0
  -10.4615   -4.9702    2.2931 C   0  0  0  0  0  0  0  0  0  0  0  0
  -10.9378   -4.3488    1.1656 N   0  0  0  0  0  0  0  0  0  0  0  0
  -10.2047   -4.4716    0.0210 C   0  0  0  0  0  0  0  0  0  0  0  0
  -10.7639   -4.0096   -1.1572 C   0  0  0  0  0  0  0  0  0  0  0  0
  -10.0942   -4.0982   -2.3298 C   0  0  0  0  0  0  0  0  0  0  0  0
  -10.7424   -3.5810   -3.5743 C   0  0  0  0  0  0  0  0  0  0  0  0
   -8.8508   -4.6488   -2.3713 C   0  0  0  0  0  0  0  0  0  0  0  0
   -8.1214   -4.7489   -3.6714 C   0  0  0  0  0  0  0  0  0  0  0  0
   -8.2620   -5.1147   -1.2404 C   0  0  0  0  0  0  0  0  0  0  0  0
   -8.9090   -5.0467   -0.0066 C   0  0  0  0  0  0  0  0  0  0  0  0
   -8.3543   -5.5080    1.2057 N   0  0  0  0  0  0  0  0  0  0  0  0
   -9.1536   -5.5781    2.3651 C   0  0  0  0  0  0  0  0  0  0  0  0
   -6.8636   -5.3724    1.3999 C   0  0  0  0  0  0  0  0  0  0  0  0
   -6.0689   -6.6982    1.6024 C   0  0  1  0  0  0  0  0  0  0  0  0
   -6.6755   -7.7498    0.8649 O   0  0  0  0  0  0  0  0  0  0  0  0
   -4.5606   -6.5598    1.2861 C   0  0  1  0  0  0  0  0  0  0  0  0
   -4.3606   -6.4345   -0.1189 O   0  0  0  0  0  0  0  0  0  0  0  0
   -3.7879   -5.4431    2.0303 C   0  0  1  0  0  0  0  0  0  0  0  0
   -4.0161   -5.5931    3.4272 O   0  0  0  0  0  0  0  0  0  0  0  0
   -2.2658   -5.4856    1.7675 C   0  0  0  0  0  0  0  0  0  0  0  0
   -1.7037   -6.7650    2.0345 O   0  0  0  0  0  0  0  0  0  0  0  0
   -0.1564   -7.0699    1.8791 P   0  0  0  0  0  0  0  0  0  0  0  0
    0.1490   -8.4654    2.2682 O   0  0  0  0  0  0  0  0  0  0  0  0
    0.3454   -6.5710    0.5806 O   0  5  0  0  0  0  0  0  0  0  0  0
    0.5215   -6.1597    2.9957 O   0  5  0  0  0  0  0  0  0  0  0  0
  1 18  1  0  0  0  0
  1  2  1  0  0  0  0
  2  4  1  0  0  0  0
  2  3  2  0  0  0  0
  4  5  1  0  0  0  0
  5  7  1  0  0  0  0
  5  6  2  0  0  0  0
  7 18  2  0  0  0  0
  7  8  1  0  0  0  0
  8  9  1  0  0  0  0
  9 10  2  0  0  0  0
  9 16  1  0  0  0  0
 10 11  1  0  0  0  0
 11 12  1  0  0  0  0
 11 13  2  0  0  0  0
 13 14  1  0  0  0  0
 13 15  1  0  0  0  0
 15 16  2  0  0  0  0
 16 17  1  0  0  0  0
 17 19  1  0  0  0  0
 17 18  1  0  0  0  0
 20 19  1  6  0  0  0
 20 22  1  0  0  0  0
 20 21  1  0  0  0  0
 22 24  1  0  0  0  0
 22 23  1  6  0  0  0
 24 26  1  1  0  0  0
 24 25  1  0  0  0  0
 26 27  1  0  0  0  0
 27 28  1  0  0  0  0
 28 30  1  0  0  0  0
 28 29  2  0  0  0  0
 28 31  1  0  0  0  0
M  CHG  2  30  -1  31  -1
M  END
>  <CHROM.1>
-118.84913845,32.70178826,-71.89374064,65.59764749,52.99951782,-54.18182502
-53.17008756,-176.77354130,-178.52186968,178.01890785,-6.53160169,-5.75364225
1.36802599,3.00037946,0.18052771,-1.36154196

>  <Name>
1fmn_cryst

>  <RI>
0

>  <Rbt.Current_Directory>
/home/itssahil/PROJECTS/Mol_Feturizer/New_Systems/rnas/1fmn

>  <Rbt.Executable>
rbdock ($Id: //depot/dev/client3/rdock/2013.1/src/exe/rbdock.cxx#4 $)

>  <Rbt.Library>
libRbt.so (2013.1, Build901 2013/11/27)

>  <Rbt.Parameter_File>
/export/apps/rDock/src/rDock_2013.1_src/data/scripts/dock_solv.prm

>  <Rbt.Receptor>
prm/pocket_docking_6.prm

>  <SCORE>
-60.8194

>  <SCORE.INTER>
-55.0331

>  <SCORE.INTER.CONST>
1

>  <SCORE.INTER.POLAR>
-4.04835

>  <SCORE.INTER.ROT>
7

>  <SCORE.INTER.SOLV>
16.4212

>  <SCORE.INTER.VDW>
-36.9346

>  <SCORE.INTER.norm>
-1.77526

>  <SCORE.INTRA>
-5.78636

>  <SCORE.INTRA.DIHEDRAL>
-9.47493

>  <SCORE.INTRA.DIHEDRAL.0>
15.5708

>  <SCORE.INTRA.POLAR>
0.0677885

>  <SCORE.INTRA.POLAR.0>
-0.0677885

>  <SCORE.INTRA.REPUL>
0

>  <SCORE.INTRA.REPUL.0>
0

>  <SCORE.INTRA.SOLV>
-4.2897

>  <SCORE.INTRA.SOLV.lig_0>
-87.6316

>  <SCORE.INTRA.VDW>
0.865479

>  <SCORE.INTRA.VDW.0>
-2.87309

>  <SCORE.INTRA.norm>
-0.186657

>  <SCORE.RESTR>
0

>  <SCORE.RESTR.CAVITY>
0

>  <SCORE.RESTR.norm>
0

>  <SCORE.SYSTEM>
0

>  <SCORE.SYSTEM.CONST>
0

>  <SCORE.SYSTEM.DIHEDRAL>
0

>  <SCORE.SYSTEM.SOLV>
0

>  <SCORE.SYSTEM.norm>
0

>  <SCORE.heavy>
31

>  <SCORE.norm>
-1.96192

>  <SYMMETRIC_BONDS>
33 34 3

>  <RMSD>
2.395

$$$$
1fmn_cryst
 OpenBabel11021811393D
libRbt.so/2013.1/901 2013/11/27
 31 33  0  0  0  0  0  0  0  0999 V2000
   -8.8417   -6.2656    3.6023 N   0  0  0  0  0  0  0  0  0  0  0  0
   -9.6031   -6.2673    4.7476 C   0  0  0  0  0  0  0  0  0  0  0  0
   -9.2473   -6.8595    5.7670 O   0  0  0  0  0  0  0  0  0  0  0  0
  -10.8235   -5.5495    4.6780 N   0  0  0  0  0  0  0  0  0  0  0  0
  -11.3258   -4.8448    3.5621 C   0  0  0  0  0  0  0  0  0  0  0  0
  -12.4117   -4.2564    3.6395 O   0  0  0  0  0  0  0  0  0  0  0  0
  -10.4578   -4.8918    2.3833 C   0  0  0  0  0  0  0  0  0  0  0  0
  -10.8748   -4.2304    1.2552 N   0  0  0  0  0  0  0  0  0  0  0  0
  -10.1585   -4.4244    0.1099 C   0  0  0  0  0  0  0  0  0  0  0  0
  -10.6733   -3.9139   -1.0686 C   0  0  0  0  0  0  0  0  0  0  0  0
  -10.0169   -4.0680   -2.2419 C   0  0  0  0  0  0  0  0  0  0  0  0
  -10.6152   -3.4941   -3.4866 C   0  0  0  0  0  0  0  0  0  0  0  0
   -8.8313   -4.7340   -2.2840 C   0  0  0  0  0  0  0  0  0  0  0  0
   -8.1168   -4.9054   -3.5849 C   0  0  0  0  0  0  0  0  0  0  0  0
   -8.2875   -5.2513   -1.1529 C   0  0  0  0  0  0  0  0  0  0  0  0
   -8.9232   -5.1198    0.0817 C   0  0  0  0  0  0  0  0  0  0  0  0
   -8.4128   -5.6291    1.2942 N   0  0  0  0  0  0  0  0  0  0  0  0
   -9.2133   -5.6208    2.4548 C   0  0  0  0  0  0  0  0  0  0  0  0
   -6.9156   -5.6351    1.4860 C   0  0  0  0  0  0  0  0  0  0  0  0
   -6.0989   -6.5540    0.5274 C   0  0  1  0  0  0  0  0  0  0  0  0
   -5.2587   -5.7681   -0.3059 O   0  0  0  0  0  0  0  0  0  0  0  0
   -5.3128   -7.6624    1.2673 C   0  0  1  0  0  0  0  0  0  0  0  0
   -6.1707   -8.7597    1.5667 O   0  0  0  0  0  0  0  0  0  0  0  0
   -4.0183   -8.1750    0.5897 C   0  0  1  0  0  0  0  0  0  0  0  0
   -3.0318   -7.1524    0.6738 O   0  0  0  0  0  0  0  0  0  0  0  0
   -3.4617   -9.4582    1.2465 C   0  0  0  0  0  0  0  0  0  0  0  0
   -2.1262   -9.7391    0.8445 O   0  0  0  0  0  0  0  0  0  0  0  0
   -0.8645   -9.2907    1.6920 P   0  0  0  0  0  0  0  0  0  0  0  0
   -1.0186   -7.8991    2.1737 O   0  0  0  0  0  0  0  0  0  0  0  0
   -0.4908  -10.3394    2.6654 O   0  5  0  0  0  0  0  0  0  0  0  0
    0.3118   -9.2412    0.6202 O   0  5  0  0  0  0  0  0  0  0  0  0
  1 18  1  0  0  0  0
  1  2  1  0  0  0  0
  2  4  1  0  0  0  0
  2  3  2  0  0  0  0
  4  5  1  0  0  0  0
  5  7  1  0  0  0  0
  5  6  2  0  0  0  0
  7 18  2  0  0  0  0
  7  8  1  0  0  0  0
  8  9  1  0  0  0  0
  9 10  2  0  0  0  0
  9 16  1  0  0  0  0
 10 11  1  0  0  0  0
 11 12  1  0  0  0  0
 11 13  2  0  0  0  0
 13 14  1  0  0  0  0
 13 15  1  0  0  0  0
 15 16  2  0  0  0  0
 16 17  1  0  0  0  0
 17 19  1  0  0  0  0
 17 18  1  0  0  0  0
 20 19  1  1  0  0  0
 20 22  1  0  0  0  0
 20 21  1  0  0  0  0
 22 24  1  0  0  0  0
 22 23  1  6  0  0  0
 24 26  1  1  0  0  0
 24 25  1  0  0  0  0
 26 27  1  0  0  0  0
 27 28  1  0  0  0  0
 28 30  1  0  0  0  0
 28 29  2  0  0  0  0
 28 31  1  0  0  0  0
M  CHG  2  30  -1  31  -1
M  END
>  <CHROM.1>
-64.98444802,115.11526505,81.50691736,-58.88230374,70.87228636,66.71575419
-165.75157818,73.25208340,95.36511122,-43.70595248,-6.72292961,-6.52595059
1.17983021,2.98535356,0.43236184,-1.28421186

>  <Name>
1fmn_cryst

>  <RI>
0

>  <Rbt.Current_Directory>
/home/itssahil/PROJECTS/Mol_Feturizer/New_Systems/rnas/1fmn

>  <Rbt.Executable>
rbdock ($Id: //depot/dev/client3/rdock/2013.1/src/exe/rbdock.cxx#4 $)

>  <Rbt.Library>
libRbt.so (2013.1, Build901 2013/11/27)

>  <Rbt.Parameter_File>
/export/apps/rDock/src/rDock_2013.1_src/data/scripts/dock_solv.prm

>  <Rbt.Receptor>
prm/pocket_docking_7.prm

>  <SCORE>
-55.6783

>  <SCORE.INTER>
-55.0222

>  <SCORE.INTER.CONST>
1

>  <SCORE.INTER.POLAR>
-3.27329

>  <SCORE.INTER.ROT>
7

>  <SCORE.INTER.SOLV>
17.7512

>  <SCORE.INTER.VDW>
-39.9543

>  <SCORE.INTER.norm>
-1.77491

>  <SCORE.INTRA>
-0.656087

>  <SCORE.INTRA.DIHEDRAL>
0.1615

>  <SCORE.INTRA.DIHEDRAL.0>
15.5708

>  <SCORE.INTRA.POLAR>
-0.426632

>  <SCORE.INTRA.POLAR.0>
-0.0677885

>  <SCORE.INTRA.REPUL>
0

>  <SCORE.INTRA.REPUL.0>
0

>  <SCORE.INTRA.SOLV>
-0.8428

>  <SCORE.INTRA.SOLV.lig_0>
-87.6316

>  <SCORE.INTRA.VDW>
1.13511

>  <SCORE.INTRA.VDW.0>
-2.87309

>  <SCORE.INTRA.norm>
-0.0211641

>  <SCORE.RESTR>
0

>  <SCORE.RESTR.CAVITY>
0

>  <SCORE.RESTR.norm>
0

>  <SCORE.SYSTEM>
0

>  <SCORE.SYSTEM.CONST>
0

>  <SCORE.SYSTEM.DIHEDRAL>
0

>  <SCORE.SYSTEM.SOLV>
0

>  <SCORE.SYSTEM.norm>
0

>  <SCORE.heavy>
31

>  <SCORE.norm>
-1.79608

>  <SYMMETRIC_BONDS>
33 34 3

>  <RMSD>
2.401

$$$$
1fmn_cryst
 OpenBabel11021811393D
libRbt.so/2013.1/901 2013/11/27
 31 33  0  0  0  0  0  0  0  0999 V2000
   -8.8557   -6.1637    3.5627 N   0  0  0  0  0  0  0  0  0  0  0  0
   -9.6331   -6.2202    4.6958 C   0  0  0  0  0  0  0  0  0  0  0  0
   -9.2446   -6.7695    5.7272 O   0  0  0  0  0  0  0  0  0  0  0  0
  -10.9096   -5.6113    4.5991 N   0  0  0  0  0  0  0  0  0  0  0  0
  -11.4521   -4.9634    3.4677 C   0  0  0  0  0  0  0  0  0  0  0  0
  -12.5858   -4.4703    3.5215 O   0  0  0  0  0  0  0  0  0  0  0  0
  -10.5637   -4.9466    2.3033 C   0  0  0  0  0  0  0  0  0  0  0  0
  -11.0174   -4.3345    1.1615 N   0  0  0  0  0  0  0  0  0  0  0  0
  -10.2680   -4.4769    0.0298 C   0  0  0  0  0  0  0  0  0  0  0  0
  -10.8053   -4.0242   -1.1621 C   0  0  0  0  0  0  0  0  0  0  0  0
  -10.1186   -4.1322   -2.3232 C   0  0  0  0  0  0  0  0  0  0  0  0
  -10.7433   -3.6242   -3.5834 C   0  0  0  0  0  0  0  0  0  0  0  0
   -8.8794   -4.6937   -2.3393 C   0  0  0  0  0  0  0  0  0  0  0  0
   -8.1312   -4.8152   -3.6267 C   0  0  0  0  0  0  0  0  0  0  0  0
   -8.3119   -5.1511   -1.1941 C   0  0  0  0  0  0  0  0  0  0  0  0
   -8.9770   -5.0632    0.0288 C   0  0  0  0  0  0  0  0  0  0  0  0
   -8.4449   -5.5148    1.2547 N   0  0  0  0  0  0  0  0  0  0  0  0
   -9.2624   -5.5646    2.4025 C   0  0  0  0  0  0  0  0  0  0  0  0
   -6.9562   -5.3895    1.4702 C   0  0  0  0  0  0  0  0  0  0  0  0
   -6.1906   -6.7082    1.7946 C   0  0  1  0  0  0  0  0  0  0  0  0
   -5.8238   -7.3695    0.5921 O   0  0  0  0  0  0  0  0  0  0  0  0
   -4.9803   -6.4956    2.7347 C   0  0  1  0  0  0  0  0  0  0  0  0
   -4.3745   -7.7460    3.0496 O   0  0  0  0  0  0  0  0  0  0  0  0
   -3.8997   -5.4887    2.2694 C   0  0  1  0  0  0  0  0  0  0  0  0
   -3.5105   -5.8283    0.9431 O   0  0  0  0  0  0  0  0  0  0  0  0
   -4.3943   -4.0249    2.2832 C   0  0  0  0  0  0  0  0  0  0  0  0
   -4.8828   -3.6283    3.5592 O   0  0  0  0  0  0  0  0  0  0  0  0
   -4.0384   -3.7965    4.8896 P   0  0  0  0  0  0  0  0  0  0  0  0
   -3.9863   -5.2161    5.3068 O   0  0  0  0  0  0  0  0  0  0  0  0
   -2.7724   -3.0371    4.8029 O   0  5  0  0  0  0  0  0  0  0  0  0
   -4.9213   -3.0620    5.9923 O   0  5  0  0  0  0  0  0  0  0  0  0
  1 18  1  0  0  0  0
  1  2  1  0  0  0  0
  2  4  1  0  0  0  0
  2  3  2  0  0  0  0
  4  5  1  0  0  0  0
  5  7  1  0  0  0  0
  5  6  2  0  0  0  0
  7 18  2  0  0  0  0
  7  8  1  0  0  0  0
  8  9  1  0  0  0  0
  9 10  2  0  0  0  0
  9 16  1  0  0  0  0
 10 11  1  0  0  0  0
 11 12  1  0  0  0  0
 11 13  2  0  0  0  0
 13 14  1  0  0  0  0
 13 15  1  0  0  0  0
 15 16  2  0  0  0  0
 16 17  1  0  0  0  0
 17 19  1  0  0  0  0
 17 18  1  0  0  0  0
 20 19  1  6  0  0  0
 20 22  1  0  0  0  0
 20 21  1  0  0  0  0
 22 24  1  0  0  0  0
 22 23  1  6  0  0  0
 24 26  1  6  0  0  0
 24 25  1  0  0  0  0
 26 27  1  0  0  0  0
 27 28  1  0  0  0  0
 28 30  1  0  0  0  0
 28 29  2  0  0  0  0
 28 31  1  0  0  0  0
M  CHG  2  30  -1  31  -1
M  END
>  <CHROM.1>
-122.79017920,86.06794166,176.70708211,-172.51341055,-51.39838247,58.97470900
55.92350725,171.33949044,52.81361977,-73.77725829,-7.43095268,-5.07345494
2.08349355,2.48165535,-0.00484919,-1.54407961

>  <Name>
1fmn_cryst

>  <RI>
0

>  <Rbt.Current_Directory>
/home/itssahil/PROJECTS/Mol_Feturizer/New_Systems/rnas/1fmn

>  <Rbt.Executable>
rbdock ($Id: //depot/dev/client3/rdock/2013.1/src/exe/rbdock.cxx#4 $)

>  <Rbt.Library>
libRbt.so (2013.1, Build901 2013/11/27)

>  <Rbt.Parameter_File>
/export/apps/rDock/src/rDock_2013.1_src/data/scripts/dock_solv.prm

>  <Rbt.Receptor>
prm/pocket_docking_5.prm

>  <SCORE>
-55.0663

>  <SCORE.INTER>
-52.0101

>  <SCORE.INTER.CONST>
1

>  <SCORE.INTER.POLAR>
-3.26092

>  <SCORE.INTER.ROT>
7

>  <SCORE.INTER.SOLV>
26.3536

>  <SCORE.INTER.VDW>
-40.8549

>  <SCORE.INTER.norm>
-1.67775

>  <SCORE.INTRA>
-3.66677

>  <SCORE.INTRA.DIHEDRAL>
-9.82232

>  <SCORE.INTRA.DIHEDRAL.0>
15.5708

>  <SCORE.INTRA.POLAR>
0.0677885

>  <SCORE.INTRA.POLAR.0>
-0.0677885

>  <SCORE.INTRA.REPUL>
0

>  <SCORE.INTRA.REPUL.0>
0

>  <SCORE.INTRA.SOLV>
-0.231253

>  <SCORE.INTRA.SOLV.lig_0>
-87.6316

>  <SCORE.INTRA.VDW>
1.12954

>  <SCORE.INTRA.VDW.0>
-2.87309

>  <SCORE.INTRA.norm>
-0.118283

>  <SCORE.RESTR>
0.610566

>  <SCORE.RESTR.CAVITY>
0.610566

>  <SCORE.RESTR.norm>
0.0196957

>  <SCORE.SYSTEM>
0

>  <SCORE.SYSTEM.CONST>
0

>  <SCORE.SYSTEM.DIHEDRAL>
0

>  <SCORE.SYSTEM.SOLV>
0

>  <SCORE.SYSTEM.norm>
0

>  <SCORE.heavy>
31

>  <SCORE.norm>
-1.77633

>  <SYMMETRIC_BONDS>
33 34 3

>  <RMSD>
2.414

$$$$
1fmn_cryst
 OpenBabel11021811393D
libRbt.so/2013.1/901 2013/11/27
 31 33  0  0  0  0  0  0  0  0999 V2000
   -9.2429   -6.5650    3.7801 N   0  0  0  0  0  0  0  0  0  0  0  0
  -10.1310   -6.5347    4.8297 C   0  0  0  0  0  0  0  0  0  0  0  0
   -9.9290   -7.1558    5.8738 O   0  0  0  0  0  0  0  0  0  0  0  0
  -11.2939   -5.7486    4.6314 N   0  0  0  0  0  0  0  0  0  0  0  0
  -11.6238   -5.0060    3.4765 C   0  0  0  0  0  0  0  0  0  0  0  0
  -12.6774   -4.3581    3.4376 O   0  0  0  0  0  0  0  0  0  0  0  0
  -10.6287   -5.0906    2.4051 C   0  0  0  0  0  0  0  0  0  0  0  0
  -10.8750   -4.3958    1.2471 N   0  0  0  0  0  0  0  0  0  0  0  0
  -10.0423   -4.6189    0.1891 C   0  0  0  0  0  0  0  0  0  0  0  0
  -10.3881   -4.0688   -1.0325 C   0  0  0  0  0  0  0  0  0  0  0  0
   -9.6094   -4.2484   -2.1246 C   0  0  0  0  0  0  0  0  0  0  0  0
  -10.0267   -3.6297   -3.4206 C   0  0  0  0  0  0  0  0  0  0  0  0
   -8.4653   -4.9797   -2.0404 C   0  0  0  0  0  0  0  0  0  0  0  0
   -7.6151   -5.1787   -3.2527 C   0  0  0  0  0  0  0  0  0  0  0  0
   -8.0857   -5.5378   -0.8625 C   0  0  0  0  0  0  0  0  0  0  0  0
   -8.8521   -5.3825    0.2925 C   0  0  0  0  0  0  0  0  0  0  0  0
   -8.5147   -5.9314    1.5474 N   0  0  0  0  0  0  0  0  0  0  0  0
   -9.4428   -5.8892    2.6079 C   0  0  0  0  0  0  0  0  0  0  0  0
   -7.0525   -6.0237    1.9105 C   0  0  0  0  0  0  0  0  0  0  0  0
   -6.0537   -5.3173    0.9442 C   0  0  1  0  0  0  0  0  0  0  0  0
   -5.3255   -4.3154    1.6399 O   0  0  0  0  0  0  0  0  0  0  0  0
   -5.1219   -6.3043    0.2014 C   0  0  1  0  0  0  0  0  0  0  0  0
   -5.0570   -5.9746   -1.1830 O   0  0  0  0  0  0  0  0  0  0  0  0
   -3.6920   -6.4804    0.7690 C   0  0  1  0  0  0  0  0  0  0  0  0
   -3.7870   -6.6629    2.1774 O   0  0  0  0  0  0  0  0  0  0  0  0
   -2.9465   -7.6891    0.1600 C   0  0  0  0  0  0  0  0  0  0  0  0
   -1.5446   -7.6385    0.3969 O   0  0  0  0  0  0  0  0  0  0  0  0
   -0.9067   -7.9064    1.8226 P   0  0  0  0  0  0  0  0  0  0  0  0
    0.4473   -8.4913    1.6945 O   0  0  0  0  0  0  0  0  0  0  0  0
   -1.0908   -6.7337    2.7047 O   0  5  0  0  0  0  0  0  0  0  0  0
   -1.8141   -9.0649    2.4302 O   0  5  0  0  0  0  0  0  0  0  0  0
  1 18  1  0  0  0  0
  1  2  1  0  0  0  0
  2  4  1  0  0  0  0
  2  3  2  0  0  0  0
  4  5  1  0  0  0  0
  5  7  1  0  0  0  0
  5  6  2  0  0  0  0
  7 18  2  0  0  0  0
  7  8  1  0  0  0  0
  8  9  1  0  0  0  0
  9 10  2  0  0  0  0
  9 16  1  0  0  0  0
 10 11  1  0  0  0  0
 11 12  1  0  0  0  0
 11 13  2  0  0  0  0
 13 14  1  0  0  0  0
 13 15  1  0  0  0  0
 15 16  2  0  0  0  0
 16 17  1  0  0  0  0
 17 19  1  0  0  0  0
 17 18  1  0  0  0  0
 20 19  1  1  0  0  0
 20 22  1  0  0  0  0
 20 21  1  0  0  0  0
 22 24  1  0  0  0  0
 22 23  1  6  0  0  0
 24 26  1  6  0  0  0
 24 25  1  0  0  0  0
 26 27  1  0  0  0  0
 27 28  1  0  0  0  0
 28 30  1  0  0  0  0
 28 29  2  0  0  0  0
 28 31  1  0  0  0  0
M  CHG  2  30  -1  31  -1
M  END
>  <CHROM.1>
8.33290712,119.82163991,134.09214413,-141.62457455,47.06650193,-162.60886456
163.98121696,-60.99223466,72.44098349,149.87356696,-6.73221254,-6.02225215
1.26523763,3.08762680,0.27797614,-1.28482386

>  <Name>
1fmn_cryst

>  <RI>
0

>  <Rbt.Current_Directory>
/home/itssahil/PROJECTS/Mol_Feturizer/New_Systems/rnas/1fmn

>  <Rbt.Executable>
rbdock ($Id: //depot/dev/client3/rdock/2013.1/src/exe/rbdock.cxx#4 $)

>  <Rbt.Library>
libRbt.so (2013.1, Build901 2013/11/27)

>  <Rbt.Parameter_File>
/export/apps/rDock/src/rDock_2013.1_src/data/scripts/dock_solv.prm

>  <Rbt.Receptor>
prm/pocket_docking_6.prm

>  <SCORE>
-49.4211

>  <SCORE.INTER>
-53.2022

>  <SCORE.INTER.CONST>
1

>  <SCORE.INTER.POLAR>
-3.59539

>  <SCORE.INTER.ROT>
7

>  <SCORE.INTER.SOLV>
19.2363

>  <SCORE.INTER.VDW>
-38.1622

>  <SCORE.INTER.norm>
-1.7162

>  <SCORE.INTRA>
3.31247

>  <SCORE.INTRA.DIHEDRAL>
5.87145

>  <SCORE.INTRA.DIHEDRAL.0>
15.5708

>  <SCORE.INTRA.POLAR>
-0.507089

>  <SCORE.INTRA.POLAR.0>
-0.0677885

>  <SCORE.INTRA.REPUL>
0

>  <SCORE.INTRA.REPUL.0>
0

>  <SCORE.INTRA.SOLV>
0.326641

>  <SCORE.INTRA.SOLV.lig_0>
-87.6316

>  <SCORE.INTRA.VDW>
1.93752

>  <SCORE.INTRA.VDW.0>
-2.87309

>  <SCORE.INTRA.norm>
0.106854

>  <SCORE.RESTR>
0.468609

>  <SCORE.RESTR.CAVITY>
0.468609

>  <SCORE.RESTR.norm>
0.0151164

>  <SCORE.SYSTEM>
0

>  <SCORE.SYSTEM.CONST>
0

>  <SCORE.SYSTEM.DIHEDRAL>
0

>  <SCORE.SYSTEM.SOLV>
0

>  <SCORE.SYSTEM.norm>
0

>  <SCORE.heavy>
31

>  <SCORE.norm>
-1.59423

>  <SYMMETRIC_BONDS>
33 34 3

>  <RMSD>
2.414

$$$$
1fmn_cryst
 OpenBabel11021811393D
libRbt.so/2013.1/901 2013/11/27
 31 33  0  0  0  0  0  0  0  0999 V2000
   -8.7401   -6.1861    3.6320 N   0  0  0  0  0  0  0  0  0  0  0  0
   -9.5474   -6.2548    4.7433 C   0  0  0  0  0  0  0  0  0  0  0  0
   -9.1727   -6.7834    5.7905 O   0  0  0  0  0  0  0  0  0  0  0  0
  -10.8375   -5.6839    4.6049 N   0  0  0  0  0  0  0  0  0  0  0  0
  -11.3661   -5.0621    3.4524 C   0  0  0  0  0  0  0  0  0  0  0  0
  -12.5145   -4.6015    3.4696 O   0  0  0  0  0  0  0  0  0  0  0  0
  -10.4459   -5.0301    2.3133 C   0  0  0  0  0  0  0  0  0  0  0  0
  -10.8844   -4.4416    1.1533 N   0  0  0  0  0  0  0  0  0  0  0  0
  -10.0995   -4.5725    0.0445 C   0  0  0  0  0  0  0  0  0  0  0  0
  -10.6155   -4.1462   -1.1664 C   0  0  0  0  0  0  0  0  0  0  0  0
   -9.8934   -4.2448   -2.3066 C   0  0  0  0  0  0  0  0  0  0  0  0
  -10.4964   -3.7664   -3.5888 C   0  0  0  0  0  0  0  0  0  0  0  0
   -8.6387   -4.7704   -2.2825 C   0  0  0  0  0  0  0  0  0  0  0  0
   -7.8511   -4.8818   -3.5471 C   0  0  0  0  0  0  0  0  0  0  0  0
   -8.0910   -5.2010   -1.1173 C   0  0  0  0  0  0  0  0  0  0  0  0
   -8.7927   -5.1212    0.0855 C   0  0  0  0  0  0  0  0  0  0  0  0
   -8.2828   -5.5463    1.3302 N   0  0  0  0  0  0  0  0  0  0  0  0
   -9.1307   -5.6093    2.4550 C   0  0  0  0  0  0  0  0  0  0  0  0
   -6.8050   -5.3762    1.5861 C   0  0  0  0  0  0  0  0  0  0  0  0
   -5.9557   -6.6826    1.6308 C   0  0  1  0  0  0  0  0  0  0  0  0
   -5.1752   -6.7995    0.4496 O   0  0  0  0  0  0  0  0  0  0  0  0
   -5.0963   -6.8083    2.9113 C   0  0  1  0  0  0  0  0  0  0  0  0
   -5.8607   -7.3901    3.9634 O   0  0  0  0  0  0  0  0  0  0  0  0
   -3.7403   -7.5436    2.7760 C   0  0  1  0  0  0  0  0  0  0  0  0
   -3.0961   -7.5354    4.0453 O   0  0  0  0  0  0  0  0  0  0  0  0
   -3.8929   -9.0073    2.3051 C   0  0  0  0  0  0  0  0  0  0  0  0
   -2.6393   -9.6284    2.0462 O   0  0  0  0  0  0  0  0  0  0  0  0
   -2.5057  -11.1594    1.6599 P   0  0  0  0  0  0  0  0  0  0  0  0
   -1.4138  -11.8041    2.4242 O   0  0  0  0  0  0  0  0  0  0  0  0
   -3.8339  -11.8093    1.6377 O   0  5  0  0  0  0  0  0  0  0  0  0
   -2.0038  -11.1249    0.1493 O   0  5  0  0  0  0  0  0  0  0  0  0
  1 18  1  0  0  0  0
  1  2  1  0  0  0  0
  2  4  1  0  0  0  0
  2  3  2  0  0  0  0
  4  5  1  0  0  0  0
  5  7  1  0  0  0  0
  5  6  2  0  0  0  0
  7 18  2  0  0  0  0
  7  8  1  0  0  0  0
  8  9  1  0  0  0  0
  9 10  2  0  0  0  0
  9 16  1  0  0  0  0
 10 11  1  0  0  0  0
 11 12  1  0  0  0  0
 11 13  2  0  0  0  0
 13 14  1  0  0  0  0
 13 15  1  0  0  0  0
 15 16  2  0  0  0  0
 16 17  1  0  0  0  0
 17 19  1  0  0  0  0
 17 18  1  0  0  0  0
 20 19  1  6  0  0  0
 20 22  1  0  0  0  0
 20 21  1  0  0  0  0
 22 24  1  0  0  0  0
 22 23  1  1  0  0  0
 24 26  1  1  0  0  0
 24 25  1  0  0  0  0
 26 27  1  0  0  0  0
 27 28  1  0  0  0  0
 28 30  1  0  0  0  0
 28 29  2  0  0  0  0
 28 31  1  0  0  0  0
M  CHG  2  30  -1  31  -1
M  END
>  <CHROM.1>
-109.67054570,106.20704884,85.64256330,-72.38783198,179.06944132,-170.19086050
173.67194411,64.07126502,175.12093385,-134.71869383,-7.00264306,-6.89397397
1.57714707,2.87424610,0.59767752,-1.35271454

>  <Name>
1fmn_cryst

>  <RI>
0

>  <Rbt.Current_Directory>
/home/itssahil/PROJECTS/Mol_Feturizer/New_Systems/rnas/1fmn

>  <Rbt.Executable>
rbdock ($Id: //depot/dev/client3/rdock/2013.1/src/exe/rbdock.cxx#4 $)

>  <Rbt.Library>
libRbt.so (2013.1, Build901 2013/11/27)

>  <Rbt.Parameter_File>
/export/apps/rDock/src/rDock_2013.1_src/data/scripts/dock_solv.prm

>  <Rbt.Receptor>
prm/pocket_docking_6.prm

>  <SCORE>
-57.2287

>  <SCORE.INTER>
-51.4088

>  <SCORE.INTER.CONST>
1

>  <SCORE.INTER.POLAR>
-2.95372

>  <SCORE.INTER.ROT>
7

>  <SCORE.INTER.SOLV>
19.2059

>  <SCORE.INTER.VDW>
-39.0955

>  <SCORE.INTER.norm>
-1.65835

>  <SCORE.INTRA>
-5.81986

>  <SCORE.INTRA.DIHEDRAL>
-2.74988

>  <SCORE.INTRA.DIHEDRAL.0>
15.5708

>  <SCORE.INTRA.POLAR>
-0.932211

>  <SCORE.INTRA.POLAR.0>
-0.0677885

>  <SCORE.INTRA.REPUL>
0

>  <SCORE.INTRA.REPUL.0>
0

>  <SCORE.INTRA.SOLV>
-4.18803

>  <SCORE.INTRA.SOLV.lig_0>
-87.6316

>  <SCORE.INTRA.VDW>
0.818616

>  <SCORE.INTRA.VDW.0>
-2.87309

>  <SCORE.INTRA.norm>
-0.187737

>  <SCORE.RESTR>
0

>  <SCORE.RESTR.CAVITY>
0

>  <SCORE.RESTR.norm>
0

>  <SCORE.SYSTEM>
0

>  <SCORE.SYSTEM.CONST>
0

>  <SCORE.SYSTEM.DIHEDRAL>
0

>  <SCORE.SYSTEM.SOLV>
0

>  <SCORE.SYSTEM.norm>
0

>  <SCORE.heavy>
31

>  <SCORE.norm>
-1.84609

>  <SYMMETRIC_BONDS>
33 34 3

>  <RMSD>
2.428

$$$$
1fmn_cryst
 OpenBabel11021811393D
libRbt.so/2013.1/901 2013/11/27
 31 33  0  0  0  0  0  0  0  0999 V2000
   -8.5651   -6.1150    3.3958 N   0  0  0  0  0  0  0  0  0  0  0  0
   -9.3487   -6.1860    4.5238 C   0  0  0  0  0  0  0  0  0  0  0  0
   -8.9468   -6.7039    5.5663 O   0  0  0  0  0  0  0  0  0  0  0  0
  -10.6477   -5.6304    4.4084 N   0  0  0  0  0  0  0  0  0  0  0  0
  -11.2067   -5.0217    3.2633 C   0  0  0  0  0  0  0  0  0  0  0  0
  -12.3597   -4.5738    3.3012 O   0  0  0  0  0  0  0  0  0  0  0  0
  -10.3104   -4.9863    2.1055 C   0  0  0  0  0  0  0  0  0  0  0  0
  -10.7790   -4.4100    0.9512 N   0  0  0  0  0  0  0  0  0  0  0  0
  -10.0154   -4.5389   -0.1725 C   0  0  0  0  0  0  0  0  0  0  0  0
  -10.5608   -4.1258   -1.3752 C   0  0  0  0  0  0  0  0  0  0  0  0
   -9.8610   -4.2234   -2.5294 C   0  0  0  0  0  0  0  0  0  0  0  0
  -10.4954   -3.7596   -3.8017 C   0  0  0  0  0  0  0  0  0  0  0  0
   -8.6002   -4.7347   -2.5277 C   0  0  0  0  0  0  0  0  0  0  0  0
   -7.8373   -4.8451   -3.8075 C   0  0  0  0  0  0  0  0  0  0  0  0
   -8.0241   -5.1519   -1.3715 C   0  0  0  0  0  0  0  0  0  0  0  0
   -8.7020   -5.0727   -0.1551 C   0  0  0  0  0  0  0  0  0  0  0  0
   -8.1620   -5.4843    1.0815 N   0  0  0  0  0  0  0  0  0  0  0  0
   -8.9861   -5.5499    2.2237 C   0  0  0  0  0  0  0  0  0  0  0  0
   -6.6814   -5.2961    1.3061 C   0  0  0  0  0  0  0  0  0  0  0  0
   -5.8697   -6.5744    1.6768 C   0  0  1  0  0  0  0  0  0  0  0  0
   -6.2534   -7.6570    0.8410 O   0  0  0  0  0  0  0  0  0  0  0  0
   -4.3391   -6.3483    1.6710 C   0  0  1  0  0  0  0  0  0  0  0  0
   -4.0462   -4.9562    1.5959 O   0  0  0  0  0  0  0  0  0  0  0  0
   -3.5307   -6.9957    2.8222 C   0  0  1  0  0  0  0  0  0  0  0  0
   -3.9767   -6.4381    4.0535 O   0  0  0  0  0  0  0  0  0  0  0  0
   -3.6934   -8.5311    2.8836 C   0  0  0  0  0  0  0  0  0  0  0  0
   -3.2301   -9.1743    1.7022 O   0  0  0  0  0  0  0  0  0  0  0  0
   -3.1059  -10.7492    1.5771 P   0  0  0  0  0  0  0  0  0  0  0  0
   -2.6564  -11.1379    0.2210 O   0  0  0  0  0  0  0  0  0  0  0  0
   -2.3957  -11.3106    2.7464 O   0  5  0  0  0  0  0  0  0  0  0  0
   -4.6111  -11.2563    1.6871 O   0  5  0  0  0  0  0  0  0  0  0  0
  1 18  1  0  0  0  0
  1  2  1  0  0  0  0
  2  4  1  0  0  0  0
  2  3  2  0  0  0  0
  4  5  1  0  0  0  0
  5  7  1  0  0  0  0
  5  6  2  0  0  0  0
  7 18  2  0  0  0  0
  7  8  1  0  0  0  0
  8  9  1  0  0  0  0
  9 10  2  0  0  0  0
  9 16  1  0  0  0  0
 10 11  1  0  0  0  0
 11 12  1  0  0  0  0
 11 13  2  0  0  0  0
 13 14  1  0  0  0  0
 13 15  1  0  0  0  0
 15 16  2  0  0  0  0
 16 17  1  0  0  0  0
 17 19  1  0  0  0  0
 17 18  1  0  0  0  0
 20 19  1  6  0  0  0
 20 22  1  0  0  0  0
 20 21  1  0  0  0  0
 22 24  1  0  0  0  0
 22 23  1  1  0  0  0
 24 26  1  1  0  0  0
 24 25  1  0  0  0  0
 26 27  1  0  0  0  0
 27 28  1  0  0  0  0
 28 30  1  0  0  0  0
 28 29  2  0  0  0  0
 28 31  1  0  0  0  0
M  CHG  2  30  -1  31  -1
M  END
>  <CHROM.1>
-123.66408986,44.46179485,11.94528697,60.55887289,-61.87131831,-75.10085641
61.40803861,61.86810045,171.80698630,177.47971734,-7.05493617,-6.63972675
1.35503301,2.82030894,0.58859925,-1.35359895

>  <Name>
1fmn_cryst

>  <RI>
0

>  <Rbt.Current_Directory>
/home/itssahil/PROJECTS/Mol_Feturizer/New_Systems/rnas/1fmn

>  <Rbt.Executable>
rbdock ($Id: //depot/dev/client3/rdock/2013.1/src/exe/rbdock.cxx#4 $)

>  <Rbt.Library>
libRbt.so (2013.1, Build901 2013/11/27)

>  <Rbt.Parameter_File>
/export/apps/rDock/src/rDock_2013.1_src/data/scripts/dock_solv.prm

>  <Rbt.Receptor>
prm/pocket_docking_6.prm

>  <SCORE>
-57.2574

>  <SCORE.INTER>
-53.7573

>  <SCORE.INTER.CONST>
1

>  <SCORE.INTER.POLAR>
-3.6262

>  <SCORE.INTER.ROT>
7

>  <SCORE.INTER.SOLV>
23.394

>  <SCORE.INTER.VDW>
-39.8155

>  <SCORE.INTER.norm>
-1.73411

>  <SCORE.INTRA>
-3.5001

>  <SCORE.INTRA.DIHEDRAL>
-6.30262

>  <SCORE.INTRA.DIHEDRAL.0>
15.5708

>  <SCORE.INTRA.POLAR>
0.0677885

>  <SCORE.INTRA.POLAR.0>
-0.0677885

>  <SCORE.INTRA.REPUL>
0

>  <SCORE.INTRA.REPUL.0>
0

>  <SCORE.INTRA.SOLV>
-4.3602

>  <SCORE.INTRA.SOLV.lig_0>
-87.6316

>  <SCORE.INTRA.VDW>
1.60083

>  <SCORE.INTRA.VDW.0>
-2.87309

>  <SCORE.INTRA.norm>
-0.112906

>  <SCORE.RESTR>
0

>  <SCORE.RESTR.CAVITY>
0

>  <SCORE.RESTR.norm>
0

>  <SCORE.SYSTEM>
0

>  <SCORE.SYSTEM.CONST>
0

>  <SCORE.SYSTEM.DIHEDRAL>
0

>  <SCORE.SYSTEM.SOLV>
0

>  <SCORE.SYSTEM.norm>
0

>  <SCORE.heavy>
31

>  <SCORE.norm>
-1.84701

>  <SYMMETRIC_BONDS>
33 34 3

>  <RMSD>
2.463

$$$$
1fmn_cryst
 OpenBabel11021811393D
libRbt.so/2013.1/901 2013/11/27
 31 33  0  0  0  0  0  0  0  0999 V2000
   -8.8568   -6.1584    3.5122 N   0  0  0  0  0  0  0  0  0  0  0  0
   -9.6246   -6.2088    4.6521 C   0  0  0  0  0  0  0  0  0  0  0  0
   -9.2353   -6.7696    5.6770 O   0  0  0  0  0  0  0  0  0  0  0  0
  -10.8922   -5.5794    4.5704 N   0  0  0  0  0  0  0  0  0  0  0  0
  -11.4348   -4.9170    3.4474 C   0  0  0  0  0  0  0  0  0  0  0  0
  -12.5601   -4.4065    3.5143 O   0  0  0  0  0  0  0  0  0  0  0  0
  -10.5570   -4.9079    2.2750 C   0  0  0  0  0  0  0  0  0  0  0  0
  -11.0115   -4.2827    1.1406 N   0  0  0  0  0  0  0  0  0  0  0  0
  -10.2748   -4.4309    0.0014 C   0  0  0  0  0  0  0  0  0  0  0  0
  -10.8158   -3.9634   -1.1832 C   0  0  0  0  0  0  0  0  0  0  0  0
  -10.1416   -4.0760   -2.3512 C   0  0  0  0  0  0  0  0  0  0  0  0
  -10.7698   -3.5516   -3.6029 C   0  0  0  0  0  0  0  0  0  0  0  0
   -8.9116   -4.6567   -2.3816 C   0  0  0  0  0  0  0  0  0  0  0  0
   -8.1772   -4.7831   -3.6765 C   0  0  0  0  0  0  0  0  0  0  0  0
   -8.3409   -5.1291   -1.2441 C   0  0  0  0  0  0  0  0  0  0  0  0
   -8.9933   -5.0373   -0.0147 C   0  0  0  0  0  0  0  0  0  0  0  0
   -8.4571   -5.5037    1.2039 N   0  0  0  0  0  0  0  0  0  0  0  0
   -9.2646   -5.5468    2.3589 C   0  0  0  0  0  0  0  0  0  0  0  0
   -6.9647   -5.4029    1.4062 C   0  0  0  0  0  0  0  0  0  0  0  0
   -6.2175   -6.7346    1.7200 C   0  0  1  0  0  0  0  0  0  0  0  0
   -6.4629   -7.6867    0.6947 O   0  0  0  0  0  0  0  0  0  0  0  0
   -4.7053   -6.5386    1.9828 C   0  0  1  0  0  0  0  0  0  0  0  0
   -4.5061   -5.7318    3.1399 O   0  0  0  0  0  0  0  0  0  0  0  0
   -3.8386   -7.8184    2.0768 C   0  0  1  0  0  0  0  0  0  0  0  0
   -2.4898   -7.4310    2.3146 O   0  0  0  0  0  0  0  0  0  0  0  0
   -4.2896   -8.7699    3.2077 C   0  0  0  0  0  0  0  0  0  0  0  0
   -3.4678   -9.9272    3.3042 O   0  0  0  0  0  0  0  0  0  0  0  0
   -3.3592  -10.9997    2.1427 P   0  0  0  0  0  0  0  0  0  0  0  0
   -2.7653  -10.4021    0.9252 O   0  0  0  0  0  0  0  0  0  0  0  0
   -2.7974  -12.2681    2.6552 O   0  5  0  0  0  0  0  0  0  0  0  0
   -4.8762  -11.3058    1.7688 O   0  5  0  0  0  0  0  0  0  0  0  0
  1 18  1  0  0  0  0
  1  2  1  0  0  0  0
  2  4  1  0  0  0  0
  2  3  2  0  0  0  0
  4  5  1  0  0  0  0
  5  7  1  0  0  0  0
  5  6  2  0  0  0  0
  7 18  2  0  0  0  0
  7  8  1  0  0  0  0
  8  9  1  0  0  0  0
  9 10  2  0  0  0  0
  9 16  1  0  0  0  0
 10 11  1  0  0  0  0
 11 12  1  0  0  0  0
 11 13  2  0  0  0  0
 13 14  1  0  0  0  0
 13 15  1  0  0  0  0
 15 16  2  0  0  0  0
 16 17  1  0  0  0  0
 17 19  1  0  0  0  0
 17 18  1  0  0  0  0
 20 19  1  6  0  0  0
 20 22  1  0  0  0  0
 20 21  1  0  0  0  0
 22 24  1  0  0  0  0
 22 23  1  1  0  0  0
 24 26  1  1  0  0  0
 24 25  1  0  0  0  0
 26 27  1  0  0  0  0
 27 28  1  0  0  0  0
 28 30  1  0  0  0  0
 28 29  2  0  0  0  0
 28 31  1  0  0  0  0
M  CHG  2  30  -1  31  -1
M  END
>  <CHROM.1>
-122.93073133,56.43214718,63.11236288,-178.95992737,179.77914166,57.13594582
-178.66184559,56.21999785,-63.57021458,63.93556918,-7.27640184,-6.77037203
1.55434080,2.76088073,0.59441595,-1.29476439

>  <Name>
1fmn_cryst

>  <RI>
0

>  <Rbt.Current_Directory>
/home/itssahil/PROJECTS/Mol_Feturizer/New_Systems/rnas/1fmn

>  <Rbt.Executable>
rbdock ($Id: //depot/dev/client3/rdock/2013.1/src/exe/rbdock.cxx#4 $)

>  <Rbt.Library>
libRbt.so (2013.1, Build901 2013/11/27)

>  <Rbt.Parameter_File>
/export/apps/rDock/src/rDock_2013.1_src/data/scripts/dock_solv.prm

>  <Rbt.Receptor>
prm/pocket_docking_7.prm

>  <SCORE>
-54.0047

>  <SCORE.INTER>
-47.95

>  <SCORE.INTER.CONST>
1

>  <SCORE.INTER.POLAR>
-2.14891

>  <SCORE.INTER.ROT>
7

>  <SCORE.INTER.SOLV>
24.5458

>  <SCORE.INTER.VDW>
-41.2522

>  <SCORE.INTER.norm>
-1.54677

>  <SCORE.INTRA>
-6.05474

>  <SCORE.INTRA.DIHEDRAL>
-12.6452

>  <SCORE.INTRA.DIHEDRAL.0>
15.5708

>  <SCORE.INTRA.POLAR>
0.0606116

>  <SCORE.INTRA.POLAR.0>
-0.0677885

>  <SCORE.INTRA.REPUL>
0

>  <SCORE.INTRA.REPUL.0>
0

>  <SCORE.INTRA.SOLV>
-1.11261

>  <SCORE.INTRA.SOLV.lig_0>
-87.6316

>  <SCORE.INTRA.VDW>
0.618078

>  <SCORE.INTRA.VDW.0>
-2.87309

>  <SCORE.INTRA.norm>
-0.195314

>  <SCORE.RESTR>
0

>  <SCORE.RESTR.CAVITY>
0

>  <SCORE.RESTR.norm>
0

>  <SCORE.SYSTEM>
0

>  <SCORE.SYSTEM.CONST>
0

>  <SCORE.SYSTEM.DIHEDRAL>
0

>  <SCORE.SYSTEM.SOLV>
0

>  <SCORE.SYSTEM.norm>
0

>  <SCORE.heavy>
31

>  <SCORE.norm>
-1.74209

>  <SYMMETRIC_BONDS>
33 34 3

>  <RMSD>
2.467

$$$$
1fmn_cryst
 OpenBabel11021811393D
libRbt.so/2013.1/901 2013/11/27
 31 33  0  0  0  0  0  0  0  0999 V2000
   -8.7750   -6.8227    3.8142 N   0  0  0  0  0  0  0  0  0  0  0  0
   -9.6714   -6.7645    4.8556 C   0  0  0  0  0  0  0  0  0  0  0  0
   -9.4959   -7.3872    5.9035 O   0  0  0  0  0  0  0  0  0  0  0  0
  -10.8104   -5.9476    4.6442 N   0  0  0  0  0  0  0  0  0  0  0  0
  -11.1095   -5.2003    3.4839 C   0  0  0  0  0  0  0  0  0  0  0  0
  -12.1445   -4.5239    3.4334 O   0  0  0  0  0  0  0  0  0  0  0  0
  -10.1075   -5.3158    2.4219 C   0  0  0  0  0  0  0  0  0  0  0  0
  -10.3243   -4.6186    1.2595 N   0  0  0  0  0  0  0  0  0  0  0  0
   -9.4885   -4.8681    0.2098 C   0  0  0  0  0  0  0  0  0  0  0  0
   -9.8081   -4.3131   -1.0166 C   0  0  0  0  0  0  0  0  0  0  0  0
   -9.0248   -4.5177   -2.1010 C   0  0  0  0  0  0  0  0  0  0  0  0
   -9.4134   -3.8924   -3.4028 C   0  0  0  0  0  0  0  0  0  0  0  0
   -7.9020   -5.2798   -2.0041 C   0  0  0  0  0  0  0  0  0  0  0  0
   -7.0467   -5.5062   -3.2080 C   0  0  0  0  0  0  0  0  0  0  0  0
   -7.5484   -5.8439   -0.8210 C   0  0  0  0  0  0  0  0  0  0  0  0
   -8.3207   -5.6637    0.3265 C   0  0  0  0  0  0  0  0  0  0  0  0
   -8.0097   -6.2172    1.5862 N   0  0  0  0  0  0  0  0  0  0  0  0
   -8.9458   -6.1459    2.6381 C   0  0  0  0  0  0  0  0  0  0  0  0
   -6.5539   -6.3482    1.9628 C   0  0  0  0  0  0  0  0  0  0  0  0
   -5.8663   -5.0665    2.5238 C   0  0  1  0  0  0  0  0  0  0  0  0
   -5.5906   -5.2252    3.9082 O   0  0  0  0  0  0  0  0  0  0  0  0
   -4.6095   -4.6485    1.7239 C   0  0  1  0  0  0  0  0  0  0  0  0
   -4.5668   -3.2322    1.5767 O   0  0  0  0  0  0  0  0  0  0  0  0
   -3.2450   -5.1660    2.2417 C   0  0  1  0  0  0  0  0  0  0  0  0
   -2.4348   -5.4973    1.1193 O   0  0  0  0  0  0  0  0  0  0  0  0
   -2.4957   -4.1279    3.1069 C   0  0  0  0  0  0  0  0  0  0  0  0
   -3.0280   -4.0316    4.4228 O   0  0  0  0  0  0  0  0  0  0  0  0
   -2.5431   -4.9590    5.6128 P   0  0  0  0  0  0  0  0  0  0  0  0
   -1.0652   -4.9760    5.7013 O   0  0  0  0  0  0  0  0  0  0  0  0
   -3.3227   -4.6840    6.8390 O   0  5  0  0  0  0  0  0  0  0  0  0
   -2.9572   -6.4228    5.1431 O   0  5  0  0  0  0  0  0  0  0  0  0
  1 18  1  0  0  0  0
  1  2  1  0  0  0  0
  2  4  1  0  0  0  0
  2  3  2  0  0  0  0
  4  5  1  0  0  0  0
  5  7  1  0  0  0  0
  5  6  2  0  0  0  0
  7 18  2  0  0  0  0
  7  8  1  0  0  0  0
  8  9  1  0  0  0  0
  9 10  2  0  0  0  0
  9 16  1  0  0  0  0
 10 11  1  0  0  0  0
 11 12  1  0  0  0  0
 11 13  2  0  0  0  0
 13 14  1  0  0  0  0
 13 15  1  0  0  0  0
 15 16  2  0  0  0  0
 16 17  1  0  0  0  0
 17 19  1  0  0  0  0
 17 18  1  0  0  0  0
 20 19  1  6  0  0  0
 20 22  1  0  0  0  0
 20 21  1  0  0  0  0
 22 24  1  0  0  0  0
 22 23  1  1  0  0  0
 24 26  1  6  0  0  0
 24 25  1  0  0  0  0
 26 27  1  0  0  0  0
 27 28  1  0  0  0  0
 28 30  1  0  0  0  0
 28 29  2  0  0  0  0
 28 31  1  0  0  0  0
M  CHG  2  30  -1  31  -1
M  END
>  <CHROM.1>
81.82836705,109.96340931,139.63407711,167.17819251,141.72446998,-75.42901550
76.96065325,41.93390740,87.73342892,49.36509569,-6.66560713,-5.23593499,2.42682465
2.58841674,-0.11839977,-1.41796794

>  <Name>
1fmn_cryst

>  <RI>
0

>  <Rbt.Current_Directory>
/home/itssahil/PROJECTS/Mol_Feturizer/New_Systems/rnas/1fmn

>  <Rbt.Executable>
rbdock ($Id: //depot/dev/client3/rdock/2013.1/src/exe/rbdock.cxx#4 $)

>  <Rbt.Library>
libRbt.so (2013.1, Build901 2013/11/27)

>  <Rbt.Parameter_File>
/export/apps/rDock/src/rDock_2013.1_src/data/scripts/dock_solv.prm

>  <Rbt.Receptor>
prm/pocket_docking_8.prm

>  <SCORE>
-52.7092

>  <SCORE.INTER>
-52.7804

>  <SCORE.INTER.CONST>
1

>  <SCORE.INTER.POLAR>
-3.93062

>  <SCORE.INTER.ROT>
7

>  <SCORE.INTER.SOLV>
18.6545

>  <SCORE.INTER.VDW>
-36.5696

>  <SCORE.INTER.norm>
-1.70259

>  <SCORE.INTRA>
0.0711611

>  <SCORE.INTRA.DIHEDRAL>
5.64677

>  <SCORE.INTRA.DIHEDRAL.0>
15.5708

>  <SCORE.INTRA.POLAR>
-0.799308

>  <SCORE.INTRA.POLAR.0>
-0.0677885

>  <SCORE.INTRA.REPUL>
0

>  <SCORE.INTRA.REPUL.0>
0

>  <SCORE.INTRA.SOLV>
0.0177365

>  <SCORE.INTRA.SOLV.lig_0>
-87.6316

>  <SCORE.INTRA.VDW>
-0.0434446

>  <SCORE.INTRA.VDW.0>
-2.87309

>  <SCORE.INTRA.norm>
0.00229552

>  <SCORE.RESTR>
0

>  <SCORE.RESTR.CAVITY>
0

>  <SCORE.RESTR.norm>
0

>  <SCORE.SYSTEM>
0

>  <SCORE.SYSTEM.CONST>
0

>  <SCORE.SYSTEM.DIHEDRAL>
0

>  <SCORE.SYSTEM.SOLV>
0

>  <SCORE.SYSTEM.norm>
0

>  <SCORE.heavy>
31

>  <SCORE.norm>
-1.7003

>  <SYMMETRIC_BONDS>
33 34 3

>  <RMSD>
2.482

$$$$
1fmn_cryst
 OpenBabel11021811393D
libRbt.so/2013.1/901 2013/11/27
 31 33  0  0  0  0  0  0  0  0999 V2000
   -8.8364   -6.1363    3.4660 N   0  0  0  0  0  0  0  0  0  0  0  0
   -9.6201   -6.2257    4.5927 C   0  0  0  0  0  0  0  0  0  0  0  0
   -9.2186   -6.7618    5.6261 O   0  0  0  0  0  0  0  0  0  0  0  0
  -10.9185   -5.6669    4.4869 N   0  0  0  0  0  0  0  0  0  0  0  0
  -11.4769   -5.0381    3.3525 C   0  0  0  0  0  0  0  0  0  0  0  0
  -12.6294   -4.5898    3.3981 O   0  0  0  0  0  0  0  0  0  0  0  0
  -10.5806   -4.9838    2.1954 C   0  0  0  0  0  0  0  0  0  0  0  0
  -11.0487   -4.3873    1.0511 N   0  0  0  0  0  0  0  0  0  0  0  0
  -10.2853   -4.4977   -0.0747 C   0  0  0  0  0  0  0  0  0  0  0  0
  -10.8304   -4.0635   -1.2701 C   0  0  0  0  0  0  0  0  0  0  0  0
  -10.1307   -4.1420   -2.4258 C   0  0  0  0  0  0  0  0  0  0  0  0
  -10.7647   -3.6559   -3.6900 C   0  0  0  0  0  0  0  0  0  0  0  0
   -8.8704   -4.6545   -2.4330 C   0  0  0  0  0  0  0  0  0  0  0  0
   -8.1078   -4.7438   -3.7146 C   0  0  0  0  0  0  0  0  0  0  0  0
   -8.2947   -5.0921   -1.2841 C   0  0  0  0  0  0  0  0  0  0  0  0
   -8.9724   -5.0331   -0.0665 C   0  0  0  0  0  0  0  0  0  0  0  0
   -8.4329   -5.4664    1.1628 N   0  0  0  0  0  0  0  0  0  0  0  0
   -9.2569   -5.5507    2.3038 C   0  0  0  0  0  0  0  0  0  0  0  0
   -6.9519   -5.2836    1.3905 C   0  0  0  0  0  0  0  0  0  0  0  0
   -6.1469   -6.5637    1.7690 C   0  0  1  0  0  0  0  0  0  0  0  0
   -5.7862   -7.2795    0.5961 O   0  0  0  0  0  0  0  0  0  0  0  0
   -4.9247   -6.2713    2.6716 C   0  0  1  0  0  0  0  0  0  0  0  0
   -4.1497   -7.4531    2.8510 O   0  0  0  0  0  0  0  0  0  0  0  0
   -4.0066   -5.0978    2.2497 C   0  0  1  0  0  0  0  0  0  0  0  0
   -4.7661   -3.8949    2.2933 O   0  0  0  0  0  0  0  0  0  0  0  0
   -2.7716   -4.9398    3.1650 C   0  0  0  0  0  0  0  0  0  0  0  0
   -3.1254   -4.6081    4.5025 O   0  0  0  0  0  0  0  0  0  0  0  0
   -2.6054   -3.2976    5.2260 P   0  0  0  0  0  0  0  0  0  0  0  0
   -3.1121   -2.0829    4.5479 O   0  0  0  0  0  0  0  0  0  0  0  0
   -2.7698   -3.4111    6.6913 O   0  5  0  0  0  0  0  0  0  0  0  0
   -1.0369   -3.3132    4.9533 O   0  5  0  0  0  0  0  0  0  0  0  0
  1 18  1  0  0  0  0
  1  2  1  0  0  0  0
  2  4  1  0  0  0  0
  2  3  2  0  0  0  0
  4  5  1  0  0  0  0
  5  7  1  0  0  0  0
  5  6  2  0  0  0  0
  7 18  2  0  0  0  0
  7  8  1  0  0  0  0
  8  9  1  0  0  0  0
  9 10  2  0  0  0  0
  9 16  1  0  0  0  0
 10 11  1  0  0  0  0
 11 12  1  0  0  0  0
 11 13  2  0  0  0  0
 13 14  1  0  0  0  0
 13 15  1  0  0  0  0
 15 16  2  0  0  0  0
 16 17  1  0  0  0  0
 17 19  1  0  0  0  0
 17 18  1  0  0  0  0
 20 19  1  6  0  0  0
 20 22  1  0  0  0  0
 20 21  1  0  0  0  0
 22 24  1  0  0  0  0
 22 23  1  6  0  0  0
 24 26  1  1  0  0  0
 24 25  1  0  0  0  0
 26 27  1  0  0  0  0
 27 28  1  0  0  0  0
 28 30  1  0  0  0  0
 28 29  2  0  0  0  0
 28 31  1  0  0  0  0
M  CHG  2  30  -1  31  -1
M  END
>  <CHROM.1>
-124.92428125,83.90246050,-173.28947169,179.00096044,62.79563309,-169.65372174
-63.78750584,-173.89837904,-121.89312591,63.78262339,-7.09346832,-4.90631511
2.15572735,2.57050256,-0.13648856,-1.50063148

>  <Name>
1fmn_cryst

>  <RI>
0

>  <Rbt.Current_Directory>
/home/itssahil/PROJECTS/Mol_Feturizer/New_Systems/rnas/1fmn

>  <Rbt.Executable>
rbdock ($Id: //depot/dev/client3/rdock/2013.1/src/exe/rbdock.cxx#4 $)

>  <Rbt.Library>
libRbt.so (2013.1, Build901 2013/11/27)

>  <Rbt.Parameter_File>
/export/apps/rDock/src/rDock_2013.1_src/data/scripts/dock_solv.prm

>  <Rbt.Receptor>
prm/pocket_docking_6.prm

>  <SCORE>
-57.746

>  <SCORE.INTER>
-56.8764

>  <SCORE.INTER.CONST>
1

>  <SCORE.INTER.POLAR>
-4.15747

>  <SCORE.INTER.ROT>
7

>  <SCORE.INTER.SOLV>
19.265

>  <SCORE.INTER.VDW>
-38.7477

>  <SCORE.INTER.norm>
-1.83472

>  <SCORE.INTRA>
-0.869587

>  <SCORE.INTRA.DIHEDRAL>
-3.22985

>  <SCORE.INTRA.DIHEDRAL.0>
15.5708

>  <SCORE.INTRA.POLAR>
0.0351671

>  <SCORE.INTRA.POLAR.0>
-0.0677885

>  <SCORE.INTRA.REPUL>
0

>  <SCORE.INTRA.REPUL.0>
0

>  <SCORE.INTRA.SOLV>
-2.53482

>  <SCORE.INTRA.SOLV.lig_0>
-87.6316

>  <SCORE.INTRA.VDW>
1.89318

>  <SCORE.INTRA.VDW.0>
-2.87309

>  <SCORE.INTRA.norm>
-0.0280512

>  <SCORE.RESTR>
0

>  <SCORE.RESTR.CAVITY>
0

>  <SCORE.RESTR.norm>
0

>  <SCORE.SYSTEM>
0

>  <SCORE.SYSTEM.CONST>
0

>  <SCORE.SYSTEM.DIHEDRAL>
0

>  <SCORE.SYSTEM.SOLV>
0

>  <SCORE.SYSTEM.norm>
0

>  <SCORE.heavy>
31

>  <SCORE.norm>
-1.86277

>  <SYMMETRIC_BONDS>
33 34 3

>  <RMSD>
2.488

$$$$
1fmn_cryst
 OpenBabel11021811393D
libRbt.so/2013.1/901 2013/11/27
 31 33  0  0  0  0  0  0  0  0999 V2000
   -8.8266   -6.2318    3.5875 N   0  0  0  0  0  0  0  0  0  0  0  0
   -9.6038   -6.2408    4.7221 C   0  0  0  0  0  0  0  0  0  0  0  0
   -9.2502   -6.8180    5.7509 O   0  0  0  0  0  0  0  0  0  0  0  0
  -10.8376   -5.5488    4.6302 N   0  0  0  0  0  0  0  0  0  0  0  0
  -11.3385   -4.8628    3.5022 C   0  0  0  0  0  0  0  0  0  0  0  0
  -12.4372   -4.2963    3.5601 O   0  0  0  0  0  0  0  0  0  0  0  0
  -10.4533   -4.9006    2.3359 C   0  0  0  0  0  0  0  0  0  0  0  0
  -10.8680   -4.2561    1.1971 N   0  0  0  0  0  0  0  0  0  0  0  0
  -10.1319   -4.4437    0.0633 C   0  0  0  0  0  0  0  0  0  0  0  0
  -10.6406   -3.9526   -1.1260 C   0  0  0  0  0  0  0  0  0  0  0  0
   -9.9649   -4.1017   -2.2890 C   0  0  0  0  0  0  0  0  0  0  0  0
  -10.5573   -3.5494   -3.5461 C   0  0  0  0  0  0  0  0  0  0  0  0
   -8.7654   -4.7434   -2.3096 C   0  0  0  0  0  0  0  0  0  0  0  0
   -8.0294   -4.9096   -3.5991 C   0  0  0  0  0  0  0  0  0  0  0  0
   -8.2270   -5.2411   -1.1672 C   0  0  0  0  0  0  0  0  0  0  0  0
   -8.8823   -5.1137    0.0575 C   0  0  0  0  0  0  0  0  0  0  0  0
   -8.3786   -5.6035    1.2807 N   0  0  0  0  0  0  0  0  0  0  0  0
   -9.1953   -5.6032    2.4301 C   0  0  0  0  0  0  0  0  0  0  0  0
   -6.8845   -5.5772    1.4933 C   0  0  0  0  0  0  0  0  0  0  0  0
   -6.1756   -6.9619    1.5945 C   0  0  1  0  0  0  0  0  0  0  0  0
   -5.1623   -7.0665    0.6043 O   0  0  0  0  0  0  0  0  0  0  0  0
   -5.6382   -7.2701    3.0123 C   0  0  1  0  0  0  0  0  0  0  0  0
   -5.6841   -8.6717    3.2636 O   0  0  0  0  0  0  0  0  0  0  0  0
   -4.2358   -6.7168    3.3659 C   0  0  1  0  0  0  0  0  0  0  0  0
   -3.2711   -7.3945    2.5684 O   0  0  0  0  0  0  0  0  0  0  0  0
   -4.1074   -5.1971    3.1176 C   0  0  0  0  0  0  0  0  0  0  0  0
   -2.8664   -4.6744    3.5768 O   0  0  0  0  0  0  0  0  0  0  0  0
   -2.3460   -3.2310    3.1805 P   0  0  0  0  0  0  0  0  0  0  0  0
   -2.3343   -3.0585    1.7101 O   0  0  0  0  0  0  0  0  0  0  0  0
   -2.9995   -2.1954    4.0096 O   0  5  0  0  0  0  0  0  0  0  0  0
   -0.8153   -3.2486    3.6182 O   0  5  0  0  0  0  0  0  0  0  0  0
  1 18  1  0  0  0  0
  1  2  1  0  0  0  0
  2  4  1  0  0  0  0
  2  3  2  0  0  0  0
  4  5  1  0  0  0  0
  5  7  1  0  0  0  0
  5  6  2  0  0  0  0
  7 18  2  0  0  0  0
  7  8  1  0  0  0  0
  8  9  1  0  0  0  0
  9 10  2  0  0  0  0
  9 16  1  0  0  0  0
 10 11  1  0  0  0  0
 11 12  1  0  0  0  0
 11 13  2  0  0  0  0
 13 14  1  0  0  0  0
 13 15  1  0  0  0  0
 15 16  2  0  0  0  0
 16 17  1  0  0  0  0
 17 19  1  0  0  0  0
 17 18  1  0  0  0  0
 20 19  1  1  0  0  0
 20 22  1  0  0  0  0
 20 21  1  0  0  0  0
 22 24  1  0  0  0  0
 22 23  1  6  0  0  0
 24 26  1  6  0  0  0
 24 25  1  0  0  0  0
 26 27  1  0  0  0  0
 27 28  1  0  0  0  0
 28 30  1  0  0  0  0
 28 29  2  0  0  0  0
 28 31  1  0  0  0  0
M  CHG  2  30  -1  31  -1
M  END
>  <CHROM.1>
-113.75389129,122.64014718,148.37796747,-68.55369901,-67.33019453,-174.13629477
173.76706347,-57.58049175,166.73719518,-53.82902751,-7.03334865,-5.15780121
1.87880869,2.81841824,-0.12260134,-1.29498001

>  <Name>
1fmn_cryst

>  <RI>
0

>  <Rbt.Current_Directory>
/home/itssahil/PROJECTS/Mol_Feturizer/New_Systems/rnas/1fmn

>  <Rbt.Executable>
rbdock ($Id: //depot/dev/client3/rdock/2013.1/src/exe/rbdock.cxx#4 $)

>  <Rbt.Library>
libRbt.so (2013.1, Build901 2013/11/27)

>  <Rbt.Parameter_File>
/export/apps/rDock/src/rDock_2013.1_src/data/scripts/dock_solv.prm

>  <Rbt.Receptor>
prm/pocket_docking_6.prm

>  <SCORE>
-60.3073

>  <SCORE.INTER>
-57.3377

>  <SCORE.INTER.CONST>
1

>  <SCORE.INTER.POLAR>
-4.19974

>  <SCORE.INTER.ROT>
7

>  <SCORE.INTER.SOLV>
19.1369

>  <SCORE.INTER.VDW>
-38.8716

>  <SCORE.INTER.norm>
-1.8496

>  <SCORE.INTRA>
-2.96961

>  <SCORE.INTRA.DIHEDRAL>
-3.00503

>  <SCORE.INTRA.DIHEDRAL.0>
15.5708

>  <SCORE.INTRA.POLAR>
0.0677885

>  <SCORE.INTRA.POLAR.0>
-0.0677885

>  <SCORE.INTRA.REPUL>
0

>  <SCORE.INTRA.REPUL.0>
0

>  <SCORE.INTRA.SOLV>
-4.22322

>  <SCORE.INTRA.SOLV.lig_0>
-87.6316

>  <SCORE.INTRA.VDW>
0.414033

>  <SCORE.INTRA.VDW.0>
-2.87309

>  <SCORE.INTRA.norm>
-0.0957938

>  <SCORE.RESTR>
0

>  <SCORE.RESTR.CAVITY>
0

>  <SCORE.RESTR.norm>
0

>  <SCORE.SYSTEM>
0

>  <SCORE.SYSTEM.CONST>
0

>  <SCORE.SYSTEM.DIHEDRAL>
0

>  <SCORE.SYSTEM.SOLV>
0

>  <SCORE.SYSTEM.norm>
0

>  <SCORE.heavy>
31

>  <SCORE.norm>
-1.9454

>  <SYMMETRIC_BONDS>
33 34 3

>  <RMSD>
2.491

$$$$
1fmn_cryst
 OpenBabel11021811393D
libRbt.so/2013.1/901 2013/11/27
 31 33  0  0  0  0  0  0  0  0999 V2000
   -9.0482   -6.7843    3.7594 N   0  0  0  0  0  0  0  0  0  0  0  0
   -9.9003   -6.7180    4.8369 C   0  0  0  0  0  0  0  0  0  0  0  0
   -9.7157   -7.3828    5.8569 O   0  0  0  0  0  0  0  0  0  0  0  0
  -11.0052   -5.8411    4.6964 N   0  0  0  0  0  0  0  0  0  0  0  0
  -11.3113   -5.0423    3.5729 C   0  0  0  0  0  0  0  0  0  0  0  0
  -12.3132   -4.3160    3.5846 O   0  0  0  0  0  0  0  0  0  0  0  0
  -10.3574   -5.1701    2.4689 C   0  0  0  0  0  0  0  0  0  0  0  0
  -10.5839   -4.4252    1.3384 N   0  0  0  0  0  0  0  0  0  0  0  0
   -9.8019   -4.6793    0.2491 C   0  0  0  0  0  0  0  0  0  0  0  0
  -10.1405   -4.0693   -0.9457 C   0  0  0  0  0  0  0  0  0  0  0  0
   -9.4100   -4.2749   -2.0662 C   0  0  0  0  0  0  0  0  0  0  0  0
   -9.8168   -3.5889   -3.3313 C   0  0  0  0  0  0  0  0  0  0  0  0
   -8.3229   -5.0925   -2.0377 C   0  0  0  0  0  0  0  0  0  0  0  0
   -7.5262   -5.3193   -3.2811 C   0  0  0  0  0  0  0  0  0  0  0  0
   -7.9526   -5.7118   -0.8879 C   0  0  0  0  0  0  0  0  0  0  0  0
   -8.6708   -5.5331    0.2944 C   0  0  0  0  0  0  0  0  0  0  0  0
   -8.3395   -6.1424    1.5228 N   0  0  0  0  0  0  0  0  0  0  0  0
   -9.2303   -6.0614    2.6127 C   0  0  0  0  0  0  0  0  0  0  0  0
   -6.8786   -6.3551    1.8372 C   0  0  0  0  0  0  0  0  0  0  0  0
   -6.2007   -5.2782    2.7377 C   0  0  1  0  0  0  0  0  0  0  0  0
   -6.1250   -5.7393    4.0792 O   0  0  0  0  0  0  0  0  0  0  0  0
   -4.8251   -4.8137    2.2031 C   0  0  1  0  0  0  0  0  0  0  0  0
   -4.9823   -4.1342    0.9609 O   0  0  0  0  0  0  0  0  0  0  0  0
   -3.9507   -3.9669    3.1602 C   0  0  1  0  0  0  0  0  0  0  0  0
   -4.7508   -2.9140    3.6866 O   0  0  0  0  0  0  0  0  0  0  0  0
   -3.3740   -4.7883    4.3351 C   0  0  0  0  0  0  0  0  0  0  0  0
   -2.4524   -4.0409    5.1200 O   0  0  0  0  0  0  0  0  0  0  0  0
   -1.7262   -4.6433    6.3932 P   0  0  0  0  0  0  0  0  0  0  0  0
   -2.7099   -5.0240    7.4321 O   0  0  0  0  0  0  0  0  0  0  0  0
   -0.7031   -5.6324    5.9906 O   0  5  0  0  0  0  0  0  0  0  0  0
   -0.9306   -3.4029    6.9959 O   0  5  0  0  0  0  0  0  0  0  0  0
  1 18  1  0  0  0  0
  1  2  1  0  0  0  0
  2  4  1  0  0  0  0
  2  3  2  0  0  0  0
  4  5  1  0  0  0  0
  5  7  1  0  0  0  0
  5  6  2  0  0  0  0
  7 18  2  0  0  0  0
  7  8  1  0  0  0  0
  8  9  1  0  0  0  0
  9 10  2  0  0  0  0
  9 16  1  0  0  0  0
 10 11  1  0  0  0  0
 11 12  1  0  0  0  0
 11 13  2  0  0  0  0
 13 14  1  0  0  0  0
 13 15  1  0  0  0  0
 15 16  2  0  0  0  0
 16 17  1  0  0  0  0
 17 19  1  0  0  0  0
 17 18  1  0  0  0  0
 20 19  1  6  0  0  0
 20 22  1  0  0  0  0
 20 21  1  0  0  0  0
 22 24  1  0  0  0  0
 22 23  1  6  0  0  0
 24 26  1  1  0  0  0
 24 25  1  0  0  0  0
 26 27  1  0  0  0  0
 27 28  1  0  0  0  0
 28 30  1  0  0  0  0
 28 29  2  0  0  0  0
 28 31  1  0  0  0  0
M  CHG  2  30  -1  31  -1
M  END
>  <CHROM.1>
97.14590802,99.66049825,65.40562939,61.42433432,-49.59346799,-164.23684026
173.27634840,72.12747947,179.42251040,-61.80654101,-6.83904659,-5.02461135
2.76893748,2.52013788,-0.17636557,-1.40420920

>  <Name>
1fmn_cryst

>  <RI>
0

>  <Rbt.Current_Directory>
/home/itssahil/PROJECTS/Mol_Feturizer/New_Systems/rnas/1fmn

>  <Rbt.Executable>
rbdock ($Id: //depot/dev/client3/rdock/2013.1/src/exe/rbdock.cxx#4 $)

>  <Rbt.Library>
libRbt.so (2013.1, Build901 2013/11/27)

>  <Rbt.Parameter_File>
/export/apps/rDock/src/rDock_2013.1_src/data/scripts/dock_solv.prm

>  <Rbt.Receptor>
prm/pocket_docking_5.prm

>  <SCORE>
-56.4354

>  <SCORE.INTER>
-51.0973

>  <SCORE.INTER.CONST>
1

>  <SCORE.INTER.POLAR>
-3.19485

>  <SCORE.INTER.ROT>
7

>  <SCORE.INTER.SOLV>
19.3391

>  <SCORE.INTER.VDW>
-38.1284

>  <SCORE.INTER.norm>
-1.6483

>  <SCORE.INTRA>
-5.33809

>  <SCORE.INTRA.DIHEDRAL>
-7.67789

>  <SCORE.INTRA.DIHEDRAL.0>
15.5708

>  <SCORE.INTRA.POLAR>
0.0677885

>  <SCORE.INTRA.POLAR.0>
-0.0677885

>  <SCORE.INTRA.REPUL>
0

>  <SCORE.INTRA.REPUL.0>
0

>  <SCORE.INTRA.SOLV>
-4.24168

>  <SCORE.INTRA.SOLV.lig_0>
-87.6316

>  <SCORE.INTRA.VDW>
0.391215

>  <SCORE.INTRA.VDW.0>
-2.87309

>  <SCORE.INTRA.norm>
-0.172196

>  <SCORE.RESTR>
0

>  <SCORE.RESTR.CAVITY>
0

>  <SCORE.RESTR.norm>
0

>  <SCORE.SYSTEM>
0

>  <SCORE.SYSTEM.CONST>
0

>  <SCORE.SYSTEM.DIHEDRAL>
0

>  <SCORE.SYSTEM.SOLV>
0

>  <SCORE.SYSTEM.norm>
0

>  <SCORE.heavy>
31

>  <SCORE.norm>
-1.8205

>  <SYMMETRIC_BONDS>
33 34 3

>  <RMSD>
2.494

$$$$
1fmn_cryst
 OpenBabel11021811393D
libRbt.so/2013.1/901 2013/11/27
 31 33  0  0  0  0  0  0  0  0999 V2000
   -8.8334   -6.3746    3.5731 N   0  0  0  0  0  0  0  0  0  0  0  0
   -9.6593   -6.3022    4.6704 C   0  0  0  0  0  0  0  0  0  0  0  0
   -9.4060   -6.8972    5.7184 O   0  0  0  0  0  0  0  0  0  0  0  0
  -10.8210   -5.5045    4.5166 N   0  0  0  0  0  0  0  0  0  0  0  0
  -11.2067   -4.7891    3.3618 C   0  0  0  0  0  0  0  0  0  0  0  0
  -12.2520   -4.1267    3.3647 O   0  0  0  0  0  0  0  0  0  0  0  0
  -10.2760   -4.9180    2.2382 C   0  0  0  0  0  0  0  0  0  0  0  0
  -10.5791   -4.2518    1.0769 N   0  0  0  0  0  0  0  0  0  0  0  0
   -9.8117   -4.5164   -0.0201 C   0  0  0  0  0  0  0  0  0  0  0  0
  -10.2197   -3.9950   -1.2351 C   0  0  0  0  0  0  0  0  0  0  0  0
   -9.5074   -4.2162   -2.3643 C   0  0  0  0  0  0  0  0  0  0  0  0
   -9.9902   -3.6274   -3.6514 C   0  0  0  0  0  0  0  0  0  0  0  0
   -8.3703   -4.9621   -2.3248 C   0  0  0  0  0  0  0  0  0  0  0  0
   -7.5939   -5.2071   -3.5775 C   0  0  0  0  0  0  0  0  0  0  0  0
   -7.9311   -5.4931   -1.1552 C   0  0  0  0  0  0  0  0  0  0  0  0
   -8.6278   -5.2946    0.0368 C   0  0  0  0  0  0  0  0  0  0  0  0
   -8.2262   -5.8138    1.2855 N   0  0  0  0  0  0  0  0  0  0  0  0
   -9.0913   -5.7285    2.3956 C   0  0  0  0  0  0  0  0  0  0  0  0
   -6.7470   -5.9179    1.5670 C   0  0  0  0  0  0  0  0  0  0  0  0
   -6.1169   -7.3383    1.4409 C   0  0  1  0  0  0  0  0  0  0  0  0
   -6.9466   -8.1727    0.6451 O   0  0  0  0  0  0  0  0  0  0  0  0
   -4.6558   -7.3147    0.9322 C   0  0  1  0  0  0  0  0  0  0  0  0
   -4.5519   -6.5010   -0.2325 O   0  0  0  0  0  0  0  0  0  0  0  0
   -3.5641   -6.9136    1.9546 C   0  0  1  0  0  0  0  0  0  0  0  0
   -3.6348   -7.8064    3.0608 O   0  0  0  0  0  0  0  0  0  0  0  0
   -2.1372   -6.9654    1.3639 C   0  0  0  0  0  0  0  0  0  0  0  0
   -1.1366   -6.6818    2.3347 O   0  0  0  0  0  0  0  0  0  0  0  0
    0.4104   -6.6693    1.9916 P   0  0  0  0  0  0  0  0  0  0  0  0
    1.2085   -6.2438    3.1638 O   0  0  0  0  0  0  0  0  0  0  0  0
    0.7974   -7.9088    1.2838 O   0  5  0  0  0  0  0  0  0  0  0  0
    0.5521   -5.4905    0.9308 O   0  5  0  0  0  0  0  0  0  0  0  0
  1 18  1  0  0  0  0
  1  2  1  0  0  0  0
  2  4  1  0  0  0  0
  2  3  2  0  0  0  0
  4  5  1  0  0  0  0
  5  7  1  0  0  0  0
  5  6  2  0  0  0  0
  7 18  2  0  0  0  0
  7  8  1  0  0  0  0
  8  9  1  0  0  0  0
  9 10  2  0  0  0  0
  9 16  1  0  0  0  0
 10 11  1  0  0  0  0
 11 12  1  0  0  0  0
 11 13  2  0  0  0  0
 13 14  1  0  0  0  0
 13 15  1  0  0  0  0
 15 16  2  0  0  0  0
 16 17  1  0  0  0  0
 17 19  1  0  0  0  0
 17 18  1  0  0  0  0
 20 19  1  6  0  0  0
 20 22  1  0  0  0  0
 20 21  1  0  0  0  0
 22 24  1  0  0  0  0
 22 23  1  6  0  0  0
 24 26  1  6  0  0  0
 24 25  1  0  0  0  0
 26 27  1  0  0  0  0
 27 28  1  0  0  0  0
 28 30  1  0  0  0  0
 28 29  2  0  0  0  0
 28 31  1  0  0  0  0
M  CHG  2  30  -1  31  -1
M  END
>  <CHROM.1>
-102.43370653,20.24926449,-49.37099926,178.19818467,57.48258809,-58.08485815
-176.08296605,59.91819177,179.99958435,175.66765476,-6.28820045,-5.95825871
1.31159892,3.03607772,0.17296173,-1.34807870

>  <Name>
1fmn_cryst

>  <RI>
0

>  <Rbt.Current_Directory>
/home/itssahil/PROJECTS/Mol_Feturizer/New_Systems/rnas/1fmn

>  <Rbt.Executable>
rbdock ($Id: //depot/dev/client3/rdock/2013.1/src/exe/rbdock.cxx#4 $)

>  <Rbt.Library>
libRbt.so (2013.1, Build901 2013/11/27)

>  <Rbt.Parameter_File>
/export/apps/rDock/src/rDock_2013.1_src/data/scripts/dock_solv.prm

>  <Rbt.Receptor>
prm/pocket_docking_6.prm

>  <SCORE>
-62.2455

>  <SCORE.INTER>
-56.3813

>  <SCORE.INTER.CONST>
1

>  <SCORE.INTER.POLAR>
-4.31471

>  <SCORE.INTER.ROT>
7

>  <SCORE.INTER.SOLV>
16.6265

>  <SCORE.INTER.VDW>
-37.014

>  <SCORE.INTER.norm>
-1.81875

>  <SCORE.INTRA>
-5.86416

>  <SCORE.INTRA.DIHEDRAL>
-8.40072

>  <SCORE.INTRA.DIHEDRAL.0>
15.5708

>  <SCORE.INTRA.POLAR>
0.0677885

>  <SCORE.INTRA.POLAR.0>
-0.0677885

>  <SCORE.INTRA.REPUL>
0

>  <SCORE.INTRA.REPUL.0>
0

>  <SCORE.INTRA.SOLV>
-4.47308

>  <SCORE.INTRA.SOLV.lig_0>
-87.6316

>  <SCORE.INTRA.VDW>
0.342258

>  <SCORE.INTRA.VDW.0>
-2.87309

>  <SCORE.INTRA.norm>
-0.189167

>  <SCORE.RESTR>
0

>  <SCORE.RESTR.CAVITY>
0

>  <SCORE.RESTR.norm>
0

>  <SCORE.SYSTEM>
0

>  <SCORE.SYSTEM.CONST>
0

>  <SCORE.SYSTEM.DIHEDRAL>
0

>  <SCORE.SYSTEM.SOLV>
0

>  <SCORE.SYSTEM.norm>
0

>  <SCORE.heavy>
31

>  <SCORE.norm>
-2.00792

>  <SYMMETRIC_BONDS>
33 34 3

>  <RMSD>
2.503

$$$$
1fmn_cryst
 OpenBabel11021811393D
libRbt.so/2013.1/901 2013/11/27
 31 33  0  0  0  0  0  0  0  0999 V2000
   -8.8062   -6.1778    3.5342 N   0  0  0  0  0  0  0  0  0  0  0  0
   -9.6545   -6.1370    4.6160 C   0  0  0  0  0  0  0  0  0  0  0  0
   -9.3775   -6.6847    5.6836 O   0  0  0  0  0  0  0  0  0  0  0  0
  -10.8677   -5.4300    4.4222 N   0  0  0  0  0  0  0  0  0  0  0  0
  -11.2836   -4.7747    3.2425 C   0  0  0  0  0  0  0  0  0  0  0  0
  -12.3738   -4.1900    3.2109 O   0  0  0  0  0  0  0  0  0  0  0  0
  -10.3263   -4.8649    2.1376 C   0  0  0  0  0  0  0  0  0  0  0  0
  -10.6561   -4.2528    0.9541 N   0  0  0  0  0  0  0  0  0  0  0  0
   -9.8523   -4.4895   -0.1232 C   0  0  0  0  0  0  0  0  0  0  0  0
  -10.2753   -4.0308   -1.3581 C   0  0  0  0  0  0  0  0  0  0  0  0
   -9.5292   -4.2290   -2.4696 C   0  0  0  0  0  0  0  0  0  0  0  0
  -10.0303   -3.7103   -3.7796 C   0  0  0  0  0  0  0  0  0  0  0  0
   -8.3421   -4.8892   -2.3919 C   0  0  0  0  0  0  0  0  0  0  0  0
   -7.5280   -5.1096   -3.6252 C   0  0  0  0  0  0  0  0  0  0  0  0
   -7.8865   -5.3564   -1.2015 C   0  0  0  0  0  0  0  0  0  0  0  0
   -8.6166   -5.1780   -0.0265 C   0  0  0  0  0  0  0  0  0  0  0  0
   -8.2008   -5.6341    1.2419 N   0  0  0  0  0  0  0  0  0  0  0  0
   -9.0892   -5.5829    2.3356 C   0  0  0  0  0  0  0  0  0  0  0  0
   -6.7230   -5.6233    1.5495 C   0  0  0  0  0  0  0  0  0  0  0  0
   -6.0658   -7.0076    1.8359 C   0  0  1  0  0  0  0  0  0  0  0  0
   -5.3198   -7.4382    0.7064 O   0  0  0  0  0  0  0  0  0  0  0  0
   -5.2218   -7.0257    3.1326 C   0  0  1  0  0  0  0  0  0  0  0  0
   -6.0688   -6.9308    4.2741 O   0  0  0  0  0  0  0  0  0  0  0  0
   -4.2311   -8.2029    3.3076 C   0  0  1  0  0  0  0  0  0  0  0  0
   -4.7624   -9.3407    2.6375 O   0  0  0  0  0  0  0  0  0  0  0  0
   -2.8277   -7.8995    2.7365 C   0  0  0  0  0  0  0  0  0  0  0  0
   -2.8820   -7.1239    1.5450 O   0  0  0  0  0  0  0  0  0  0  0  0
   -1.7380   -7.1569    0.4489 P   0  0  0  0  0  0  0  0  0  0  0  0
   -1.0718   -8.4788    0.4197 O   0  0  0  0  0  0  0  0  0  0  0  0
   -2.2192   -6.5784   -0.8242 O   0  5  0  0  0  0  0  0  0  0  0  0
   -0.6466   -6.1436    1.0118 O   0  5  0  0  0  0  0  0  0  0  0  0
  1 18  1  0  0  0  0
  1  2  1  0  0  0  0
  2  4  1  0  0  0  0
  2  3  2  0  0  0  0
  4  5  1  0  0  0  0
  5  7  1  0  0  0  0
  5  6  2  0  0  0  0
  7 18  2  0  0  0  0
  7  8  1  0  0  0  0
  8  9  1  0  0  0  0
  9 10  2  0  0  0  0
  9 16  1  0  0  0  0
 10 11  1  0  0  0  0
 11 12  1  0  0  0  0
 11 13  2  0  0  0  0
 13 14  1  0  0  0  0
 13 15  1  0  0  0  0
 15 16  2  0  0  0  0
 16 17  1  0  0  0  0
 17 19  1  0  0  0  0
 17 18  1  0  0  0  0
 20 19  1  6  0  0  0
 20 22  1  0  0  0  0
 20 21  1  0  0  0  0
 22 24  1  0  0  0  0
 22 23  1  1  0  0  0
 24 26  1  6  0  0  0
 24 25  1  0  0  0  0
 26 27  1  0  0  0  0
 27 28  1  0  0  0  0
 28 30  1  0  0  0  0
 28 29  2  0  0  0  0
 28 31  1  0  0  0  0
M  CHG  2  30  -1  31  -1
M  END
>  <CHROM.1>
-117.73432537,103.54917147,69.69409572,-45.65399654,-30.13969075,-176.49483652
-36.68086421,58.38125207,-154.31328152,30.03955158,-6.82423415,-6.10225285
1.27625695,3.07134999,0.31790883,-1.28770030

>  <Name>
1fmn_cryst

>  <RI>
0

>  <Rbt.Current_Directory>
/home/itssahil/PROJECTS/Mol_Feturizer/New_Systems/rnas/1fmn

>  <Rbt.Executable>
rbdock ($Id: //depot/dev/client3/rdock/2013.1/src/exe/rbdock.cxx#4 $)

>  <Rbt.Library>
libRbt.so (2013.1, Build901 2013/11/27)

>  <Rbt.Parameter_File>
/export/apps/rDock/src/rDock_2013.1_src/data/scripts/dock_solv.prm

>  <Rbt.Receptor>
prm/pocket_docking_8.prm

>  <SCORE>
-57.8594

>  <SCORE.INTER>
-54.1515

>  <SCORE.INTER.CONST>
1

>  <SCORE.INTER.POLAR>
-3.65094

>  <SCORE.INTER.ROT>
7

>  <SCORE.INTER.SOLV>
20.5887

>  <SCORE.INTER.VDW>
-39.0608

>  <SCORE.INTER.norm>
-1.74682

>  <SCORE.INTRA>
-3.70787

>  <SCORE.INTRA.DIHEDRAL>
0.286648

>  <SCORE.INTRA.DIHEDRAL.0>
15.5708

>  <SCORE.INTRA.POLAR>
-1.50598

>  <SCORE.INTRA.POLAR.0>
-0.0677885

>  <SCORE.INTRA.REPUL>
0.290179

>  <SCORE.INTRA.REPUL.0>
0

>  <SCORE.INTRA.SOLV>
-1.67277

>  <SCORE.INTRA.SOLV.lig_0>
-87.6316

>  <SCORE.INTRA.VDW>
0.65464

>  <SCORE.INTRA.VDW.0>
-2.87309

>  <SCORE.INTRA.norm>
-0.119609

>  <SCORE.RESTR>
0

>  <SCORE.RESTR.CAVITY>
0

>  <SCORE.RESTR.norm>
0

>  <SCORE.SYSTEM>
0

>  <SCORE.SYSTEM.CONST>
0

>  <SCORE.SYSTEM.DIHEDRAL>
0

>  <SCORE.SYSTEM.SOLV>
0

>  <SCORE.SYSTEM.norm>
0

>  <SCORE.heavy>
31

>  <SCORE.norm>
-1.86643

>  <SYMMETRIC_BONDS>
33 34 3

>  <RMSD>
2.514

$$$$
1fmn_cryst
 OpenBabel11021811393D
libRbt.so/2013.1/901 2013/11/27
 31 33  0  0  0  0  0  0  0  0999 V2000
   -8.9210   -6.2913    3.5449 N   0  0  0  0  0  0  0  0  0  0  0  0
   -9.6751   -6.2906    4.6951 C   0  0  0  0  0  0  0  0  0  0  0  0
   -9.3259   -6.9029    5.7049 O   0  0  0  0  0  0  0  0  0  0  0  0
  -10.8800   -5.5457    4.6424 N   0  0  0  0  0  0  0  0  0  0  0  0
  -11.3738   -4.8165    3.5385 C   0  0  0  0  0  0  0  0  0  0  0  0
  -12.4461   -4.2057    3.6303 O   0  0  0  0  0  0  0  0  0  0  0  0
  -10.5145   -4.8678    2.3536 C   0  0  0  0  0  0  0  0  0  0  0  0
  -10.9241   -4.1835    1.2363 N   0  0  0  0  0  0  0  0  0  0  0  0
  -10.2194   -4.3788    0.0840 C   0  0  0  0  0  0  0  0  0  0  0  0
  -10.7305   -3.8427   -1.0846 C   0  0  0  0  0  0  0  0  0  0  0  0
  -10.0850   -3.9964   -2.2641 C   0  0  0  0  0  0  0  0  0  0  0  0
  -10.6784   -3.3944   -3.4977 C   0  0  0  0  0  0  0  0  0  0  0  0
   -8.9144   -4.6875   -2.3221 C   0  0  0  0  0  0  0  0  0  0  0  0
   -8.2121   -4.8583   -3.6297 C   0  0  0  0  0  0  0  0  0  0  0  0
   -8.3749   -5.2304   -1.2010 C   0  0  0  0  0  0  0  0  0  0  0  0
   -8.9997   -5.1004    0.0392 C   0  0  0  0  0  0  0  0  0  0  0  0
   -8.4929   -5.6357    1.2420 N   0  0  0  0  0  0  0  0  0  0  0  0
   -9.2857   -5.6244    2.4079 C   0  0  0  0  0  0  0  0  0  0  0  0
   -6.9951   -5.6766    1.4239 C   0  0  0  0  0  0  0  0  0  0  0  0
   -6.2101   -6.6414    0.4842 C   0  0  1  0  0  0  0  0  0  0  0  0
   -5.7354   -5.9370   -0.6544 O   0  0  0  0  0  0  0  0  0  0  0  0
   -5.0783   -7.4102    1.2069 C   0  0  1  0  0  0  0  0  0  0  0  0
   -4.9972   -8.7452    0.7161 O   0  0  0  0  0  0  0  0  0  0  0  0
   -3.6732   -6.7595    1.1992 C   0  0  1  0  0  0  0  0  0  0  0  0
   -3.2261   -6.6713   -0.1492 O   0  0  0  0  0  0  0  0  0  0  0  0
   -3.6609   -5.3448    1.8208 C   0  0  0  0  0  0  0  0  0  0  0  0
   -4.0878   -5.3438    3.1779 O   0  0  0  0  0  0  0  0  0  0  0  0
   -4.3959   -4.0110    3.9778 P   0  0  0  0  0  0  0  0  0  0  0  0
   -5.8452   -3.7088    3.9633 O   0  0  0  0  0  0  0  0  0  0  0  0
   -3.6843   -4.0047    5.2742 O   0  5  0  0  0  0  0  0  0  0  0  0
   -3.7164   -2.8747    3.0935 O   0  5  0  0  0  0  0  0  0  0  0  0
  1 18  1  0  0  0  0
  1  2  1  0  0  0  0
  2  4  1  0  0  0  0
  2  3  2  0  0  0  0
  4  5  1  0  0  0  0
  5  7  1  0  0  0  0
  5  6  2  0  0  0  0
  7 18  2  0  0  0  0
  7  8  1  0  0  0  0
  8  9  1  0  0  0  0
  9 10  2  0  0  0  0
  9 16  1  0  0  0  0
 10 11  1  0  0  0  0
 11 12  1  0  0  0  0
 11 13  2  0  0  0  0
 13 14  1  0  0  0  0
 13 15  1  0  0  0  0
 15 16  2  0  0  0  0
 16 17  1  0  0  0  0
 17 19  1  0  0  0  0
 17 18  1  0  0  0  0
 20 19  1  1  0  0  0
 20 22  1  0  0  0  0
 20 21  1  0  0  0  0
 22 24  1  0  0  0  0
 22 23  1  6  0  0  0
 24 26  1  6  0  0  0
 24 25  1  0  0  0  0
 26 27  1  0  0  0  0
 27 28  1  0  0  0  0
 28 30  1  0  0  0  0
 28 29  2  0  0  0  0
 28 31  1  0  0  0  0
M  CHG  2  30  -1  31  -1
M  END
>  <CHROM.1>
-67.20313263,94.68188471,142.04261926,-155.90458591,-62.83042002,-36.42237048
59.98869050,-167.33716831,-169.70306329,96.69388184,-7.46475760,-5.22722529
1.59255124,2.74591958,0.12015456,-1.57900122

>  <Name>
1fmn_cryst

>  <RI>
0

>  <Rbt.Current_Directory>
/home/itssahil/PROJECTS/Mol_Feturizer/New_Systems/rnas/1fmn

>  <Rbt.Executable>
rbdock ($Id: //depot/dev/client3/rdock/2013.1/src/exe/rbdock.cxx#4 $)

>  <Rbt.Library>
libRbt.so (2013.1, Build901 2013/11/27)

>  <Rbt.Parameter_File>
/export/apps/rDock/src/rDock_2013.1_src/data/scripts/dock_solv.prm

>  <Rbt.Receptor>
prm/pocket_docking_7.prm

>  <SCORE>
-75.4089

>  <SCORE.INTER>
-75.9119

>  <SCORE.INTER.CONST>
1

>  <SCORE.INTER.POLAR>
-7.51496

>  <SCORE.INTER.ROT>
7

>  <SCORE.INTER.SOLV>
32.6521

>  <SCORE.INTER.VDW>
-44.7087

>  <SCORE.INTER.norm>
-2.44877

>  <SCORE.INTRA>
0.502926

>  <SCORE.INTRA.DIHEDRAL>
0.904427

>  <SCORE.INTRA.DIHEDRAL.0>
15.5708

>  <SCORE.INTRA.POLAR>
0.0677885

>  <SCORE.INTRA.POLAR.0>
-0.0677885

>  <SCORE.INTRA.REPUL>
0

>  <SCORE.INTRA.REPUL.0>
0

>  <SCORE.INTRA.SOLV>
-2.01528

>  <SCORE.INTRA.SOLV.lig_0>
-87.6316

>  <SCORE.INTRA.VDW>
0.827873

>  <SCORE.INTRA.VDW.0>
-2.87309

>  <SCORE.INTRA.norm>
0.0162234

>  <SCORE.RESTR>
0

>  <SCORE.RESTR.CAVITY>
0

>  <SCORE.RESTR.norm>
0

>  <SCORE.SYSTEM>
0

>  <SCORE.SYSTEM.CONST>
0

>  <SCORE.SYSTEM.DIHEDRAL>
0

>  <SCORE.SYSTEM.SOLV>
0

>  <SCORE.SYSTEM.norm>
0

>  <SCORE.heavy>
31

>  <SCORE.norm>
-2.43255

>  <SYMMETRIC_BONDS>
33 34 3

>  <RMSD>
2.517

$$$$
1fmn_cryst
 OpenBabel11021811393D
libRbt.so/2013.1/901 2013/11/27
 31 33  0  0  0  0  0  0  0  0999 V2000
   -8.9438   -6.2011    3.6248 N   0  0  0  0  0  0  0  0  0  0  0  0
   -9.7310   -6.2053    4.7526 C   0  0  0  0  0  0  0  0  0  0  0  0
   -9.3899   -6.7844    5.7845 O   0  0  0  0  0  0  0  0  0  0  0  0
  -10.9598   -5.5062    4.6497 N   0  0  0  0  0  0  0  0  0  0  0  0
  -11.4468   -4.8174    3.5172 C   0  0  0  0  0  0  0  0  0  0  0  0
  -12.5426   -4.2445    3.5654 O   0  0  0  0  0  0  0  0  0  0  0  0
  -10.5516   -4.8605    2.3588 C   0  0  0  0  0  0  0  0  0  0  0  0
  -10.9525   -4.2138    1.2163 N   0  0  0  0  0  0  0  0  0  0  0  0
  -10.2075   -4.4060    0.0890 C   0  0  0  0  0  0  0  0  0  0  0  0
  -10.7028   -3.9120   -1.1047 C   0  0  0  0  0  0  0  0  0  0  0  0
  -10.0177   -4.0653   -2.2617 C   0  0  0  0  0  0  0  0  0  0  0  0
  -10.5958   -3.5097   -3.5241 C   0  0  0  0  0  0  0  0  0  0  0  0
   -8.8219   -4.7140   -2.2717 C   0  0  0  0  0  0  0  0  0  0  0  0
   -8.0755   -4.8847   -3.5546 C   0  0  0  0  0  0  0  0  0  0  0  0
   -8.2964   -5.2147   -1.1245 C   0  0  0  0  0  0  0  0  0  0  0  0
   -8.9619   -5.0832    0.0943 C   0  0  0  0  0  0  0  0  0  0  0  0
   -8.4718   -5.5757    1.3220 N   0  0  0  0  0  0  0  0  0  0  0  0
   -9.2986   -5.5705    2.4642 C   0  0  0  0  0  0  0  0  0  0  0  0
   -6.9795   -5.5582    1.5477 C   0  0  0  0  0  0  0  0  0  0  0  0
   -6.3191   -6.9219    1.9145 C   0  0  1  0  0  0  0  0  0  0  0  0
   -6.3877   -7.8117    0.8093 O   0  0  0  0  0  0  0  0  0  0  0  0
   -4.8769   -6.7755    2.4555 C   0  0  1  0  0  0  0  0  0  0  0  0
   -4.8803   -6.0435    3.6777 O   0  0  0  0  0  0  0  0  0  0  0  0
   -4.0557   -8.0776    2.6232 C   0  0  1  0  0  0  0  0  0  0  0  0
   -4.8447   -9.0166    3.3453 O   0  0  0  0  0  0  0  0  0  0  0  0
   -3.6432   -8.7078    1.2740 C   0  0  0  0  0  0  0  0  0  0  0  0
   -2.9516   -7.7906    0.4346 O   0  0  0  0  0  0  0  0  0  0  0  0
   -1.6079   -7.0740    0.8732 P   0  0  0  0  0  0  0  0  0  0  0  0
   -1.8925   -5.8570    1.6669 O   0  0  0  0  0  0  0  0  0  0  0  0
   -0.6427   -8.0586    1.4082 O   0  5  0  0  0  0  0  0  0  0  0  0
   -0.9934   -6.5517   -0.4995 O   0  5  0  0  0  0  0  0  0  0  0  0
  1 18  1  0  0  0  0
  1  2  1  0  0  0  0
  2  4  1  0  0  0  0
  2  3  2  0  0  0  0
  4  5  1  0  0  0  0
  5  7  1  0  0  0  0
  5  6  2  0  0  0  0
  7 18  2  0  0  0  0
  7  8  1  0  0  0  0
  8  9  1  0  0  0  0
  9 10  2  0  0  0  0
  9 16  1  0  0  0  0
 10 11  1  0  0  0  0
 11 12  1  0  0  0  0
 11 13  2  0  0  0  0
 13 14  1  0  0  0  0
 13 15  1  0  0  0  0
 15 16  2  0  0  0  0
 16 17  1  0  0  0  0
 17 19  1  0  0  0  0
 17 18  1  0  0  0  0
 20 19  1  6  0  0  0
 20 22  1  0  0  0  0
 20 21  1  0  0  0  0
 22 24  1  0  0  0  0
 22 23  1  1  0  0  0
 24 26  1  6  0  0  0
 24 25  1  0  0  0  0
 26 27  1  0  0  0  0
 27 28  1  0  0  0  0
 28 30  1  0  0  0  0
 28 29  2  0  0  0  0
 28 31  1  0  0  0  0
M  CHG  2  30  -1  31  -1
M  END
>  <CHROM.1>
-124.57022791,67.32965693,63.45670294,-62.10754002,-49.93424913,-175.95126265
54.25644677,-60.27562499,58.51511908,-84.68972900,-6.98177326,-6.04597088
1.36088434,3.05565655,0.30528234,-1.29114688

>  <Name>
1fmn_cryst

>  <RI>
0

>  <Rbt.Current_Directory>
/home/itssahil/PROJECTS/Mol_Feturizer/New_Systems/rnas/1fmn

>  <Rbt.Executable>
rbdock ($Id: //depot/dev/client3/rdock/2013.1/src/exe/rbdock.cxx#4 $)

>  <Rbt.Library>
libRbt.so (2013.1, Build901 2013/11/27)

>  <Rbt.Parameter_File>
/export/apps/rDock/src/rDock_2013.1_src/data/scripts/dock_solv.prm

>  <Rbt.Receptor>
prm/pocket_docking_4.prm

>  <SCORE>
-53.9156

>  <SCORE.INTER>
-47.8439

>  <SCORE.INTER.CONST>
1

>  <SCORE.INTER.POLAR>
-2.09401

>  <SCORE.INTER.ROT>
7

>  <SCORE.INTER.SOLV>
18.0163

>  <SCORE.INTER.VDW>
-39.188

>  <SCORE.INTER.norm>
-1.54335

>  <SCORE.INTRA>
-6.07175

>  <SCORE.INTRA.DIHEDRAL>
-11.9441

>  <SCORE.INTRA.DIHEDRAL.0>
15.5708

>  <SCORE.INTRA.POLAR>
0.0677885

>  <SCORE.INTRA.POLAR.0>
-0.0677885

>  <SCORE.INTRA.REPUL>
0

>  <SCORE.INTRA.REPUL.0>
0

>  <SCORE.INTRA.SOLV>
-0.554271

>  <SCORE.INTRA.SOLV.lig_0>
-87.6316

>  <SCORE.INTRA.VDW>
-0.0530386

>  <SCORE.INTRA.VDW.0>
-2.87309

>  <SCORE.INTRA.norm>
-0.195863

>  <SCORE.RESTR>
0

>  <SCORE.RESTR.CAVITY>
0

>  <SCORE.RESTR.norm>
0

>  <SCORE.SYSTEM>
0

>  <SCORE.SYSTEM.CONST>
0

>  <SCORE.SYSTEM.DIHEDRAL>
0

>  <SCORE.SYSTEM.SOLV>
0

>  <SCORE.SYSTEM.norm>
0

>  <SCORE.heavy>
31

>  <SCORE.norm>
-1.73921

>  <SYMMETRIC_BONDS>
33 34 3

>  <RMSD>
2.518

$$$$
1fmn_cryst
 OpenBabel11021811393D
libRbt.so/2013.1/901 2013/11/27
 31 33  0  0  0  0  0  0  0  0999 V2000
   -9.4594   -5.9059    3.1587 N   0  0  0  0  0  0  0  0  0  0  0  0
  -10.0848   -5.9049    4.3837 C   0  0  0  0  0  0  0  0  0  0  0  0
   -9.6598   -6.5626    5.3341 O   0  0  0  0  0  0  0  0  0  0  0  0
  -11.2504   -5.1040    4.4805 N   0  0  0  0  0  0  0  0  0  0  0  0
  -11.8234   -4.3201    3.4551 C   0  0  0  0  0  0  0  0  0  0  0  0
  -12.8484   -3.6635    3.6778 O   0  0  0  0  0  0  0  0  0  0  0  0
  -11.0997   -4.3754    2.1830 C   0  0  0  0  0  0  0  0  0  0  0  0
  -11.5927   -3.6398    1.1341 N   0  0  0  0  0  0  0  0  0  0  0  0
  -11.0261   -3.8329   -0.0923 C   0  0  0  0  0  0  0  0  0  0  0  0
  -11.6326   -3.2391   -1.1850 C   0  0  0  0  0  0  0  0  0  0  0  0
  -11.1256   -3.3871   -2.4310 C   0  0  0  0  0  0  0  0  0  0  0  0
  -11.8177   -2.7216   -3.5776 C   0  0  0  0  0  0  0  0  0  0  0  0
  -10.0034   -4.1293   -2.6328 C   0  0  0  0  0  0  0  0  0  0  0  0
   -9.4545   -4.2931   -4.0127 C   0  0  0  0  0  0  0  0  0  0  0  0
   -9.3740   -4.7298   -1.5907 C   0  0  0  0  0  0  0  0  0  0  0  0
   -9.8551   -4.6083   -0.2871 C   0  0  0  0  0  0  0  0  0  0  0  0
   -9.2491   -5.2021    0.8399 N   0  0  0  0  0  0  0  0  0  0  0  0
   -9.9108   -5.1892    2.0849 C   0  0  0  0  0  0  0  0  0  0  0  0
   -7.7442   -5.3174    0.8571 C   0  0  0  0  0  0  0  0  0  0  0  0
   -7.1622   -6.7422    1.1049 C   0  0  1  0  0  0  0  0  0  0  0  0
   -7.7724   -7.6793    0.2289 O   0  0  0  0  0  0  0  0  0  0  0  0
   -5.6177   -6.7925    1.0271 C   0  0  1  0  0  0  0  0  0  0  0  0
   -5.1619   -6.1437   -0.1565 O   0  0  0  0  0  0  0  0  0  0  0  0
   -4.8364   -6.2609    2.2538 C   0  0  1  0  0  0  0  0  0  0  0  0
   -3.8482   -5.3451    1.7948 O   0  0  0  0  0  0  0  0  0  0  0  0
   -5.7416   -5.5430    3.2799 C   0  0  0  0  0  0  0  0  0  0  0  0
   -6.6441   -6.4336    3.9252 O   0  0  0  0  0  0  0  0  0  0  0  0
   -6.1631   -7.5627    4.9277 P   0  0  0  0  0  0  0  0  0  0  0  0
   -5.0754   -7.0661    5.8008 O   0  0  0  0  0  0  0  0  0  0  0  0
   -7.3233   -8.2328    5.5537 O   0  5  0  0  0  0  0  0  0  0  0  0
   -5.4845   -8.6459    3.9784 O   0  5  0  0  0  0  0  0  0  0  0  0
  1 18  1  0  0  0  0
  1  2  1  0  0  0  0
  2  4  1  0  0  0  0
  2  3  2  0  0  0  0
  4  5  1  0  0  0  0
  5  7  1  0  0  0  0
  5  6  2  0  0  0  0
  7 18  2  0  0  0  0
  7  8  1  0  0  0  0
  8  9  1  0  0  0  0
  9 10  2  0  0  0  0
  9 16  1  0  0  0  0
 10 11  1  0  0  0  0
 11 12  1  0  0  0  0
 11 13  2  0  0  0  0
 13 14  1  0  0  0  0
 13 15  1  0  0  0  0
 15 16  2  0  0  0  0
 16 17  1  0  0  0  0
 17 19  1  0  0  0  0
 17 18  1  0  0  0  0
 20 19  1  6  0  0  0
 20 22  1  0  0  0  0
 20 21  1  0  0  0  0
 22 24  1  0  0  0  0
 22 23  1  6  0  0  0
 24 26  1  1  0  0  0
 24 25  1  0  0  0  0
 26 27  1  0  0  0  0
 27 28  1  0  0  0  0
 28 30  1  0  0  0  0
 28 29  2  0  0  0  0
 28 31  1  0  0  0  0
M  CHG  2  30  -1  31  -1
M  END
>  <CHROM.1>
-125.88210739,50.26428448,-49.00780392,-34.36628494,-130.14020585,-59.44626761
67.58006722,56.78584231,67.68655510,40.06923934,-8.49675957,-5.58933147,1.80696593
0.87080910,-0.36575721,1.82612346

>  <Name>
1fmn_cryst

>  <RI>
0

>  <Rbt.Current_Directory>
/home/itssahil/PROJECTS/Mol_Feturizer/New_Systems/rnas/1fmn

>  <Rbt.Executable>
rbdock ($Id: //depot/dev/client3/rdock/2013.1/src/exe/rbdock.cxx#4 $)

>  <Rbt.Library>
libRbt.so (2013.1, Build901 2013/11/27)

>  <Rbt.Parameter_File>
/export/apps/rDock/src/rDock_2013.1_src/data/scripts/dock_solv.prm

>  <Rbt.Receptor>
prm/pocket_docking_3.prm

>  <SCORE>
-54.8588

>  <SCORE.INTER>
-52.8457

>  <SCORE.INTER.CONST>
1

>  <SCORE.INTER.POLAR>
-3.84128

>  <SCORE.INTER.ROT>
7

>  <SCORE.INTER.SOLV>
27.3997

>  <SCORE.INTER.VDW>
-39.8261

>  <SCORE.INTER.norm>
-1.7047

>  <SCORE.INTRA>
-2.01307

>  <SCORE.INTRA.DIHEDRAL>
-4.20458

>  <SCORE.INTRA.DIHEDRAL.0>
15.5708

>  <SCORE.INTRA.POLAR>
-0.731668

>  <SCORE.INTRA.POLAR.0>
-0.0677885

>  <SCORE.INTRA.REPUL>
0

>  <SCORE.INTRA.REPUL.0>
0

>  <SCORE.INTRA.SOLV>
2.18593

>  <SCORE.INTRA.SOLV.lig_0>
-87.6316

>  <SCORE.INTRA.VDW>
1.48392

>  <SCORE.INTRA.VDW.0>
-2.87309

>  <SCORE.INTRA.norm>
-0.0649377

>  <SCORE.RESTR>
0

>  <SCORE.RESTR.CAVITY>
0

>  <SCORE.RESTR.norm>
0

>  <SCORE.SYSTEM>
0

>  <SCORE.SYSTEM.CONST>
0

>  <SCORE.SYSTEM.DIHEDRAL>
0

>  <SCORE.SYSTEM.SOLV>
0

>  <SCORE.SYSTEM.norm>
0

>  <SCORE.heavy>
31

>  <SCORE.norm>
-1.76964

>  <SYMMETRIC_BONDS>
33 34 3

>  <RMSD>
2.527

$$$$
1fmn_cryst
 OpenBabel11021811393D
libRbt.so/2013.1/901 2013/11/27
 31 33  0  0  0  0  0  0  0  0999 V2000
   -8.7190   -6.2376    3.6189 N   0  0  0  0  0  0  0  0  0  0  0  0
   -9.5436   -6.2626    4.7193 C   0  0  0  0  0  0  0  0  0  0  0  0
   -9.2043   -6.7936    5.7773 O   0  0  0  0  0  0  0  0  0  0  0  0
  -10.8084   -5.6435    4.5565 N   0  0  0  0  0  0  0  0  0  0  0  0
  -11.2964   -5.0145    3.3902 C   0  0  0  0  0  0  0  0  0  0  0  0
  -12.4261   -4.5094    3.3861 O   0  0  0  0  0  0  0  0  0  0  0  0
  -10.3601   -5.0309    2.2640 C   0  0  0  0  0  0  0  0  0  0  0  0
  -10.7592   -4.4388    1.0917 N   0  0  0  0  0  0  0  0  0  0  0  0
   -9.9648   -4.6124   -0.0044 C   0  0  0  0  0  0  0  0  0  0  0  0
  -10.4471   -4.1799   -1.2269 C   0  0  0  0  0  0  0  0  0  0  0  0
   -9.7137   -4.3191   -2.3557 C   0  0  0  0  0  0  0  0  0  0  0  0
  -10.2799   -3.8319   -3.6513 C   0  0  0  0  0  0  0  0  0  0  0  0
   -8.4809   -4.8927   -2.3081 C   0  0  0  0  0  0  0  0  0  0  0  0
   -7.6810   -5.0488   -3.5603 C   0  0  0  0  0  0  0  0  0  0  0  0
   -7.9666   -5.3313   -1.1309 C   0  0  0  0  0  0  0  0  0  0  0  0
   -8.6812   -5.2110    0.0609 C   0  0  0  0  0  0  0  0  0  0  0  0
   -8.2054   -5.6417    1.3172 N   0  0  0  0  0  0  0  0  0  0  0  0
   -9.0706   -5.6592    2.4304 C   0  0  0  0  0  0  0  0  0  0  0  0
   -6.7258   -5.5263    1.5923 C   0  0  0  0  0  0  0  0  0  0  0  0
   -5.8998   -6.8451    1.4990 C   0  0  1  0  0  0  0  0  0  0  0  0
   -4.9216   -6.7383    0.4745 O   0  0  0  0  0  0  0  0  0  0  0  0
   -5.2824   -7.2753    2.8510 C   0  0  1  0  0  0  0  0  0  0  0  0
   -6.2391   -7.9947    3.6236 O   0  0  0  0  0  0  0  0  0  0  0  0
   -3.9506   -8.0633    2.7942 C   0  0  1  0  0  0  0  0  0  0  0  0
   -3.5460   -8.3585    4.1265 O   0  0  0  0  0  0  0  0  0  0  0  0
   -4.0666   -9.3866    2.0049 C   0  0  0  0  0  0  0  0  0  0  0  0
   -2.8150  -10.0490    1.8676 O   0  0  0  0  0  0  0  0  0  0  0  0
   -2.6642  -11.4552    1.1526 P   0  0  0  0  0  0  0  0  0  0  0  0
   -3.2713  -12.5310    1.9688 O   0  0  0  0  0  0  0  0  0  0  0  0
   -3.0337  -11.3560   -0.2759 O   0  5  0  0  0  0  0  0  0  0  0  0
   -1.0962  -11.7296    1.1869 O   0  5  0  0  0  0  0  0  0  0  0  0
  1 18  1  0  0  0  0
  1  2  1  0  0  0  0
  2  4  1  0  0  0  0
  2  3  2  0  0  0  0
  4  5  1  0  0  0  0
  5  7  1  0  0  0  0
  5  6  2  0  0  0  0
  7 18  2  0  0  0  0
  7  8  1  0  0  0  0
  8  9  1  0  0  0  0
  9 10  2  0  0  0  0
  9 16  1  0  0  0  0
 10 11  1  0  0  0  0
 11 12  1  0  0  0  0
 11 13  2  0  0  0  0
 13 14  1  0  0  0  0
 13 15  1  0  0  0  0
 15 16  2  0  0  0  0
 16 17  1  0  0  0  0
 17 19  1  0  0  0  0
 17 18  1  0  0  0  0
 20 19  1  1  0  0  0
 20 22  1  0  0  0  0
 20 21  1  0  0  0  0
 22 24  1  0  0  0  0
 22 23  1  6  0  0  0
 24 26  1  6  0  0  0
 24 25  1  0  0  0  0
 26 27  1  0  0  0  0
 27 28  1  0  0  0  0
 28 30  1  0  0  0  0
 28 29  2  0  0  0  0
 28 31  1  0  0  0  0
M  CHG  2  30  -1  31  -1
M  END
>  <CHROM.1>
-102.79933272,118.11781330,83.49478967,65.59264834,179.71493370,-179.13926612
175.27943873,-60.18009896,177.43746780,-70.01509772,-7.00255981,-7.07681842
1.44840069,2.90620424,0.64719615,-1.33243147

>  <Name>
1fmn_cryst

>  <RI>
0

>  <Rbt.Current_Directory>
/home/itssahil/PROJECTS/Mol_Feturizer/New_Systems/rnas/1fmn

>  <Rbt.Executable>
rbdock ($Id: //depot/dev/client3/rdock/2013.1/src/exe/rbdock.cxx#4 $)

>  <Rbt.Library>
libRbt.so (2013.1, Build901 2013/11/27)

>  <Rbt.Parameter_File>
/export/apps/rDock/src/rDock_2013.1_src/data/scripts/dock_solv.prm

>  <Rbt.Receptor>
prm/pocket_docking_6.prm

>  <SCORE>
-56.3713

>  <SCORE.INTER>
-48.2726

>  <SCORE.INTER.CONST>
1

>  <SCORE.INTER.POLAR>
-2.13801

>  <SCORE.INTER.ROT>
7

>  <SCORE.INTER.SOLV>
23.2241

>  <SCORE.INTER.VDW>
-41.063

>  <SCORE.INTER.norm>
-1.55718

>  <SCORE.INTRA>
-8.0987

>  <SCORE.INTRA.DIHEDRAL>
-5.71747

>  <SCORE.INTRA.DIHEDRAL.0>
15.5708

>  <SCORE.INTRA.POLAR>
-0.935118

>  <SCORE.INTRA.POLAR.0>
-0.0677885

>  <SCORE.INTRA.REPUL>
0

>  <SCORE.INTRA.REPUL.0>
0

>  <SCORE.INTRA.SOLV>
-4.23532

>  <SCORE.INTRA.SOLV.lig_0>
-87.6316

>  <SCORE.INTRA.VDW>
0.0570931

>  <SCORE.INTRA.VDW.0>
-2.87309

>  <SCORE.INTRA.norm>
-0.261248

>  <SCORE.RESTR>
0

>  <SCORE.RESTR.CAVITY>
0

>  <SCORE.RESTR.norm>
0

>  <SCORE.SYSTEM>
0

>  <SCORE.SYSTEM.CONST>
0

>  <SCORE.SYSTEM.DIHEDRAL>
0

>  <SCORE.SYSTEM.SOLV>
0

>  <SCORE.SYSTEM.norm>
0

>  <SCORE.heavy>
31

>  <SCORE.norm>
-1.81843

>  <SYMMETRIC_BONDS>
33 34 3

>  <RMSD>
2.548

$$$$
1fmn_cryst
 OpenBabel11021811393D
libRbt.so/2013.1/901 2013/11/27
 31 33  0  0  0  0  0  0  0  0999 V2000
   -8.8988   -6.2359    3.6256 N   0  0  0  0  0  0  0  0  0  0  0  0
   -9.6606   -6.2283    4.7707 C   0  0  0  0  0  0  0  0  0  0  0  0
   -9.3119   -6.8238    5.7906 O   0  0  0  0  0  0  0  0  0  0  0  0
  -10.8728   -5.4969    4.7002 N   0  0  0  0  0  0  0  0  0  0  0  0
  -11.3667   -4.7872    3.5837 C   0  0  0  0  0  0  0  0  0  0  0  0
  -12.4459   -4.1865    3.6604 O   0  0  0  0  0  0  0  0  0  0  0  0
  -10.4988   -4.8447    2.4053 C   0  0  0  0  0  0  0  0  0  0  0  0
  -10.9079   -4.1792    1.2766 N   0  0  0  0  0  0  0  0  0  0  0  0
  -10.1934   -4.3820    0.1317 C   0  0  0  0  0  0  0  0  0  0  0  0
  -10.7020   -3.8664   -1.0473 C   0  0  0  0  0  0  0  0  0  0  0  0
  -10.0469   -4.0285   -2.2203 C   0  0  0  0  0  0  0  0  0  0  0  0
  -10.6382   -3.4487   -3.4655 C   0  0  0  0  0  0  0  0  0  0  0  0
   -8.8689   -4.7079   -2.2616 C   0  0  0  0  0  0  0  0  0  0  0  0
   -8.1558   -4.8881   -3.5620 C   0  0  0  0  0  0  0  0  0  0  0  0
   -8.3314   -5.2306   -1.1299 C   0  0  0  0  0  0  0  0  0  0  0  0
   -8.9659   -5.0912    0.1044 C   0  0  0  0  0  0  0  0  0  0  0  0
   -8.4618   -5.6056    1.3173 N   0  0  0  0  0  0  0  0  0  0  0  0
   -9.2626   -5.5876    2.4777 C   0  0  0  0  0  0  0  0  0  0  0  0
   -6.9649   -5.6283    1.5097 C   0  0  0  0  0  0  0  0  0  0  0  0
   -6.1611   -6.5793    0.5717 C   0  0  1  0  0  0  0  0  0  0  0  0
   -5.8181   -5.9054   -0.6308 O   0  0  0  0  0  0  0  0  0  0  0  0
   -4.9266   -7.2121    1.2571 C   0  0  1  0  0  0  0  0  0  0  0  0
   -5.3380   -8.1753    2.2228 O   0  0  0  0  0  0  0  0  0  0  0  0
   -3.8467   -7.8228    0.3303 C   0  0  1  0  0  0  0  0  0  0  0  0
   -3.1442   -6.7590   -0.3028 O   0  0  0  0  0  0  0  0  0  0  0  0
   -2.8317   -8.7071    1.0889 C   0  0  0  0  0  0  0  0  0  0  0  0
   -3.3227  -10.0224    1.3195 O   0  0  0  0  0  0  0  0  0  0  0  0
   -2.4661  -11.1415    2.0439 P   0  0  0  0  0  0  0  0  0  0  0  0
   -2.1560  -10.7504    3.4378 O   0  0  0  0  0  0  0  0  0  0  0  0
   -3.0418  -12.4809    1.7958 O   0  5  0  0  0  0  0  0  0  0  0  0
   -1.0731  -11.1081    1.2736 O   0  5  0  0  0  0  0  0  0  0  0  0
  1 18  1  0  0  0  0
  1  2  1  0  0  0  0
  2  4  1  0  0  0  0
  2  3  2  0  0  0  0
  4  5  1  0  0  0  0
  5  7  1  0  0  0  0
  5  6  2  0  0  0  0
  7 18  2  0  0  0  0
  7  8  1  0  0  0  0
  8  9  1  0  0  0  0
  9 10  2  0  0  0  0
  9 16  1  0  0  0  0
 10 11  1  0  0  0  0
 11 12  1  0  0  0  0
 11 13  2  0  0  0  0
 13 14  1  0  0  0  0
 13 15  1  0  0  0  0
 15 16  2  0  0  0  0
 16 17  1  0  0  0  0
 17 19  1  0  0  0  0
 17 18  1  0  0  0  0
 20 19  1  1  0  0  0
 20 22  1  0  0  0  0
 20 21  1  0  0  0  0
 22 24  1  0  0  0  0
 22 23  1  1  0  0  0
 24 26  1  1  0  0  0
 24 25  1  0  0  0  0
 26 27  1  0  0  0  0
 27 28  1  0  0  0  0
 28 30  1  0  0  0  0
 28 29  2  0  0  0  0
 28 31  1  0  0  0  0
M  CHG  2  30  -1  31  -1
M  END
>  <CHROM.1>
-66.21592312,88.05831536,70.98252049,-158.87198220,72.68930717,-71.81331672
81.75306850,61.55808899,178.36887576,62.99594146,-7.03430347,-6.80392122
1.23695632,2.84809626,0.57825647,-1.20025229

>  <Name>
1fmn_cryst

>  <RI>
0

>  <Rbt.Current_Directory>
/home/itssahil/PROJECTS/Mol_Feturizer/New_Systems/rnas/1fmn

>  <Rbt.Executable>
rbdock ($Id: //depot/dev/client3/rdock/2013.1/src/exe/rbdock.cxx#4 $)

>  <Rbt.Library>
libRbt.so (2013.1, Build901 2013/11/27)

>  <Rbt.Parameter_File>
/export/apps/rDock/src/rDock_2013.1_src/data/scripts/dock_solv.prm

>  <Rbt.Receptor>
prm/pocket_docking_6.prm

>  <SCORE>
-61.7148

>  <SCORE.INTER>
-58.5737

>  <SCORE.INTER.CONST>
1

>  <SCORE.INTER.POLAR>
-3.74389

>  <SCORE.INTER.ROT>
7

>  <SCORE.INTER.SOLV>
20.7065

>  <SCORE.INTER.VDW>
-41.7383

>  <SCORE.INTER.norm>
-1.88947

>  <SCORE.INTRA>
-3.14109

>  <SCORE.INTRA.DIHEDRAL>
-6.29133

>  <SCORE.INTRA.DIHEDRAL.0>
15.5708

>  <SCORE.INTRA.POLAR>
0.0677885

>  <SCORE.INTRA.POLAR.0>
-0.0677885

>  <SCORE.INTRA.REPUL>
0.0723245

>  <SCORE.INTRA.REPUL.0>
0

>  <SCORE.INTRA.SOLV>
-4.04879

>  <SCORE.INTRA.SOLV.lig_0>
-87.6316

>  <SCORE.INTRA.VDW>
1.43687

>  <SCORE.INTRA.VDW.0>
-2.87309

>  <SCORE.INTRA.norm>
-0.101325

>  <SCORE.RESTR>
0

>  <SCORE.RESTR.CAVITY>
0

>  <SCORE.RESTR.norm>
0

>  <SCORE.SYSTEM>
0

>  <SCORE.SYSTEM.CONST>
0

>  <SCORE.SYSTEM.DIHEDRAL>
0

>  <SCORE.SYSTEM.SOLV>
0

>  <SCORE.SYSTEM.norm>
0

>  <SCORE.heavy>
31

>  <SCORE.norm>
-1.9908

>  <SYMMETRIC_BONDS>
33 34 3

>  <RMSD>
2.549

$$$$
1fmn_cryst
 OpenBabel11021811393D
libRbt.so/2013.1/901 2013/11/27
 31 33  0  0  0  0  0  0  0  0999 V2000
   -8.6708   -6.1730    3.6118 N   0  0  0  0  0  0  0  0  0  0  0  0
   -9.4556   -6.2283    4.7399 C   0  0  0  0  0  0  0  0  0  0  0  0
   -9.0751   -6.7791    5.7735 O   0  0  0  0  0  0  0  0  0  0  0  0
  -10.7300   -5.6162    4.6354 N   0  0  0  0  0  0  0  0  0  0  0  0
  -11.2637   -4.9664    3.5009 C   0  0  0  0  0  0  0  0  0  0  0  0
  -12.3966   -4.4706    3.5477 O   0  0  0  0  0  0  0  0  0  0  0  0
  -10.3678   -4.9510    2.3423 C   0  0  0  0  0  0  0  0  0  0  0  0
  -10.8127   -4.3372    1.1979 N   0  0  0  0  0  0  0  0  0  0  0  0
  -10.0564   -4.4808    0.0710 C   0  0  0  0  0  0  0  0  0  0  0  0
  -10.5850   -4.0261   -1.1241 C   0  0  0  0  0  0  0  0  0  0  0  0
   -9.8911   -4.1351   -2.2808 C   0  0  0  0  0  0  0  0  0  0  0  0
  -10.5065   -3.6249   -3.5447 C   0  0  0  0  0  0  0  0  0  0  0  0
   -8.6532   -4.6995   -2.2893 C   0  0  0  0  0  0  0  0  0  0  0  0
   -7.8970   -4.8221   -3.5720 C   0  0  0  0  0  0  0  0  0  0  0  0
   -8.0942   -5.1590   -1.1407 C   0  0  0  0  0  0  0  0  0  0  0  0
   -8.7669   -5.0701    0.0779 C   0  0  0  0  0  0  0  0  0  0  0  0
   -8.2437   -5.5237    1.3069 N   0  0  0  0  0  0  0  0  0  0  0  0
   -9.0686   -5.5722    2.4494 C   0  0  0  0  0  0  0  0  0  0  0  0
   -6.7561   -5.4021    1.5320 C   0  0  0  0  0  0  0  0  0  0  0  0
   -5.9598   -6.7386    1.6313 C   0  0  1  0  0  0  0  0  0  0  0  0
   -6.6161   -7.7556    0.8877 O   0  0  0  0  0  0  0  0  0  0  0  0
   -4.4720   -6.5936    1.2321 C   0  0  1  0  0  0  0  0  0  0  0  0
   -4.3564   -6.3784   -0.1714 O   0  0  0  0  0  0  0  0  0  0  0  0
   -3.6408   -5.5350    1.9980 C   0  0  1  0  0  0  0  0  0  0  0  0
   -3.6927   -5.8417    3.3869 O   0  0  0  0  0  0  0  0  0  0  0  0
   -2.1617   -5.4928    1.5529 C   0  0  0  0  0  0  0  0  0  0  0  0
   -1.4915   -6.7277    1.7763 O   0  0  0  0  0  0  0  0  0  0  0  0
    0.0751   -6.8949    1.6058 P   0  0  0  0  0  0  0  0  0  0  0  0
    0.5066   -6.4812    0.2514 O   0  0  0  0  0  0  0  0  0  0  0  0
    0.7889   -6.3407    2.7764 O   0  5  0  0  0  0  0  0  0  0  0  0
    0.2942   -8.4710    1.6584 O   0  5  0  0  0  0  0  0  0  0  0  0
  1 18  1  0  0  0  0
  1  2  1  0  0  0  0
  2  4  1  0  0  0  0
  2  3  2  0  0  0  0
  4  5  1  0  0  0  0
  5  7  1  0  0  0  0
  5  6  2  0  0  0  0
  7 18  2  0  0  0  0
  7  8  1  0  0  0  0
  8  9  1  0  0  0  0
  9 10  2  0  0  0  0
  9 16  1  0  0  0  0
 10 11  1  0  0  0  0
 11 12  1  0  0  0  0
 11 13  2  0  0  0  0
 13 14  1  0  0  0  0
 13 15  1  0  0  0  0
 15 16  2  0  0  0  0
 16 17  1  0  0  0  0
 17 19  1  0  0  0  0
 17 18  1  0  0  0  0
 20 19  1  6  0  0  0
 20 22  1  0  0  0  0
 20 21  1  0  0  0  0
 22 24  1  0  0  0  0
 22 23  1  6  0  0  0
 24 26  1  6  0  0  0
 24 25  1  0  0  0  0
 26 27  1  0  0  0  0
 27 28  1  0  0  0  0
 28 30  1  0  0  0  0
 28 29  2  0  0  0  0
 28 31  1  0  0  0  0
M  CHG  2  30  -1  31  -1
M  END
>  <CHROM.1>
-113.24179831,27.83582907,-70.52732812,69.97062982,57.87667261,-58.95282364
-61.05706759,-62.97766115,-170.97286172,-55.78930092,-6.39704245,-5.75920238
1.32669815,3.05729586,0.18409437,-1.36267141

>  <Name>
1fmn_cryst

>  <RI>
0

>  <Rbt.Current_Directory>
/home/itssahil/PROJECTS/Mol_Feturizer/New_Systems/rnas/1fmn

>  <Rbt.Executable>
rbdock ($Id: //depot/dev/client3/rdock/2013.1/src/exe/rbdock.cxx#4 $)

>  <Rbt.Library>
libRbt.so (2013.1, Build901 2013/11/27)

>  <Rbt.Parameter_File>
/export/apps/rDock/src/rDock_2013.1_src/data/scripts/dock_solv.prm

>  <Rbt.Receptor>
prm/pocket_docking_6.prm

>  <SCORE>
-61.0635

>  <SCORE.INTER>
-55.1731

>  <SCORE.INTER.CONST>
1

>  <SCORE.INTER.POLAR>
-4.04235

>  <SCORE.INTER.ROT>
7

>  <SCORE.INTER.SOLV>
16.4172

>  <SCORE.INTER.VDW>
-37.0466

>  <SCORE.INTER.norm>
-1.77978

>  <SCORE.INTRA>
-5.89036

>  <SCORE.INTRA.DIHEDRAL>
-8.43677

>  <SCORE.INTRA.DIHEDRAL.0>
15.5708

>  <SCORE.INTRA.POLAR>
0.0677885

>  <SCORE.INTRA.POLAR.0>
-0.0677885

>  <SCORE.INTRA.REPUL>
0

>  <SCORE.INTRA.REPUL.0>
0

>  <SCORE.INTRA.SOLV>
-4.49893

>  <SCORE.INTRA.SOLV.lig_0>
-87.6316

>  <SCORE.INTRA.VDW>
0.347012

>  <SCORE.INTRA.VDW.0>
-2.87309

>  <SCORE.INTRA.norm>
-0.190011

>  <SCORE.RESTR>
0

>  <SCORE.RESTR.CAVITY>
0

>  <SCORE.RESTR.norm>
0

>  <SCORE.SYSTEM>
0

>  <SCORE.SYSTEM.CONST>
0

>  <SCORE.SYSTEM.DIHEDRAL>
0

>  <SCORE.SYSTEM.SOLV>
0

>  <SCORE.SYSTEM.norm>
0

>  <SCORE.heavy>
31

>  <SCORE.norm>
-1.96979

>  <SYMMETRIC_BONDS>
33 34 3

>  <RMSD>
2.556

$$$$
1fmn_cryst
 OpenBabel11021811393D
libRbt.so/2013.1/901 2013/11/27
 31 33  0  0  0  0  0  0  0  0999 V2000
   -8.9805   -6.1716    3.5207 N   0  0  0  0  0  0  0  0  0  0  0  0
   -9.7008   -6.2111    4.6917 C   0  0  0  0  0  0  0  0  0  0  0  0
   -9.2991   -6.8179    5.6851 O   0  0  0  0  0  0  0  0  0  0  0  0
  -10.9351   -5.5140    4.6804 N   0  0  0  0  0  0  0  0  0  0  0  0
  -11.4887   -4.7952    3.5982 C   0  0  0  0  0  0  0  0  0  0  0  0
  -12.5811   -4.2282    3.7263 O   0  0  0  0  0  0  0  0  0  0  0  0
  -10.6622   -4.8019    2.3890 C   0  0  0  0  0  0  0  0  0  0  0  0
  -11.1302   -4.1245    1.2907 N   0  0  0  0  0  0  0  0  0  0  0  0
  -10.4516   -4.2816    0.1171 C   0  0  0  0  0  0  0  0  0  0  0  0
  -11.0165   -3.7558   -1.0313 C   0  0  0  0  0  0  0  0  0  0  0  0
  -10.3995   -3.8734   -2.2300 C   0  0  0  0  0  0  0  0  0  0  0  0
  -11.0511   -3.2845   -3.4403 C   0  0  0  0  0  0  0  0  0  0  0  0
   -9.2047   -4.5170   -2.3279 C   0  0  0  0  0  0  0  0  0  0  0  0
   -8.5338   -4.6482   -3.6563 C   0  0  0  0  0  0  0  0  0  0  0  0
   -8.6124   -5.0480   -1.2279 C   0  0  0  0  0  0  0  0  0  0  0  0
   -9.2062   -4.9539    0.0307 C   0  0  0  0  0  0  0  0  0  0  0  0
   -8.6445   -5.4792    1.2133 N   0  0  0  0  0  0  0  0  0  0  0  0
   -9.4035   -5.5097    2.4012 C   0  0  0  0  0  0  0  0  0  0  0  0
   -7.1416   -5.4623    1.3524 C   0  0  0  0  0  0  0  0  0  0  0  0
   -6.4645   -6.8204    1.7091 C   0  0  1  0  0  0  0  0  0  0  0  0
   -6.7975   -7.8030    0.7388 O   0  0  0  0  0  0  0  0  0  0  0  0
   -4.9359   -6.7036    1.9186 C   0  0  1  0  0  0  0  0  0  0  0  0
   -4.5993   -6.9986    3.2711 O   0  0  0  0  0  0  0  0  0  0  0  0
   -4.0328   -7.5190    0.9608 C   0  0  1  0  0  0  0  0  0  0  0  0
   -3.9831   -6.8454   -0.2921 O   0  0  0  0  0  0  0  0  0  0  0  0
   -2.5916   -7.6901    1.4910 C   0  0  0  0  0  0  0  0  0  0  0  0
   -1.8901   -8.7366    0.8301 O   0  0  0  0  0  0  0  0  0  0  0  0
   -0.4562   -9.2301    1.2902 P   0  0  0  0  0  0  0  0  0  0  0  0
   -0.0890  -10.4936    0.6113 O   0  0  0  0  0  0  0  0  0  0  0  0
    0.5104   -8.1110    1.2739 O   0  5  0  0  0  0  0  0  0  0  0  0
   -0.6629   -9.6152    2.8211 O   0  5  0  0  0  0  0  0  0  0  0  0
  1 18  1  0  0  0  0
  1  2  1  0  0  0  0
  2  4  1  0  0  0  0
  2  3  2  0  0  0  0
  4  5  1  0  0  0  0
  5  7  1  0  0  0  0
  5  6  2  0  0  0  0
  7 18  2  0  0  0  0
  7  8  1  0  0  0  0
  8  9  1  0  0  0  0
  9 10  2  0  0  0  0
  9 16  1  0  0  0  0
 10 11  1  0  0  0  0
 11 12  1  0  0  0  0
 11 13  2  0  0  0  0
 13 14  1  0  0  0  0
 13 15  1  0  0  0  0
 15 16  2  0  0  0  0
 16 17  1  0  0  0  0
 17 19  1  0  0  0  0
 17 18  1  0  0  0  0
 20 19  1  6  0  0  0
 20 22  1  0  0  0  0
 20 21  1  0  0  0  0
 22 24  1  0  0  0  0
 22 23  1  1  0  0  0
 24 26  1  1  0  0  0
 24 25  1  0  0  0  0
 26 27  1  0  0  0  0
 27 28  1  0  0  0  0
 28 30  1  0  0  0  0
 28 29  2  0  0  0  0
 28 31  1  0  0  0  0
M  CHG  2  30  -1  31  -1
M  END
>  <CHROM.1>
-127.42289404,57.09318312,114.94924409,-174.30971647,76.89357216,-164.09249298
162.87516614,-75.86487286,-172.90827273,168.45744795,-6.79684844,-6.34792317
1.24992183,3.00881746,0.40455520,-1.32459598

>  <Name>
1fmn_cryst

>  <RI>
0

>  <Rbt.Current_Directory>
/home/itssahil/PROJECTS/Mol_Feturizer/New_Systems/rnas/1fmn

>  <Rbt.Executable>
rbdock ($Id: //depot/dev/client3/rdock/2013.1/src/exe/rbdock.cxx#4 $)

>  <Rbt.Library>
libRbt.so (2013.1, Build901 2013/11/27)

>  <Rbt.Parameter_File>
/export/apps/rDock/src/rDock_2013.1_src/data/scripts/dock_solv.prm

>  <Rbt.Receptor>
prm/pocket_docking_5.prm

>  <SCORE>
-57.3294

>  <SCORE.INTER>
-55.4241

>  <SCORE.INTER.CONST>
1

>  <SCORE.INTER.POLAR>
-3.70879

>  <SCORE.INTER.ROT>
7

>  <SCORE.INTER.SOLV>
16.9791

>  <SCORE.INTER.VDW>
-38.5131

>  <SCORE.INTER.norm>
-1.78787

>  <SCORE.INTRA>
-2.23581

>  <SCORE.INTRA.DIHEDRAL>
-3.69582

>  <SCORE.INTRA.DIHEDRAL.0>
15.5708

>  <SCORE.INTRA.POLAR>
0.0677885

>  <SCORE.INTRA.POLAR.0>
-0.0677885

>  <SCORE.INTRA.REPUL>
0

>  <SCORE.INTRA.REPUL.0>
0

>  <SCORE.INTRA.SOLV>
-4.50331

>  <SCORE.INTRA.SOLV.lig_0>
-87.6316

>  <SCORE.INTRA.VDW>
1.63328

>  <SCORE.INTRA.VDW.0>
-2.87309

>  <SCORE.INTRA.norm>
-0.0721229

>  <SCORE.RESTR>
0.330443

>  <SCORE.RESTR.CAVITY>
0.330443

>  <SCORE.RESTR.norm>
0.0106595

>  <SCORE.SYSTEM>
0

>  <SCORE.SYSTEM.CONST>
0

>  <SCORE.SYSTEM.DIHEDRAL>
0

>  <SCORE.SYSTEM.SOLV>
0

>  <SCORE.SYSTEM.norm>
0

>  <SCORE.heavy>
31

>  <SCORE.norm>
-1.84934

>  <SYMMETRIC_BONDS>
33 34 3

>  <RMSD>
2.571

$$$$
1fmn_cryst
 OpenBabel11021811393D
libRbt.so/2013.1/901 2013/11/27
 31 33  0  0  0  0  0  0  0  0999 V2000
   -8.7411   -6.1466    3.5315 N   0  0  0  0  0  0  0  0  0  0  0  0
   -9.5107   -6.2139    4.6693 C   0  0  0  0  0  0  0  0  0  0  0  0
   -9.1100   -6.7617    5.6969 O   0  0  0  0  0  0  0  0  0  0  0  0
  -10.7939   -5.6178    4.5823 N   0  0  0  0  0  0  0  0  0  0  0  0
  -11.3503   -4.9728    3.4560 C   0  0  0  0  0  0  0  0  0  0  0  0
  -12.4886   -4.4915    3.5182 O   0  0  0  0  0  0  0  0  0  0  0  0
  -10.4695   -4.9439    2.2861 C   0  0  0  0  0  0  0  0  0  0  0  0
  -10.9367   -4.3337    1.1487 N   0  0  0  0  0  0  0  0  0  0  0  0
  -10.1931   -4.4657    0.0119 C   0  0  0  0  0  0  0  0  0  0  0  0
  -10.7426   -4.0155   -1.1754 C   0  0  0  0  0  0  0  0  0  0  0  0
  -10.0622   -4.1136   -2.3411 C   0  0  0  0  0  0  0  0  0  0  0  0
  -10.7001   -3.6090   -3.5960 C   0  0  0  0  0  0  0  0  0  0  0  0
   -8.8175   -4.6622   -2.3665 C   0  0  0  0  0  0  0  0  0  0  0  0
   -8.0763   -4.7729   -3.6589 C   0  0  0  0  0  0  0  0  0  0  0  0
   -8.2381   -5.1167   -1.2260 C   0  0  0  0  0  0  0  0  0  0  0  0
   -8.8962   -5.0386    0.0013 C   0  0  0  0  0  0  0  0  0  0  0  0
   -8.3517   -5.4877    1.2226 N   0  0  0  0  0  0  0  0  0  0  0  0
   -9.1613   -5.5487    2.3754 C   0  0  0  0  0  0  0  0  0  0  0  0
   -6.8630   -5.3477    1.4289 C   0  0  0  0  0  0  0  0  0  0  0  0
   -6.0813   -6.6597    1.7413 C   0  0  1  0  0  0  0  0  0  0  0  0
   -6.5272   -7.7086    0.8934 O   0  0  0  0  0  0  0  0  0  0  0  0
   -4.5452   -6.4820    1.6891 C   0  0  1  0  0  0  0  0  0  0  0  0
   -4.1243   -6.2159    0.3543 O   0  0  0  0  0  0  0  0  0  0  0  0
   -3.9269   -5.4408    2.6543 C   0  0  1  0  0  0  0  0  0  0  0  0
   -4.2527   -5.8156    3.9882 O   0  0  0  0  0  0  0  0  0  0  0  0
   -2.3902   -5.3394    2.5273 C   0  0  0  0  0  0  0  0  0  0  0  0
   -1.8288   -4.4125    3.4492 O   0  0  0  0  0  0  0  0  0  0  0  0
   -0.2829   -4.0656    3.4805 P   0  0  0  0  0  0  0  0  0  0  0  0
    0.0012   -3.0066    4.4754 O   0  0  0  0  0  0  0  0  0  0  0  0
    0.5283   -5.3017    3.5110 O   0  5  0  0  0  0  0  0  0  0  0  0
   -0.0176   -3.3962    2.0604 O   0  5  0  0  0  0  0  0  0  0  0  0
  1 18  1  0  0  0  0
  1  2  1  0  0  0  0
  2  4  1  0  0  0  0
  2  3  2  0  0  0  0
  4  5  1  0  0  0  0
  5  7  1  0  0  0  0
  5  6  2  0  0  0  0
  7 18  2  0  0  0  0
  7  8  1  0  0  0  0
  8  9  1  0  0  0  0
  9 10  2  0  0  0  0
  9 16  1  0  0  0  0
 10 11  1  0  0  0  0
 11 12  1  0  0  0  0
 11 13  2  0  0  0  0
 13 14  1  0  0  0  0
 13 15  1  0  0  0  0
 15 16  2  0  0  0  0
 16 17  1  0  0  0  0
 17 19  1  0  0  0  0
 17 18  1  0  0  0  0
 20 19  1  6  0  0  0
 20 22  1  0  0  0  0
 20 21  1  0  0  0  0
 22 24  1  0  0  0  0
 22 23  1  6  0  0  0
 24 26  1  1  0  0  0
 24 25  1  0  0  0  0
 26 27  1  0  0  0  0
 27 28  1  0  0  0  0
 28 30  1  0  0  0  0
 28 29  2  0  0  0  0
 28 31  1  0  0  0  0
M  CHG  2  30  -1  31  -1
M  END
>  <CHROM.1>
-122.63182731,43.26833882,-67.24508005,66.10638850,59.29668956,-58.74674631
-178.04516702,-61.47548708,-176.88899566,176.15324097,-6.56515757,-5.11727971
1.76942208,2.88023068,-0.07797936,-1.40829897

>  <Name>
1fmn_cryst

>  <RI>
0

>  <Rbt.Current_Directory>
/home/itssahil/PROJECTS/Mol_Feturizer/New_Systems/rnas/1fmn

>  <Rbt.Executable>
rbdock ($Id: //depot/dev/client3/rdock/2013.1/src/exe/rbdock.cxx#4 $)

>  <Rbt.Library>
libRbt.so (2013.1, Build901 2013/11/27)

>  <Rbt.Parameter_File>
/export/apps/rDock/src/rDock_2013.1_src/data/scripts/dock_solv.prm

>  <Rbt.Receptor>
prm/pocket_docking_6.prm

>  <SCORE>
-58.4319

>  <SCORE.INTER>
-51.2499

>  <SCORE.INTER.CONST>
1

>  <SCORE.INTER.POLAR>
-3.06864

>  <SCORE.INTER.ROT>
7

>  <SCORE.INTER.SOLV>
15.785

>  <SCORE.INTER.VDW>
-37.4661

>  <SCORE.INTER.norm>
-1.65322

>  <SCORE.INTRA>
-7.18207

>  <SCORE.INTRA.DIHEDRAL>
-11.6643

>  <SCORE.INTRA.DIHEDRAL.0>
15.5708

>  <SCORE.INTRA.POLAR>
0.0677885

>  <SCORE.INTRA.POLAR.0>
-0.0677885

>  <SCORE.INTRA.REPUL>
0

>  <SCORE.INTRA.REPUL.0>
0

>  <SCORE.INTRA.SOLV>
-4.65651

>  <SCORE.INTRA.SOLV.lig_0>
-87.6316

>  <SCORE.INTRA.VDW>
0.747825

>  <SCORE.INTRA.VDW.0>
-2.87309

>  <SCORE.INTRA.norm>
-0.23168

>  <SCORE.RESTR>
0

>  <SCORE.RESTR.CAVITY>
0

>  <SCORE.RESTR.norm>
0

>  <SCORE.SYSTEM>
0

>  <SCORE.SYSTEM.CONST>
0

>  <SCORE.SYSTEM.DIHEDRAL>
0

>  <SCORE.SYSTEM.SOLV>
0

>  <SCORE.SYSTEM.norm>
0

>  <SCORE.heavy>
31

>  <SCORE.norm>
-1.8849

>  <SYMMETRIC_BONDS>
33 34 3

>  <RMSD>
2.581

$$$$
1fmn_cryst
 OpenBabel11021811393D
libRbt.so/2013.1/901 2013/11/27
 31 33  0  0  0  0  0  0  0  0999 V2000
   -8.7193   -6.1670    3.3311 N   0  0  0  0  0  0  0  0  0  0  0  0
   -9.5109   -6.2543    4.4524 C   0  0  0  0  0  0  0  0  0  0  0  0
   -9.1161   -6.7868    5.4902 O   0  0  0  0  0  0  0  0  0  0  0  0
  -10.8094   -5.6978    4.3356 N   0  0  0  0  0  0  0  0  0  0  0  0
  -11.3606   -5.0731    3.1953 C   0  0  0  0  0  0  0  0  0  0  0  0
  -12.5140   -4.6264    3.2313 O   0  0  0  0  0  0  0  0  0  0  0  0
  -10.4560   -5.0209    2.0445 C   0  0  0  0  0  0  0  0  0  0  0  0
  -10.9168   -4.4285    0.8952 N   0  0  0  0  0  0  0  0  0  0  0  0
  -10.1451   -4.5411   -0.2248 C   0  0  0  0  0  0  0  0  0  0  0  0
  -10.6821   -4.1112   -1.4253 C   0  0  0  0  0  0  0  0  0  0  0  0
   -9.9741   -4.1920   -2.5757 C   0  0  0  0  0  0  0  0  0  0  0  0
  -10.5996   -3.7106   -3.8459 C   0  0  0  0  0  0  0  0  0  0  0  0
   -8.7130   -4.7027   -2.5723 C   0  0  0  0  0  0  0  0  0  0  0  0
   -7.9410   -4.7945   -3.8481 C   0  0  0  0  0  0  0  0  0  0  0  0
   -8.1449   -5.1360   -1.4181 C   0  0  0  0  0  0  0  0  0  0  0  0
   -8.8315   -5.0744   -0.2055 C   0  0  0  0  0  0  0  0  0  0  0  0
   -8.3002   -5.5033    1.0289 N   0  0  0  0  0  0  0  0  0  0  0  0
   -9.1323   -5.5855    2.1641 C   0  0  0  0  0  0  0  0  0  0  0  0
   -6.8212   -5.3175    1.2667 C   0  0  0  0  0  0  0  0  0  0  0  0
   -6.0141   -6.5982    1.6393 C   0  0  1  0  0  0  0  0  0  0  0  0
   -5.1898   -6.9909    0.5511 O   0  0  0  0  0  0  0  0  0  0  0  0
   -5.2121   -6.4528    2.9544 C   0  0  1  0  0  0  0  0  0  0  0  0
   -4.5424   -7.6722    3.2613 O   0  0  0  0  0  0  0  0  0  0  0  0
   -4.2179   -5.2689    3.0419 C   0  0  1  0  0  0  0  0  0  0  0  0
   -4.9475   -4.0569    2.8854 O   0  0  0  0  0  0  0  0  0  0  0  0
   -3.4552   -5.2204    4.3849 C   0  0  0  0  0  0  0  0  0  0  0  0
   -2.1695   -4.6246    4.2585 O   0  0  0  0  0  0  0  0  0  0  0  0
   -1.9546   -3.0555    4.2017 P   0  0  0  0  0  0  0  0  0  0  0  0
   -2.8850   -2.4292    3.2352 O   0  0  0  0  0  0  0  0  0  0  0  0
   -1.8657   -2.4919    5.5660 O   0  5  0  0  0  0  0  0  0  0  0  0
   -0.5058   -2.8961    3.5609 O   0  5  0  0  0  0  0  0  0  0  0  0
  1 18  1  0  0  0  0
  1  2  1  0  0  0  0
  2  4  1  0  0  0  0
  2  3  2  0  0  0  0
  4  5  1  0  0  0  0
  5  7  1  0  0  0  0
  5  6  2  0  0  0  0
  7 18  2  0  0  0  0
  7  8  1  0  0  0  0
  8  9  1  0  0  0  0
  9 10  2  0  0  0  0
  9 16  1  0  0  0  0
 10 11  1  0  0  0  0
 11 12  1  0  0  0  0
 11 13  2  0  0  0  0
 13 14  1  0  0  0  0
 13 15  1  0  0  0  0
 15 16  2  0  0  0  0
 16 17  1  0  0  0  0
 17 19  1  0  0  0  0
 17 18  1  0  0  0  0
 20 19  1  6  0  0  0
 20 22  1  0  0  0  0
 20 21  1  0  0  0  0
 22 24  1  0  0  0  0
 22 23  1  6  0  0  0
 24 26  1  1  0  0  0
 24 25  1  0  0  0  0
 26 27  1  0  0  0  0
 27 28  1  0  0  0  0
 28 30  1  0  0  0  0
 28 29  2  0  0  0  0
 28 31  1  0  0  0  0
M  CHG  2  30  -1  31  -1
M  END
>  <CHROM.1>
-124.26849499,108.07003014,177.73843874,-61.96397870,60.07249172,-167.39462698
151.30372475,-168.30712688,79.66112249,-48.02300106,-6.91591739,-4.90003808
1.96067191,2.67477061,-0.20400519,-1.39956684

>  <Name>
1fmn_cryst

>  <RI>
0

>  <Rbt.Current_Directory>
/home/itssahil/PROJECTS/Mol_Feturizer/New_Systems/rnas/1fmn

>  <Rbt.Executable>
rbdock ($Id: //depot/dev/client3/rdock/2013.1/src/exe/rbdock.cxx#4 $)

>  <Rbt.Library>
libRbt.so (2013.1, Build901 2013/11/27)

>  <Rbt.Parameter_File>
/export/apps/rDock/src/rDock_2013.1_src/data/scripts/dock_solv.prm

>  <Rbt.Receptor>
prm/pocket_docking_8.prm

>  <SCORE>
-65.7271

>  <SCORE.INTER>
-61.0661

>  <SCORE.INTER.CONST>
1

>  <SCORE.INTER.POLAR>
-5.05483

>  <SCORE.INTER.ROT>
7

>  <SCORE.INTER.SOLV>
16.9852

>  <SCORE.INTER.VDW>
-37.7897

>  <SCORE.INTER.norm>
-1.96987

>  <SCORE.INTRA>
-4.66096

>  <SCORE.INTRA.DIHEDRAL>
-2.45485

>  <SCORE.INTRA.DIHEDRAL.0>
15.5708

>  <SCORE.INTRA.POLAR>
-1.21745

>  <SCORE.INTRA.POLAR.0>
-0.0677885

>  <SCORE.INTRA.REPUL>
0

>  <SCORE.INTRA.REPUL.0>
0

>  <SCORE.INTRA.SOLV>
-1.13446

>  <SCORE.INTRA.SOLV.lig_0>
-87.6316

>  <SCORE.INTRA.VDW>
1.27304

>  <SCORE.INTRA.VDW.0>
-2.87309

>  <SCORE.INTRA.norm>
-0.150353

>  <SCORE.RESTR>
0

>  <SCORE.RESTR.CAVITY>
0

>  <SCORE.RESTR.norm>
0

>  <SCORE.SYSTEM>
0

>  <SCORE.SYSTEM.CONST>
0

>  <SCORE.SYSTEM.DIHEDRAL>
0

>  <SCORE.SYSTEM.SOLV>
0

>  <SCORE.SYSTEM.norm>
0

>  <SCORE.heavy>
31

>  <SCORE.norm>
-2.12023

>  <SYMMETRIC_BONDS>
33 34 3

>  <RMSD>
2.583

$$$$
1fmn_cryst
 OpenBabel11021811393D
libRbt.so/2013.1/901 2013/11/27
 31 33  0  0  0  0  0  0  0  0999 V2000
   -6.5229   -7.8251    3.9000 N   0  0  0  0  0  0  0  0  0  0  0  0
   -6.8123   -8.1768    5.1978 C   0  0  0  0  0  0  0  0  0  0  0  0
   -6.0830   -8.9253    5.8493 O   0  0  0  0  0  0  0  0  0  0  0  0
   -8.0038   -7.6277    5.7346 N   0  0  0  0  0  0  0  0  0  0  0  0
   -8.9094   -6.7685    5.0745 C   0  0  0  0  0  0  0  0  0  0  0  0
   -9.9165   -6.3589    5.6657 O   0  0  0  0  0  0  0  0  0  0  0  0
   -8.5311   -6.4427    3.6976 C   0  0  0  0  0  0  0  0  0  0  0  0
   -9.3601   -5.6114    2.9862 N   0  0  0  0  0  0  0  0  0  0  0  0
   -9.1041   -5.4550    1.6548 C   0  0  0  0  0  0  0  0  0  0  0  0
  -10.0358   -4.7716    0.8937 C   0  0  0  0  0  0  0  0  0  0  0  0
   -9.8476   -4.5783   -0.4324 C   0  0  0  0  0  0  0  0  0  0  0  0
  -10.8838   -3.8301   -1.2089 C   0  0  0  0  0  0  0  0  0  0  0  0
   -8.7315   -5.0575   -1.0454 C   0  0  0  0  0  0  0  0  0  0  0  0
   -8.5351   -4.8455   -2.5112 C   0  0  0  0  0  0  0  0  0  0  0  0
   -7.7899   -5.7333   -0.3387 C   0  0  0  0  0  0  0  0  0  0  0  0
   -7.9355   -5.9591    1.0300 C   0  0  0  0  0  0  0  0  0  0  0  0
   -6.9955   -6.6494    1.8238 N   0  0  0  0  0  0  0  0  0  0  0  0
   -7.3160   -6.9999    3.1513 C   0  0  0  0  0  0  0  0  0  0  0  0
   -5.5331   -6.5006    1.4810 C   0  0  0  0  0  0  0  0  0  0  0  0
   -4.9190   -5.0803    1.6707 C   0  0  1  0  0  0  0  0  0  0  0  0
   -5.4420   -4.4738    2.8439 O   0  0  0  0  0  0  0  0  0  0  0  0
   -3.3718   -5.0772    1.6537 C   0  0  1  0  0  0  0  0  0  0  0  0
   -2.8840   -3.7684    1.3735 O   0  0  0  0  0  0  0  0  0  0  0  0
   -2.6561   -5.6506    2.9014 C   0  0  1  0  0  0  0  0  0  0  0  0
   -3.2301   -5.0574    4.0610 O   0  0  0  0  0  0  0  0  0  0  0  0
   -2.7808   -7.1866    3.0150 C   0  0  0  0  0  0  0  0  0  0  0  0
   -2.3407   -7.6758    4.2764 O   0  0  0  0  0  0  0  0  0  0  0  0
   -0.8681   -7.4497    4.8162 P   0  0  0  0  0  0  0  0  0  0  0  0
   -0.5992   -8.3062    5.9935 O   0  0  0  0  0  0  0  0  0  0  0  0
    0.1026   -7.4549    3.7005 O   0  5  0  0  0  0  0  0  0  0  0  0
   -0.8952   -5.9584    5.3732 O   0  5  0  0  0  0  0  0  0  0  0  0
  1 18  1  0  0  0  0
  1  2  1  0  0  0  0
  2  4  1  0  0  0  0
  2  3  2  0  0  0  0
  4  5  1  0  0  0  0
  5  7  1  0  0  0  0
  5  6  2  0  0  0  0
  7 18  2  0  0  0  0
  7  8  1  0  0  0  0
  8  9  1  0  0  0  0
  9 10  2  0  0  0  0
  9 16  1  0  0  0  0
 10 11  1  0  0  0  0
 11 12  1  0  0  0  0
 11 13  2  0  0  0  0
 13 14  1  0  0  0  0
 13 15  1  0  0  0  0
 15 16  2  0  0  0  0
 16 17  1  0  0  0  0
 17 19  1  0  0  0  0
 17 18  1  0  0  0  0
 20 19  1  1  0  0  0
 20 22  1  0  0  0  0
 20 21  1  0  0  0  0
 22 24  1  0  0  0  0
 22 23  1  1  0  0  0
 24 26  1  1  0  0  0
 24 25  1  0  0  0  0
 26 27  1  0  0  0  0
 27 28  1  0  0  0  0
 28 30  1  0  0  0  0
 28 29  2  0  0  0  0
 28 31  1  0  0  0  0
M  CHG  2  30  -1  31  -1
M  END
>  <CHROM.1>
65.88625480,38.86260937,160.25063429,77.18028865,-49.07963320,-68.69550815
-169.13116380,-165.32888745,-59.19524743,-167.45232453,-5.66519325,-6.22423281
2.88362734,0.50106256,0.02088812,2.05618939

>  <Name>
1fmn_cryst

>  <RI>
0

>  <Rbt.Current_Directory>
/home/itssahil/PROJECTS/Mol_Feturizer/New_Systems/rnas/1fmn

>  <Rbt.Executable>
rbdock ($Id: //depot/dev/client3/rdock/2013.1/src/exe/rbdock.cxx#4 $)

>  <Rbt.Library>
libRbt.so (2013.1, Build901 2013/11/27)

>  <Rbt.Parameter_File>
/export/apps/rDock/src/rDock_2013.1_src/data/scripts/dock_solv.prm

>  <Rbt.Receptor>
prm/pocket_docking_6.prm

>  <SCORE>
-48.4428

>  <SCORE.INTER>
-40.4188

>  <SCORE.INTER.CONST>
1

>  <SCORE.INTER.POLAR>
-2.65697

>  <SCORE.INTER.ROT>
7

>  <SCORE.INTER.SOLV>
13.7036

>  <SCORE.INTER.VDW>
-30.9238

>  <SCORE.INTER.norm>
-1.30383

>  <SCORE.INTRA>
-8.02397

>  <SCORE.INTRA.DIHEDRAL>
-7.30735

>  <SCORE.INTRA.DIHEDRAL.0>
15.5708

>  <SCORE.INTRA.POLAR>
-1.30893

>  <SCORE.INTRA.POLAR.0>
-0.0677885

>  <SCORE.INTRA.REPUL>
0

>  <SCORE.INTRA.REPUL.0>
0

>  <SCORE.INTRA.SOLV>
1.16971

>  <SCORE.INTRA.SOLV.lig_0>
-87.6316

>  <SCORE.INTRA.VDW>
-0.504772

>  <SCORE.INTRA.VDW.0>
-2.87309

>  <SCORE.INTRA.norm>
-0.258838

>  <SCORE.RESTR>
0

>  <SCORE.RESTR.CAVITY>
0

>  <SCORE.RESTR.norm>
0

>  <SCORE.SYSTEM>
0

>  <SCORE.SYSTEM.CONST>
0

>  <SCORE.SYSTEM.DIHEDRAL>
0

>  <SCORE.SYSTEM.SOLV>
0

>  <SCORE.SYSTEM.norm>
0

>  <SCORE.heavy>
31

>  <SCORE.norm>
-1.56267

>  <SYMMETRIC_BONDS>
33 34 3

>  <RMSD>
2.616

$$$$
1fmn_cryst
 OpenBabel11021811393D
libRbt.so/2013.1/901 2013/11/27
 31 33  0  0  0  0  0  0  0  0999 V2000
   -8.8597   -6.2275    3.5281 N   0  0  0  0  0  0  0  0  0  0  0  0
   -9.6035   -6.2549    4.6846 C   0  0  0  0  0  0  0  0  0  0  0  0
   -9.2165   -6.8416    5.6958 O   0  0  0  0  0  0  0  0  0  0  0  0
  -10.8438   -5.5702    4.6367 N   0  0  0  0  0  0  0  0  0  0  0  0
  -11.3817   -4.8745    3.5318 C   0  0  0  0  0  0  0  0  0  0  0  0
  -12.4818   -4.3161    3.6282 O   0  0  0  0  0  0  0  0  0  0  0  0
  -10.5305   -4.8928    2.3400 C   0  0  0  0  0  0  0  0  0  0  0  0
  -10.9823   -4.2380    1.2213 N   0  0  0  0  0  0  0  0  0  0  0  0
  -10.2782   -4.4075    0.0645 C   0  0  0  0  0  0  0  0  0  0  0  0
  -10.8244   -3.9060   -1.1036 C   0  0  0  0  0  0  0  0  0  0  0  0
  -10.1818   -4.0371   -2.2874 C   0  0  0  0  0  0  0  0  0  0  0  0
  -10.8140   -3.4742   -3.5202 C   0  0  0  0  0  0  0  0  0  0  0  0
   -8.9793   -4.6705   -2.3503 C   0  0  0  0  0  0  0  0  0  0  0  0
   -8.2800   -4.8168   -3.6625 C   0  0  0  0  0  0  0  0  0  0  0  0
   -8.4047   -5.1777   -1.2299 C   0  0  0  0  0  0  0  0  0  0  0  0
   -9.0251   -5.0689    0.0146 C   0  0  0  0  0  0  0  0  0  0  0  0
   -8.4829   -5.5695    1.2169 N   0  0  0  0  0  0  0  0  0  0  0  0
   -9.2658   -5.5880    2.3894 C   0  0  0  0  0  0  0  0  0  0  0  0
   -6.9834   -5.5357    1.3864 C   0  0  0  0  0  0  0  0  0  0  0  0
   -6.1839   -6.6871    0.7044 C   0  0  1  0  0  0  0  0  0  0  0  0
   -5.1966   -6.1497   -0.1641 O   0  0  0  0  0  0  0  0  0  0  0  0
   -5.5849   -7.6952    1.7138 C   0  0  1  0  0  0  0  0  0  0  0  0
   -5.1164   -8.8558    1.0332 O   0  0  0  0  0  0  0  0  0  0  0  0
   -4.4864   -7.1637    2.6671 C   0  0  1  0  0  0  0  0  0  0  0  0
   -4.0801   -8.2270    3.5217 O   0  0  0  0  0  0  0  0  0  0  0  0
   -3.2466   -6.6264    1.9177 C   0  0  0  0  0  0  0  0  0  0  0  0
   -2.5938   -7.6342    1.1546 O   0  0  0  0  0  0  0  0  0  0  0  0
   -1.3784   -7.3230    0.1865 P   0  0  0  0  0  0  0  0  0  0  0  0
   -0.4511   -6.3452    0.7998 O   0  0  0  0  0  0  0  0  0  0  0  0
   -0.8210   -8.5748   -0.3695 O   0  5  0  0  0  0  0  0  0  0  0  0
   -2.0552   -6.5581   -1.0348 O   0  5  0  0  0  0  0  0  0  0  0  0
  1 18  1  0  0  0  0
  1  2  1  0  0  0  0
  2  4  1  0  0  0  0
  2  3  2  0  0  0  0
  4  5  1  0  0  0  0
  5  7  1  0  0  0  0
  5  6  2  0  0  0  0
  7 18  2  0  0  0  0
  7  8  1  0  0  0  0
  8  9  1  0  0  0  0
  9 10  2  0  0  0  0
  9 16  1  0  0  0  0
 10 11  1  0  0  0  0
 11 12  1  0  0  0  0
 11 13  2  0  0  0  0
 13 14  1  0  0  0  0
 13 15  1  0  0  0  0
 15 16  2  0  0  0  0
 16 17  1  0  0  0  0
 17 19  1  0  0  0  0
 17 18  1  0  0  0  0
 20 19  1  1  0  0  0
 20 22  1  0  0  0  0
 20 21  1  0  0  0  0
 22 24  1  0  0  0  0
 22 23  1  6  0  0  0
 24 26  1  6  0  0  0
 24 25  1  0  0  0  0
 26 27  1  0  0  0  0
 27 28  1  0  0  0  0
 28 30  1  0  0  0  0
 28 29  2  0  0  0  0
 28 31  1  0  0  0  0
M  CHG  2  30  -1  31  -1
M  END
>  <CHROM.1>
-81.12602889,124.57549664,167.85575048,-64.50231206,179.24597176,-59.39750871
-62.20854863,57.17452559,174.16904909,40.73490136,-6.91289058,-6.04268980
1.03095878,-3.14052079,0.31850080,-1.29252570

>  <Name>
1fmn_cryst

>  <RI>
0

>  <Rbt.Current_Directory>
/home/itssahil/PROJECTS/Mol_Feturizer/New_Systems/rnas/1fmn

>  <Rbt.Executable>
rbdock ($Id: //depot/dev/client3/rdock/2013.1/src/exe/rbdock.cxx#4 $)

>  <Rbt.Library>
libRbt.so (2013.1, Build901 2013/11/27)

>  <Rbt.Parameter_File>
/export/apps/rDock/src/rDock_2013.1_src/data/scripts/dock_solv.prm

>  <Rbt.Receptor>
prm/pocket_docking_5.prm

>  <SCORE>
-63.8421

>  <SCORE.INTER>
-59.1515

>  <SCORE.INTER.CONST>
1

>  <SCORE.INTER.POLAR>
-4.21764

>  <SCORE.INTER.ROT>
7

>  <SCORE.INTER.SOLV>
23.3724

>  <SCORE.INTER.VDW>
-41.433

>  <SCORE.INTER.norm>
-1.90811

>  <SCORE.INTRA>
-4.69061

>  <SCORE.INTRA.DIHEDRAL>
-7.00398

>  <SCORE.INTRA.DIHEDRAL.0>
15.5708

>  <SCORE.INTRA.POLAR>
0.0455931

>  <SCORE.INTRA.POLAR.0>
-0.0677885

>  <SCORE.INTRA.REPUL>
0.0295056

>  <SCORE.INTRA.REPUL.0>
0

>  <SCORE.INTRA.SOLV>
-3.00236

>  <SCORE.INTRA.SOLV.lig_0>
-87.6316

>  <SCORE.INTRA.VDW>
0.0100149

>  <SCORE.INTRA.VDW.0>
-2.87309

>  <SCORE.INTRA.norm>
-0.15131

>  <SCORE.RESTR>
0

>  <SCORE.RESTR.CAVITY>
0

>  <SCORE.RESTR.norm>
0

>  <SCORE.SYSTEM>
0

>  <SCORE.SYSTEM.CONST>
0

>  <SCORE.SYSTEM.DIHEDRAL>
0

>  <SCORE.SYSTEM.SOLV>
0

>  <SCORE.SYSTEM.norm>
0

>  <SCORE.heavy>
31

>  <SCORE.norm>
-2.05942

>  <SYMMETRIC_BONDS>
33 34 3

>  <RMSD>
2.626

$$$$
1fmn_cryst
 OpenBabel11021811393D
libRbt.so/2013.1/901 2013/11/27
 31 33  0  0  0  0  0  0  0  0999 V2000
   -8.9336   -6.2291    3.5963 N   0  0  0  0  0  0  0  0  0  0  0  0
   -9.7039   -6.2140    4.7357 C   0  0  0  0  0  0  0  0  0  0  0  0
   -9.3617   -6.8012    5.7626 O   0  0  0  0  0  0  0  0  0  0  0  0
  -10.9166   -5.4851    4.6508 N   0  0  0  0  0  0  0  0  0  0  0  0
  -11.4034   -4.7847    3.5253 C   0  0  0  0  0  0  0  0  0  0  0  0
  -12.4841   -4.1852    3.5895 O   0  0  0  0  0  0  0  0  0  0  0  0
  -10.5268   -4.8497    2.3538 C   0  0  0  0  0  0  0  0  0  0  0  0
  -10.9287   -4.1935    1.2170 N   0  0  0  0  0  0  0  0  0  0  0  0
  -10.2054   -4.4038    0.0790 C   0  0  0  0  0  0  0  0  0  0  0  0
  -10.7062   -3.8980   -1.1075 C   0  0  0  0  0  0  0  0  0  0  0  0
  -10.0423   -4.0680   -2.2745 C   0  0  0  0  0  0  0  0  0  0  0  0
  -10.6253   -3.4986   -3.5284 C   0  0  0  0  0  0  0  0  0  0  0  0
   -8.8629   -4.7458   -2.3019 C   0  0  0  0  0  0  0  0  0  0  0  0
   -8.1401   -4.9347   -3.5957 C   0  0  0  0  0  0  0  0  0  0  0  0
   -8.3329   -5.2590   -1.1624 C   0  0  0  0  0  0  0  0  0  0  0  0
   -8.9768   -5.1113    0.0661 C   0  0  0  0  0  0  0  0  0  0  0  0
   -8.4807   -5.6156    1.2866 N   0  0  0  0  0  0  0  0  0  0  0  0
   -9.2901   -5.5901    2.4408 C   0  0  0  0  0  0  0  0  0  0  0  0
   -6.9852   -5.6345    1.4901 C   0  0  0  0  0  0  0  0  0  0  0  0
   -6.2796   -7.0127    1.3088 C   0  0  1  0  0  0  0  0  0  0  0  0
   -5.3393   -6.9450    0.2462 O   0  0  0  0  0  0  0  0  0  0  0  0
   -5.6457   -7.5501    2.6139 C   0  0  1  0  0  0  0  0  0  0  0  0
   -6.6531   -7.7735    3.5962 O   0  0  0  0  0  0  0  0  0  0  0  0
   -4.7426   -8.8019    2.4908 C   0  0  1  0  0  0  0  0  0  0  0  0
   -5.2472   -9.6183    1.4396 O   0  0  0  0  0  0  0  0  0  0  0  0
   -3.2683   -8.4538    2.1863 C   0  0  0  0  0  0  0  0  0  0  0  0
   -3.0984   -7.8963    0.8884 O   0  0  0  0  0  0  0  0  0  0  0  0
   -1.6932   -7.4061    0.3441 P   0  0  0  0  0  0  0  0  0  0  0  0
   -1.0832   -6.4215    1.2664 O   0  0  0  0  0  0  0  0  0  0  0  0
   -0.8780   -8.5556   -0.1043 O   0  5  0  0  0  0  0  0  0  0  0  0
   -2.0627   -6.5855   -0.9692 O   0  5  0  0  0  0  0  0  0  0  0  0
  1 18  1  0  0  0  0
  1  2  1  0  0  0  0
  2  4  1  0  0  0  0
  2  3  2  0  0  0  0
  4  5  1  0  0  0  0
  5  7  1  0  0  0  0
  5  6  2  0  0  0  0
  7 18  2  0  0  0  0
  7  8  1  0  0  0  0
  8  9  1  0  0  0  0
  9 10  2  0  0  0  0
  9 16  1  0  0  0  0
 10 11  1  0  0  0  0
 11 12  1  0  0  0  0
 11 13  2  0  0  0  0
 13 14  1  0  0  0  0
 13 15  1  0  0  0  0
 15 16  2  0  0  0  0
 16 17  1  0  0  0  0
 17 19  1  0  0  0  0
 17 18  1  0  0  0  0
 20 19  1  1  0  0  0
 20 22  1  0  0  0  0
 20 21  1  0  0  0  0
 22 24  1  0  0  0  0
 22 23  1  1  0  0  0
 24 26  1  6  0  0  0
 24 25  1  0  0  0  0
 26 27  1  0  0  0  0
 27 28  1  0  0  0  0
 28 30  1  0  0  0  0
 28 29  2  0  0  0  0
 28 31  1  0  0  0  0
M  CHG  2  30  -1  31  -1
M  END
>  <CHROM.1>
-102.12386622,118.50824949,62.48967530,60.13990303,-32.71792641,-178.10877697
-67.64936418,61.48833303,177.86379022,-54.94307881,-7.07638416,-6.20654052
1.16270929,3.11905333,0.36539203,-1.24971487

>  <Name>
1fmn_cryst

>  <RI>
0

>  <Rbt.Current_Directory>
/home/itssahil/PROJECTS/Mol_Feturizer/New_Systems/rnas/1fmn

>  <Rbt.Executable>
rbdock ($Id: //depot/dev/client3/rdock/2013.1/src/exe/rbdock.cxx#4 $)

>  <Rbt.Library>
libRbt.so (2013.1, Build901 2013/11/27)

>  <Rbt.Parameter_File>
/export/apps/rDock/src/rDock_2013.1_src/data/scripts/dock_solv.prm

>  <Rbt.Receptor>
prm/pocket_docking_8.prm

>  <SCORE>
-60.6001

>  <SCORE.INTER>
-53.3048

>  <SCORE.INTER.CONST>
1

>  <SCORE.INTER.POLAR>
-2.99758

>  <SCORE.INTER.ROT>
7

>  <SCORE.INTER.SOLV>
23.6409

>  <SCORE.INTER.VDW>
-41.6916

>  <SCORE.INTER.norm>
-1.71951

>  <SCORE.INTRA>
-7.29528

>  <SCORE.INTRA.DIHEDRAL>
-4.98937

>  <SCORE.INTRA.DIHEDRAL.0>
15.5708

>  <SCORE.INTRA.POLAR>
-1.25116

>  <SCORE.INTRA.POLAR.0>
-0.0677885

>  <SCORE.INTRA.REPUL>
0

>  <SCORE.INTRA.REPUL.0>
0

>  <SCORE.INTRA.SOLV>
-1.3828

>  <SCORE.INTRA.SOLV.lig_0>
-87.6316

>  <SCORE.INTRA.VDW>
0.144731

>  <SCORE.INTRA.VDW.0>
-2.87309

>  <SCORE.INTRA.norm>
-0.235332

>  <SCORE.RESTR>
0

>  <SCORE.RESTR.CAVITY>
0

>  <SCORE.RESTR.norm>
0

>  <SCORE.SYSTEM>
0

>  <SCORE.SYSTEM.CONST>
0

>  <SCORE.SYSTEM.DIHEDRAL>
0

>  <SCORE.SYSTEM.SOLV>
0

>  <SCORE.SYSTEM.norm>
0

>  <SCORE.heavy>
31

>  <SCORE.norm>
-1.95484

>  <SYMMETRIC_BONDS>
33 34 3

>  <RMSD>
2.630

$$$$
1fmn_cryst
 OpenBabel11021811393D
libRbt.so/2013.1/901 2013/11/27
 31 33  0  0  0  0  0  0  0  0999 V2000
   -8.9445   -6.1744    3.5569 N   0  0  0  0  0  0  0  0  0  0  0  0
   -9.6428   -6.2119    4.7411 C   0  0  0  0  0  0  0  0  0  0  0  0
   -9.2223   -6.8167    5.7280 O   0  0  0  0  0  0  0  0  0  0  0  0
  -10.8774   -5.5154    4.7515 N   0  0  0  0  0  0  0  0  0  0  0  0
  -11.4514   -4.7989    3.6785 C   0  0  0  0  0  0  0  0  0  0  0  0
  -12.5415   -4.2320    3.8259 O   0  0  0  0  0  0  0  0  0  0  0  0
  -10.6476   -4.8075    2.4542 C   0  0  0  0  0  0  0  0  0  0  0  0
  -11.1363   -4.1324    1.3635 N   0  0  0  0  0  0  0  0  0  0  0  0
  -10.4797   -4.2914    0.1777 C   0  0  0  0  0  0  0  0  0  0  0  0
  -11.0662   -3.7680   -0.9609 C   0  0  0  0  0  0  0  0  0  0  0  0
  -10.4716   -3.8876   -2.1706 C   0  0  0  0  0  0  0  0  0  0  0  0
  -11.1460   -3.3012   -3.3697 C   0  0  0  0  0  0  0  0  0  0  0  0
   -9.2786   -4.5309   -2.2897 C   0  0  0  0  0  0  0  0  0  0  0  0
   -8.6326   -4.6643   -3.6302 C   0  0  0  0  0  0  0  0  0  0  0  0
   -8.6656   -5.0596   -1.1999 C   0  0  0  0  0  0  0  0  0  0  0  0
   -9.2358   -4.9633    0.0694 C   0  0  0  0  0  0  0  0  0  0  0  0
   -8.6520   -5.4862    1.2423 N   0  0  0  0  0  0  0  0  0  0  0  0
   -9.3886   -5.5148    2.4441 C   0  0  0  0  0  0  0  0  0  0  0  0
   -7.1468   -5.4684    1.3533 C   0  0  0  0  0  0  0  0  0  0  0  0
   -6.3859   -6.6205    0.6293 C   0  0  1  0  0  0  0  0  0  0  0  0
   -5.4958   -6.0856   -0.3400 O   0  0  0  0  0  0  0  0  0  0  0  0
   -5.6727   -7.5876    1.6040 C   0  0  1  0  0  0  0  0  0  0  0  0
   -5.1603   -8.7127    0.8960 O   0  0  0  0  0  0  0  0  0  0  0  0
   -4.5680   -6.9849    2.5063 C   0  0  1  0  0  0  0  0  0  0  0  0
   -4.1054   -8.0006    3.3896 O   0  0  0  0  0  0  0  0  0  0  0  0
   -3.3659   -6.4384    1.7037 C   0  0  0  0  0  0  0  0  0  0  0  0
   -2.5838   -7.4752    1.1229 O   0  0  0  0  0  0  0  0  0  0  0  0
   -1.4233   -7.1915    0.0817 P   0  0  0  0  0  0  0  0  0  0  0  0
   -0.6029   -8.4041   -0.1388 O   0  0  0  0  0  0  0  0  0  0  0  0
   -1.9459   -6.4665   -1.0966 O   0  5  0  0  0  0  0  0  0  0  0  0
   -0.4724   -6.1686    0.8459 O   0  5  0  0  0  0  0  0  0  0  0  0
  1 18  1  0  0  0  0
  1  2  1  0  0  0  0
  2  4  1  0  0  0  0
  2  3  2  0  0  0  0
  4  5  1  0  0  0  0
  5  7  1  0  0  0  0
  5  6  2  0  0  0  0
  7 18  2  0  0  0  0
  7  8  1  0  0  0  0
  8  9  1  0  0  0  0
  9 10  2  0  0  0  0
  9 16  1  0  0  0  0
 10 11  1  0  0  0  0
 11 12  1  0  0  0  0
 11 13  2  0  0  0  0
 13 14  1  0  0  0  0
 13 15  1  0  0  0  0
 15 16  2  0  0  0  0
 16 17  1  0  0  0  0
 17 19  1  0  0  0  0
 17 18  1  0  0  0  0
 20 19  1  1  0  0  0
 20 22  1  0  0  0  0
 20 21  1  0  0  0  0
 22 24  1  0  0  0  0
 22 23  1  6  0  0  0
 24 26  1  6  0  0  0
 24 25  1  0  0  0  0
 26 27  1  0  0  0  0
 27 28  1  0  0  0  0
 28 30  1  0  0  0  0
 28 29  2  0  0  0  0
 28 31  1  0  0  0  0
M  CHG  2  30  -1  31  -1
M  END
>  <CHROM.1>
-81.37970980,120.44094809,171.83875800,-153.68455210,175.86483496,-63.17561542
-70.90781098,-177.07472013,170.89486125,168.19590389,-7.02460513,-5.92678248
1.04709547,-3.12920173,0.31136980,-1.29859252

>  <Name>
1fmn_cryst

>  <RI>
0

>  <Rbt.Current_Directory>
/home/itssahil/PROJECTS/Mol_Feturizer/New_Systems/rnas/1fmn

>  <Rbt.Executable>
rbdock ($Id: //depot/dev/client3/rdock/2013.1/src/exe/rbdock.cxx#4 $)

>  <Rbt.Library>
libRbt.so (2013.1, Build901 2013/11/27)

>  <Rbt.Parameter_File>
/export/apps/rDock/src/rDock_2013.1_src/data/scripts/dock_solv.prm

>  <Rbt.Receptor>
prm/pocket_docking_7.prm

>  <SCORE>
-66.3966

>  <SCORE.INTER>
-62.9257

>  <SCORE.INTER.CONST>
1

>  <SCORE.INTER.POLAR>
-4.95056

>  <SCORE.INTER.ROT>
7

>  <SCORE.INTER.SOLV>
24.0249

>  <SCORE.INTER.VDW>
-41.7236

>  <SCORE.INTER.norm>
-2.02986

>  <SCORE.INTRA>
-3.4709

>  <SCORE.INTRA.DIHEDRAL>
-3.9599

>  <SCORE.INTRA.DIHEDRAL.0>
15.5708

>  <SCORE.INTRA.POLAR>
0.0677885

>  <SCORE.INTRA.POLAR.0>
-0.0677885

>  <SCORE.INTRA.REPUL>
0.039851

>  <SCORE.INTRA.REPUL.0>
0

>  <SCORE.INTRA.SOLV>
-3.42919

>  <SCORE.INTRA.SOLV.lig_0>
-87.6316

>  <SCORE.INTRA.VDW>
-0.206096

>  <SCORE.INTRA.VDW.0>
-2.87309

>  <SCORE.INTRA.norm>
-0.111965

>  <SCORE.RESTR>
0

>  <SCORE.RESTR.CAVITY>
0

>  <SCORE.RESTR.norm>
0

>  <SCORE.SYSTEM>
0

>  <SCORE.SYSTEM.CONST>
0

>  <SCORE.SYSTEM.DIHEDRAL>
0

>  <SCORE.SYSTEM.SOLV>
0

>  <SCORE.SYSTEM.norm>
0

>  <SCORE.heavy>
31

>  <SCORE.norm>
-2.14183

>  <SYMMETRIC_BONDS>
33 34 3

>  <RMSD>
2.637

$$$$
1fmn_cryst
 OpenBabel11021811393D
libRbt.so/2013.1/901 2013/11/27
 31 33  0  0  0  0  0  0  0  0999 V2000
   -9.1039   -6.8133    3.7607 N   0  0  0  0  0  0  0  0  0  0  0  0
   -9.9661   -6.7526    4.8304 C   0  0  0  0  0  0  0  0  0  0  0  0
   -9.7924   -7.4244    5.8478 O   0  0  0  0  0  0  0  0  0  0  0  0
  -11.0681   -5.8728    4.6853 N   0  0  0  0  0  0  0  0  0  0  0  0
  -11.3621   -5.0660    3.5642 C   0  0  0  0  0  0  0  0  0  0  0  0
  -12.3628   -4.3380    3.5712 O   0  0  0  0  0  0  0  0  0  0  0  0
  -10.3979   -5.1883    2.4685 C   0  0  0  0  0  0  0  0  0  0  0  0
  -10.6124   -4.4355    1.3409 N   0  0  0  0  0  0  0  0  0  0  0  0
   -9.8206   -4.6838    0.2574 C   0  0  0  0  0  0  0  0  0  0  0  0
  -10.1467   -4.0653   -0.9365 C   0  0  0  0  0  0  0  0  0  0  0  0
   -9.4059   -4.2648   -2.0513 C   0  0  0  0  0  0  0  0  0  0  0  0
   -9.7995   -3.5697   -3.3156 C   0  0  0  0  0  0  0  0  0  0  0  0
   -8.3206   -5.0845   -2.0179 C   0  0  0  0  0  0  0  0  0  0  0  0
   -7.5125   -5.3045   -3.2552 C   0  0  0  0  0  0  0  0  0  0  0  0
   -7.9622   -5.7120   -0.8687 C   0  0  0  0  0  0  0  0  0  0  0  0
   -8.6914   -5.5399    0.3078 C   0  0  0  0  0  0  0  0  0  0  0  0
   -8.3729   -6.1578    1.5352 N   0  0  0  0  0  0  0  0  0  0  0  0
   -9.2738   -6.0825    2.6172 C   0  0  0  0  0  0  0  0  0  0  0  0
   -6.9154   -6.3752    1.8621 C   0  0  0  0  0  0  0  0  0  0  0  0
   -6.1035   -5.1110    2.2780 C   0  0  1  0  0  0  0  0  0  0  0  0
   -6.3998   -4.7596    3.6221 O   0  0  0  0  0  0  0  0  0  0  0  0
   -4.5822   -5.2558    2.0357 C   0  0  1  0  0  0  0  0  0  0  0  0
   -4.3355   -5.7232    0.7128 O   0  0  0  0  0  0  0  0  0  0  0  0
   -3.7046   -4.0141    2.3284 C   0  0  1  0  0  0  0  0  0  0  0  0
   -4.5128   -2.8504    2.1921 O   0  0  0  0  0  0  0  0  0  0  0  0
   -3.0912   -4.0304    3.7466 C   0  0  0  0  0  0  0  0  0  0  0  0
   -2.4044   -5.2443    4.0277 O   0  0  0  0  0  0  0  0  0  0  0  0
   -1.0339   -5.6333    3.3338 P   0  0  0  0  0  0  0  0  0  0  0  0
   -0.0401   -4.5454    3.4793 O   0  0  0  0  0  0  0  0  0  0  0  0
   -0.6359   -7.0095    3.7008 O   0  5  0  0  0  0  0  0  0  0  0  0
   -1.3942   -5.6746    1.7835 O   0  5  0  0  0  0  0  0  0  0  0  0
  1 18  1  0  0  0  0
  1  2  1  0  0  0  0
  2  4  1  0  0  0  0
  2  3  2  0  0  0  0
  4  5  1  0  0  0  0
  5  7  1  0  0  0  0
  5  6  2  0  0  0  0
  7 18  2  0  0  0  0
  7  8  1  0  0  0  0
  8  9  1  0  0  0  0
  9 10  2  0  0  0  0
  9 16  1  0  0  0  0
 10 11  1  0  0  0  0
 11 12  1  0  0  0  0
 11 13  2  0  0  0  0
 13 14  1  0  0  0  0
 13 15  1  0  0  0  0
 15 16  2  0  0  0  0
 16 17  1  0  0  0  0
 17 19  1  0  0  0  0
 17 18  1  0  0  0  0
 20 19  1  1  0  0  0
 20 22  1  0  0  0  0
 20 21  1  0  0  0  0
 22 24  1  0  0  0  0
 22 23  1  6  0  0  0
 24 26  1  1  0  0  0
 24 25  1  0  0  0  0
 26 27  1  0  0  0  0
 27 28  1  0  0  0  0
 28 30  1  0  0  0  0
 28 29  2  0  0  0  0
 28 31  1  0  0  0  0
M  CHG  2  30  -1  31  -1
M  END
>  <CHROM.1>
74.31362351,77.29679805,49.47253436,172.24140612,-25.65143930,-58.57917400
52.14694964,-58.46589327,70.28041792,52.68474865,-6.68169331,-5.25600831
1.98104384,2.94012264,-0.02621278,-1.35035847

>  <Name>
1fmn_cryst

>  <RI>
0

>  <Rbt.Current_Directory>
/home/itssahil/PROJECTS/Mol_Feturizer/New_Systems/rnas/1fmn

>  <Rbt.Executable>
rbdock ($Id: //depot/dev/client3/rdock/2013.1/src/exe/rbdock.cxx#4 $)

>  <Rbt.Library>
libRbt.so (2013.1, Build901 2013/11/27)

>  <Rbt.Parameter_File>
/export/apps/rDock/src/rDock_2013.1_src/data/scripts/dock_solv.prm

>  <Rbt.Receptor>
prm/pocket_docking_5.prm

>  <SCORE>
-59.6534

>  <SCORE.INTER>
-55.8724

>  <SCORE.INTER.CONST>
1

>  <SCORE.INTER.POLAR>
-4.49298

>  <SCORE.INTER.ROT>
7

>  <SCORE.INTER.SOLV>
19.2215

>  <SCORE.INTER.VDW>
-36.9455

>  <SCORE.INTER.norm>
-1.80234

>  <SCORE.INTRA>
-3.781

>  <SCORE.INTRA.DIHEDRAL>
-8.63901

>  <SCORE.INTRA.DIHEDRAL.0>
15.5708

>  <SCORE.INTRA.POLAR>
0.0499301

>  <SCORE.INTRA.POLAR.0>
-0.0677885

>  <SCORE.INTRA.REPUL>
0

>  <SCORE.INTRA.REPUL.0>
0

>  <SCORE.INTRA.SOLV>
-0.145949

>  <SCORE.INTRA.SOLV.lig_0>
-87.6316

>  <SCORE.INTRA.VDW>
0.441711

>  <SCORE.INTRA.VDW.0>
-2.87309

>  <SCORE.INTRA.norm>
-0.121968

>  <SCORE.RESTR>
0

>  <SCORE.RESTR.CAVITY>
0

>  <SCORE.RESTR.norm>
0

>  <SCORE.SYSTEM>
0

>  <SCORE.SYSTEM.CONST>
0

>  <SCORE.SYSTEM.DIHEDRAL>
0

>  <SCORE.SYSTEM.SOLV>
0

>  <SCORE.SYSTEM.norm>
0

>  <SCORE.heavy>
31

>  <SCORE.norm>
-1.9243

>  <SYMMETRIC_BONDS>
33 34 3

>  <RMSD>
2.647

$$$$
1fmn_cryst
 OpenBabel11021811393D
libRbt.so/2013.1/901 2013/11/27
 31 33  0  0  0  0  0  0  0  0999 V2000
   -8.6554   -6.0997    3.5441 N   0  0  0  0  0  0  0  0  0  0  0  0
   -9.4309   -6.1909    4.6763 C   0  0  0  0  0  0  0  0  0  0  0  0
   -9.0186   -6.7202    5.7089 O   0  0  0  0  0  0  0  0  0  0  0  0
  -10.7342   -5.6424    4.5770 N   0  0  0  0  0  0  0  0  0  0  0  0
  -11.3049   -5.0221    3.4440 C   0  0  0  0  0  0  0  0  0  0  0  0
  -12.4605   -4.5824    3.4957 O   0  0  0  0  0  0  0  0  0  0  0  0
  -10.4167   -4.9653    2.2808 C   0  0  0  0  0  0  0  0  0  0  0  0
  -10.8969   -4.3765    1.1376 N   0  0  0  0  0  0  0  0  0  0  0  0
  -10.1401   -4.4853    0.0071 C   0  0  0  0  0  0  0  0  0  0  0  0
  -10.6963   -4.0597   -1.1862 C   0  0  0  0  0  0  0  0  0  0  0  0
  -10.0037   -4.1370   -2.3462 C   0  0  0  0  0  0  0  0  0  0  0  0
  -10.6496   -3.6604   -3.6079 C   0  0  0  0  0  0  0  0  0  0  0  0
   -8.7396   -4.6400   -2.3599 C   0  0  0  0  0  0  0  0  0  0  0  0
   -7.9847   -4.7281   -3.6462 C   0  0  0  0  0  0  0  0  0  0  0  0
   -8.1529   -5.0689   -1.2133 C   0  0  0  0  0  0  0  0  0  0  0  0
   -8.8231   -5.0105    0.0086 C   0  0  0  0  0  0  0  0  0  0  0  0
   -8.2721   -5.4352    1.2358 N   0  0  0  0  0  0  0  0  0  0  0  0
   -9.0880   -5.5216    2.3825 C   0  0  0  0  0  0  0  0  0  0  0  0
   -6.7912   -5.2402    1.4531 C   0  0  0  0  0  0  0  0  0  0  0  0
   -5.9179   -6.5315    1.4661 C   0  0  1  0  0  0  0  0  0  0  0  0
   -6.6127   -7.5985    0.8364 O   0  0  0  0  0  0  0  0  0  0  0  0
   -4.5076   -6.3204    0.8658 C   0  0  1  0  0  0  0  0  0  0  0  0
   -3.7556   -5.4222    1.6765 O   0  0  0  0  0  0  0  0  0  0  0  0
   -3.6728   -7.5914    0.5734 C   0  0  1  0  0  0  0  0  0  0  0  0
   -2.5059   -7.2072   -0.1453 O   0  0  0  0  0  0  0  0  0  0  0  0
   -3.2436   -8.3387    1.8559 C   0  0  0  0  0  0  0  0  0  0  0  0
   -2.7865   -9.6591    1.5883 O   0  0  0  0  0  0  0  0  0  0  0  0
   -1.2852   -9.9830    1.1978 P   0  0  0  0  0  0  0  0  0  0  0  0
   -0.9706  -11.4086    1.4443 O   0  0  0  0  0  0  0  0  0  0  0  0
   -0.9527   -9.4025   -0.1211 O   0  5  0  0  0  0  0  0  0  0  0  0
   -0.4329   -9.1688    2.2681 O   0  5  0  0  0  0  0  0  0  0  0  0
  1 18  1  0  0  0  0
  1  2  1  0  0  0  0
  2  4  1  0  0  0  0
  2  3  2  0  0  0  0
  4  5  1  0  0  0  0
  5  7  1  0  0  0  0
  5  6  2  0  0  0  0
  7 18  2  0  0  0  0
  7  8  1  0  0  0  0
  8  9  1  0  0  0  0
  9 10  2  0  0  0  0
  9 16  1  0  0  0  0
 10 11  1  0  0  0  0
 11 12  1  0  0  0  0
 11 13  2  0  0  0  0
 13 14  1  0  0  0  0
 13 15  1  0  0  0  0
 15 16  2  0  0  0  0
 16 17  1  0  0  0  0
 17 19  1  0  0  0  0
 17 18  1  0  0  0  0
 20 19  1  6  0  0  0
 20 22  1  0  0  0  0
 20 21  1  0  0  0  0
 22 24  1  0  0  0  0
 22 23  1  1  0  0  0
 24 26  1  1  0  0  0
 24 25  1  0  0  0  0
 26 27  1  0  0  0  0
 27 28  1  0  0  0  0
 28 30  1  0  0  0  0
 28 29  2  0  0  0  0
 28 31  1  0  0  0  0
M  CHG  2  30  -1  31  -1
M  END
>  <CHROM.1>
-109.72516972,19.37570420,65.43726836,73.53827430,171.66258768,-177.31737629
164.88866410,-75.86047582,86.39357540,159.80960187,-6.66448071,-6.50281131
1.10343657,2.99832566,0.46041880,-1.28754518

>  <Name>
1fmn_cryst

>  <RI>
0

>  <Rbt.Current_Directory>
/home/itssahil/PROJECTS/Mol_Feturizer/New_Systems/rnas/1fmn

>  <Rbt.Executable>
rbdock ($Id: //depot/dev/client3/rdock/2013.1/src/exe/rbdock.cxx#4 $)

>  <Rbt.Library>
libRbt.so (2013.1, Build901 2013/11/27)

>  <Rbt.Parameter_File>
/export/apps/rDock/src/rDock_2013.1_src/data/scripts/dock_solv.prm

>  <Rbt.Receptor>
prm/pocket_docking_5.prm

>  <SCORE>
-55.5671

>  <SCORE.INTER>
-54.0934

>  <SCORE.INTER.CONST>
1

>  <SCORE.INTER.POLAR>
-3.56093

>  <SCORE.INTER.ROT>
7

>  <SCORE.INTER.SOLV>
16.8477

>  <SCORE.INTER.VDW>
-38.075

>  <SCORE.INTER.norm>
-1.74495

>  <SCORE.INTRA>
-1.47379

>  <SCORE.INTRA.DIHEDRAL>
-2.4855

>  <SCORE.INTRA.DIHEDRAL.0>
15.5708

>  <SCORE.INTRA.POLAR>
0.0621605

>  <SCORE.INTRA.POLAR.0>
-0.0677885

>  <SCORE.INTRA.REPUL>
0

>  <SCORE.INTRA.REPUL.0>
0

>  <SCORE.INTRA.SOLV>
-0.773184

>  <SCORE.INTRA.SOLV.lig_0>
-87.6316

>  <SCORE.INTRA.VDW>
-0.0557893

>  <SCORE.INTRA.VDW.0>
-2.87309

>  <SCORE.INTRA.norm>
-0.0475415

>  <SCORE.RESTR>
0

>  <SCORE.RESTR.CAVITY>
0

>  <SCORE.RESTR.norm>
0

>  <SCORE.SYSTEM>
0

>  <SCORE.SYSTEM.CONST>
0

>  <SCORE.SYSTEM.DIHEDRAL>
0

>  <SCORE.SYSTEM.SOLV>
0

>  <SCORE.SYSTEM.norm>
0

>  <SCORE.heavy>
31

>  <SCORE.norm>
-1.79249

>  <SYMMETRIC_BONDS>
33 34 3

>  <RMSD>
2.672

$$$$
1fmn_cryst
 OpenBabel11021811393D
libRbt.so/2013.1/901 2013/11/27
 31 33  0  0  0  0  0  0  0  0999 V2000
   -8.8350   -6.4688    3.5552 N   0  0  0  0  0  0  0  0  0  0  0  0
   -9.6698   -6.3886    4.6453 C   0  0  0  0  0  0  0  0  0  0  0  0
   -9.4458   -7.0079    5.6858 O   0  0  0  0  0  0  0  0  0  0  0  0
  -10.8047   -5.5530    4.4930 N   0  0  0  0  0  0  0  0  0  0  0  0
  -11.1562   -4.8076    3.3463 C   0  0  0  0  0  0  0  0  0  0  0  0
  -12.1806   -4.1134    3.3497 O   0  0  0  0  0  0  0  0  0  0  0  0
  -10.2182   -4.9471    2.2300 C   0  0  0  0  0  0  0  0  0  0  0  0
  -10.4886   -4.2532    1.0769 N   0  0  0  0  0  0  0  0  0  0  0  0
   -9.7182   -4.5237   -0.0166 C   0  0  0  0  0  0  0  0  0  0  0  0
  -10.0973   -3.9706   -1.2269 C   0  0  0  0  0  0  0  0  0  0  0  0
   -9.3805   -4.1955   -2.3525 C   0  0  0  0  0  0  0  0  0  0  0  0
   -9.8314   -3.5713   -3.6345 C   0  0  0  0  0  0  0  0  0  0  0  0
   -8.2672   -4.9766   -2.3139 C   0  0  0  0  0  0  0  0  0  0  0  0
   -7.4856   -5.2253   -3.5627 C   0  0  0  0  0  0  0  0  0  0  0  0
   -7.8568   -5.5397   -1.1488 C   0  0  0  0  0  0  0  0  0  0  0  0
   -8.5595   -5.3390    0.0392 C   0  0  0  0  0  0  0  0  0  0  0  0
   -8.1871   -5.8903    1.2832 N   0  0  0  0  0  0  0  0  0  0  0  0
   -9.0606   -5.7962    2.3859 C   0  0  0  0  0  0  0  0  0  0  0  0
   -6.7147   -6.0446    1.5777 C   0  0  0  0  0  0  0  0  0  0  0  0
   -6.1844   -7.5048    1.7078 C   0  0  1  0  0  0  0  0  0  0  0  0
   -6.6414   -8.2904    0.6161 O   0  0  0  0  0  0  0  0  0  0  0  0
   -4.6487   -7.5832    1.8791 C   0  0  1  0  0  0  0  0  0  0  0  0
   -4.3154   -8.4729    2.9407 O   0  0  0  0  0  0  0  0  0  0  0  0
   -3.8198   -7.9325    0.6186 C   0  0  1  0  0  0  0  0  0  0  0  0
   -3.9452   -6.8631   -0.3123 O   0  0  0  0  0  0  0  0  0  0  0  0
   -2.3213   -8.1524    0.9247 C   0  0  0  0  0  0  0  0  0  0  0  0
   -2.0922   -9.3156    1.7112 O   0  0  0  0  0  0  0  0  0  0  0  0
   -2.5383  -10.7640    1.2482 P   0  0  0  0  0  0  0  0  0  0  0  0
   -3.9526  -11.0203    1.6034 O   0  0  0  0  0  0  0  0  0  0  0  0
   -2.0980  -11.0265   -0.1390 O   0  5  0  0  0  0  0  0  0  0  0  0
   -1.6846  -11.7363    2.1758 O   0  5  0  0  0  0  0  0  0  0  0  0
  1 18  1  0  0  0  0
  1  2  1  0  0  0  0
  2  4  1  0  0  0  0
  2  3  2  0  0  0  0
  4  5  1  0  0  0  0
  5  7  1  0  0  0  0
  5  6  2  0  0  0  0
  7 18  2  0  0  0  0
  7  8  1  0  0  0  0
  8  9  1  0  0  0  0
  9 10  2  0  0  0  0
  9 16  1  0  0  0  0
 10 11  1  0  0  0  0
 11 12  1  0  0  0  0
 11 13  2  0  0  0  0
 13 14  1  0  0  0  0
 13 15  1  0  0  0  0
 15 16  2  0  0  0  0
 16 17  1  0  0  0  0
 17 19  1  0  0  0  0
 17 18  1  0  0  0  0
 20 19  1  6  0  0  0
 20 22  1  0  0  0  0
 20 21  1  0  0  0  0
 22 24  1  0  0  0  0
 22 23  1  1  0  0  0
 24 26  1  1  0  0  0
 24 25  1  0  0  0  0
 26 27  1  0  0  0  0
 27 28  1  0  0  0  0
 28 30  1  0  0  0  0
 28 29  2  0  0  0  0
 28 31  1  0  0  0  0
M  CHG  2  30  -1  31  -1
M  END
>  <CHROM.1>
-113.94333361,48.25811284,133.20114662,-176.61329105,66.24513635,67.76464725
67.30436325,-175.26144467,58.41738007,-84.70252645,-6.85272375,-6.96509633
1.15099337,2.92437558,0.58574350,-1.21991950

>  <Name>
1fmn_cryst

>  <RI>
0

>  <Rbt.Current_Directory>
/home/itssahil/PROJECTS/Mol_Feturizer/New_Systems/rnas/1fmn

>  <Rbt.Executable>
rbdock ($Id: //depot/dev/client3/rdock/2013.1/src/exe/rbdock.cxx#4 $)

>  <Rbt.Library>
libRbt.so (2013.1, Build901 2013/11/27)

>  <Rbt.Parameter_File>
/export/apps/rDock/src/rDock_2013.1_src/data/scripts/dock_solv.prm

>  <Rbt.Receptor>
prm/pocket_docking_8.prm

>  <SCORE>
-62.2602

>  <SCORE.INTER>
-56.9339

>  <SCORE.INTER.CONST>
1

>  <SCORE.INTER.POLAR>
-4.0748

>  <SCORE.INTER.ROT>
7

>  <SCORE.INTER.SOLV>
21.4513

>  <SCORE.INTER.VDW>
-39.7904

>  <SCORE.INTER.norm>
-1.83658

>  <SCORE.INTRA>
-5.32623

>  <SCORE.INTRA.DIHEDRAL>
-6.63166

>  <SCORE.INTRA.DIHEDRAL.0>
15.5708

>  <SCORE.INTRA.POLAR>
-0.686037

>  <SCORE.INTRA.POLAR.0>
-0.0677885

>  <SCORE.INTRA.REPUL>
0

>  <SCORE.INTRA.REPUL.0>
0

>  <SCORE.INTRA.SOLV>
1.52411

>  <SCORE.INTRA.SOLV.lig_0>
-87.6316

>  <SCORE.INTRA.VDW>
-0.439933

>  <SCORE.INTRA.VDW.0>
-2.87309

>  <SCORE.INTRA.norm>
-0.171814

>  <SCORE.RESTR>
0

>  <SCORE.RESTR.CAVITY>
0

>  <SCORE.RESTR.norm>
0

>  <SCORE.SYSTEM>
0

>  <SCORE.SYSTEM.CONST>
0

>  <SCORE.SYSTEM.DIHEDRAL>
0

>  <SCORE.SYSTEM.SOLV>
0

>  <SCORE.SYSTEM.norm>
0

>  <SCORE.heavy>
31

>  <SCORE.norm>
-2.00839

>  <SYMMETRIC_BONDS>
33 34 3

>  <RMSD>
2.677

$$$$
1fmn_cryst
 OpenBabel11021811393D
libRbt.so/2013.1/901 2013/11/27
 31 33  0  0  0  0  0  0  0  0999 V2000
   -8.7846   -6.1623    3.6501 N   0  0  0  0  0  0  0  0  0  0  0  0
   -9.5716   -6.2202    4.7765 C   0  0  0  0  0  0  0  0  0  0  0  0
   -9.1891   -6.7650    5.8126 O   0  0  0  0  0  0  0  0  0  0  0  0
  -10.8503   -5.6184    4.6672 N   0  0  0  0  0  0  0  0  0  0  0  0
  -11.3864   -4.9761    3.5296 C   0  0  0  0  0  0  0  0  0  0  0  0
  -12.5232   -4.4890    3.5723 O   0  0  0  0  0  0  0  0  0  0  0  0
  -10.4881   -4.9573    2.3730 C   0  0  0  0  0  0  0  0  0  0  0  0
  -10.9350   -4.3504    1.2257 N   0  0  0  0  0  0  0  0  0  0  0  0
  -10.1750   -4.4915    0.1010 C   0  0  0  0  0  0  0  0  0  0  0  0
  -10.7043   -4.0445   -1.0967 C   0  0  0  0  0  0  0  0  0  0  0  0
  -10.0069   -4.1517   -2.2515 C   0  0  0  0  0  0  0  0  0  0  0  0
  -10.6233   -3.6500   -3.5183 C   0  0  0  0  0  0  0  0  0  0  0  0
   -8.7646   -4.7065   -2.2554 C   0  0  0  0  0  0  0  0  0  0  0  0
   -8.0046   -4.8271   -3.5360 C   0  0  0  0  0  0  0  0  0  0  0  0
   -8.2048   -5.1581   -1.1042 C   0  0  0  0  0  0  0  0  0  0  0  0
   -8.8809   -5.0708    0.1127 C   0  0  0  0  0  0  0  0  0  0  0  0
   -8.3571   -5.5166    1.3443 N   0  0  0  0  0  0  0  0  0  0  0  0
   -9.1843   -5.5680    2.4849 C   0  0  0  0  0  0  0  0  0  0  0  0
   -6.8710   -5.3829    1.5724 C   0  0  0  0  0  0  0  0  0  0  0  0
   -6.0734   -6.7125    1.7343 C   0  0  1  0  0  0  0  0  0  0  0  0
   -6.3457   -7.5822    0.6446 O   0  0  0  0  0  0  0  0  0  0  0  0
   -4.5556   -6.4925    1.9385 C   0  0  1  0  0  0  0  0  0  0  0  0
   -4.3082   -5.9155    3.2173 O   0  0  0  0  0  0  0  0  0  0  0  0
   -3.6348   -7.7193    1.7266 C   0  0  1  0  0  0  0  0  0  0  0  0
   -3.7395   -8.1305    0.3680 O   0  0  0  0  0  0  0  0  0  0  0  0
   -2.1520   -7.4217    2.0434 C   0  0  0  0  0  0  0  0  0  0  0  0
   -1.6047   -6.4214    1.1925 O   0  0  0  0  0  0  0  0  0  0  0  0
   -0.1115   -5.9076    1.3251 P   0  0  0  0  0  0  0  0  0  0  0  0
    0.2115   -4.9391    0.2528 O   0  0  0  0  0  0  0  0  0  0  0  0
    0.1910   -5.5404    2.7253 O   0  5  0  0  0  0  0  0  0  0  0  0
    0.7620   -7.2002    1.0071 O   0  5  0  0  0  0  0  0  0  0  0  0
  1 18  1  0  0  0  0
  1  2  1  0  0  0  0
  2  4  1  0  0  0  0
  2  3  2  0  0  0  0
  4  5  1  0  0  0  0
  5  7  1  0  0  0  0
  5  6  2  0  0  0  0
  7 18  2  0  0  0  0
  7  8  1  0  0  0  0
  8  9  1  0  0  0  0
  9 10  2  0  0  0  0
  9 16  1  0  0  0  0
 10 11  1  0  0  0  0
 11 12  1  0  0  0  0
 11 13  2  0  0  0  0
 13 14  1  0  0  0  0
 13 15  1  0  0  0  0
 15 16  2  0  0  0  0
 16 17  1  0  0  0  0
 17 19  1  0  0  0  0
 17 18  1  0  0  0  0
 20 19  1  6  0  0  0
 20 22  1  0  0  0  0
 20 21  1  0  0  0  0
 22 24  1  0  0  0  0
 22 23  1  1  0  0  0
 24 26  1  6  0  0  0
 24 25  1  0  0  0  0
 26 27  1  0  0  0  0
 27 28  1  0  0  0  0
 28 30  1  0  0  0  0
 28 29  2  0  0  0  0
 28 31  1  0  0  0  0
M  CHG  2  30  -1  31  -1
M  END
>  <CHROM.1>
-115.59584333,52.52939581,69.63880068,-61.03600598,63.15306996,-60.04411449
-62.30793476,59.63898634,178.70375183,175.99085792,-6.48911429,-5.73224366
1.31757392,3.10007416,0.15097980,-1.34378467

>  <Name>
1fmn_cryst

>  <RI>
0

>  <Rbt.Current_Directory>
/home/itssahil/PROJECTS/Mol_Feturizer/New_Systems/rnas/1fmn

>  <Rbt.Executable>
rbdock ($Id: //depot/dev/client3/rdock/2013.1/src/exe/rbdock.cxx#4 $)

>  <Rbt.Library>
libRbt.so (2013.1, Build901 2013/11/27)

>  <Rbt.Parameter_File>
/export/apps/rDock/src/rDock_2013.1_src/data/scripts/dock_solv.prm

>  <Rbt.Receptor>
prm/pocket_docking_7.prm

>  <SCORE>
-54.9165

>  <SCORE.INTER>
-47.3337

>  <SCORE.INTER.CONST>
1

>  <SCORE.INTER.POLAR>
-2.14891

>  <SCORE.INTER.ROT>
7

>  <SCORE.INTER.SOLV>
15.5

>  <SCORE.INTER.VDW>
-37.8261

>  <SCORE.INTER.norm>
-1.52689

>  <SCORE.INTRA>
-7.58279

>  <SCORE.INTRA.DIHEDRAL>
-12.3036

>  <SCORE.INTRA.DIHEDRAL.0>
15.5708

>  <SCORE.INTRA.POLAR>
0.0677885

>  <SCORE.INTRA.POLAR.0>
-0.0677885

>  <SCORE.INTRA.REPUL>
0

>  <SCORE.INTRA.REPUL.0>
0

>  <SCORE.INTRA.SOLV>
-4.46147

>  <SCORE.INTRA.SOLV.lig_0>
-87.6316

>  <SCORE.INTRA.VDW>
0.569254

>  <SCORE.INTRA.VDW.0>
-2.87309

>  <SCORE.INTRA.norm>
-0.244606

>  <SCORE.RESTR>
0

>  <SCORE.RESTR.CAVITY>
0

>  <SCORE.RESTR.norm>
0

>  <SCORE.SYSTEM>
0

>  <SCORE.SYSTEM.CONST>
0

>  <SCORE.SYSTEM.DIHEDRAL>
0

>  <SCORE.SYSTEM.SOLV>
0

>  <SCORE.SYSTEM.norm>
0

>  <SCORE.heavy>
31

>  <SCORE.norm>
-1.7715

>  <SYMMETRIC_BONDS>
33 34 3

>  <RMSD>
2.697

$$$$
1fmn_cryst
 OpenBabel11021811393D
libRbt.so/2013.1/901 2013/11/27
 31 33  0  0  0  0  0  0  0  0999 V2000
   -8.9584   -6.4531    3.4761 N   0  0  0  0  0  0  0  0  0  0  0  0
   -9.8368   -6.3439    4.5287 C   0  0  0  0  0  0  0  0  0  0  0  0
   -9.6659   -6.9499    5.5870 O   0  0  0  0  0  0  0  0  0  0  0  0
  -10.9519   -5.4949    4.3160 N   0  0  0  0  0  0  0  0  0  0  0  0
  -11.2439   -4.7626    3.1444 C   0  0  0  0  0  0  0  0  0  0  0  0
  -12.2572   -4.0540    3.0941 O   0  0  0  0  0  0  0  0  0  0  0  0
  -10.2621   -4.9330    2.0709 C   0  0  0  0  0  0  0  0  0  0  0  0
  -10.4736   -4.2536    0.8971 N   0  0  0  0  0  0  0  0  0  0  0  0
   -9.6621   -4.5522   -0.1588 C   0  0  0  0  0  0  0  0  0  0  0  0
   -9.9818   -4.0128   -1.3922 C   0  0  0  0  0  0  0  0  0  0  0  0
   -9.2218   -4.2655   -2.4830 C   0  0  0  0  0  0  0  0  0  0  0  0
   -9.6093   -3.6553   -3.7922 C   0  0  0  0  0  0  0  0  0  0  0  0
   -8.1229   -5.0617   -2.3857 C   0  0  0  0  0  0  0  0  0  0  0  0
   -7.2934   -5.3410   -3.5965 C   0  0  0  0  0  0  0  0  0  0  0  0
   -7.7701   -5.6121   -1.1960 C   0  0  0  0  0  0  0  0  0  0  0  0
   -8.5189   -5.3828   -0.0418 C   0  0  0  0  0  0  0  0  0  0  0  0
   -8.2072   -5.9197    1.2249 N   0  0  0  0  0  0  0  0  0  0  0  0
   -9.1248   -5.7958    2.2883 C   0  0  0  0  0  0  0  0  0  0  0  0
   -6.7510   -6.0902    1.5836 C   0  0  0  0  0  0  0  0  0  0  0  0
   -6.2581   -7.5533    1.7988 C   0  0  1  0  0  0  0  0  0  0  0  0
   -6.2022   -8.2387    0.5558 O   0  0  0  0  0  0  0  0  0  0  0  0
   -4.9205   -7.6392    2.5717 C   0  0  1  0  0  0  0  0  0  0  0  0
   -4.7547   -8.9401    3.1281 O   0  0  0  0  0  0  0  0  0  0  0  0
   -3.6401   -7.2268    1.8047 C   0  0  1  0  0  0  0  0  0  0  0  0
   -3.5535   -8.0114    0.6203 O   0  0  0  0  0  0  0  0  0  0  0  0
   -3.6272   -5.7321    1.4132 C   0  0  0  0  0  0  0  0  0  0  0  0
   -3.4136   -4.8792    2.5316 O   0  0  0  0  0  0  0  0  0  0  0  0
   -2.7896   -3.4288    2.3958 P   0  0  0  0  0  0  0  0  0  0  0  0
   -2.9976   -2.8894    1.0328 O   0  0  0  0  0  0  0  0  0  0  0  0
   -3.1645   -2.5895    3.5543 O   0  5  0  0  0  0  0  0  0  0  0  0
   -1.2222   -3.6795    2.5187 O   0  5  0  0  0  0  0  0  0  0  0  0
  1 18  1  0  0  0  0
  1  2  1  0  0  0  0
  2  4  1  0  0  0  0
  2  3  2  0  0  0  0
  4  5  1  0  0  0  0
  5  7  1  0  0  0  0
  5  6  2  0  0  0  0
  7 18  2  0  0  0  0
  7  8  1  0  0  0  0
  8  9  1  0  0  0  0
  9 10  2  0  0  0  0
  9 16  1  0  0  0  0
 10 11  1  0  0  0  0
 11 12  1  0  0  0  0
 11 13  2  0  0  0  0
 13 14  1  0  0  0  0
 13 15  1  0  0  0  0
 15 16  2  0  0  0  0
 16 17  1  0  0  0  0
 17 19  1  0  0  0  0
 17 18  1  0  0  0  0
 20 19  1  6  0  0  0
 20 22  1  0  0  0  0
 20 21  1  0  0  0  0
 22 24  1  0  0  0  0
 22 23  1  6  0  0  0
 24 26  1  6  0  0  0
 24 25  1  0  0  0  0
 26 27  1  0  0  0  0
 27 28  1  0  0  0  0
 28 30  1  0  0  0  0
 28 29  2  0  0  0  0
 28 31  1  0  0  0  0
M  CHG  2  30  -1  31  -1
M  END
>  <CHROM.1>
-115.66742447,71.39948024,160.22876537,-154.82874093,-55.81480106,-57.51117580
72.59241102,-176.60762409,154.84848894,23.75557495,-6.93546198,-5.42144601
1.42540940,3.01135364,-0.02879477,-1.29799083

>  <Name>
1fmn_cryst

>  <RI>
0

>  <Rbt.Current_Directory>
/home/itssahil/PROJECTS/Mol_Feturizer/New_Systems/rnas/1fmn

>  <Rbt.Executable>
rbdock ($Id: //depot/dev/client3/rdock/2013.1/src/exe/rbdock.cxx#4 $)

>  <Rbt.Library>
libRbt.so (2013.1, Build901 2013/11/27)

>  <Rbt.Parameter_File>
/export/apps/rDock/src/rDock_2013.1_src/data/scripts/dock_solv.prm

>  <Rbt.Receptor>
prm/pocket_docking_8.prm

>  <SCORE>
-57.1112

>  <SCORE.INTER>
-53.6075

>  <SCORE.INTER.CONST>
1

>  <SCORE.INTER.POLAR>
-3.75106

>  <SCORE.INTER.ROT>
7

>  <SCORE.INTER.SOLV>
22.7304

>  <SCORE.INTER.VDW>
-39.0783

>  <SCORE.INTER.norm>
-1.72927

>  <SCORE.INTRA>
-3.50365

>  <SCORE.INTRA.DIHEDRAL>
-4.12402

>  <SCORE.INTRA.DIHEDRAL.0>
15.5708

>  <SCORE.INTRA.POLAR>
0.0677885

>  <SCORE.INTRA.POLAR.0>
-0.0677885

>  <SCORE.INTRA.REPUL>
0

>  <SCORE.INTRA.REPUL.0>
0

>  <SCORE.INTRA.SOLV>
-4.27871

>  <SCORE.INTRA.SOLV.lig_0>
-87.6316

>  <SCORE.INTRA.VDW>
0.467233

>  <SCORE.INTRA.VDW.0>
-2.87309

>  <SCORE.INTRA.norm>
-0.113021

>  <SCORE.RESTR>
0

>  <SCORE.RESTR.CAVITY>
0

>  <SCORE.RESTR.norm>
0

>  <SCORE.SYSTEM>
0

>  <SCORE.SYSTEM.CONST>
0

>  <SCORE.SYSTEM.DIHEDRAL>
0

>  <SCORE.SYSTEM.SOLV>
0

>  <SCORE.SYSTEM.norm>
0

>  <SCORE.heavy>
31

>  <SCORE.norm>
-1.8423

>  <SYMMETRIC_BONDS>
33 34 3

>  <RMSD>
2.724

$$$$
1fmn_cryst
 OpenBabel11021811393D
libRbt.so/2013.1/901 2013/11/27
 31 33  0  0  0  0  0  0  0  0999 V2000
   -8.8039   -6.8572    3.7244 N   0  0  0  0  0  0  0  0  0  0  0  0
   -9.6979   -6.8049    4.7682 C   0  0  0  0  0  0  0  0  0  0  0  0
   -9.5318   -7.4517    5.8029 O   0  0  0  0  0  0  0  0  0  0  0  0
  -10.8230   -5.9645    4.5752 N   0  0  0  0  0  0  0  0  0  0  0  0
  -11.1107   -5.1887    3.4309 C   0  0  0  0  0  0  0  0  0  0  0  0
  -12.1341   -4.4939    3.3957 O   0  0  0  0  0  0  0  0  0  0  0  0
  -10.1121   -5.2997    2.3652 C   0  0  0  0  0  0  0  0  0  0  0  0
  -10.3184   -4.5754    1.2175 N   0  0  0  0  0  0  0  0  0  0  0  0
   -9.4883   -4.8177    0.1617 C   0  0  0  0  0  0  0  0  0  0  0  0
   -9.7999   -4.2324   -1.0527 C   0  0  0  0  0  0  0  0  0  0  0  0
   -9.0215   -4.4283   -2.1423 C   0  0  0  0  0  0  0  0  0  0  0  0
   -9.4009   -3.7701   -3.4304 C   0  0  0  0  0  0  0  0  0  0  0  0
   -7.9118   -5.2113   -2.0626 C   0  0  0  0  0  0  0  0  0  0  0  0
   -7.0620   -5.4277   -3.2722 C   0  0  0  0  0  0  0  0  0  0  0  0
   -7.5664   -5.8053   -0.8918 C   0  0  0  0  0  0  0  0  0  0  0  0
   -8.3341   -5.6353    0.2603 C   0  0  0  0  0  0  0  0  0  0  0  0
   -8.0311   -6.2196    1.5079 N   0  0  0  0  0  0  0  0  0  0  0  0
   -8.9645   -6.1537    2.5626 C   0  0  0  0  0  0  0  0  0  0  0  0
   -6.5773   -6.3831    1.8796 C   0  0  0  0  0  0  0  0  0  0  0  0
   -5.9912   -5.3247    2.8627 C   0  0  1  0  0  0  0  0  0  0  0  0
   -6.5311   -5.5130    4.1631 O   0  0  0  0  0  0  0  0  0  0  0  0
   -4.4443   -5.2925    2.8735 C   0  0  1  0  0  0  0  0  0  0  0  0
   -3.9282   -6.5354    3.3407 O   0  0  0  0  0  0  0  0  0  0  0  0
   -3.7423   -4.8935    1.5522 C   0  0  1  0  0  0  0  0  0  0  0  0
   -4.2320   -3.6189    1.1503 O   0  0  0  0  0  0  0  0  0  0  0  0
   -2.2049   -4.8161    1.6861 C   0  0  0  0  0  0  0  0  0  0  0  0
   -1.6294   -6.0598    2.0682 O   0  0  0  0  0  0  0  0  0  0  0  0
   -0.0728   -6.2486    2.2978 P   0  0  0  0  0  0  0  0  0  0  0  0
    0.2220   -7.5938    2.8414 O   0  0  0  0  0  0  0  0  0  0  0  0
    0.6886   -5.7782    1.1206 O   0  5  0  0  0  0  0  0  0  0  0  0
    0.2607   -5.2318    3.4767 O   0  5  0  0  0  0  0  0  0  0  0  0
  1 18  1  0  0  0  0
  1  2  1  0  0  0  0
  2  4  1  0  0  0  0
  2  3  2  0  0  0  0
  4  5  1  0  0  0  0
  5  7  1  0  0  0  0
  5  6  2  0  0  0  0
  7 18  2  0  0  0  0
  7  8  1  0  0  0  0
  8  9  1  0  0  0  0
  9 10  2  0  0  0  0
  9 16  1  0  0  0  0
 10 11  1  0  0  0  0
 11 12  1  0  0  0  0
 11 13  2  0  0  0  0
 13 14  1  0  0  0  0
 13 15  1  0  0  0  0
 15 16  2  0  0  0  0
 16 17  1  0  0  0  0
 17 19  1  0  0  0  0
 17 18  1  0  0  0  0
 20 19  1  6  0  0  0
 20 22  1  0  0  0  0
 20 21  1  0  0  0  0
 22 24  1  0  0  0  0
 22 23  1  6  0  0  0
 24 26  1  1  0  0  0
 24 25  1  0  0  0  0
 26 27  1  0  0  0  0
 27 28  1  0  0  0  0
 28 30  1  0  0  0  0
 28 29  2  0  0  0  0
 28 31  1  0  0  0  0
M  CHG  2  30  -1  31  -1
M  END
>  <CHROM.1>
100.85007257,70.61874045,-63.40923249,-66.55122298,56.24052329,65.42915166
60.42428304,-166.83540316,-178.99324727,173.26032732,-6.24000906,-5.57720721
1.77922482,3.05430296,0.04884867,-1.31258253

>  <Name>
1fmn_cryst

>  <RI>
0

>  <Rbt.Current_Directory>
/home/itssahil/PROJECTS/Mol_Feturizer/New_Systems/rnas/1fmn

>  <Rbt.Executable>
rbdock ($Id: //depot/dev/client3/rdock/2013.1/src/exe/rbdock.cxx#4 $)

>  <Rbt.Library>
libRbt.so (2013.1, Build901 2013/11/27)

>  <Rbt.Parameter_File>
/export/apps/rDock/src/rDock_2013.1_src/data/scripts/dock_solv.prm

>  <Rbt.Receptor>
prm/pocket_docking_7.prm

>  <SCORE>
-53.7698

>  <SCORE.INTER>
-47.9217

>  <SCORE.INTER.CONST>
1

>  <SCORE.INTER.POLAR>
-2.86542

>  <SCORE.INTER.ROT>
7

>  <SCORE.INTER.SOLV>
17.4083

>  <SCORE.INTER.VDW>
-36.4658

>  <SCORE.INTER.norm>
-1.54586

>  <SCORE.INTRA>
-5.84815

>  <SCORE.INTRA.DIHEDRAL>
-12.0471

>  <SCORE.INTRA.DIHEDRAL.0>
15.5708

>  <SCORE.INTRA.POLAR>
0.0677885

>  <SCORE.INTRA.POLAR.0>
-0.0677885

>  <SCORE.INTRA.REPUL>
0

>  <SCORE.INTRA.REPUL.0>
0

>  <SCORE.INTRA.SOLV>
-3.71146

>  <SCORE.INTRA.SOLV.lig_0>
-87.6316

>  <SCORE.INTRA.VDW>
1.80066

>  <SCORE.INTRA.VDW.0>
-2.87309

>  <SCORE.INTRA.norm>
-0.18865

>  <SCORE.RESTR>
0

>  <SCORE.RESTR.CAVITY>
0

>  <SCORE.RESTR.norm>
0

>  <SCORE.SYSTEM>
0

>  <SCORE.SYSTEM.CONST>
0

>  <SCORE.SYSTEM.DIHEDRAL>
0

>  <SCORE.SYSTEM.SOLV>
0

>  <SCORE.SYSTEM.norm>
0

>  <SCORE.heavy>
31

>  <SCORE.norm>
-1.73451

>  <SYMMETRIC_BONDS>
33 34 3

>  <RMSD>
2.726

$$$$
1fmn_cryst
 OpenBabel11021811393D
libRbt.so/2013.1/901 2013/11/27
 31 33  0  0  0  0  0  0  0  0999 V2000
   -8.6724   -6.6810    3.6125 N   0  0  0  0  0  0  0  0  0  0  0  0
   -9.5206   -6.6095    4.6928 C   0  0  0  0  0  0  0  0  0  0  0  0
   -9.3093   -7.2367    5.7313 O   0  0  0  0  0  0  0  0  0  0  0  0
  -10.6540   -5.7732    4.5328 N   0  0  0  0  0  0  0  0  0  0  0  0
  -10.9917   -5.0191    3.3876 C   0  0  0  0  0  0  0  0  0  0  0  0
  -12.0165   -4.3254    3.3837 O   0  0  0  0  0  0  0  0  0  0  0  0
  -10.0399   -5.1497    2.2821 C   0  0  0  0  0  0  0  0  0  0  0  0
  -10.2964   -4.4471    1.1311 N   0  0  0  0  0  0  0  0  0  0  0  0
   -9.5123   -4.7089    0.0451 C   0  0  0  0  0  0  0  0  0  0  0  0
   -9.8767   -4.1466   -1.1655 C   0  0  0  0  0  0  0  0  0  0  0  0
   -9.1459   -4.3625   -2.2838 C   0  0  0  0  0  0  0  0  0  0  0  0
   -9.5812   -3.7288   -3.5664 C   0  0  0  0  0  0  0  0  0  0  0  0
   -8.0327   -5.1435   -2.2374 C   0  0  0  0  0  0  0  0  0  0  0  0
   -7.2357   -5.3822   -3.4783 C   0  0  0  0  0  0  0  0  0  0  0  0
   -7.6365   -5.7153   -1.0717 C   0  0  0  0  0  0  0  0  0  0  0  0
   -8.3540   -5.5240    0.1091 C   0  0  0  0  0  0  0  0  0  0  0  0
   -7.9967   -6.0847    1.3532 N   0  0  0  0  0  0  0  0  0  0  0  0
   -8.8839   -5.9995    2.4458 C   0  0  0  0  0  0  0  0  0  0  0  0
   -6.5280   -6.2407    1.6648 C   0  0  0  0  0  0  0  0  0  0  0  0
   -5.8299   -5.0196    2.3369 C   0  0  1  0  0  0  0  0  0  0  0  0
   -6.4520   -4.7229    3.5791 O   0  0  0  0  0  0  0  0  0  0  0  0
   -4.2991   -5.1942    2.4794 C   0  0  1  0  0  0  0  0  0  0  0  0
   -3.7196   -4.0232    3.0470 O   0  0  0  0  0  0  0  0  0  0  0  0
   -3.8046   -6.4490    3.2402 C   0  0  1  0  0  0  0  0  0  0  0  0
   -4.6887   -6.6918    4.3289 O   0  0  0  0  0  0  0  0  0  0  0  0
   -3.7525   -7.7115    2.3507 C   0  0  0  0  0  0  0  0  0  0  0  0
   -2.8671   -7.5625    1.2471 O   0  0  0  0  0  0  0  0  0  0  0  0
   -2.3263   -8.7950    0.4106 P   0  0  0  0  0  0  0  0  0  0  0  0
   -3.4151   -9.7556    0.1206 O   0  0  0  0  0  0  0  0  0  0  0  0
   -1.4735   -8.3333   -0.7059 O   0  5  0  0  0  0  0  0  0  0  0  0
   -1.3578   -9.5452    1.4274 O   0  5  0  0  0  0  0  0  0  0  0  0
  1 18  1  0  0  0  0
  1  2  1  0  0  0  0
  2  4  1  0  0  0  0
  2  3  2  0  0  0  0
  4  5  1  0  0  0  0
  5  7  1  0  0  0  0
  5  6  2  0  0  0  0
  7 18  2  0  0  0  0
  7  8  1  0  0  0  0
  8  9  1  0  0  0  0
  9 10  2  0  0  0  0
  9 16  1  0  0  0  0
 10 11  1  0  0  0  0
 11 12  1  0  0  0  0
 11 13  2  0  0  0  0
 13 14  1  0  0  0  0
 13 15  1  0  0  0  0
 15 16  2  0  0  0  0
 16 17  1  0  0  0  0
 17 19  1  0  0  0  0
 17 18  1  0  0  0  0
 20 19  1  1  0  0  0
 20 22  1  0  0  0  0
 20 21  1  0  0  0  0
 22 24  1  0  0  0  0
 22 23  1  1  0  0  0
 24 26  1  6  0  0  0
 24 25  1  0  0  0  0
 26 27  1  0  0  0  0
 27 28  1  0  0  0  0
 28 30  1  0  0  0  0
 28 29  2  0  0  0  0
 28 31  1  0  0  0  0
M  CHG  2  30  -1  31  -1
M  END
>  <CHROM.1>
88.11352823,60.04346298,177.54403679,60.18832771,-37.89169851,-57.37995878
60.72011572,-175.22397014,163.19038298,43.87256501,-6.72736108,-6.16044883
1.45830892,-3.12795784,0.40399215,-1.42847214

>  <Name>
1fmn_cryst

>  <RI>
0

>  <Rbt.Current_Directory>
/home/itssahil/PROJECTS/Mol_Feturizer/New_Systems/rnas/1fmn

>  <Rbt.Executable>
rbdock ($Id: //depot/dev/client3/rdock/2013.1/src/exe/rbdock.cxx#4 $)

>  <Rbt.Library>
libRbt.so (2013.1, Build901 2013/11/27)

>  <Rbt.Parameter_File>
/export/apps/rDock/src/rDock_2013.1_src/data/scripts/dock_solv.prm

>  <Rbt.Receptor>
prm/pocket_docking_5.prm

>  <SCORE>
-57.8746

>  <SCORE.INTER>
-49.3739

>  <SCORE.INTER.CONST>
1

>  <SCORE.INTER.POLAR>
-3.69795

>  <SCORE.INTER.ROT>
7

>  <SCORE.INTER.SOLV>
22.576

>  <SCORE.INTER.VDW>
-36.3814

>  <SCORE.INTER.norm>
-1.59271

>  <SCORE.INTRA>
-8.50067

>  <SCORE.INTRA.DIHEDRAL>
-10.9418

>  <SCORE.INTRA.DIHEDRAL.0>
15.5708

>  <SCORE.INTRA.POLAR>
-0.419281

>  <SCORE.INTRA.POLAR.0>
-0.0677885

>  <SCORE.INTRA.REPUL>
0

>  <SCORE.INTRA.REPUL.0>
0

>  <SCORE.INTRA.SOLV>
-3.37359

>  <SCORE.INTRA.SOLV.lig_0>
-87.6316

>  <SCORE.INTRA.VDW>
0.0825551

>  <SCORE.INTRA.VDW.0>
-2.87309

>  <SCORE.INTRA.norm>
-0.274215

>  <SCORE.RESTR>
0

>  <SCORE.RESTR.CAVITY>
0

>  <SCORE.RESTR.norm>
0

>  <SCORE.SYSTEM>
0

>  <SCORE.SYSTEM.CONST>
0

>  <SCORE.SYSTEM.DIHEDRAL>
0

>  <SCORE.SYSTEM.SOLV>
0

>  <SCORE.SYSTEM.norm>
0

>  <SCORE.heavy>
31

>  <SCORE.norm>
-1.86692

>  <SYMMETRIC_BONDS>
33 34 3

>  <RMSD>
2.759

$$$$
1fmn_cryst
 OpenBabel11021811393D
libRbt.so/2013.1/901 2013/11/27
 31 33  0  0  0  0  0  0  0  0999 V2000
   -8.7444   -6.1687    3.4358 N   0  0  0  0  0  0  0  0  0  0  0  0
   -9.5144   -6.2489    4.5726 C   0  0  0  0  0  0  0  0  0  0  0  0
   -9.1134   -6.8069    5.5945 O   0  0  0  0  0  0  0  0  0  0  0  0
  -10.7984   -5.6539    4.4911 N   0  0  0  0  0  0  0  0  0  0  0  0
  -11.3552   -4.9979    3.3713 C   0  0  0  0  0  0  0  0  0  0  0  0
  -12.4942   -4.5189    3.4381 O   0  0  0  0  0  0  0  0  0  0  0  0
  -10.4740   -4.9556    2.2022 C   0  0  0  0  0  0  0  0  0  0  0  0
  -10.9415   -4.3342    1.0710 N   0  0  0  0  0  0  0  0  0  0  0  0
  -10.1972   -4.4532   -0.0667 C   0  0  0  0  0  0  0  0  0  0  0  0
  -10.7468   -3.9915   -1.2495 C   0  0  0  0  0  0  0  0  0  0  0  0
  -10.0657   -4.0765   -2.4159 C   0  0  0  0  0  0  0  0  0  0  0  0
  -10.7038   -3.5597   -3.6658 C   0  0  0  0  0  0  0  0  0  0  0  0
   -8.8202   -4.6230   -2.4464 C   0  0  0  0  0  0  0  0  0  0  0  0
   -8.0782   -4.7192   -3.7396 C   0  0  0  0  0  0  0  0  0  0  0  0
   -8.2406   -5.0885   -1.3105 C   0  0  0  0  0  0  0  0  0  0  0  0
   -8.8995   -5.0242   -0.0827 C   0  0  0  0  0  0  0  0  0  0  0  0
   -8.3548   -5.4852    1.1341 N   0  0  0  0  0  0  0  0  0  0  0  0
   -9.1649   -5.5594    2.2858 C   0  0  0  0  0  0  0  0  0  0  0  0
   -6.8664   -5.3452    1.3426 C   0  0  0  0  0  0  0  0  0  0  0  0
   -6.0442   -6.6693    1.3707 C   0  0  1  0  0  0  0  0  0  0  0  0
   -6.7981   -7.7259    0.7935 O   0  0  0  0  0  0  0  0  0  0  0  0
   -4.6447   -6.5323    0.7250 C   0  0  1  0  0  0  0  0  0  0  0  0
   -3.9051   -5.4966    1.3653 O   0  0  0  0  0  0  0  0  0  0  0  0
   -3.7847   -7.8170    0.6368 C   0  0  1  0  0  0  0  0  0  0  0  0
   -2.6341   -7.5343   -0.1519 O   0  0  0  0  0  0  0  0  0  0  0  0
   -3.3256   -8.3310    2.0198 C   0  0  0  0  0  0  0  0  0  0  0  0
   -2.5596   -9.5264    1.9284 O   0  0  0  0  0  0  0  0  0  0  0  0
   -3.1725  -10.9005    1.4310 P   0  0  0  0  0  0  0  0  0  0  0  0
   -2.2181  -12.0124    1.6423 O   0  0  0  0  0  0  0  0  0  0  0  0
   -4.5610  -11.0576    1.9151 O   0  5  0  0  0  0  0  0  0  0  0  0
   -3.2713  -10.7199   -0.1478 O   0  5  0  0  0  0  0  0  0  0  0  0
  1 18  1  0  0  0  0
  1  2  1  0  0  0  0
  2  4  1  0  0  0  0
  2  3  2  0  0  0  0
  4  5  1  0  0  0  0
  5  7  1  0  0  0  0
  5  6  2  0  0  0  0
  7 18  2  0  0  0  0
  7  8  1  0  0  0  0
  8  9  1  0  0  0  0
  9 10  2  0  0  0  0
  9 16  1  0  0  0  0
 10 11  1  0  0  0  0
 11 12  1  0  0  0  0
 11 13  2  0  0  0  0
 13 14  1  0  0  0  0
 13 15  1  0  0  0  0
 15 16  2  0  0  0  0
 16 17  1  0  0  0  0
 17 19  1  0  0  0  0
 17 18  1  0  0  0  0
 20 19  1  6  0  0  0
 20 22  1  0  0  0  0
 20 21  1  0  0  0  0
 22 24  1  0  0  0  0
 22 23  1  1  0  0  0
 24 26  1  1  0  0  0
 24 25  1  0  0  0  0
 26 27  1  0  0  0  0
 27 28  1  0  0  0  0
 28 30  1  0  0  0  0
 28 29  2  0  0  0  0
 28 31  1  0  0  0  0
M  CHG  2  30  -1  31  -1
M  END
>  <CHROM.1>
-111.37791110,17.72192102,56.79121255,-47.47914454,171.61879288,-114.82319254
178.79875614,-64.80530517,-66.19411784,-170.88197449,-7.12743601,-6.72986070
1.06555585,2.87693095,0.57558529,-1.20526671

>  <Name>
1fmn_cryst

>  <RI>
0

>  <Rbt.Current_Directory>
/home/itssahil/PROJECTS/Mol_Feturizer/New_Systems/rnas/1fmn

>  <Rbt.Executable>
rbdock ($Id: //depot/dev/client3/rdock/2013.1/src/exe/rbdock.cxx#4 $)

>  <Rbt.Library>
libRbt.so (2013.1, Build901 2013/11/27)

>  <Rbt.Parameter_File>
/export/apps/rDock/src/rDock_2013.1_src/data/scripts/dock_solv.prm

>  <Rbt.Receptor>
prm/pocket_docking_5.prm

>  <SCORE>
-58.3731

>  <SCORE.INTER>
-57.47

>  <SCORE.INTER.CONST>
1

>  <SCORE.INTER.POLAR>
-3.82206

>  <SCORE.INTER.ROT>
7

>  <SCORE.INTER.SOLV>
27.5303

>  <SCORE.INTER.VDW>
-43.0166

>  <SCORE.INTER.norm>
-1.85387

>  <SCORE.INTRA>
-0.903067

>  <SCORE.INTRA.DIHEDRAL>
-0.568134

>  <SCORE.INTRA.DIHEDRAL.0>
15.5708

>  <SCORE.INTRA.POLAR>
0.00457946

>  <SCORE.INTRA.POLAR.0>
-0.0677885

>  <SCORE.INTRA.REPUL>
0

>  <SCORE.INTRA.REPUL.0>
0

>  <SCORE.INTRA.SOLV>
-1.04569

>  <SCORE.INTRA.SOLV.lig_0>
-87.6316

>  <SCORE.INTRA.VDW>
-0.111724

>  <SCORE.INTRA.VDW.0>
-2.87309

>  <SCORE.INTRA.norm>
-0.0291312

>  <SCORE.RESTR>
0

>  <SCORE.RESTR.CAVITY>
0

>  <SCORE.RESTR.norm>
0

>  <SCORE.SYSTEM>
0

>  <SCORE.SYSTEM.CONST>
0

>  <SCORE.SYSTEM.DIHEDRAL>
0

>  <SCORE.SYSTEM.SOLV>
0

>  <SCORE.SYSTEM.norm>
0

>  <SCORE.heavy>
31

>  <SCORE.norm>
-1.883

>  <SYMMETRIC_BONDS>
33 34 3

>  <RMSD>
2.763

$$$$
1fmn_cryst
 OpenBabel11021811393D
libRbt.so/2013.1/901 2013/11/27
 31 33  0  0  0  0  0  0  0  0999 V2000
   -8.7716   -6.4170    3.3383 N   0  0  0  0  0  0  0  0  0  0  0  0
   -9.5540   -6.3630    4.4681 C   0  0  0  0  0  0  0  0  0  0  0  0
   -9.2697   -6.9896    5.4894 O   0  0  0  0  0  0  0  0  0  0  0  0
  -10.7088   -5.5456    4.3802 N   0  0  0  0  0  0  0  0  0  0  0  0
  -11.1277   -4.7940    3.2605 C   0  0  0  0  0  0  0  0  0  0  0  0
  -12.1623   -4.1177    3.3212 O   0  0  0  0  0  0  0  0  0  0  0  0
  -10.2425   -4.9051    2.0990 C   0  0  0  0  0  0  0  0  0  0  0  0
  -10.5798   -4.2036    0.9683 N   0  0  0  0  0  0  0  0  0  0  0  0
   -9.8586   -4.4489   -0.1641 C   0  0  0  0  0  0  0  0  0  0  0  0
  -10.3049   -3.8893   -1.3482 C   0  0  0  0  0  0  0  0  0  0  0  0
   -9.6395   -4.0896   -2.5094 C   0  0  0  0  0  0  0  0  0  0  0  0
  -10.1622   -3.4595   -3.7609 C   0  0  0  0  0  0  0  0  0  0  0  0
   -8.5128   -4.8517   -2.5335 C   0  0  0  0  0  0  0  0  0  0  0  0
   -7.7883   -5.0733   -3.8212 C   0  0  0  0  0  0  0  0  0  0  0  0
   -8.0373   -5.4202   -1.3962 C   0  0  0  0  0  0  0  0  0  0  0  0
   -8.6850   -5.2445   -0.1734 C   0  0  0  0  0  0  0  0  0  0  0  0
   -8.2438   -5.8028    1.0446 N   0  0  0  0  0  0  0  0  0  0  0  0
   -9.0646   -5.7357    2.1891 C   0  0  0  0  0  0  0  0  0  0  0  0
   -6.7566   -5.9347    1.2662 C   0  0  0  0  0  0  0  0  0  0  0  0
   -6.2101   -5.4050    2.6267 C   0  0  1  0  0  0  0  0  0  0  0  0
   -6.3038   -6.4171    3.6191 O   0  0  0  0  0  0  0  0  0  0  0  0
   -4.7811   -4.8205    2.5243 C   0  0  1  0  0  0  0  0  0  0  0  0
   -4.8340   -3.4567    2.1158 O   0  0  0  0  0  0  0  0  0  0  0  0
   -3.8748   -4.9624    3.7718 C   0  0  1  0  0  0  0  0  0  0  0  0
   -3.4776   -6.3244    3.8860 O   0  0  0  0  0  0  0  0  0  0  0  0
   -2.6087   -4.0794    3.7003 C   0  0  0  0  0  0  0  0  0  0  0  0
   -1.7928   -4.2045    4.8591 O   0  0  0  0  0  0  0  0  0  0  0  0
   -0.4134   -3.4417    5.0216 P   0  0  0  0  0  0  0  0  0  0  0  0
    0.5437   -3.8497    3.9682 O   0  0  0  0  0  0  0  0  0  0  0  0
   -0.6397   -1.9985    5.2521 O   0  5  0  0  0  0  0  0  0  0  0  0
    0.1797   -4.0200    6.3813 O   0  5  0  0  0  0  0  0  0  0  0  0
  1 18  1  0  0  0  0
  1  2  1  0  0  0  0
  2  4  1  0  0  0  0
  2  3  2  0  0  0  0
  4  5  1  0  0  0  0
  5  7  1  0  0  0  0
  5  6  2  0  0  0  0
  7 18  2  0  0  0  0
  7  8  1  0  0  0  0
  8  9  1  0  0  0  0
  9 10  2  0  0  0  0
  9 16  1  0  0  0  0
 10 11  1  0  0  0  0
 11 12  1  0  0  0  0
 11 13  2  0  0  0  0
 13 14  1  0  0  0  0
 13 15  1  0  0  0  0
 15 16  2  0  0  0  0
 16 17  1  0  0  0  0
 17 19  1  0  0  0  0
 17 18  1  0  0  0  0
 20 19  1  6  0  0  0
 20 22  1  0  0  0  0
 20 21  1  0  0  0  0
 22 24  1  0  0  0  0
 22 23  1  1  0  0  0
 24 26  1  6  0  0  0
 24 25  1  0  0  0  0
 26 27  1  0  0  0  0
 27 28  1  0  0  0  0
 28 30  1  0  0  0  0
 28 29  2  0  0  0  0
 28 31  1  0  0  0  0
M  CHG  2  30  -1  31  -1
M  END
>  <CHROM.1>
131.12285127,86.38542262,85.03856443,-172.37333039,72.67276347,-66.42617851
179.21883704,-60.98952335,178.03832905,-61.28910085,-6.47425544,-4.78194266
2.29937785,2.67843299,-0.19897404,-1.38605377

>  <Name>
1fmn_cryst

>  <RI>
0

>  <Rbt.Current_Directory>
/home/itssahil/PROJECTS/Mol_Feturizer/New_Systems/rnas/1fmn

>  <Rbt.Executable>
rbdock ($Id: //depot/dev/client3/rdock/2013.1/src/exe/rbdock.cxx#4 $)

>  <Rbt.Library>
libRbt.so (2013.1, Build901 2013/11/27)

>  <Rbt.Parameter_File>
/export/apps/rDock/src/rDock_2013.1_src/data/scripts/dock_solv.prm

>  <Rbt.Receptor>
prm/pocket_docking_8.prm

>  <SCORE>
-56.3769

>  <SCORE.INTER>
-50.3622

>  <SCORE.INTER.CONST>
1

>  <SCORE.INTER.POLAR>
-3.27462

>  <SCORE.INTER.ROT>
7

>  <SCORE.INTER.SOLV>
15.0741

>  <SCORE.INTER.VDW>
-35.9508

>  <SCORE.INTER.norm>
-1.62459

>  <SCORE.INTRA>
-6.01474

>  <SCORE.INTRA.DIHEDRAL>
-7.85194

>  <SCORE.INTRA.DIHEDRAL.0>
15.5708

>  <SCORE.INTRA.POLAR>
-0.600595

>  <SCORE.INTRA.POLAR.0>
-0.0677885

>  <SCORE.INTRA.REPUL>
0

>  <SCORE.INTRA.REPUL.0>
0

>  <SCORE.INTRA.SOLV>
-3.82998

>  <SCORE.INTRA.SOLV.lig_0>
-87.6316

>  <SCORE.INTRA.VDW>
1.86824

>  <SCORE.INTRA.VDW.0>
-2.87309

>  <SCORE.INTRA.norm>
-0.194024

>  <SCORE.RESTR>
0

>  <SCORE.RESTR.CAVITY>
0

>  <SCORE.RESTR.norm>
0

>  <SCORE.SYSTEM>
0

>  <SCORE.SYSTEM.CONST>
0

>  <SCORE.SYSTEM.DIHEDRAL>
0

>  <SCORE.SYSTEM.SOLV>
0

>  <SCORE.SYSTEM.norm>
0

>  <SCORE.heavy>
31

>  <SCORE.norm>
-1.81861

>  <SYMMETRIC_BONDS>
33 34 3

>  <RMSD>
2.781

$$$$
1fmn_cryst
 OpenBabel11021811393D
libRbt.so/2013.1/901 2013/11/27
 31 33  0  0  0  0  0  0  0  0999 V2000
   -8.8584   -6.2067    3.5829 N   0  0  0  0  0  0  0  0  0  0  0  0
   -9.6168   -6.2320    4.7299 C   0  0  0  0  0  0  0  0  0  0  0  0
   -9.2389   -6.8098    5.7497 O   0  0  0  0  0  0  0  0  0  0  0  0
  -10.8610   -5.5561    4.6618 N   0  0  0  0  0  0  0  0  0  0  0  0
  -11.3893   -4.8709    3.5457 C   0  0  0  0  0  0  0  0  0  0  0  0
  -12.4943   -4.3195    3.6246 O   0  0  0  0  0  0  0  0  0  0  0  0
  -10.5228   -4.8908    2.3651 C   0  0  0  0  0  0  0  0  0  0  0  0
  -10.9645   -4.2460    1.2366 N   0  0  0  0  0  0  0  0  0  0  0  0
  -10.2446   -4.4179    0.0901 C   0  0  0  0  0  0  0  0  0  0  0  0
  -10.7791   -3.9274   -1.0881 C   0  0  0  0  0  0  0  0  0  0  0  0
  -10.1204   -4.0614   -2.2627 C   0  0  0  0  0  0  0  0  0  0  0  0
  -10.7405   -3.5106   -3.5071 C   0  0  0  0  0  0  0  0  0  0  0  0
   -8.9130   -4.6870   -2.3063 C   0  0  0  0  0  0  0  0  0  0  0  0
   -8.1960   -4.8367   -3.6085 C   0  0  0  0  0  0  0  0  0  0  0  0
   -8.3495   -5.1834   -1.1755 C   0  0  0  0  0  0  0  0  0  0  0  0
   -8.9865   -5.0711    0.0603 C   0  0  0  0  0  0  0  0  0  0  0  0
   -8.4564   -5.5605    1.2726 N   0  0  0  0  0  0  0  0  0  0  0  0
   -9.2542   -5.5771    2.4351 C   0  0  0  0  0  0  0  0  0  0  0  0
   -6.9595   -5.5154    1.4610 C   0  0  0  0  0  0  0  0  0  0  0  0
   -6.1273   -6.5456    0.6385 C   0  0  1  0  0  0  0  0  0  0  0  0
   -5.5647   -5.9184   -0.5052 O   0  0  0  0  0  0  0  0  0  0  0  0
   -5.0601   -7.2813    1.4833 C   0  0  1  0  0  0  0  0  0  0  0  0
   -4.3217   -8.1856    0.6667 O   0  0  0  0  0  0  0  0  0  0  0  0
   -4.0882   -6.4005    2.3063 C   0  0  1  0  0  0  0  0  0  0  0  0
   -3.3696   -7.2408    3.2026 O   0  0  0  0  0  0  0  0  0  0  0  0
   -3.0771   -5.6332    1.4251 C   0  0  0  0  0  0  0  0  0  0  0  0
   -2.1299   -4.9025    2.1951 O   0  0  0  0  0  0  0  0  0  0  0  0
   -0.9785   -4.0347    1.5375 P   0  0  0  0  0  0  0  0  0  0  0  0
   -0.0664   -3.4957    2.5719 O   0  0  0  0  0  0  0  0  0  0  0  0
   -0.3941   -4.7386    0.3757 O   0  5  0  0  0  0  0  0  0  0  0  0
   -1.7476   -2.7709    0.9493 O   0  5  0  0  0  0  0  0  0  0  0  0
  1 18  1  0  0  0  0
  1  2  1  0  0  0  0
  2  4  1  0  0  0  0
  2  3  2  0  0  0  0
  4  5  1  0  0  0  0
  5  7  1  0  0  0  0
  5  6  2  0  0  0  0
  7 18  2  0  0  0  0
  7  8  1  0  0  0  0
  8  9  1  0  0  0  0
  9 10  2  0  0  0  0
  9 16  1  0  0  0  0
 10 11  1  0  0  0  0
 11 12  1  0  0  0  0
 11 13  2  0  0  0  0
 13 14  1  0  0  0  0
 13 15  1  0  0  0  0
 15 16  2  0  0  0  0
 16 17  1  0  0  0  0
 17 19  1  0  0  0  0
 17 18  1  0  0  0  0
 20 19  1  1  0  0  0
 20 22  1  0  0  0  0
 20 21  1  0  0  0  0
 22 24  1  0  0  0  0
 22 23  1  6  0  0  0
 24 26  1  6  0  0  0
 24 25  1  0  0  0  0
 26 27  1  0  0  0  0
 27 28  1  0  0  0  0
 28 30  1  0  0  0  0
 28 29  2  0  0  0  0
 28 31  1  0  0  0  0
M  CHG  2  30  -1  31  -1
M  END
>  <CHROM.1>
-72.95102728,100.45255377,-178.88592564,-156.26499467,168.77522512,-172.48253230
-175.82524403,63.61090648,179.70713176,-174.43522571,-6.73628873,-5.22079888
1.26743477,3.11651668,-0.00371255,-1.31531402

>  <Name>
1fmn_cryst

>  <RI>
0

>  <Rbt.Current_Directory>
/home/itssahil/PROJECTS/Mol_Feturizer/New_Systems/rnas/1fmn

>  <Rbt.Executable>
rbdock ($Id: //depot/dev/client3/rdock/2013.1/src/exe/rbdock.cxx#4 $)

>  <Rbt.Library>
libRbt.so (2013.1, Build901 2013/11/27)

>  <Rbt.Parameter_File>
/export/apps/rDock/src/rDock_2013.1_src/data/scripts/dock_solv.prm

>  <Rbt.Receptor>
prm/pocket_docking_7.prm

>  <SCORE>
-56.5434

>  <SCORE.INTER>
-52.3259

>  <SCORE.INTER.CONST>
1

>  <SCORE.INTER.POLAR>
-3.00529

>  <SCORE.INTER.ROT>
7

>  <SCORE.INTER.SOLV>
18.6146

>  <SCORE.INTER.VDW>
-39.3379

>  <SCORE.INTER.norm>
-1.68793

>  <SCORE.INTRA>
-4.2175

>  <SCORE.INTRA.DIHEDRAL>
-6.13229

>  <SCORE.INTRA.DIHEDRAL.0>
15.5708

>  <SCORE.INTRA.POLAR>
0.0677885

>  <SCORE.INTRA.POLAR.0>
-0.0677885

>  <SCORE.INTRA.REPUL>
0

>  <SCORE.INTRA.REPUL.0>
0

>  <SCORE.INTRA.SOLV>
-4.60293

>  <SCORE.INTRA.SOLV.lig_0>
-87.6316

>  <SCORE.INTRA.VDW>
0.919628

>  <SCORE.INTRA.VDW.0>
-2.87309

>  <SCORE.INTRA.norm>
-0.136048

>  <SCORE.RESTR>
0

>  <SCORE.RESTR.CAVITY>
0

>  <SCORE.RESTR.norm>
0

>  <SCORE.SYSTEM>
0

>  <SCORE.SYSTEM.CONST>
0

>  <SCORE.SYSTEM.DIHEDRAL>
0

>  <SCORE.SYSTEM.SOLV>
0

>  <SCORE.SYSTEM.norm>
0

>  <SCORE.heavy>
31

>  <SCORE.norm>
-1.82398

>  <SYMMETRIC_BONDS>
33 34 3

>  <RMSD>
2.795

$$$$
1fmn_cryst
 OpenBabel11021811393D
libRbt.so/2013.1/901 2013/11/27
 31 33  0  0  0  0  0  0  0  0999 V2000
   -8.7564   -6.1620    3.4124 N   0  0  0  0  0  0  0  0  0  0  0  0
   -9.5086   -6.2540    4.5601 C   0  0  0  0  0  0  0  0  0  0  0  0
   -9.0777   -6.7899    5.5817 O   0  0  0  0  0  0  0  0  0  0  0  0
  -10.8107   -5.6980    4.4904 N   0  0  0  0  0  0  0  0  0  0  0  0
  -11.4015   -5.0697    3.3722 C   0  0  0  0  0  0  0  0  0  0  0  0
  -12.5533   -4.6241    3.4498 O   0  0  0  0  0  0  0  0  0  0  0  0
  -10.5374   -5.0126    2.1910 C   0  0  0  0  0  0  0  0  0  0  0  0
  -11.0381   -4.4164    1.0605 N   0  0  0  0  0  0  0  0  0  0  0  0
  -10.3057   -4.5243   -0.0860 C   0  0  0  0  0  0  0  0  0  0  0  0
  -10.8843   -4.0905   -1.2656 C   0  0  0  0  0  0  0  0  0  0  0  0
  -10.2164   -4.1665   -2.4401 C   0  0  0  0  0  0  0  0  0  0  0  0
  -10.8860   -3.6810   -3.6861 C   0  0  0  0  0  0  0  0  0  0  0  0
   -8.9557   -4.6762   -2.4823 C   0  0  0  0  0  0  0  0  0  0  0  0
   -8.2283   -4.7628   -3.7844 C   0  0  0  0  0  0  0  0  0  0  0  0
   -8.3476   -5.1133   -1.3500 C   0  0  0  0  0  0  0  0  0  0  0  0
   -8.9918   -5.0566   -0.1142 C   0  0  0  0  0  0  0  0  0  0  0  0
   -8.4177   -5.4895    1.0995 N   0  0  0  0  0  0  0  0  0  0  0  0
   -9.2099   -5.5766    2.2626 C   0  0  0  0  0  0  0  0  0  0  0  0
   -6.9315   -5.3035    1.2866 C   0  0  0  0  0  0  0  0  0  0  0  0
   -6.1271   -6.5627    1.7309 C   0  0  1  0  0  0  0  0  0  0  0  0
   -6.3071   -7.6144    0.7930 O   0  0  0  0  0  0  0  0  0  0  0  0
   -4.6314   -6.2689    1.9964 C   0  0  1  0  0  0  0  0  0  0  0  0
   -4.0170   -5.7395    0.8251 O   0  0  0  0  0  0  0  0  0  0  0  0
   -4.2984   -5.3751    3.2162 C   0  0  1  0  0  0  0  0  0  0  0  0
   -4.1794   -6.2078    4.3643 O   0  0  0  0  0  0  0  0  0  0  0  0
   -2.9853   -4.5799    3.0401 C   0  0  0  0  0  0  0  0  0  0  0  0
   -2.7495   -3.6757    4.1129 O   0  0  0  0  0  0  0  0  0  0  0  0
   -1.6787   -2.5104    4.0311 P   0  0  0  0  0  0  0  0  0  0  0  0
   -0.3281   -3.0518    3.7572 O   0  0  0  0  0  0  0  0  0  0  0  0
   -2.1797   -1.4000    3.1928 O   0  5  0  0  0  0  0  0  0  0  0  0
   -1.6173   -1.9492    5.5198 O   0  5  0  0  0  0  0  0  0  0  0  0
  1 18  1  0  0  0  0
  1  2  1  0  0  0  0
  2  4  1  0  0  0  0
  2  3  2  0  0  0  0
  4  5  1  0  0  0  0
  5  7  1  0  0  0  0
  5  6  2  0  0  0  0
  7 18  2  0  0  0  0
  7  8  1  0  0  0  0
  8  9  1  0  0  0  0
  9 10  2  0  0  0  0
  9 16  1  0  0  0  0
 10 11  1  0  0  0  0
 11 12  1  0  0  0  0
 11 13  2  0  0  0  0
 13 14  1  0  0  0  0
 13 15  1  0  0  0  0
 15 16  2  0  0  0  0
 16 17  1  0  0  0  0
 17 19  1  0  0  0  0
 17 18  1  0  0  0  0
 20 19  1  6  0  0  0
 20 22  1  0  0  0  0
 20 21  1  0  0  0  0
 22 24  1  0  0  0  0
 22 23  1  6  0  0  0
 24 26  1  6  0  0  0
 24 25  1  0  0  0  0
 26 27  1  0  0  0  0
 27 28  1  0  0  0  0
 28 30  1  0  0  0  0
 28 29  2  0  0  0  0
 28 31  1  0  0  0  0
M  CHG  2  30  -1  31  -1
M  END
>  <CHROM.1>
-128.70374583,57.60440328,-58.64428455,58.50068407,87.64974670,-161.34771215
174.84317808,-63.90713108,-165.29002396,-58.24040131,-6.91487251,-4.78280101
1.92532700,2.74610870,-0.24032115,-1.42561097

>  <Name>
1fmn_cryst

>  <RI>
0

>  <Rbt.Current_Directory>
/home/itssahil/PROJECTS/Mol_Feturizer/New_Systems/rnas/1fmn

>  <Rbt.Executable>
rbdock ($Id: //depot/dev/client3/rdock/2013.1/src/exe/rbdock.cxx#4 $)

>  <Rbt.Library>
libRbt.so (2013.1, Build901 2013/11/27)

>  <Rbt.Parameter_File>
/export/apps/rDock/src/rDock_2013.1_src/data/scripts/dock_solv.prm

>  <Rbt.Receptor>
prm/pocket_docking_7.prm

>  <SCORE>
-59.2476

>  <SCORE.INTER>
-54.6566

>  <SCORE.INTER.CONST>
1

>  <SCORE.INTER.POLAR>
-3.89509

>  <SCORE.INTER.ROT>
7

>  <SCORE.INTER.SOLV>
19.0045

>  <SCORE.INTER.VDW>
-38.0556

>  <SCORE.INTER.norm>
-1.76312

>  <SCORE.INTRA>
-4.59099

>  <SCORE.INTRA.DIHEDRAL>
-8.31029

>  <SCORE.INTRA.DIHEDRAL.0>
15.5708

>  <SCORE.INTRA.POLAR>
0.0677885

>  <SCORE.INTRA.POLAR.0>
-0.0677885

>  <SCORE.INTRA.REPUL>
0

>  <SCORE.INTRA.REPUL.0>
0

>  <SCORE.INTRA.SOLV>
-5.27071

>  <SCORE.INTRA.SOLV.lig_0>
-87.6316

>  <SCORE.INTRA.VDW>
1.96903

>  <SCORE.INTRA.VDW.0>
-2.87309

>  <SCORE.INTRA.norm>
-0.148096

>  <SCORE.RESTR>
0

>  <SCORE.RESTR.CAVITY>
0

>  <SCORE.RESTR.norm>
0

>  <SCORE.SYSTEM>
0

>  <SCORE.SYSTEM.CONST>
0

>  <SCORE.SYSTEM.DIHEDRAL>
0

>  <SCORE.SYSTEM.SOLV>
0

>  <SCORE.SYSTEM.norm>
0

>  <SCORE.heavy>
31

>  <SCORE.norm>
-1.91121

>  <SYMMETRIC_BONDS>
33 34 3

>  <RMSD>
2.807

$$$$
1fmn_cryst
 OpenBabel11021811393D
libRbt.so/2013.1/901 2013/11/27
 31 33  0  0  0  0  0  0  0  0999 V2000
   -8.8710   -6.1365    3.5761 N   0  0  0  0  0  0  0  0  0  0  0  0
   -9.6566   -6.1802    4.7042 C   0  0  0  0  0  0  0  0  0  0  0  0
   -9.2802   -6.7281    5.7408 O   0  0  0  0  0  0  0  0  0  0  0  0
  -10.9265   -5.5597    4.5960 N   0  0  0  0  0  0  0  0  0  0  0  0
  -11.4553   -4.9122    3.4579 C   0  0  0  0  0  0  0  0  0  0  0  0
  -12.5847   -4.4082    3.5017 O   0  0  0  0  0  0  0  0  0  0  0  0
  -10.5590   -4.9093    2.2995 C   0  0  0  0  0  0  0  0  0  0  0  0
  -10.9993   -4.2985    1.1517 N   0  0  0  0  0  0  0  0  0  0  0  0
  -10.2437   -4.4535    0.0258 C   0  0  0  0  0  0  0  0  0  0  0  0
  -10.7687   -4.0014   -1.1719 C   0  0  0  0  0  0  0  0  0  0  0  0
  -10.0752   -4.1215   -2.3278 C   0  0  0  0  0  0  0  0  0  0  0  0
  -10.6866   -3.6137   -3.5946 C   0  0  0  0  0  0  0  0  0  0  0  0
   -8.8413   -4.6947   -2.3328 C   0  0  0  0  0  0  0  0  0  0  0  0
   -8.0857   -4.8295   -3.6146 C   0  0  0  0  0  0  0  0  0  0  0  0
   -8.2859   -5.1519   -1.1816 C   0  0  0  0  0  0  0  0  0  0  0  0
   -8.9583   -5.0518    0.0363 C   0  0  0  0  0  0  0  0  0  0  0  0
   -8.4387   -5.5025    1.2679 N   0  0  0  0  0  0  0  0  0  0  0  0
   -9.2642   -5.5391    2.4103 C   0  0  0  0  0  0  0  0  0  0  0  0
   -6.9503   -5.3902    1.4928 C   0  0  0  0  0  0  0  0  0  0  0  0
   -6.4183   -5.8955    2.8683 C   0  0  1  0  0  0  0  0  0  0  0  0
   -6.0296   -7.2584    2.7719 O   0  0  0  0  0  0  0  0  0  0  0  0
   -5.2920   -5.0084    3.4500 C   0  0  1  0  0  0  0  0  0  0  0  0
   -4.9486   -5.4443    4.7622 O   0  0  0  0  0  0  0  0  0  0  0  0
   -4.0108   -4.8516    2.5945 C   0  0  1  0  0  0  0  0  0  0  0  0
   -3.0845   -4.0469    3.3158 O   0  0  0  0  0  0  0  0  0  0  0  0
   -3.3405   -6.2030    2.2599 C   0  0  0  0  0  0  0  0  0  0  0  0
   -2.2654   -6.0630    1.3387 O   0  0  0  0  0  0  0  0  0  0  0  0
   -1.4361   -7.2995    0.7959 P   0  0  0  0  0  0  0  0  0  0  0  0
   -0.6669   -7.9400    1.8869 O   0  0  0  0  0  0  0  0  0  0  0  0
   -2.2780   -8.1514   -0.0715 O   0  5  0  0  0  0  0  0  0  0  0  0
   -0.3478   -6.6348   -0.1573 O   0  5  0  0  0  0  0  0  0  0  0  0
  1 18  1  0  0  0  0
  1  2  1  0  0  0  0
  2  4  1  0  0  0  0
  2  3  2  0  0  0  0
  4  5  1  0  0  0  0
  5  7  1  0  0  0  0
  5  6  2  0  0  0  0
  7 18  2  0  0  0  0
  7  8  1  0  0  0  0
  8  9  1  0  0  0  0
  9 10  2  0  0  0  0
  9 16  1  0  0  0  0
 10 11  1  0  0  0  0
 11 12  1  0  0  0  0
 11 13  2  0  0  0  0
 13 14  1  0  0  0  0
 13 15  1  0  0  0  0
 15 16  2  0  0  0  0
 16 17  1  0  0  0  0
 17 19  1  0  0  0  0
 17 18  1  0  0  0  0
 20 19  1  6  0  0  0
 20 22  1  0  0  0  0
 20 21  1  0  0  0  0
 22 24  1  0  0  0  0
 22 23  1  1  0  0  0
 24 26  1  1  0  0  0
 24 25  1  0  0  0  0
 26 27  1  0  0  0  0
 27 28  1  0  0  0  0
 28 30  1  0  0  0  0
 28 29  2  0  0  0  0
 28 31  1  0  0  0  0
M  CHG  2  30  -1  31  -1
M  END
>  <CHROM.1>
179.81923686,92.41874507,174.07785737,-58.31413350,-177.92263249,60.16261123
172.62210763,-58.59876210,-178.16053441,-65.96809067,-6.86595048,-5.60993627
1.51750973,3.08072735,0.21703363,-1.42877471

>  <Name>
1fmn_cryst

>  <RI>
0

>  <Rbt.Current_Directory>
/home/itssahil/PROJECTS/Mol_Feturizer/New_Systems/rnas/1fmn

>  <Rbt.Executable>
rbdock ($Id: //depot/dev/client3/rdock/2013.1/src/exe/rbdock.cxx#4 $)

>  <Rbt.Library>
libRbt.so (2013.1, Build901 2013/11/27)

>  <Rbt.Parameter_File>
/export/apps/rDock/src/rDock_2013.1_src/data/scripts/dock_solv.prm

>  <Rbt.Receptor>
prm/pocket_docking_8.prm

>  <SCORE>
-48.1483

>  <SCORE.INTER>
-51.985

>  <SCORE.INTER.CONST>
1

>  <SCORE.INTER.POLAR>
-2.89438

>  <SCORE.INTER.ROT>
7

>  <SCORE.INTER.SOLV>
17.1219

>  <SCORE.INTER.VDW>
-38.9827

>  <SCORE.INTER.norm>
-1.67694

>  <SCORE.INTRA>
3.83669

>  <SCORE.INTRA.DIHEDRAL>
-10.6364

>  <SCORE.INTRA.DIHEDRAL.0>
15.5708

>  <SCORE.INTRA.POLAR>
0.0677885

>  <SCORE.INTRA.POLAR.0>
-0.0677885

>  <SCORE.INTRA.REPUL>
0

>  <SCORE.INTRA.REPUL.0>
0

>  <SCORE.INTRA.SOLV>
-4.13713

>  <SCORE.INTRA.SOLV.lig_0>
-87.6316

>  <SCORE.INTRA.VDW>
10.9929

>  <SCORE.INTRA.VDW.0>
-2.87309

>  <SCORE.INTRA.norm>
0.123764

>  <SCORE.RESTR>
0

>  <SCORE.RESTR.CAVITY>
0

>  <SCORE.RESTR.norm>
0

>  <SCORE.SYSTEM>
0

>  <SCORE.SYSTEM.CONST>
0

>  <SCORE.SYSTEM.DIHEDRAL>
0

>  <SCORE.SYSTEM.SOLV>
0

>  <SCORE.SYSTEM.norm>
0

>  <SCORE.heavy>
31

>  <SCORE.norm>
-1.55317

>  <SYMMETRIC_BONDS>
33 34 3

>  <RMSD>
2.848

$$$$
1fmn_cryst
 OpenBabel11021811393D
libRbt.so/2013.1/901 2013/11/27
 31 33  0  0  0  0  0  0  0  0999 V2000
   -9.0704   -6.4335    3.6092 N   0  0  0  0  0  0  0  0  0  0  0  0
   -9.9175   -6.3338    4.6881 C   0  0  0  0  0  0  0  0  0  0  0  0
   -9.7183   -6.9529    5.7338 O   0  0  0  0  0  0  0  0  0  0  0  0
  -11.0350   -5.4783    4.5180 N   0  0  0  0  0  0  0  0  0  0  0  0
  -11.3581   -4.7312    3.3641 C   0  0  0  0  0  0  0  0  0  0  0  0
  -12.3696   -4.0185    3.3516 O   0  0  0  0  0  0  0  0  0  0  0  0
  -10.4085   -4.8921    2.2606 C   0  0  0  0  0  0  0  0  0  0  0  0
  -10.6513   -4.1981    1.1015 N   0  0  0  0  0  0  0  0  0  0  0  0
   -9.8719   -4.4869    0.0191 C   0  0  0  0  0  0  0  0  0  0  0  0
  -10.2253   -3.9317   -1.1981 C   0  0  0  0  0  0  0  0  0  0  0  0
   -9.4982   -4.1741   -2.3134 C   0  0  0  0  0  0  0  0  0  0  0  0
   -9.9212   -3.5469   -3.6035 C   0  0  0  0  0  0  0  0  0  0  0  0
   -8.4000   -4.9752   -2.2575 C   0  0  0  0  0  0  0  0  0  0  0  0
   -7.6071   -5.2429   -3.4952 C   0  0  0  0  0  0  0  0  0  0  0  0
   -8.0150   -5.5410   -1.0852 C   0  0  0  0  0  0  0  0  0  0  0  0
   -8.7291   -5.3228    0.0930 C   0  0  0  0  0  0  0  0  0  0  0  0
   -8.3828   -5.8759    1.3436 N   0  0  0  0  0  0  0  0  0  0  0  0
   -9.2687   -5.7615    2.4346 C   0  0  0  0  0  0  0  0  0  0  0  0
   -6.9175   -6.0557    1.6578 C   0  0  0  0  0  0  0  0  0  0  0  0
   -6.4149   -7.5248    1.7971 C   0  0  1  0  0  0  0  0  0  0  0  0
   -6.7693   -8.2747    0.6437 O   0  0  0  0  0  0  0  0  0  0  0  0
   -4.9041   -7.6253    2.1153 C   0  0  1  0  0  0  0  0  0  0  0  0
   -4.5239   -6.6033    3.0321 O   0  0  0  0  0  0  0  0  0  0  0  0
   -4.3814   -8.9970    2.6086 C   0  0  1  0  0  0  0  0  0  0  0  0
   -5.2293  -10.0146    2.0876 O   0  0  0  0  0  0  0  0  0  0  0  0
   -2.9294   -9.2837    2.1646 C   0  0  0  0  0  0  0  0  0  0  0  0
   -2.8145   -9.4492    0.7562 O   0  0  0  0  0  0  0  0  0  0  0  0
   -1.4359   -9.7634    0.0406 P   0  0  0  0  0  0  0  0  0  0  0  0
   -0.5859   -8.5530   -0.0242 O   0  0  0  0  0  0  0  0  0  0  0  0
   -0.8481  -11.0139    0.5677 O   0  5  0  0  0  0  0  0  0  0  0  0
   -1.8536  -10.0701   -1.4648 O   0  5  0  0  0  0  0  0  0  0  0  0
  1 18  1  0  0  0  0
  1  2  1  0  0  0  0
  2  4  1  0  0  0  0
  2  3  2  0  0  0  0
  4  5  1  0  0  0  0
  5  7  1  0  0  0  0
  5  6  2  0  0  0  0
  7 18  2  0  0  0  0
  7  8  1  0  0  0  0
  8  9  1  0  0  0  0
  9 10  2  0  0  0  0
  9 16  1  0  0  0  0
 10 11  1  0  0  0  0
 11 12  1  0  0  0  0
 11 13  2  0  0  0  0
 13 14  1  0  0  0  0
 13 15  1  0  0  0  0
 15 16  2  0  0  0  0
 16 17  1  0  0  0  0
 17 19  1  0  0  0  0
 17 18  1  0  0  0  0
 20 19  1  6  0  0  0
 20 22  1  0  0  0  0
 20 21  1  0  0  0  0
 22 24  1  0  0  0  0
 22 23  1  1  0  0  0
 24 26  1  6  0  0  0
 24 25  1  0  0  0  0
 26 27  1  0  0  0  0
 27 28  1  0  0  0  0
 28 30  1  0  0  0  0
 28 29  2  0  0  0  0
 28 31  1  0  0  0  0
M  CHG  2  30  -1  31  -1
M  END
>  <CHROM.1>
-113.81157946,53.43681235,39.08420258,-178.59827229,27.07391520,-175.26456633
-66.89065484,-148.51094884,-179.51519916,-75.38363356,-6.85635641,-6.84985532
1.10158975,3.09160346,0.53289135,-1.26646145

>  <Name>
1fmn_cryst

>  <RI>
0

>  <Rbt.Current_Directory>
/home/itssahil/PROJECTS/Mol_Feturizer/New_Systems/rnas/1fmn

>  <Rbt.Executable>
rbdock ($Id: //depot/dev/client3/rdock/2013.1/src/exe/rbdock.cxx#4 $)

>  <Rbt.Library>
libRbt.so (2013.1, Build901 2013/11/27)

>  <Rbt.Parameter_File>
/export/apps/rDock/src/rDock_2013.1_src/data/scripts/dock_solv.prm

>  <Rbt.Receptor>
prm/pocket_docking_6.prm

>  <SCORE>
-58.029

>  <SCORE.INTER>
-52.3598

>  <SCORE.INTER.CONST>
1

>  <SCORE.INTER.POLAR>
-3.32535

>  <SCORE.INTER.ROT>
7

>  <SCORE.INTER.SOLV>
19.7019

>  <SCORE.INTER.VDW>
-38.656

>  <SCORE.INTER.norm>
-1.68903

>  <SCORE.INTRA>
-5.66923

>  <SCORE.INTRA.DIHEDRAL>
-3.95071

>  <SCORE.INTRA.DIHEDRAL.0>
15.5708

>  <SCORE.INTRA.POLAR>
-0.54762

>  <SCORE.INTRA.POLAR.0>
-0.0677885

>  <SCORE.INTRA.REPUL>
0

>  <SCORE.INTRA.REPUL.0>
0

>  <SCORE.INTRA.SOLV>
-4.69882

>  <SCORE.INTRA.SOLV.lig_0>
-87.6316

>  <SCORE.INTRA.VDW>
0.51745

>  <SCORE.INTRA.VDW.0>
-2.87309

>  <SCORE.INTRA.norm>
-0.182878

>  <SCORE.RESTR>
0

>  <SCORE.RESTR.CAVITY>
0

>  <SCORE.RESTR.norm>
0

>  <SCORE.SYSTEM>
0

>  <SCORE.SYSTEM.CONST>
0

>  <SCORE.SYSTEM.DIHEDRAL>
0

>  <SCORE.SYSTEM.SOLV>
0

>  <SCORE.SYSTEM.norm>
0

>  <SCORE.heavy>
31

>  <SCORE.norm>
-1.8719

>  <SYMMETRIC_BONDS>
33 34 3

>  <RMSD>
2.895

$$$$
1fmn_cryst
 OpenBabel11021811393D
libRbt.so/2013.1/901 2013/11/27
 31 33  0  0  0  0  0  0  0  0999 V2000
   -8.8962   -6.1794    3.6208 N   0  0  0  0  0  0  0  0  0  0  0  0
   -9.6708   -6.2038    4.7570 C   0  0  0  0  0  0  0  0  0  0  0  0
   -9.3012   -6.7686    5.7870 O   0  0  0  0  0  0  0  0  0  0  0  0
  -10.9215   -5.5428    4.6653 N   0  0  0  0  0  0  0  0  0  0  0  0
  -11.4413   -4.8731    3.5359 C   0  0  0  0  0  0  0  0  0  0  0  0
  -12.5536   -4.3338    3.5941 O   0  0  0  0  0  0  0  0  0  0  0  0
  -10.5577   -4.8929    2.3680 C   0  0  0  0  0  0  0  0  0  0  0  0
  -10.9903   -4.2627    1.2279 N   0  0  0  0  0  0  0  0  0  0  0  0
  -10.2519   -4.4359    0.0933 C   0  0  0  0  0  0  0  0  0  0  0  0
  -10.7748   -3.9614   -1.0966 C   0  0  0  0  0  0  0  0  0  0  0  0
  -10.0977   -4.0977   -2.2604 C   0  0  0  0  0  0  0  0  0  0  0  0
  -10.7060   -3.5644   -3.5182 C   0  0  0  0  0  0  0  0  0  0  0  0
   -8.8828   -4.7097   -2.2812 C   0  0  0  0  0  0  0  0  0  0  0  0
   -8.1453   -4.8619   -3.5716 C   0  0  0  0  0  0  0  0  0  0  0  0
   -8.3301   -5.1901   -1.1382 C   0  0  0  0  0  0  0  0  0  0  0  0
   -8.9861   -5.0748    0.0873 C   0  0  0  0  0  0  0  0  0  0  0  0
   -8.4682   -5.5479    1.3112 N   0  0  0  0  0  0  0  0  0  0  0  0
   -9.2824   -5.5640    2.4621 C   0  0  0  0  0  0  0  0  0  0  0  0
   -6.9747   -5.4841    1.5207 C   0  0  0  0  0  0  0  0  0  0  0  0
   -6.2647   -6.8311    1.8546 C   0  0  1  0  0  0  0  0  0  0  0  0
   -6.4098   -7.7417    0.7740 O   0  0  0  0  0  0  0  0  0  0  0  0
   -4.7854   -6.6540    2.2722 C   0  0  1  0  0  0  0  0  0  0  0  0
   -4.1995   -7.9198    2.5619 O   0  0  0  0  0  0  0  0  0  0  0  0
   -3.8740   -5.8605    1.3039 C   0  0  1  0  0  0  0  0  0  0  0  0
   -4.3121   -4.5064    1.2825 O   0  0  0  0  0  0  0  0  0  0  0  0
   -2.3846   -5.8949    1.7139 C   0  0  0  0  0  0  0  0  0  0  0  0
   -1.5661   -5.1102    0.8545 O   0  0  0  0  0  0  0  0  0  0  0  0
   -0.0062   -4.9414    1.0766 P   0  0  0  0  0  0  0  0  0  0  0  0
    0.6683   -6.2589    1.1128 O   0  0  0  0  0  0  0  0  0  0  0  0
    0.5366   -3.8924    0.1866 O   0  5  0  0  0  0  0  0  0  0  0  0
    0.1041   -4.3671    2.5574 O   0  5  0  0  0  0  0  0  0  0  0  0
  1 18  1  0  0  0  0
  1  2  1  0  0  0  0
  2  4  1  0  0  0  0
  2  3  2  0  0  0  0
  4  5  1  0  0  0  0
  5  7  1  0  0  0  0
  5  6  2  0  0  0  0
  7 18  2  0  0  0  0
  7  8  1  0  0  0  0
  8  9  1  0  0  0  0
  9 10  2  0  0  0  0
  9 16  1  0  0  0  0
 10 11  1  0  0  0  0
 11 12  1  0  0  0  0
 11 13  2  0  0  0  0
 13 14  1  0  0  0  0
 13 15  1  0  0  0  0
 15 16  2  0  0  0  0
 16 17  1  0  0  0  0
 17 19  1  0  0  0  0
 17 18  1  0  0  0  0
 20 19  1  6  0  0  0
 20 22  1  0  0  0  0
 20 21  1  0  0  0  0
 22 24  1  0  0  0  0
 22 23  1  6  0  0  0
 24 26  1  1  0  0  0
 24 25  1  0  0  0  0
 26 27  1  0  0  0  0
 27 28  1  0  0  0  0
 28 30  1  0  0  0  0
 28 29  2  0  0  0  0
 28 31  1  0  0  0  0
M  CHG  2  30  -1  31  -1
M  END
>  <CHROM.1>
-123.30879299,62.63699730,-179.99335793,-173.81526263,66.87070608,66.55229969
-177.16444817,-163.47735253,178.24671522,56.26943846,-6.56807797,-5.35169212
1.27915986,-3.13419617,0.04305285,-1.29084375

>  <Name>
1fmn_cryst

>  <RI>
0

>  <Rbt.Current_Directory>
/home/itssahil/PROJECTS/Mol_Feturizer/New_Systems/rnas/1fmn

>  <Rbt.Executable>
rbdock ($Id: //depot/dev/client3/rdock/2013.1/src/exe/rbdock.cxx#4 $)

>  <Rbt.Library>
libRbt.so (2013.1, Build901 2013/11/27)

>  <Rbt.Parameter_File>
/export/apps/rDock/src/rDock_2013.1_src/data/scripts/dock_solv.prm

>  <Rbt.Receptor>
prm/pocket_docking_8.prm

>  <SCORE>
-57.903

>  <SCORE.INTER>
-51.4558

>  <SCORE.INTER.CONST>
1

>  <SCORE.INTER.POLAR>
-2.97486

>  <SCORE.INTER.ROT>
7

>  <SCORE.INTER.SOLV>
16.4224

>  <SCORE.INTER.VDW>
-38.1284

>  <SCORE.INTER.norm>
-1.65986

>  <SCORE.INTRA>
-6.44725

>  <SCORE.INTRA.DIHEDRAL>
-11.2605

>  <SCORE.INTRA.DIHEDRAL.0>
15.5708

>  <SCORE.INTRA.POLAR>
0.0677885

>  <SCORE.INTRA.POLAR.0>
-0.0677885

>  <SCORE.INTRA.REPUL>
0

>  <SCORE.INTRA.REPUL.0>
0

>  <SCORE.INTRA.SOLV>
-4.57555

>  <SCORE.INTRA.SOLV.lig_0>
-87.6316

>  <SCORE.INTRA.VDW>
1.24029

>  <SCORE.INTRA.VDW.0>
-2.87309

>  <SCORE.INTRA.norm>
-0.207976

>  <SCORE.RESTR>
0

>  <SCORE.RESTR.CAVITY>
0

>  <SCORE.RESTR.norm>
0

>  <SCORE.SYSTEM>
0

>  <SCORE.SYSTEM.CONST>
0

>  <SCORE.SYSTEM.DIHEDRAL>
0

>  <SCORE.SYSTEM.SOLV>
0

>  <SCORE.SYSTEM.norm>
0

>  <SCORE.heavy>
31

>  <SCORE.norm>
-1.86784

>  <SYMMETRIC_BONDS>
33 34 3

>  <RMSD>
2.915

$$$$
1fmn_cryst
 OpenBabel11021811393D
libRbt.so/2013.1/901 2013/11/27
 31 33  0  0  0  0  0  0  0  0999 V2000
   -8.8923   -6.7575    3.6136 N   0  0  0  0  0  0  0  0  0  0  0  0
   -9.7270   -6.7090    4.7055 C   0  0  0  0  0  0  0  0  0  0  0  0
   -9.5076   -7.3646    5.7246 O   0  0  0  0  0  0  0  0  0  0  0  0
  -10.8566   -5.8615    4.5812 N   0  0  0  0  0  0  0  0  0  0  0  0
  -11.2028   -5.0755    3.4603 C   0  0  0  0  0  0  0  0  0  0  0  0
  -12.2228   -4.3753    3.4869 O   0  0  0  0  0  0  0  0  0  0  0  0
  -10.2651   -5.1830    2.3403 C   0  0  0  0  0  0  0  0  0  0  0  0
  -10.5305   -4.4488    1.2113 N   0  0  0  0  0  0  0  0  0  0  0  0
   -9.7612   -4.6870    0.1094 C   0  0  0  0  0  0  0  0  0  0  0  0
  -10.1362   -4.0908   -1.0815 C   0  0  0  0  0  0  0  0  0  0  0  0
   -9.4202   -4.2820   -2.2138 C   0  0  0  0  0  0  0  0  0  0  0  0
   -9.8665   -3.6119   -3.4741 C   0  0  0  0  0  0  0  0  0  0  0  0
   -8.3119   -5.0710   -2.2014 C   0  0  0  0  0  0  0  0  0  0  0  0
   -7.5313   -5.2822   -3.4576 C   0  0  0  0  0  0  0  0  0  0  0  0
   -7.9057   -5.6758   -1.0559 C   0  0  0  0  0  0  0  0  0  0  0  0
   -8.6077   -5.5110    0.1380 C   0  0  0  0  0  0  0  0  0  0  0  0
   -8.2395   -6.1065    1.3627 N   0  0  0  0  0  0  0  0  0  0  0  0
   -9.1130   -6.0442    2.4677 C   0  0  0  0  0  0  0  0  0  0  0  0
   -6.7683   -6.2800    1.6523 C   0  0  0  0  0  0  0  0  0  0  0  0
   -5.9521   -4.9741    1.8945 C   0  0  1  0  0  0  0  0  0  0  0  0
   -5.8727   -4.6976    3.2856 O   0  0  0  0  0  0  0  0  0  0  0  0
   -4.5577   -4.9929    1.2241 C   0  0  1  0  0  0  0  0  0  0  0  0
   -4.0248   -3.6734    1.1567 O   0  0  0  0  0  0  0  0  0  0  0  0
   -3.5045   -5.9567    1.8240 C   0  0  1  0  0  0  0  0  0  0  0  0
   -4.0252   -7.2803    1.7714 O   0  0  0  0  0  0  0  0  0  0  0  0
   -2.1567   -5.9220    1.0690 C   0  0  0  0  0  0  0  0  0  0  0  0
   -1.2425   -6.9033    1.5438 O   0  0  0  0  0  0  0  0  0  0  0  0
    0.1882   -7.1239    0.8992 P   0  0  0  0  0  0  0  0  0  0  0  0
    0.9437   -8.1648    1.6325 O   0  0  0  0  0  0  0  0  0  0  0  0
    0.0865   -7.2276   -0.5725 O   0  5  0  0  0  0  0  0  0  0  0  0
    0.9503   -5.7579    1.1957 O   0  5  0  0  0  0  0  0  0  0  0  0
  1 18  1  0  0  0  0
  1  2  1  0  0  0  0
  2  4  1  0  0  0  0
  2  3  2  0  0  0  0
  4  5  1  0  0  0  0
  5  7  1  0  0  0  0
  5  6  2  0  0  0  0
  7 18  2  0  0  0  0
  7  8  1  0  0  0  0
  8  9  1  0  0  0  0
  9 10  2  0  0  0  0
  9 16  1  0  0  0  0
 10 11  1  0  0  0  0
 11 12  1  0  0  0  0
 11 13  2  0  0  0  0
 13 14  1  0  0  0  0
 13 15  1  0  0  0  0
 15 16  2  0  0  0  0
 16 17  1  0  0  0  0
 17 19  1  0  0  0  0
 17 18  1  0  0  0  0
 20 19  1  1  0  0  0
 20 22  1  0  0  0  0
 20 21  1  0  0  0  0
 22 24  1  0  0  0  0
 22 23  1  1  0  0  0
 24 26  1  6  0  0  0
 24 25  1  0  0  0  0
 26 27  1  0  0  0  0
 27 28  1  0  0  0  0
 28 30  1  0  0  0  0
 28 29  2  0  0  0  0
 28 31  1  0  0  0  0
M  CHG  2  30  -1  31  -1
M  END
>  <CHROM.1>
68.46430403,94.57077134,163.78059050,56.87179459,58.24675988,-56.30132035
-174.19115620,55.91650290,177.24698439,177.41937881,-6.26662891,-5.73268509
1.26697692,-3.11266449,0.17395533,-1.30345987

>  <Name>
1fmn_cryst

>  <RI>
0

>  <Rbt.Current_Directory>
/home/itssahil/PROJECTS/Mol_Feturizer/New_Systems/rnas/1fmn

>  <Rbt.Executable>
rbdock ($Id: //depot/dev/client3/rdock/2013.1/src/exe/rbdock.cxx#4 $)

>  <Rbt.Library>
libRbt.so (2013.1, Build901 2013/11/27)

>  <Rbt.Parameter_File>
/export/apps/rDock/src/rDock_2013.1_src/data/scripts/dock_solv.prm

>  <Rbt.Receptor>
prm/pocket_docking_8.prm

>  <SCORE>
-55.6345

>  <SCORE.INTER>
-49.2935

>  <SCORE.INTER.CONST>
1

>  <SCORE.INTER.POLAR>
-3.20099

>  <SCORE.INTER.ROT>
7

>  <SCORE.INTER.SOLV>
17.2168

>  <SCORE.INTER.VDW>
-36.198

>  <SCORE.INTER.norm>
-1.59011

>  <SCORE.INTRA>
-6.34096

>  <SCORE.INTRA.DIHEDRAL>
-9.65472

>  <SCORE.INTRA.DIHEDRAL.0>
15.5708

>  <SCORE.INTRA.POLAR>
0.0677885

>  <SCORE.INTRA.POLAR.0>
-0.0677885

>  <SCORE.INTRA.REPUL>
0

>  <SCORE.INTRA.REPUL.0>
0

>  <SCORE.INTRA.SOLV>
-4.84305

>  <SCORE.INTRA.SOLV.lig_0>
-87.6316

>  <SCORE.INTRA.VDW>
0.677444

>  <SCORE.INTRA.VDW.0>
-2.87309

>  <SCORE.INTRA.norm>
-0.204547

>  <SCORE.RESTR>
0

>  <SCORE.RESTR.CAVITY>
0

>  <SCORE.RESTR.norm>
0

>  <SCORE.SYSTEM>
0

>  <SCORE.SYSTEM.CONST>
0

>  <SCORE.SYSTEM.DIHEDRAL>
0

>  <SCORE.SYSTEM.SOLV>
0

>  <SCORE.SYSTEM.norm>
0

>  <SCORE.heavy>
31

>  <SCORE.norm>
-1.79466

>  <SYMMETRIC_BONDS>
33 34 3

>  <RMSD>
2.964

$$$$
1fmn_cryst
 OpenBabel11021811393D
libRbt.so/2013.1/901 2013/11/27
 31 33  0  0  0  0  0  0  0  0999 V2000
   -9.2452   -6.6212    3.6445 N   0  0  0  0  0  0  0  0  0  0  0  0
  -10.1239   -6.6052    4.7024 C   0  0  0  0  0  0  0  0  0  0  0  0
   -9.9171   -7.2476    5.7324 O   0  0  0  0  0  0  0  0  0  0  0  0
  -11.2828   -5.8073    4.5296 N   0  0  0  0  0  0  0  0  0  0  0  0
  -11.6176   -5.0403    3.3922 C   0  0  0  0  0  0  0  0  0  0  0  0
  -12.6668   -4.3844    3.3753 O   0  0  0  0  0  0  0  0  0  0  0  0
  -10.6326   -5.1109    2.3106 C   0  0  0  0  0  0  0  0  0  0  0  0
  -10.8841   -4.3922    1.1685 N   0  0  0  0  0  0  0  0  0  0  0  0
  -10.0624   -4.6006    0.0990 C   0  0  0  0  0  0  0  0  0  0  0  0
  -10.4150   -4.0246   -1.1086 C   0  0  0  0  0  0  0  0  0  0  0  0
   -9.6472   -4.1883   -2.2109 C   0  0  0  0  0  0  0  0  0  0  0  0
  -10.0715   -3.5419   -3.4909 C   0  0  0  0  0  0  0  0  0  0  0  0
   -8.5076   -4.9291   -2.1510 C   0  0  0  0  0  0  0  0  0  0  0  0
   -7.6695   -5.1104   -3.3745 C   0  0  0  0  0  0  0  0  0  0  0  0
   -8.1216   -5.5124   -0.9876 C   0  0  0  0  0  0  0  0  0  0  0  0
   -8.8767   -5.3742    0.1770 C   0  0  0  0  0  0  0  0  0  0  0  0
   -8.5322   -5.9497    1.4180 N   0  0  0  0  0  0  0  0  0  0  0  0
   -9.4506   -5.9215    2.4874 C   0  0  0  0  0  0  0  0  0  0  0  0
   -7.0675   -6.0590    1.7662 C   0  0  0  0  0  0  0  0  0  0  0  0
   -6.6651   -5.6263    3.2088 C   0  0  1  0  0  0  0  0  0  0  0  0
   -6.7656   -6.7305    4.0968 O   0  0  0  0  0  0  0  0  0  0  0  0
   -5.2759   -4.9485    3.2773 C   0  0  1  0  0  0  0  0  0  0  0  0
   -5.3529   -3.7402    4.0281 O   0  0  0  0  0  0  0  0  0  0  0  0
   -4.0984   -5.8136    3.7901 C   0  0  1  0  0  0  0  0  0  0  0  0
   -4.4041   -7.1813    3.5414 O   0  0  0  0  0  0  0  0  0  0  0  0
   -2.7563   -5.4714    3.1051 C   0  0  0  0  0  0  0  0  0  0  0  0
   -2.7543   -5.7973    1.7203 O   0  0  0  0  0  0  0  0  0  0  0  0
   -1.4641   -5.6609    0.8102 P   0  0  0  0  0  0  0  0  0  0  0  0
   -1.0078   -4.2538    0.7476 O   0  0  0  0  0  0  0  0  0  0  0  0
   -0.4776   -6.7109    1.1437 O   0  5  0  0  0  0  0  0  0  0  0  0
   -1.9959   -6.0003   -0.6516 O   0  5  0  0  0  0  0  0  0  0  0  0
  1 18  1  0  0  0  0
  1  2  1  0  0  0  0
  2  4  1  0  0  0  0
  2  3  2  0  0  0  0
  4  5  1  0  0  0  0
  5  7  1  0  0  0  0
  5  6  2  0  0  0  0
  7 18  2  0  0  0  0
  7  8  1  0  0  0  0
  8  9  1  0  0  0  0
  9 10  2  0  0  0  0
  9 16  1  0  0  0  0
 10 11  1  0  0  0  0
 11 12  1  0  0  0  0
 11 13  2  0  0  0  0
 13 14  1  0  0  0  0
 13 15  1  0  0  0  0
 15 16  2  0  0  0  0
 16 17  1  0  0  0  0
 17 19  1  0  0  0  0
 17 18  1  0  0  0  0
 20 19  1  6  0  0  0
 20 22  1  0  0  0  0
 20 21  1  0  0  0  0
 22 24  1  0  0  0  0
 22 23  1  1  0  0  0
 24 26  1  6  0  0  0
 24 25  1  0  0  0  0
 26 27  1  0  0  0  0
 27 28  1  0  0  0  0
 28 30  1  0  0  0  0
 28 29  2  0  0  0  0
 28 31  1  0  0  0  0
M  CHG  2  30  -1  31  -1
M  END
>  <CHROM.1>
134.59857716,88.57196894,131.61984206,177.19047038,25.38261189,171.41532706
-66.28341254,-178.72617148,-174.76275959,-61.99814907,-6.96806345,-5.46199601
1.65730530,-3.11173299,0.07357008,-1.33749973

>  <Name>
1fmn_cryst

>  <RI>
0

>  <Rbt.Current_Directory>
/home/itssahil/PROJECTS/Mol_Feturizer/New_Systems/rnas/1fmn

>  <Rbt.Executable>
rbdock ($Id: //depot/dev/client3/rdock/2013.1/src/exe/rbdock.cxx#4 $)

>  <Rbt.Library>
libRbt.so (2013.1, Build901 2013/11/27)

>  <Rbt.Parameter_File>
/export/apps/rDock/src/rDock_2013.1_src/data/scripts/dock_solv.prm

>  <Rbt.Receptor>
prm/pocket_docking_5.prm

>  <SCORE>
-52.7635

>  <SCORE.INTER>
-51.0929

>  <SCORE.INTER.CONST>
1

>  <SCORE.INTER.POLAR>
-3.19301

>  <SCORE.INTER.ROT>
7

>  <SCORE.INTER.SOLV>
23.4596

>  <SCORE.INTER.VDW>
-39.5051

>  <SCORE.INTER.norm>
-1.64816

>  <SCORE.INTRA>
-1.67064

>  <SCORE.INTRA.DIHEDRAL>
-1.78171

>  <SCORE.INTRA.DIHEDRAL.0>
15.5708

>  <SCORE.INTRA.POLAR>
-0.547676

>  <SCORE.INTRA.POLAR.0>
-0.0677885

>  <SCORE.INTRA.REPUL>
0

>  <SCORE.INTRA.REPUL.0>
0

>  <SCORE.INTRA.SOLV>
-3.37897

>  <SCORE.INTRA.SOLV.lig_0>
-87.6316

>  <SCORE.INTRA.VDW>
2.7718

>  <SCORE.INTRA.VDW.0>
-2.87309

>  <SCORE.INTRA.norm>
-0.0538917

>  <SCORE.RESTR>
0

>  <SCORE.RESTR.CAVITY>
0

>  <SCORE.RESTR.norm>
0

>  <SCORE.SYSTEM>
0

>  <SCORE.SYSTEM.CONST>
0

>  <SCORE.SYSTEM.DIHEDRAL>
0

>  <SCORE.SYSTEM.SOLV>
0

>  <SCORE.SYSTEM.norm>
0

>  <SCORE.heavy>
31

>  <SCORE.norm>
-1.70205

>  <SYMMETRIC_BONDS>
33 34 3

>  <RMSD>
3.011

$$$$
1fmn_cryst
 OpenBabel11021811393D
libRbt.so/2013.1/901 2013/11/27
 31 33  0  0  0  0  0  0  0  0999 V2000
   -8.4934   -6.1813    3.5504 N   0  0  0  0  0  0  0  0  0  0  0  0
   -9.3468   -6.2217    4.6282 C   0  0  0  0  0  0  0  0  0  0  0  0
   -9.0185   -6.7269    5.7022 O   0  0  0  0  0  0  0  0  0  0  0  0
  -10.6277   -5.6503    4.4225 N   0  0  0  0  0  0  0  0  0  0  0  0
  -11.1051   -5.0540    3.2348 C   0  0  0  0  0  0  0  0  0  0  0  0
  -12.2514   -4.5896    3.1930 O   0  0  0  0  0  0  0  0  0  0  0  0
  -10.1379   -5.0512    2.1349 C   0  0  0  0  0  0  0  0  0  0  0  0
  -10.5250   -4.4887    0.9442 N   0  0  0  0  0  0  0  0  0  0  0  0
   -9.6948   -4.6477   -0.1273 C   0  0  0  0  0  0  0  0  0  0  0  0
  -10.1580   -4.2482   -1.3684 C   0  0  0  0  0  0  0  0  0  0  0  0
   -9.3891   -4.3755   -2.4747 C   0  0  0  0  0  0  0  0  0  0  0  0
   -9.9359   -3.9253   -3.7918 C   0  0  0  0  0  0  0  0  0  0  0  0
   -8.1386   -4.9041   -2.3857 C   0  0  0  0  0  0  0  0  0  0  0  0
   -7.2992   -5.0474   -3.6133 C   0  0  0  0  0  0  0  0  0  0  0  0
   -7.6419   -5.3091   -1.1890 C   0  0  0  0  0  0  0  0  0  0  0  0
   -8.3931   -5.1992   -0.0189 C   0  0  0  0  0  0  0  0  0  0  0  0
   -7.9375   -5.5967    1.2557 N   0  0  0  0  0  0  0  0  0  0  0  0
   -8.8321   -5.6310    2.3450 C   0  0  0  0  0  0  0  0  0  0  0  0
   -6.4711   -5.4251    1.5694 C   0  0  0  0  0  0  0  0  0  0  0  0
   -5.5346   -6.6042    1.1658 C   0  0  1  0  0  0  0  0  0  0  0  0
   -4.9659   -6.3616   -0.1131 O   0  0  0  0  0  0  0  0  0  0  0  0
   -4.4581   -6.9206    2.2312 C   0  0  1  0  0  0  0  0  0  0  0  0
   -5.0427   -7.6058    3.3350 O   0  0  0  0  0  0  0  0  0  0  0  0
   -3.1962   -7.6776    1.7492 C   0  0  1  0  0  0  0  0  0  0  0  0
   -3.6084   -8.7445    0.9021 O   0  0  0  0  0  0  0  0  0  0  0  0
   -2.2130   -6.7754    0.9702 C   0  0  0  0  0  0  0  0  0  0  0  0
   -1.0690   -7.4865    0.5124 O   0  0  0  0  0  0  0  0  0  0  0  0
    0.1755   -6.7679   -0.1555 P   0  0  0  0  0  0  0  0  0  0  0  0
    1.2423   -7.7444   -0.4726 O   0  0  0  0  0  0  0  0  0  0  0  0
   -0.2675   -5.8347   -1.2138 O   0  5  0  0  0  0  0  0  0  0  0  0
    0.7623   -5.8634    1.0160 O   0  5  0  0  0  0  0  0  0  0  0  0
  1 18  1  0  0  0  0
  1  2  1  0  0  0  0
  2  4  1  0  0  0  0
  2  3  2  0  0  0  0
  4  5  1  0  0  0  0
  5  7  1  0  0  0  0
  5  6  2  0  0  0  0
  7 18  2  0  0  0  0
  7  8  1  0  0  0  0
  8  9  1  0  0  0  0
  9 10  2  0  0  0  0
  9 16  1  0  0  0  0
 10 11  1  0  0  0  0
 11 12  1  0  0  0  0
 11 13  2  0  0  0  0
 13 14  1  0  0  0  0
 13 15  1  0  0  0  0
 15 16  2  0  0  0  0
 16 17  1  0  0  0  0
 17 19  1  0  0  0  0
 17 18  1  0  0  0  0
 20 19  1  1  0  0  0
 20 22  1  0  0  0  0
 20 21  1  0  0  0  0
 22 24  1  0  0  0  0
 22 23  1  1  0  0  0
 24 26  1  6  0  0  0
 24 25  1  0  0  0  0
 26 27  1  0  0  0  0
 27 28  1  0  0  0  0
 28 30  1  0  0  0  0
 28 29  2  0  0  0  0
 28 31  1  0  0  0  0
M  CHG  2  30  -1  31  -1
M  END
>  <CHROM.1>
-87.44942349,94.66045961,75.22080717,-90.10518447,-44.74761496,-169.52538320
-178.97304967,66.08081521,-172.27226340,177.23409207,-6.13278141,-5.98477425
0.88256457,-3.05290575,0.22773490,-1.30163503

>  <Name>
1fmn_cryst

>  <RI>
0

>  <Rbt.Current_Directory>
/home/itssahil/PROJECTS/Mol_Feturizer/New_Systems/rnas/1fmn

>  <Rbt.Executable>
rbdock ($Id: //depot/dev/client3/rdock/2013.1/src/exe/rbdock.cxx#4 $)

>  <Rbt.Library>
libRbt.so (2013.1, Build901 2013/11/27)

>  <Rbt.Parameter_File>
/export/apps/rDock/src/rDock_2013.1_src/data/scripts/dock_solv.prm

>  <Rbt.Receptor>
prm/pocket_docking_8.prm

>  <SCORE>
-56.2976

>  <SCORE.INTER>
-52.8211

>  <SCORE.INTER.CONST>
1

>  <SCORE.INTER.POLAR>
-3.18264

>  <SCORE.INTER.ROT>
7

>  <SCORE.INTER.SOLV>
16.6721

>  <SCORE.INTER.VDW>
-38.4293

>  <SCORE.INTER.norm>
-1.70391

>  <SCORE.INTRA>
-3.47651

>  <SCORE.INTRA.DIHEDRAL>
-3.89306

>  <SCORE.INTRA.DIHEDRAL.0>
15.5708

>  <SCORE.INTRA.POLAR>
0.0185195

>  <SCORE.INTRA.POLAR.0>
-0.0677885

>  <SCORE.INTRA.REPUL>
0

>  <SCORE.INTRA.REPUL.0>
0

>  <SCORE.INTRA.SOLV>
-3.97874

>  <SCORE.INTRA.SOLV.lig_0>
-87.6316

>  <SCORE.INTRA.VDW>
0.39642

>  <SCORE.INTRA.VDW.0>
-2.87309

>  <SCORE.INTRA.norm>
-0.112146

>  <SCORE.RESTR>
0

>  <SCORE.RESTR.CAVITY>
0

>  <SCORE.RESTR.norm>
0

>  <SCORE.SYSTEM>
0

>  <SCORE.SYSTEM.CONST>
0

>  <SCORE.SYSTEM.DIHEDRAL>
0

>  <SCORE.SYSTEM.SOLV>
0

>  <SCORE.SYSTEM.norm>
0

>  <SCORE.heavy>
31

>  <SCORE.norm>
-1.81605

>  <SYMMETRIC_BONDS>
33 34 3

>  <RMSD>
3.013

$$$$
1fmn_cryst
 OpenBabel11021811393D
libRbt.so/2013.1/901 2013/11/27
 31 33  0  0  0  0  0  0  0  0999 V2000
   -8.8304   -6.0907    3.4234 N   0  0  0  0  0  0  0  0  0  0  0  0
   -9.6421   -6.1202    4.5332 C   0  0  0  0  0  0  0  0  0  0  0  0
   -9.2932   -6.6614    5.5829 O   0  0  0  0  0  0  0  0  0  0  0  0
  -10.9055   -5.4934    4.3902 N   0  0  0  0  0  0  0  0  0  0  0  0
  -11.4039   -4.8527    3.2347 C   0  0  0  0  0  0  0  0  0  0  0  0
  -12.5309   -4.3418    3.2479 O   0  0  0  0  0  0  0  0  0  0  0  0
  -10.4809   -4.8649    2.0975 C   0  0  0  0  0  0  0  0  0  0  0  0
  -10.8906   -4.2614    0.9347 N   0  0  0  0  0  0  0  0  0  0  0  0
  -10.1100   -4.4304   -0.1719 C   0  0  0  0  0  0  0  0  0  0  0  0
  -10.6043   -3.9856   -1.3853 C   0  0  0  0  0  0  0  0  0  0  0  0
   -9.8849   -4.1196   -2.5237 C   0  0  0  0  0  0  0  0  0  0  0  0
  -10.4636   -3.6192   -3.8086 C   0  0  0  0  0  0  0  0  0  0  0  0
   -8.6546   -4.6998   -2.4951 C   0  0  0  0  0  0  0  0  0  0  0  0
   -7.8702   -4.8500   -3.7578 C   0  0  0  0  0  0  0  0  0  0  0  0
   -8.1289   -5.1504   -1.3275 C   0  0  0  0  0  0  0  0  0  0  0  0
   -8.8288   -5.0360   -0.1265 C   0  0  0  0  0  0  0  0  0  0  0  0
   -8.3407   -5.4791    1.1207 N   0  0  0  0  0  0  0  0  0  0  0  0
   -9.1928   -5.5011    2.2438 C   0  0  0  0  0  0  0  0  0  0  0  0
   -6.8573   -5.3734    1.3793 C   0  0  0  0  0  0  0  0  0  0  0  0
   -6.1612   -6.6481    1.9458 C   0  0  1  0  0  0  0  0  0  0  0  0
   -7.1074   -7.6971    2.0945 O   0  0  0  0  0  0  0  0  0  0  0  0
   -4.9288   -7.0882    1.1202 C   0  0  1  0  0  0  0  0  0  0  0  0
   -3.9844   -6.0247    1.0383 O   0  0  0  0  0  0  0  0  0  0  0  0
   -4.2183   -8.3913    1.5619 C   0  0  1  0  0  0  0  0  0  0  0  0
   -5.1791   -9.4412    1.5850 O   0  0  0  0  0  0  0  0  0  0  0  0
   -3.0619   -8.7960    0.6204 C   0  0  0  0  0  0  0  0  0  0  0  0
   -2.0990   -7.7601    0.4660 O   0  0  0  0  0  0  0  0  0  0  0  0
   -0.7000   -7.9898   -0.2422 P   0  0  0  0  0  0  0  0  0  0  0  0
   -0.0810   -6.6993   -0.6209 O   0  0  0  0  0  0  0  0  0  0  0  0
    0.1111   -8.9699    0.5117 O   0  5  0  0  0  0  0  0  0  0  0  0
   -1.0843   -8.6959   -1.6165 O   0  5  0  0  0  0  0  0  0  0  0  0
  1 18  1  0  0  0  0
  1  2  1  0  0  0  0
  2  4  1  0  0  0  0
  2  3  2  0  0  0  0
  4  5  1  0  0  0  0
  5  7  1  0  0  0  0
  5  6  2  0  0  0  0
  7 18  2  0  0  0  0
  7  8  1  0  0  0  0
  8  9  1  0  0  0  0
  9 10  2  0  0  0  0
  9 16  1  0  0  0  0
 10 11  1  0  0  0  0
 11 12  1  0  0  0  0
 11 13  2  0  0  0  0
 13 14  1  0  0  0  0
 13 15  1  0  0  0  0
 15 16  2  0  0  0  0
 16 17  1  0  0  0  0
 17 19  1  0  0  0  0
 17 18  1  0  0  0  0
 20 19  1  6  0  0  0
 20 22  1  0  0  0  0
 20 21  1  0  0  0  0
 22 24  1  0  0  0  0
 22 23  1  1  0  0  0
 24 26  1  6  0  0  0
 24 25  1  0  0  0  0
 26 27  1  0  0  0  0
 27 28  1  0  0  0  0
 28 30  1  0  0  0  0
 28 29  2  0  0  0  0
 28 31  1  0  0  0  0
M  CHG  2  30  -1  31  -1
M  END
>  <CHROM.1>
-131.49516781,0.65377473,56.81562137,69.92852405,55.48890565,176.93815469
55.49079259,66.27745619,169.47740212,163.21426211,-6.73230708,-6.25798609
0.78955109,-3.10448994,0.37530695,-1.26220860

>  <Name>
1fmn_cryst

>  <RI>
0

>  <Rbt.Current_Directory>
/home/itssahil/PROJECTS/Mol_Feturizer/New_Systems/rnas/1fmn

>  <Rbt.Executable>
rbdock ($Id: //depot/dev/client3/rdock/2013.1/src/exe/rbdock.cxx#4 $)

>  <Rbt.Library>
libRbt.so (2013.1, Build901 2013/11/27)

>  <Rbt.Parameter_File>
/export/apps/rDock/src/rDock_2013.1_src/data/scripts/dock_solv.prm

>  <Rbt.Receptor>
prm/pocket_docking_5.prm

>  <SCORE>
-60.7708

>  <SCORE.INTER>
-54.431

>  <SCORE.INTER.CONST>
1

>  <SCORE.INTER.POLAR>
-3.18674

>  <SCORE.INTER.ROT>
7

>  <SCORE.INTER.SOLV>
19.2386

>  <SCORE.INTER.VDW>
-40.3444

>  <SCORE.INTER.norm>
-1.75584

>  <SCORE.INTRA>
-6.36731

>  <SCORE.INTRA.DIHEDRAL>
-6.74132

>  <SCORE.INTRA.DIHEDRAL.0>
15.5708

>  <SCORE.INTRA.POLAR>
-1.13732

>  <SCORE.INTRA.POLAR.0>
-0.0677885

>  <SCORE.INTRA.REPUL>
0

>  <SCORE.INTRA.REPUL.0>
0

>  <SCORE.INTRA.SOLV>
-2.70796

>  <SCORE.INTRA.SOLV.lig_0>
-87.6316

>  <SCORE.INTRA.VDW>
2.22422

>  <SCORE.INTRA.VDW.0>
-2.87309

>  <SCORE.INTRA.norm>
-0.205397

>  <SCORE.RESTR>
0.0275919

>  <SCORE.RESTR.CAVITY>
0.0275919

>  <SCORE.RESTR.norm>
0.000890061

>  <SCORE.SYSTEM>
0

>  <SCORE.SYSTEM.CONST>
0

>  <SCORE.SYSTEM.DIHEDRAL>
0

>  <SCORE.SYSTEM.SOLV>
0

>  <SCORE.SYSTEM.norm>
0

>  <SCORE.heavy>
31

>  <SCORE.norm>
-1.96035

>  <SYMMETRIC_BONDS>
33 34 3

>  <RMSD>
3.034

$$$$
1fmn_cryst
 OpenBabel11021811393D
libRbt.so/2013.1/901 2013/11/27
 31 33  0  0  0  0  0  0  0  0999 V2000
   -6.7136   -7.6703    3.5958 N   0  0  0  0  0  0  0  0  0  0  0  0
   -6.9265   -8.0611    4.8972 C   0  0  0  0  0  0  0  0  0  0  0  0
   -6.1558   -8.8209    5.4849 O   0  0  0  0  0  0  0  0  0  0  0  0
   -8.0899   -7.5384    5.5158 N   0  0  0  0  0  0  0  0  0  0  0  0
   -9.0380   -6.6694    4.9325 C   0  0  0  0  0  0  0  0  0  0  0  0
  -10.0131   -6.2860    5.5909 O   0  0  0  0  0  0  0  0  0  0  0  0
   -8.7405   -6.3013    3.5465 C   0  0  0  0  0  0  0  0  0  0  0  0
   -9.6147   -5.4580    2.9070 N   0  0  0  0  0  0  0  0  0  0  0  0
   -9.4356   -5.2617    1.5683 C   0  0  0  0  0  0  0  0  0  0  0  0
  -10.4140   -4.5657    0.8808 C   0  0  0  0  0  0  0  0  0  0  0  0
  -10.3024   -4.3333   -0.4477 C   0  0  0  0  0  0  0  0  0  0  0  0
  -11.3866   -3.5731   -1.1429 C   0  0  0  0  0  0  0  0  0  0  0  0
   -9.2191   -4.7846   -1.1360 C   0  0  0  0  0  0  0  0  0  0  0  0
   -9.1074   -4.5295   -2.6039 C   0  0  0  0  0  0  0  0  0  0  0  0
   -8.2339   -5.4714   -0.5031 C   0  0  0  0  0  0  0  0  0  0  0  0
   -8.3002   -5.7371    0.8646 C   0  0  0  0  0  0  0  0  0  0  0  0
   -7.3117   -6.4408    1.5841 N   0  0  0  0  0  0  0  0  0  0  0  0
   -7.5540   -6.8316    2.9170 C   0  0  0  0  0  0  0  0  0  0  0  0
   -5.8721   -6.2688    1.1640 C   0  0  0  0  0  0  0  0  0  0  0  0
   -5.0695   -5.1457    1.8883 C   0  0  1  0  0  0  0  0  0  0  0  0
   -5.0791   -5.3647    3.2918 O   0  0  0  0  0  0  0  0  0  0  0  0
   -3.6348   -4.9682    1.3366 C   0  0  1  0  0  0  0  0  0  0  0  0
   -2.8702   -4.1396    2.2074 O   0  0  0  0  0  0  0  0  0  0  0  0
   -2.8451   -6.2594    1.0093 C   0  0  1  0  0  0  0  0  0  0  0  0
   -3.3922   -6.8333   -0.1727 O   0  0  0  0  0  0  0  0  0  0  0  0
   -1.3376   -6.0034    0.7862 C   0  0  0  0  0  0  0  0  0  0  0  0
   -0.5617   -7.1902    0.9035 O   0  0  0  0  0  0  0  0  0  0  0  0
   -0.3088   -7.9144    2.2901 P   0  0  0  0  0  0  0  0  0  0  0  0
   -1.5885   -8.2074    2.9747 O   0  0  0  0  0  0  0  0  0  0  0  0
    0.6776   -9.0054    2.1361 O   0  5  0  0  0  0  0  0  0  0  0  0
    0.4003   -6.7972    3.1755 O   0  5  0  0  0  0  0  0  0  0  0  0
  1 18  1  0  0  0  0
  1  2  1  0  0  0  0
  2  4  1  0  0  0  0
  2  3  2  0  0  0  0
  4  5  1  0  0  0  0
  5  7  1  0  0  0  0
  5  6  2  0  0  0  0
  7 18  2  0  0  0  0
  7  8  1  0  0  0  0
  8  9  1  0  0  0  0
  9 10  2  0  0  0  0
  9 16  1  0  0  0  0
 10 11  1  0  0  0  0
 11 12  1  0  0  0  0
 11 13  2  0  0  0  0
 13 14  1  0  0  0  0
 13 15  1  0  0  0  0
 15 16  2  0  0  0  0
 16 17  1  0  0  0  0
 17 19  1  0  0  0  0
 17 18  1  0  0  0  0
 20 19  1  6  0  0  0
 20 22  1  0  0  0  0
 20 21  1  0  0  0  0
 22 24  1  0  0  0  0
 22 23  1  1  0  0  0
 24 26  1  6  0  0  0
 24 25  1  0  0  0  0
 26 27  1  0  0  0  0
 27 28  1  0  0  0  0
 28 30  1  0  0  0  0
 28 29  2  0  0  0  0
 28 31  1  0  0  0  0
M  CHG  2  30  -1  31  -1
M  END
>  <CHROM.1>
92.17724751,57.50606726,-167.85842884,-68.73487390,72.85282032,-58.81336216
161.54900633,-175.88591550,-71.03100491,54.07470169,-5.66609243,-6.30765110
2.03056208,2.96805094,0.17617419,-1.14167965

>  <Name>
1fmn_cryst

>  <RI>
0

>  <Rbt.Current_Directory>
/home/itssahil/PROJECTS/Mol_Feturizer/New_Systems/rnas/1fmn

>  <Rbt.Executable>
rbdock ($Id: //depot/dev/client3/rdock/2013.1/src/exe/rbdock.cxx#4 $)

>  <Rbt.Library>
libRbt.so (2013.1, Build901 2013/11/27)

>  <Rbt.Parameter_File>
/export/apps/rDock/src/rDock_2013.1_src/data/scripts/dock_solv.prm

>  <Rbt.Receptor>
prm/pocket_docking_5.prm

>  <SCORE>
-43.0335

>  <SCORE.INTER>
-38.1179

>  <SCORE.INTER.CONST>
1

>  <SCORE.INTER.POLAR>
-1.69894

>  <SCORE.INTER.ROT>
7

>  <SCORE.INTER.SOLV>
15.3113

>  <SCORE.INTER.VDW>
-33.1192

>  <SCORE.INTER.norm>
-1.22961

>  <SCORE.INTRA>
-4.91555

>  <SCORE.INTRA.DIHEDRAL>
-10.7567

>  <SCORE.INTRA.DIHEDRAL.0>
15.5708

>  <SCORE.INTRA.POLAR>
0.0677885

>  <SCORE.INTRA.POLAR.0>
-0.0677885

>  <SCORE.INTRA.REPUL>
0

>  <SCORE.INTRA.REPUL.0>
0

>  <SCORE.INTRA.SOLV>
-1.30959

>  <SCORE.INTRA.SOLV.lig_0>
-87.6316

>  <SCORE.INTRA.VDW>
0.887134

>  <SCORE.INTRA.VDW.0>
-2.87309

>  <SCORE.INTRA.norm>
-0.158566

>  <SCORE.RESTR>
0

>  <SCORE.RESTR.CAVITY>
0

>  <SCORE.RESTR.norm>
0

>  <SCORE.SYSTEM>
0

>  <SCORE.SYSTEM.CONST>
0

>  <SCORE.SYSTEM.DIHEDRAL>
0

>  <SCORE.SYSTEM.SOLV>
0

>  <SCORE.SYSTEM.norm>
0

>  <SCORE.heavy>
31

>  <SCORE.norm>
-1.38818

>  <SYMMETRIC_BONDS>
33 34 3

>  <RMSD>
3.063

$$$$
1fmn_cryst
 OpenBabel11021811393D
libRbt.so/2013.1/901 2013/11/27
 31 33  0  0  0  0  0  0  0  0999 V2000
   -9.0534   -6.8445    3.8070 N   0  0  0  0  0  0  0  0  0  0  0  0
   -9.9180   -6.7884    4.8750 C   0  0  0  0  0  0  0  0  0  0  0  0
   -9.7385   -7.4535    5.8958 O   0  0  0  0  0  0  0  0  0  0  0  0
  -11.0295   -5.9216    4.7240 N   0  0  0  0  0  0  0  0  0  0  0  0
  -11.3305   -5.1234    3.5987 C   0  0  0  0  0  0  0  0  0  0  0  0
  -12.3392   -4.4065    3.6007 O   0  0  0  0  0  0  0  0  0  0  0  0
  -10.3632   -5.2400    2.5051 C   0  0  0  0  0  0  0  0  0  0  0  0
  -10.5842   -4.4950    1.3736 N   0  0  0  0  0  0  0  0  0  0  0  0
   -9.7878   -4.7396    0.2926 C   0  0  0  0  0  0  0  0  0  0  0  0
  -10.1188   -4.1303   -0.9047 C   0  0  0  0  0  0  0  0  0  0  0  0
   -9.3741   -4.3268   -2.0175 C   0  0  0  0  0  0  0  0  0  0  0  0
   -9.7732   -3.6421   -3.2856 C   0  0  0  0  0  0  0  0  0  0  0  0
   -8.2798   -5.1343   -1.9785 C   0  0  0  0  0  0  0  0  0  0  0  0
   -7.4672   -5.3511   -3.2134 C   0  0  0  0  0  0  0  0  0  0  0  0
   -7.9164   -5.7524   -0.8258 C   0  0  0  0  0  0  0  0  0  0  0  0
   -8.6494   -5.5828    0.3488 C   0  0  0  0  0  0  0  0  0  0  0  0
   -8.3260   -6.1915    1.5796 N   0  0  0  0  0  0  0  0  0  0  0  0
   -9.2296   -6.1211    2.6598 C   0  0  0  0  0  0  0  0  0  0  0  0
   -6.8668   -6.3911    1.9098 C   0  0  0  0  0  0  0  0  0  0  0  0
   -6.0640   -5.1125    2.2983 C   0  0  1  0  0  0  0  0  0  0  0  0
   -6.3984   -4.7069    3.6179 O   0  0  0  0  0  0  0  0  0  0  0  0
   -4.5367   -5.2693    2.1067 C   0  0  1  0  0  0  0  0  0  0  0  0
   -4.2582   -5.9082    0.8642 O   0  0  0  0  0  0  0  0  0  0  0  0
   -3.6778   -3.9882    2.2449 C   0  0  1  0  0  0  0  0  0  0  0  0
   -4.5004   -2.8626    1.9581 O   0  0  0  0  0  0  0  0  0  0  0  0
   -3.0747   -3.8165    3.6572 C   0  0  0  0  0  0  0  0  0  0  0  0
   -2.0798   -2.8006    3.7033 O   0  0  0  0  0  0  0  0  0  0  0  0
   -1.2215   -2.5008    5.0013 P   0  0  0  0  0  0  0  0  0  0  0  0
   -0.5914   -3.7379    5.5157 O   0  0  0  0  0  0  0  0  0  0  0  0
   -0.3744   -1.3052    4.8015 O   0  5  0  0  0  0  0  0  0  0  0  0
   -2.3112   -2.0954    6.0889 O   0  5  0  0  0  0  0  0  0  0  0  0
  1 18  1  0  0  0  0
  1  2  1  0  0  0  0
  2  4  1  0  0  0  0
  2  3  2  0  0  0  0
  4  5  1  0  0  0  0
  5  7  1  0  0  0  0
  5  6  2  0  0  0  0
  7 18  2  0  0  0  0
  7  8  1  0  0  0  0
  8  9  1  0  0  0  0
  9 10  2  0  0  0  0
  9 16  1  0  0  0  0
 10 11  1  0  0  0  0
 11 12  1  0  0  0  0
 11 13  2  0  0  0  0
 13 14  1  0  0  0  0
 13 15  1  0  0  0  0
 15 16  2  0  0  0  0
 16 17  1  0  0  0  0
 17 19  1  0  0  0  0
 17 18  1  0  0  0  0
 20 19  1  1  0  0  0
 20 22  1  0  0  0  0
 20 21  1  0  0  0  0
 22 24  1  0  0  0  0
 22 23  1  6  0  0  0
 24 26  1  1  0  0  0
 24 25  1  0  0  0  0
 26 27  1  0  0  0  0
 27 28  1  0  0  0  0
 28 30  1  0  0  0  0
 28 29  2  0  0  0  0
 28 31  1  0  0  0  0
M  CHG  2  30  -1  31  -1
M  END
>  <CHROM.1>
73.33971516,75.18937690,43.90787863,170.90361276,-24.71877913,-175.98321178
168.05025892,-157.40793651,-174.95448844,52.28759109,-6.69111291,-4.62616218
2.36152776,2.78034893,-0.31934126,-1.48048838

>  <Name>
1fmn_cryst

>  <RI>
0

>  <Rbt.Current_Directory>
/home/itssahil/PROJECTS/Mol_Feturizer/New_Systems/rnas/1fmn

>  <Rbt.Executable>
rbdock ($Id: //depot/dev/client3/rdock/2013.1/src/exe/rbdock.cxx#4 $)

>  <Rbt.Library>
libRbt.so (2013.1, Build901 2013/11/27)

>  <Rbt.Parameter_File>
/export/apps/rDock/src/rDock_2013.1_src/data/scripts/dock_solv.prm

>  <Rbt.Receptor>
prm/pocket_docking_8.prm

>  <SCORE>
-55.3743

>  <SCORE.INTER>
-50.9112

>  <SCORE.INTER.CONST>
1

>  <SCORE.INTER.POLAR>
-3.55852

>  <SCORE.INTER.ROT>
7

>  <SCORE.INTER.SOLV>
21.8954

>  <SCORE.INTER.VDW>
-37.6442

>  <SCORE.INTER.norm>
-1.6423

>  <SCORE.INTRA>
-4.46306

>  <SCORE.INTRA.DIHEDRAL>
-5.96414

>  <SCORE.INTRA.DIHEDRAL.0>
15.5708

>  <SCORE.INTRA.POLAR>
0.0677885

>  <SCORE.INTRA.POLAR.0>
-0.0677885

>  <SCORE.INTRA.REPUL>
0

>  <SCORE.INTRA.REPUL.0>
0

>  <SCORE.INTRA.SOLV>
-4.46299

>  <SCORE.INTRA.SOLV.lig_0>
-87.6316

>  <SCORE.INTRA.VDW>
0.520021

>  <SCORE.INTRA.VDW.0>
-2.87309

>  <SCORE.INTRA.norm>
-0.14397

>  <SCORE.RESTR>
0

>  <SCORE.RESTR.CAVITY>
0

>  <SCORE.RESTR.norm>
0

>  <SCORE.SYSTEM>
0

>  <SCORE.SYSTEM.CONST>
0

>  <SCORE.SYSTEM.DIHEDRAL>
0

>  <SCORE.SYSTEM.SOLV>
0

>  <SCORE.SYSTEM.norm>
0

>  <SCORE.heavy>
31

>  <SCORE.norm>
-1.78627

>  <SYMMETRIC_BONDS>
33 34 3

>  <RMSD>
3.065

$$$$
1fmn_cryst
 OpenBabel11021811393D
libRbt.so/2013.1/901 2013/11/27
 31 33  0  0  0  0  0  0  0  0999 V2000
   -8.8697   -6.4012    3.7895 N   0  0  0  0  0  0  0  0  0  0  0  0
   -9.8274   -6.2569    4.7660 C   0  0  0  0  0  0  0  0  0  0  0  0
   -9.7244   -6.7996    5.8666 O   0  0  0  0  0  0  0  0  0  0  0  0
  -10.9408   -5.4492    4.4234 N   0  0  0  0  0  0  0  0  0  0  0  0
  -11.1587   -4.7897    3.1938 C   0  0  0  0  0  0  0  0  0  0  0  0
  -12.1799   -4.1107    3.0284 O   0  0  0  0  0  0  0  0  0  0  0  0
  -10.0951   -4.9936    2.2078 C   0  0  0  0  0  0  0  0  0  0  0  0
  -10.2313   -4.3849    0.9850 N   0  0  0  0  0  0  0  0  0  0  0  0
   -9.3361   -4.7201    0.0110 C   0  0  0  0  0  0  0  0  0  0  0  0
   -9.5728   -4.2572   -1.2712 C   0  0  0  0  0  0  0  0  0  0  0  0
   -8.7273   -4.5499   -2.2865 C   0  0  0  0  0  0  0  0  0  0  0  0
   -9.0273   -4.0221   -3.6532 C   0  0  0  0  0  0  0  0  0  0  0  0
   -7.6223   -5.3115   -2.0629 C   0  0  0  0  0  0  0  0  0  0  0  0
   -6.6978   -5.6355   -3.1910 C   0  0  0  0  0  0  0  0  0  0  0  0
   -7.3491   -5.7870   -0.8211 C   0  0  0  0  0  0  0  0  0  0  0  0
   -8.1878   -5.5139    0.2594 C   0  0  0  0  0  0  0  0  0  0  0  0
   -7.9616   -5.9728    1.5740 N   0  0  0  0  0  0  0  0  0  0  0  0
   -8.9595   -5.8142    2.5575 C   0  0  0  0  0  0  0  0  0  0  0  0
   -6.5335   -6.0865    2.0491 C   0  0  0  0  0  0  0  0  0  0  0  0
   -5.4372   -5.5466    1.0812 C   0  0  1  0  0  0  0  0  0  0  0  0
   -5.3584   -4.1312    1.1719 O   0  0  0  0  0  0  0  0  0  0  0  0
   -4.0592   -6.2207    1.2831 C   0  0  1  0  0  0  0  0  0  0  0  0
   -3.9731   -6.7865    2.5878 O   0  0  0  0  0  0  0  0  0  0  0  0
   -3.6289   -7.2667    0.2255 C   0  0  1  0  0  0  0  0  0  0  0  0
   -2.7909   -6.6230   -0.7281 O   0  0  0  0  0  0  0  0  0  0  0  0
   -2.8615   -8.4607    0.8363 C   0  0  0  0  0  0  0  0  0  0  0  0
   -2.7883   -9.5707   -0.0507 O   0  0  0  0  0  0  0  0  0  0  0  0
   -2.1086  -10.9446    0.3512 P   0  0  0  0  0  0  0  0  0  0  0  0
   -2.1160  -11.8910   -0.7874 O   0  0  0  0  0  0  0  0  0  0  0  0
   -0.8359  -10.7072    1.0661 O   0  5  0  0  0  0  0  0  0  0  0  0
   -3.1108  -11.5621    1.4232 O   0  5  0  0  0  0  0  0  0  0  0  0
  1 18  1  0  0  0  0
  1  2  1  0  0  0  0
  2  4  1  0  0  0  0
  2  3  2  0  0  0  0
  4  5  1  0  0  0  0
  5  7  1  0  0  0  0
  5  6  2  0  0  0  0
  7 18  2  0  0  0  0
  7  8  1  0  0  0  0
  8  9  1  0  0  0  0
  9 10  2  0  0  0  0
  9 16  1  0  0  0  0
 10 11  1  0  0  0  0
 11 12  1  0  0  0  0
 11 13  2  0  0  0  0
 13 14  1  0  0  0  0
 13 15  1  0  0  0  0
 15 16  2  0  0  0  0
 16 17  1  0  0  0  0
 17 19  1  0  0  0  0
 17 18  1  0  0  0  0
 20 19  1  1  0  0  0
 20 22  1  0  0  0  0
 20 21  1  0  0  0  0
 22 24  1  0  0  0  0
 22 23  1  1  0  0  0
 24 26  1  1  0  0  0
 24 25  1  0  0  0  0
 26 27  1  0  0  0  0
 27 28  1  0  0  0  0
 28 30  1  0  0  0  0
 28 29  2  0  0  0  0
 28 31  1  0  0  0  0
M  CHG  2  30  -1  31  -1
M  END
>  <CHROM.1>
5.92976229,79.35677914,-21.83181462,-177.10050354,96.58152917,-157.95498670
164.02742314,-159.24170508,-177.39489630,-177.07953920,-6.51338078,-6.72884701
0.96144008,3.08994528,0.59662167,-1.17017548

>  <Name>
1fmn_cryst

>  <RI>
0

>  <Rbt.Current_Directory>
/home/itssahil/PROJECTS/Mol_Feturizer/New_Systems/rnas/1fmn

>  <Rbt.Executable>
rbdock ($Id: //depot/dev/client3/rdock/2013.1/src/exe/rbdock.cxx#4 $)

>  <Rbt.Library>
libRbt.so (2013.1, Build901 2013/11/27)

>  <Rbt.Parameter_File>
/export/apps/rDock/src/rDock_2013.1_src/data/scripts/dock_solv.prm

>  <Rbt.Receptor>
prm/pocket_docking_7.prm

>  <SCORE>
-55.2891

>  <SCORE.INTER>
-57.3308

>  <SCORE.INTER.CONST>
1

>  <SCORE.INTER.POLAR>
-4.40893

>  <SCORE.INTER.ROT>
7

>  <SCORE.INTER.SOLV>
23.9383

>  <SCORE.INTER.VDW>
-39.7702

>  <SCORE.INTER.norm>
-1.84938

>  <SCORE.INTRA>
2.04176

>  <SCORE.INTRA.DIHEDRAL>
0.217487

>  <SCORE.INTRA.DIHEDRAL.0>
15.5708

>  <SCORE.INTRA.POLAR>
0.0677885

>  <SCORE.INTRA.POLAR.0>
-0.0677885

>  <SCORE.INTRA.REPUL>
0

>  <SCORE.INTRA.REPUL.0>
0

>  <SCORE.INTRA.SOLV>
-5.53301

>  <SCORE.INTRA.SOLV.lig_0>
-87.6316

>  <SCORE.INTRA.VDW>
4.46904

>  <SCORE.INTRA.VDW.0>
-2.87309

>  <SCORE.INTRA.norm>
0.0658631

>  <SCORE.RESTR>
0

>  <SCORE.RESTR.CAVITY>
0

>  <SCORE.RESTR.norm>
0

>  <SCORE.SYSTEM>
0

>  <SCORE.SYSTEM.CONST>
0

>  <SCORE.SYSTEM.DIHEDRAL>
0

>  <SCORE.SYSTEM.SOLV>
0

>  <SCORE.SYSTEM.norm>
0

>  <SCORE.heavy>
31

>  <SCORE.norm>
-1.78352

>  <SYMMETRIC_BONDS>
33 34 3

>  <RMSD>
3.077

$$$$
1fmn_cryst
 OpenBabel11021811393D
libRbt.so/2013.1/901 2013/11/27
 31 33  0  0  0  0  0  0  0  0999 V2000
   -8.8132   -6.4158    3.6511 N   0  0  0  0  0  0  0  0  0  0  0  0
   -9.6605   -6.3495    4.7324 C   0  0  0  0  0  0  0  0  0  0  0  0
   -9.4215   -6.9403    5.7861 O   0  0  0  0  0  0  0  0  0  0  0  0
  -10.8266   -5.5632    4.5550 N   0  0  0  0  0  0  0  0  0  0  0  0
  -11.1971   -4.8534    3.3918 C   0  0  0  0  0  0  0  0  0  0  0  0
  -12.2485   -4.2010    3.3736 O   0  0  0  0  0  0  0  0  0  0  0  0
  -10.2440   -4.9752    2.2863 C   0  0  0  0  0  0  0  0  0  0  0  0
  -10.5313   -4.3138    1.1183 N   0  0  0  0  0  0  0  0  0  0  0  0
   -9.7406   -4.5729    0.0366 C   0  0  0  0  0  0  0  0  0  0  0  0
  -10.1303   -4.0575   -1.1869 C   0  0  0  0  0  0  0  0  0  0  0  0
   -9.3947   -4.2737   -2.3020 C   0  0  0  0  0  0  0  0  0  0  0  0
   -9.8584   -3.6916   -3.5991 C   0  0  0  0  0  0  0  0  0  0  0  0
   -8.2514   -5.0086   -2.2395 C   0  0  0  0  0  0  0  0  0  0  0  0
   -7.4490   -5.2482   -3.4768 C   0  0  0  0  0  0  0  0  0  0  0  0
   -7.8296   -5.5335   -1.0608 C   0  0  0  0  0  0  0  0  0  0  0  0
   -8.5507   -5.3397    0.1174 C   0  0  0  0  0  0  0  0  0  0  0  0
   -8.1680   -5.8530    1.3744 N   0  0  0  0  0  0  0  0  0  0  0  0
   -9.0548   -5.7741    2.4677 C   0  0  0  0  0  0  0  0  0  0  0  0
   -6.6934   -5.9425    1.6842 C   0  0  0  0  0  0  0  0  0  0  0  0
   -6.0150   -7.3224    1.4275 C   0  0  1  0  0  0  0  0  0  0  0  0
   -6.8977   -8.1764    0.7137 O   0  0  0  0  0  0  0  0  0  0  0  0
   -4.6345   -7.2049    0.7388 C   0  0  1  0  0  0  0  0  0  0  0  0
   -4.7558   -6.4984   -0.4923 O   0  0  0  0  0  0  0  0  0  0  0  0
   -3.4806   -6.6050    1.5794 C   0  0  1  0  0  0  0  0  0  0  0  0
   -3.2773   -7.4332    2.7190 O   0  0  0  0  0  0  0  0  0  0  0  0
   -2.1532   -6.5037    0.7950 C   0  0  0  0  0  0  0  0  0  0  0  0
   -1.7408   -7.7560    0.2604 O   0  0  0  0  0  0  0  0  0  0  0  0
   -0.3828   -7.9423   -0.5348 P   0  0  0  0  0  0  0  0  0  0  0  0
   -0.3848   -7.1406   -1.7795 O   0  0  0  0  0  0  0  0  0  0  0  0
    0.7753   -7.8299    0.3779 O   0  5  0  0  0  0  0  0  0  0  0  0
   -0.4283   -9.4617   -1.0083 O   0  5  0  0  0  0  0  0  0  0  0  0
  1 18  1  0  0  0  0
  1  2  1  0  0  0  0
  2  4  1  0  0  0  0
  2  3  2  0  0  0  0
  4  5  1  0  0  0  0
  5  7  1  0  0  0  0
  5  6  2  0  0  0  0
  7 18  2  0  0  0  0
  7  8  1  0  0  0  0
  8  9  1  0  0  0  0
  9 10  2  0  0  0  0
  9 16  1  0  0  0  0
 10 11  1  0  0  0  0
 11 12  1  0  0  0  0
 11 13  2  0  0  0  0
 13 14  1  0  0  0  0
 13 15  1  0  0  0  0
 15 16  2  0  0  0  0
 16 17  1  0  0  0  0
 17 19  1  0  0  0  0
 17 18  1  0  0  0  0
 20 19  1  6  0  0  0
 20 22  1  0  0  0  0
 20 21  1  0  0  0  0
 22 24  1  0  0  0  0
 22 23  1  6  0  0  0
 24 26  1  6  0  0  0
 24 25  1  0  0  0  0
 26 27  1  0  0  0  0
 27 28  1  0  0  0  0
 28 30  1  0  0  0  0
 28 29  2  0  0  0  0
 28 31  1  0  0  0  0
M  CHG  2  30  -1  31  -1
M  END
>  <CHROM.1>
-96.16821003,10.42489568,-56.93424455,179.72808376,60.54822001,52.11415960
-55.83002491,-176.20230274,-177.36954284,-63.21736226,-6.40814996,-6.23313877
0.78039957,-2.99760185,0.33367356,-1.31394364

>  <Name>
1fmn_cryst

>  <RI>
0

>  <Rbt.Current_Directory>
/home/itssahil/PROJECTS/Mol_Feturizer/New_Systems/rnas/1fmn

>  <Rbt.Executable>
rbdock ($Id: //depot/dev/client3/rdock/2013.1/src/exe/rbdock.cxx#4 $)

>  <Rbt.Library>
libRbt.so (2013.1, Build901 2013/11/27)

>  <Rbt.Parameter_File>
/export/apps/rDock/src/rDock_2013.1_src/data/scripts/dock_solv.prm

>  <Rbt.Receptor>
prm/pocket_docking_8.prm

>  <SCORE>
-58.4908

>  <SCORE.INTER>
-53.0978

>  <SCORE.INTER.CONST>
1

>  <SCORE.INTER.POLAR>
-3.24863

>  <SCORE.INTER.ROT>
7

>  <SCORE.INTER.SOLV>
20.8072

>  <SCORE.INTER.VDW>
-39.7722

>  <SCORE.INTER.norm>
-1.71283

>  <SCORE.INTRA>
-5.393

>  <SCORE.INTRA.DIHEDRAL>
-7.52235

>  <SCORE.INTRA.DIHEDRAL.0>
15.5708

>  <SCORE.INTRA.POLAR>
0.0677885

>  <SCORE.INTRA.POLAR.0>
-0.0677885

>  <SCORE.INTRA.REPUL>
0

>  <SCORE.INTRA.REPUL.0>
0

>  <SCORE.INTRA.SOLV>
-4.29716

>  <SCORE.INTRA.SOLV.lig_0>
-87.6316

>  <SCORE.INTRA.VDW>
0.28628

>  <SCORE.INTRA.VDW.0>
-2.87309

>  <SCORE.INTRA.norm>
-0.173968

>  <SCORE.RESTR>
0

>  <SCORE.RESTR.CAVITY>
0

>  <SCORE.RESTR.norm>
0

>  <SCORE.SYSTEM>
0

>  <SCORE.SYSTEM.CONST>
0

>  <SCORE.SYSTEM.DIHEDRAL>
0

>  <SCORE.SYSTEM.SOLV>
0

>  <SCORE.SYSTEM.norm>
0

>  <SCORE.heavy>
31

>  <SCORE.norm>
-1.8868

>  <SYMMETRIC_BONDS>
33 34 3

>  <RMSD>
3.137

$$$$
1fmn_cryst
 OpenBabel11021811393D
libRbt.so/2013.1/901 2013/11/27
 31 33  0  0  0  0  0  0  0  0999 V2000
   -9.0317   -6.6218    3.7081 N   0  0  0  0  0  0  0  0  0  0  0  0
   -9.8531   -6.6472    4.8110 C   0  0  0  0  0  0  0  0  0  0  0  0
   -9.5677   -7.2885    5.8228 O   0  0  0  0  0  0  0  0  0  0  0  0
  -11.0491   -5.8934    4.7067 N   0  0  0  0  0  0  0  0  0  0  0  0
  -11.4726   -5.1318    3.5956 C   0  0  0  0  0  0  0  0  0  0  0  0
  -12.5456   -4.5168    3.6398 O   0  0  0  0  0  0  0  0  0  0  0  0
  -10.5443   -5.1568    2.4630 C   0  0  0  0  0  0  0  0  0  0  0  0
  -10.8832   -4.4402    1.3423 N   0  0  0  0  0  0  0  0  0  0  0  0
  -10.1119   -4.6092    0.2292 C   0  0  0  0  0  0  0  0  0  0  0  0
  -10.5496   -4.0387   -0.9529 C   0  0  0  0  0  0  0  0  0  0  0  0
   -9.8356   -4.1649   -2.0955 C   0  0  0  0  0  0  0  0  0  0  0  0
  -10.3514   -3.5263   -3.3455 C   0  0  0  0  0  0  0  0  0  0  0  0
   -8.6670   -4.8616   -2.1025 C   0  0  0  0  0  0  0  0  0  0  0  0
   -7.8886   -5.0018   -3.3700 C   0  0  0  0  0  0  0  0  0  0  0  0
   -8.1980   -5.4378   -0.9663 C   0  0  0  0  0  0  0  0  0  0  0  0
   -8.8951   -5.3371    0.2376 C   0  0  0  0  0  0  0  0  0  0  0  0
   -8.4637   -5.9076    1.4534 N   0  0  0  0  0  0  0  0  0  0  0  0
   -9.3246   -5.9225    2.5699 C   0  0  0  0  0  0  0  0  0  0  0  0
   -6.9795   -5.9629    1.7231 C   0  0  0  0  0  0  0  0  0  0  0  0
   -6.5396   -5.7957    3.2092 C   0  0  1  0  0  0  0  0  0  0  0  0
   -6.2876   -7.0669    3.7909 O   0  0  0  0  0  0  0  0  0  0  0  0
   -5.3462   -4.8270    3.3870 C   0  0  1  0  0  0  0  0  0  0  0  0
   -5.7907   -3.5933    3.9437 O   0  0  0  0  0  0  0  0  0  0  0  0
   -4.1271   -5.3554    4.1823 C   0  0  1  0  0  0  0  0  0  0  0  0
   -3.6806   -6.5611    3.5717 O   0  0  0  0  0  0  0  0  0  0  0  0
   -2.9522   -4.3526    4.2209 C   0  0  0  0  0  0  0  0  0  0  0  0
   -3.2500   -3.1960    4.9941 O   0  0  0  0  0  0  0  0  0  0  0  0
   -2.2745   -1.9503    5.0823 P   0  0  0  0  0  0  0  0  0  0  0  0
   -0.8725   -2.3888    5.2677 O   0  0  0  0  0  0  0  0  0  0  0  0
   -2.5756   -0.9756    4.0117 O   0  5  0  0  0  0  0  0  0  0  0  0
   -2.6839   -1.2466    6.4505 O   0  5  0  0  0  0  0  0  0  0  0  0
  1 18  1  0  0  0  0
  1  2  1  0  0  0  0
  2  4  1  0  0  0  0
  2  3  2  0  0  0  0
  4  5  1  0  0  0  0
  5  7  1  0  0  0  0
  5  6  2  0  0  0  0
  7 18  2  0  0  0  0
  7  8  1  0  0  0  0
  8  9  1  0  0  0  0
  9 10  2  0  0  0  0
  9 16  1  0  0  0  0
 10 11  1  0  0  0  0
 11 12  1  0  0  0  0
 11 13  2  0  0  0  0
 13 14  1  0  0  0  0
 13 15  1  0  0  0  0
 15 16  2  0  0  0  0
 16 17  1  0  0  0  0
 17 19  1  0  0  0  0
 17 18  1  0  0  0  0
 20 19  1  6  0  0  0
 20 22  1  0  0  0  0
 20 21  1  0  0  0  0
 22 24  1  0  0  0  0
 22 23  1  1  0  0  0
 24 26  1  6  0  0  0
 24 25  1  0  0  0  0
 26 27  1  0  0  0  0
 27 28  1  0  0  0  0
 28 30  1  0  0  0  0
 28 29  2  0  0  0  0
 28 31  1  0  0  0  0
M  CHG  2  30  -1  31  -1
M  END
>  <CHROM.1>
146.04117247,98.71637241,106.21805926,74.46050646,55.39800875,173.85719010
68.49022673,179.89521205,-173.91987608,-44.15746886,-7.08983263,-4.62618990
2.66266218,2.68976171,-0.39270492,-1.34985487

>  <Name>
1fmn_cryst

>  <RI>
0

>  <Rbt.Current_Directory>
/home/itssahil/PROJECTS/Mol_Feturizer/New_Systems/rnas/1fmn

>  <Rbt.Executable>
rbdock ($Id: //depot/dev/client3/rdock/2013.1/src/exe/rbdock.cxx#4 $)

>  <Rbt.Library>
libRbt.so (2013.1, Build901 2013/11/27)

>  <Rbt.Parameter_File>
/export/apps/rDock/src/rDock_2013.1_src/data/scripts/dock_solv.prm

>  <Rbt.Receptor>
prm/pocket_docking_7.prm

>  <SCORE>
-65.148

>  <SCORE.INTER>
-60.1382

>  <SCORE.INTER.CONST>
1

>  <SCORE.INTER.POLAR>
-4.58735

>  <SCORE.INTER.ROT>
7

>  <SCORE.INTER.SOLV>
27.2314

>  <SCORE.INTER.VDW>
-42.1448

>  <SCORE.INTER.norm>
-1.93994

>  <SCORE.INTRA>
-5.00973

>  <SCORE.INTRA.DIHEDRAL>
-2.37207

>  <SCORE.INTRA.DIHEDRAL.0>
15.5708

>  <SCORE.INTRA.POLAR>
-2.05755

>  <SCORE.INTRA.POLAR.0>
-0.0677885

>  <SCORE.INTRA.REPUL>
0

>  <SCORE.INTRA.REPUL.0>
0

>  <SCORE.INTRA.SOLV>
-2.84992

>  <SCORE.INTRA.SOLV.lig_0>
-87.6316

>  <SCORE.INTRA.VDW>
4.59694

>  <SCORE.INTRA.VDW.0>
-2.87309

>  <SCORE.INTRA.norm>
-0.161604

>  <SCORE.RESTR>
0

>  <SCORE.RESTR.CAVITY>
0

>  <SCORE.RESTR.norm>
0

>  <SCORE.SYSTEM>
0

>  <SCORE.SYSTEM.CONST>
0

>  <SCORE.SYSTEM.DIHEDRAL>
0

>  <SCORE.SYSTEM.SOLV>
0

>  <SCORE.SYSTEM.norm>
0

>  <SCORE.heavy>
31

>  <SCORE.norm>
-2.10155

>  <SYMMETRIC_BONDS>
33 34 3

>  <RMSD>
3.146

$$$$
1fmn_cryst
 OpenBabel11021811393D
libRbt.so/2013.1/901 2013/11/27
 31 33  0  0  0  0  0  0  0  0999 V2000
   -8.7566   -6.1818    3.6992 N   0  0  0  0  0  0  0  0  0  0  0  0
   -9.5565   -6.2287    4.8171 C   0  0  0  0  0  0  0  0  0  0  0  0
   -9.1878   -6.7672    5.8614 O   0  0  0  0  0  0  0  0  0  0  0  0
  -10.8318   -5.6231    4.6889 N   0  0  0  0  0  0  0  0  0  0  0  0
  -11.3526   -4.9873    3.5406 C   0  0  0  0  0  0  0  0  0  0  0  0
  -12.4880   -4.4958    3.5670 O   0  0  0  0  0  0  0  0  0  0  0  0
  -10.4412   -4.9801    2.3942 C   0  0  0  0  0  0  0  0  0  0  0  0
  -10.8730   -4.3800    1.2376 N   0  0  0  0  0  0  0  0  0  0  0  0
  -10.1008   -4.5321    0.1226 C   0  0  0  0  0  0  0  0  0  0  0  0
  -10.6149   -4.0920   -1.0843 C   0  0  0  0  0  0  0  0  0  0  0  0
   -9.9050   -4.2100   -2.2303 C   0  0  0  0  0  0  0  0  0  0  0  0
  -10.5052   -3.7155   -3.5076 C   0  0  0  0  0  0  0  0  0  0  0  0
   -8.6648   -4.7693   -2.2161 C   0  0  0  0  0  0  0  0  0  0  0  0
   -7.8907   -4.9020   -3.4871 C   0  0  0  0  0  0  0  0  0  0  0  0
   -8.1195   -5.2145   -1.0554 C   0  0  0  0  0  0  0  0  0  0  0  0
   -8.8091   -5.1159    0.1531 C   0  0  0  0  0  0  0  0  0  0  0  0
   -8.3008   -5.5545    1.3937 N   0  0  0  0  0  0  0  0  0  0  0  0
   -9.1410   -5.5947    2.5253 C   0  0  0  0  0  0  0  0  0  0  0  0
   -6.8170   -5.4244    1.6377 C   0  0  0  0  0  0  0  0  0  0  0  0
   -6.0060   -6.7545    1.6952 C   0  0  1  0  0  0  0  0  0  0  0  0
   -6.6202   -7.7381    0.8748 O   0  0  0  0  0  0  0  0  0  0  0  0
   -4.5068   -6.5701    1.3599 C   0  0  1  0  0  0  0  0  0  0  0  0
   -3.7121   -6.7712    2.5251 O   0  0  0  0  0  0  0  0  0  0  0  0
   -3.9429   -7.4081    0.1862 C   0  0  1  0  0  0  0  0  0  0  0  0
   -2.9847   -6.6186   -0.5100 O   0  0  0  0  0  0  0  0  0  0  0  0
   -3.2657   -8.7169    0.6509 C   0  0  0  0  0  0  0  0  0  0  0  0
   -2.5592   -9.3660   -0.3996 O   0  0  0  0  0  0  0  0  0  0  0  0
   -1.7520  -10.7127   -0.1845 P   0  0  0  0  0  0  0  0  0  0  0  0
   -1.1707  -10.7690    1.1760 O   0  0  0  0  0  0  0  0  0  0  0  0
   -2.5325  -11.8714   -0.6694 O   0  5  0  0  0  0  0  0  0  0  0  0
   -0.5106  -10.5701   -1.1711 O   0  5  0  0  0  0  0  0  0  0  0  0
  1 18  1  0  0  0  0
  1  2  1  0  0  0  0
  2  4  1  0  0  0  0
  2  3  2  0  0  0  0
  4  5  1  0  0  0  0
  5  7  1  0  0  0  0
  5  6  2  0  0  0  0
  7 18  2  0  0  0  0
  7  8  1  0  0  0  0
  8  9  1  0  0  0  0
  9 10  2  0  0  0  0
  9 16  1  0  0  0  0
 10 11  1  0  0  0  0
 11 12  1  0  0  0  0
 11 13  2  0  0  0  0
 13 14  1  0  0  0  0
 13 15  1  0  0  0  0
 15 16  2  0  0  0  0
 16 17  1  0  0  0  0
 17 19  1  0  0  0  0
 17 18  1  0  0  0  0
 20 19  1  6  0  0  0
 20 22  1  0  0  0  0
 20 21  1  0  0  0  0
 22 24  1  0  0  0  0
 22 23  1  1  0  0  0
 24 26  1  1  0  0  0
 24 25  1  0  0  0  0
 26 27  1  0  0  0  0
 27 28  1  0  0  0  0
 28 30  1  0  0  0  0
 28 29  2  0  0  0  0
 28 31  1  0  0  0  0
M  CHG  2  30  -1  31  -1
M  END
>  <CHROM.1>
-110.48168162,29.66112055,110.66540366,-45.15274895,143.65356064,-60.47373791
-170.15630695,-167.57807210,178.78017183,-32.99706966,-6.78811369,-6.74372082
0.86077878,-3.10148146,0.56354544,-1.31900521

>  <Name>
1fmn_cryst

>  <RI>
0

>  <Rbt.Current_Directory>
/home/itssahil/PROJECTS/Mol_Feturizer/New_Systems/rnas/1fmn

>  <Rbt.Executable>
rbdock ($Id: //depot/dev/client3/rdock/2013.1/src/exe/rbdock.cxx#4 $)

>  <Rbt.Library>
libRbt.so (2013.1, Build901 2013/11/27)

>  <Rbt.Parameter_File>
/export/apps/rDock/src/rDock_2013.1_src/data/scripts/dock_solv.prm

>  <Rbt.Receptor>
prm/pocket_docking_6.prm

>  <SCORE>
-58.5629

>  <SCORE.INTER>
-57.7768

>  <SCORE.INTER.CONST>
1

>  <SCORE.INTER.POLAR>
-3.57339

>  <SCORE.INTER.ROT>
7

>  <SCORE.INTER.SOLV>
22.1494

>  <SCORE.INTER.VDW>
-42.2563

>  <SCORE.INTER.norm>
-1.86377

>  <SCORE.INTRA>
-0.786101

>  <SCORE.INTRA.DIHEDRAL>
1.58086

>  <SCORE.INTRA.DIHEDRAL.0>
15.5708

>  <SCORE.INTRA.POLAR>
-0.053442

>  <SCORE.INTRA.POLAR.0>
-0.0677885

>  <SCORE.INTRA.REPUL>
0

>  <SCORE.INTRA.REPUL.0>
0

>  <SCORE.INTRA.SOLV>
-4.96243

>  <SCORE.INTRA.SOLV.lig_0>
-87.6316

>  <SCORE.INTRA.VDW>
1.08638

>  <SCORE.INTRA.VDW.0>
-2.87309

>  <SCORE.INTRA.norm>
-0.0253581

>  <SCORE.RESTR>
0

>  <SCORE.RESTR.CAVITY>
0

>  <SCORE.RESTR.norm>
0

>  <SCORE.SYSTEM>
0

>  <SCORE.SYSTEM.CONST>
0

>  <SCORE.SYSTEM.DIHEDRAL>
0

>  <SCORE.SYSTEM.SOLV>
0

>  <SCORE.SYSTEM.norm>
0

>  <SCORE.heavy>
31

>  <SCORE.norm>
-1.88913

>  <SYMMETRIC_BONDS>
33 34 3

>  <RMSD>
3.210

$$$$
1fmn_cryst
 OpenBabel11021811393D
libRbt.so/2013.1/901 2013/11/27
 31 33  0  0  0  0  0  0  0  0999 V2000
   -8.9127   -6.2559    3.6575 N   0  0  0  0  0  0  0  0  0  0  0  0
   -9.6929   -6.2383    4.7900 C   0  0  0  0  0  0  0  0  0  0  0  0
   -9.3627   -6.8282    5.8193 O   0  0  0  0  0  0  0  0  0  0  0  0
  -10.9013   -5.5034    4.6951 N   0  0  0  0  0  0  0  0  0  0  0  0
  -11.3748   -4.7996    3.5661 C   0  0  0  0  0  0  0  0  0  0  0  0
  -12.4530   -4.1949    3.6213 O   0  0  0  0  0  0  0  0  0  0  0  0
  -10.4881   -4.8677    2.4023 C   0  0  0  0  0  0  0  0  0  0  0  0
  -10.8767   -4.2084    1.2627 N   0  0  0  0  0  0  0  0  0  0  0  0
  -10.1445   -4.4211    0.1309 C   0  0  0  0  0  0  0  0  0  0  0  0
  -10.6323   -3.9117   -1.0595 C   0  0  0  0  0  0  0  0  0  0  0  0
   -9.9589   -4.0837   -2.2207 C   0  0  0  0  0  0  0  0  0  0  0  0
  -10.5280   -3.5103   -3.4791 C   0  0  0  0  0  0  0  0  0  0  0  0
   -8.7826   -4.7672   -2.2384 C   0  0  0  0  0  0  0  0  0  0  0  0
   -8.0493   -4.9584   -3.5259 C   0  0  0  0  0  0  0  0  0  0  0  0
   -8.2652   -5.2841   -1.0948 C   0  0  0  0  0  0  0  0  0  0  0  0
   -8.9192   -5.1345    0.1281 C   0  0  0  0  0  0  0  0  0  0  0  0
   -8.4364   -5.6424    1.3525 N   0  0  0  0  0  0  0  0  0  0  0  0
   -9.2558   -5.6141    2.4995 C   0  0  0  0  0  0  0  0  0  0  0  0
   -6.9428   -5.6687    1.5692 C   0  0  0  0  0  0  0  0  0  0  0  0
   -6.2972   -7.0736    1.7682 C   0  0  1  0  0  0  0  0  0  0  0  0
   -6.6970   -7.9484    0.7227 O   0  0  0  0  0  0  0  0  0  0  0  0
   -4.7591   -7.0213    1.9275 C   0  0  1  0  0  0  0  0  0  0  0  0
   -4.2263   -8.3400    2.0095 O   0  0  0  0  0  0  0  0  0  0  0  0
   -3.9731   -6.1997    0.8762 C   0  0  1  0  0  0  0  0  0  0  0  0
   -4.0549   -4.8232    1.2290 O   0  0  0  0  0  0  0  0  0  0  0  0
   -2.4841   -6.6027    0.7868 C   0  0  0  0  0  0  0  0  0  0  0  0
   -1.8236   -6.0003   -0.3199 O   0  0  0  0  0  0  0  0  0  0  0  0
   -0.2826   -6.2175   -0.6193 P   0  0  0  0  0  0  0  0  0  0  0  0
    0.0238   -7.6550   -0.7976 O   0  0  0  0  0  0  0  0  0  0  0  0
    0.1893   -5.2607   -1.6435 O   0  5  0  0  0  0  0  0  0  0  0  0
    0.4290   -5.7971    0.7414 O   0  5  0  0  0  0  0  0  0  0  0  0
  1 18  1  0  0  0  0
  1  2  1  0  0  0  0
  2  4  1  0  0  0  0
  2  3  2  0  0  0  0
  4  5  1  0  0  0  0
  5  7  1  0  0  0  0
  5  6  2  0  0  0  0
  7 18  2  0  0  0  0
  7  8  1  0  0  0  0
  8  9  1  0  0  0  0
  9 10  2  0  0  0  0
  9 16  1  0  0  0  0
 10 11  1  0  0  0  0
 11 12  1  0  0  0  0
 11 13  2  0  0  0  0
 13 14  1  0  0  0  0
 13 15  1  0  0  0  0
 15 16  2  0  0  0  0
 16 17  1  0  0  0  0
 17 19  1  0  0  0  0
 17 18  1  0  0  0  0
 20 19  1  6  0  0  0
 20 22  1  0  0  0  0
 20 21  1  0  0  0  0
 22 24  1  0  0  0  0
 22 23  1  6  0  0  0
 24 26  1  1  0  0  0
 24 25  1  0  0  0  0
 26 27  1  0  0  0  0
 27 28  1  0  0  0  0
 28 30  1  0  0  0  0
 28 29  2  0  0  0  0
 28 31  1  0  0  0  0
M  CHG  2  30  -1  31  -1
M  END
>  <CHROM.1>
-117.76721577,51.27707848,-175.88166893,-49.08377676,80.35432942,61.58731160
170.55111295,59.04183334,178.37316933,58.18926840,-6.59418771,-5.70895446
0.87447337,-2.97128009,0.20493533,-1.26981527

>  <Name>
1fmn_cryst

>  <RI>
0

>  <Rbt.Current_Directory>
/home/itssahil/PROJECTS/Mol_Feturizer/New_Systems/rnas/1fmn

>  <Rbt.Executable>
rbdock ($Id: //depot/dev/client3/rdock/2013.1/src/exe/rbdock.cxx#4 $)

>  <Rbt.Library>
libRbt.so (2013.1, Build901 2013/11/27)

>  <Rbt.Parameter_File>
/export/apps/rDock/src/rDock_2013.1_src/data/scripts/dock_solv.prm

>  <Rbt.Receptor>
prm/pocket_docking_7.prm

>  <SCORE>
-55.6754

>  <SCORE.INTER>
-49.7032

>  <SCORE.INTER.CONST>
1

>  <SCORE.INTER.POLAR>
-2.38956

>  <SCORE.INTER.ROT>
7

>  <SCORE.INTER.SOLV>
19.3837

>  <SCORE.INTER.VDW>
-39.8982

>  <SCORE.INTER.norm>
-1.60333

>  <SCORE.INTRA>
-5.97224

>  <SCORE.INTRA.DIHEDRAL>
-10.3969

>  <SCORE.INTRA.DIHEDRAL.0>
15.5708

>  <SCORE.INTRA.POLAR>
0.0457787

>  <SCORE.INTRA.POLAR.0>
-0.0677885

>  <SCORE.INTRA.REPUL>
0

>  <SCORE.INTRA.REPUL.0>
0

>  <SCORE.INTRA.SOLV>
-4.73389

>  <SCORE.INTRA.SOLV.lig_0>
-87.6316

>  <SCORE.INTRA.VDW>
1.43748

>  <SCORE.INTRA.VDW.0>
-2.87309

>  <SCORE.INTRA.norm>
-0.192653

>  <SCORE.RESTR>
0

>  <SCORE.RESTR.CAVITY>
0

>  <SCORE.RESTR.norm>
0

>  <SCORE.SYSTEM>
0

>  <SCORE.SYSTEM.CONST>
0

>  <SCORE.SYSTEM.DIHEDRAL>
0

>  <SCORE.SYSTEM.SOLV>
0

>  <SCORE.SYSTEM.norm>
0

>  <SCORE.heavy>
31

>  <SCORE.norm>
-1.79598

>  <SYMMETRIC_BONDS>
33 34 3

>  <RMSD>
3.220

$$$$
1fmn_cryst
 OpenBabel11021811393D
libRbt.so/2013.1/901 2013/11/27
 31 33  0  0  0  0  0  0  0  0999 V2000
   -8.6489   -6.4628    3.3932 N   0  0  0  0  0  0  0  0  0  0  0  0
   -9.4364   -6.4194    4.5199 C   0  0  0  0  0  0  0  0  0  0  0  0
   -9.1424   -7.0339    5.5458 O   0  0  0  0  0  0  0  0  0  0  0  0
  -10.6082   -5.6276    4.4233 N   0  0  0  0  0  0  0  0  0  0  0  0
  -11.0390   -4.8915    3.2978 C   0  0  0  0  0  0  0  0  0  0  0  0
  -12.0881   -4.2373    3.3510 O   0  0  0  0  0  0  0  0  0  0  0  0
  -10.1474   -4.9901    2.1400 C   0  0  0  0  0  0  0  0  0  0  0  0
  -10.4955   -4.3024    1.0042 N   0  0  0  0  0  0  0  0  0  0  0  0
   -9.7651   -4.5385   -0.1242 C   0  0  0  0  0  0  0  0  0  0  0  0
  -10.2190   -3.9953   -1.3131 C   0  0  0  0  0  0  0  0  0  0  0  0
   -9.5452   -4.1878   -2.4708 C   0  0  0  0  0  0  0  0  0  0  0  0
  -10.0768   -3.5762   -3.7277 C   0  0  0  0  0  0  0  0  0  0  0  0
   -8.4022   -4.9256   -2.4865 C   0  0  0  0  0  0  0  0  0  0  0  0
   -7.6685   -5.1388   -3.7704 C   0  0  0  0  0  0  0  0  0  0  0  0
   -7.9188   -5.4772   -1.3442 C   0  0  0  0  0  0  0  0  0  0  0  0
   -8.5747   -5.3087   -0.1249 C   0  0  0  0  0  0  0  0  0  0  0  0
   -8.1260   -5.8504    1.0980 N   0  0  0  0  0  0  0  0  0  0  0  0
   -8.9523   -5.7946    2.2391 C   0  0  0  0  0  0  0  0  0  0  0  0
   -6.6371   -5.9490    1.3256 C   0  0  0  0  0  0  0  0  0  0  0  0
   -6.1020   -5.3632    2.6675 C   0  0  1  0  0  0  0  0  0  0  0  0
   -6.0626   -6.3763    3.6625 O   0  0  0  0  0  0  0  0  0  0  0  0
   -4.7422   -4.6402    2.5185 C   0  0  1  0  0  0  0  0  0  0  0  0
   -4.8177   -3.6536    1.4935 O   0  0  0  0  0  0  0  0  0  0  0  0
   -4.1326   -4.0225    3.8009 C   0  0  1  0  0  0  0  0  0  0  0  0
   -3.9756   -5.0562    4.7667 O   0  0  0  0  0  0  0  0  0  0  0  0
   -2.7592   -3.3581    3.5557 C   0  0  0  0  0  0  0  0  0  0  0  0
   -2.2295   -2.7556    4.7306 O   0  0  0  0  0  0  0  0  0  0  0  0
   -0.8045   -2.0634    4.7702 P   0  0  0  0  0  0  0  0  0  0  0  0
   -0.6451   -1.1170    3.6428 O   0  0  0  0  0  0  0  0  0  0  0  0
   -0.4901   -1.5953    6.1373 O   0  5  0  0  0  0  0  0  0  0  0  0
    0.2037   -3.2579    4.4678 O   0  5  0  0  0  0  0  0  0  0  0  0
  1 18  1  0  0  0  0
  1  2  1  0  0  0  0
  2  4  1  0  0  0  0
  2  3  2  0  0  0  0
  4  5  1  0  0  0  0
  5  7  1  0  0  0  0
  5  6  2  0  0  0  0
  7 18  2  0  0  0  0
  7  8  1  0  0  0  0
  8  9  1  0  0  0  0
  9 10  2  0  0  0  0
  9 16  1  0  0  0  0
 10 11  1  0  0  0  0
 11 12  1  0  0  0  0
 11 13  2  0  0  0  0
 13 14  1  0  0  0  0
 13 15  1  0  0  0  0
 15 16  2  0  0  0  0
 16 17  1  0  0  0  0
 17 19  1  0  0  0  0
 17 18  1  0  0  0  0
 20 19  1  6  0  0  0
 20 22  1  0  0  0  0
 20 21  1  0  0  0  0
 22 24  1  0  0  0  0
 22 23  1  6  0  0  0
 24 26  1  6  0  0  0
 24 25  1  0  0  0  0
 26 27  1  0  0  0  0
 27 28  1  0  0  0  0
 28 30  1  0  0  0  0
 28 29  2  0  0  0  0
 28 31  1  0  0  0  0
M  CHG  2  30  -1  31  -1
M  END
>  <CHROM.1>
129.44021966,91.82021838,53.41522787,173.38092808,57.81793219,-89.51983635
178.04953361,65.81854837,177.14919526,49.43755661,-6.50485239,-4.44758103
2.26346022,2.72693120,-0.34475697,-1.39748759

>  <Name>
1fmn_cryst

>  <RI>
0

>  <Rbt.Current_Directory>
/home/itssahil/PROJECTS/Mol_Feturizer/New_Systems/rnas/1fmn

>  <Rbt.Executable>
rbdock ($Id: //depot/dev/client3/rdock/2013.1/src/exe/rbdock.cxx#4 $)

>  <Rbt.Library>
libRbt.so (2013.1, Build901 2013/11/27)

>  <Rbt.Parameter_File>
/export/apps/rDock/src/rDock_2013.1_src/data/scripts/dock_solv.prm

>  <Rbt.Receptor>
prm/pocket_docking_8.prm

>  <SCORE>
-58.3077

>  <SCORE.INTER>
-51.763

>  <SCORE.INTER.CONST>
1

>  <SCORE.INTER.POLAR>
-3.22625

>  <SCORE.INTER.ROT>
7

>  <SCORE.INTER.SOLV>
17.7467

>  <SCORE.INTER.VDW>
-37.9368

>  <SCORE.INTER.norm>
-1.66978

>  <SCORE.INTRA>
-6.54467

>  <SCORE.INTRA.DIHEDRAL>
-6.22255

>  <SCORE.INTRA.DIHEDRAL.0>
15.5708

>  <SCORE.INTRA.POLAR>
-0.907921

>  <SCORE.INTRA.POLAR.0>
-0.0677885

>  <SCORE.INTRA.REPUL>
0

>  <SCORE.INTRA.REPUL.0>
0

>  <SCORE.INTRA.SOLV>
-3.66021

>  <SCORE.INTRA.SOLV.lig_0>
-87.6316

>  <SCORE.INTRA.VDW>
1.48364

>  <SCORE.INTRA.VDW.0>
-2.87309

>  <SCORE.INTRA.norm>
-0.211118

>  <SCORE.RESTR>
0

>  <SCORE.RESTR.CAVITY>
0

>  <SCORE.RESTR.norm>
0

>  <SCORE.SYSTEM>
0

>  <SCORE.SYSTEM.CONST>
0

>  <SCORE.SYSTEM.DIHEDRAL>
0

>  <SCORE.SYSTEM.SOLV>
0

>  <SCORE.SYSTEM.norm>
0

>  <SCORE.heavy>
31

>  <SCORE.norm>
-1.88089

>  <SYMMETRIC_BONDS>
33 34 3

>  <RMSD>
3.227

$$$$
1fmn_cryst
 OpenBabel11021811393D
libRbt.so/2013.1/901 2013/11/27
 31 33  0  0  0  0  0  0  0  0999 V2000
   -8.9645   -6.8233    3.7523 N   0  0  0  0  0  0  0  0  0  0  0  0
   -9.8339   -6.7748    4.8169 C   0  0  0  0  0  0  0  0  0  0  0  0
   -9.6380   -7.4168    5.8494 O   0  0  0  0  0  0  0  0  0  0  0  0
  -10.9701   -5.9442    4.6481 N   0  0  0  0  0  0  0  0  0  0  0  0
  -11.2911   -5.1745    3.5085 C   0  0  0  0  0  0  0  0  0  0  0  0
  -12.3206   -4.4881    3.4954 O   0  0  0  0  0  0  0  0  0  0  0  0
  -10.3172   -5.2809    2.4197 C   0  0  0  0  0  0  0  0  0  0  0  0
  -10.5565   -4.5620    1.2751 N   0  0  0  0  0  0  0  0  0  0  0  0
   -9.7497   -4.8011    0.2006 C   0  0  0  0  0  0  0  0  0  0  0  0
  -10.0947   -4.2224   -1.0079 C   0  0  0  0  0  0  0  0  0  0  0  0
   -9.3409   -4.4155   -2.1151 C   0  0  0  0  0  0  0  0  0  0  0  0
   -9.7560   -3.7646   -3.3958 C   0  0  0  0  0  0  0  0  0  0  0  0
   -8.2232   -5.1892   -2.0593 C   0  0  0  0  0  0  0  0  0  0  0  0
   -7.4005   -5.4027   -3.2880 C   0  0  0  0  0  0  0  0  0  0  0  0
   -7.8454   -5.7766   -0.8952 C   0  0  0  0  0  0  0  0  0  0  0  0
   -8.5869   -5.6090    0.2743 C   0  0  0  0  0  0  0  0  0  0  0  0
   -8.2496   -6.1868    1.5162 N   0  0  0  0  0  0  0  0  0  0  0  0
   -9.1583   -6.1250    2.5925 C   0  0  0  0  0  0  0  0  0  0  0  0
   -6.7861   -6.3373    1.8538 C   0  0  0  0  0  0  0  0  0  0  0  0
   -6.0420   -5.0418    2.2992 C   0  0  1  0  0  0  0  0  0  0  0  0
   -6.3888   -4.7138    3.6371 O   0  0  0  0  0  0  0  0  0  0  0  0
   -4.5099   -5.1180    2.0968 C   0  0  1  0  0  0  0  0  0  0  0  0
   -4.2081   -5.6385    0.8054 O   0  0  0  0  0  0  0  0  0  0  0  0
   -3.7050   -3.8181    2.3426 C   0  0  1  0  0  0  0  0  0  0  0  0
   -4.5257   -2.7087    1.9939 O   0  0  0  0  0  0  0  0  0  0  0  0
   -3.2511   -3.6590    3.8110 C   0  0  0  0  0  0  0  0  0  0  0  0
   -3.0128   -2.3011    4.1620 O   0  0  0  0  0  0  0  0  0  0  0  0
   -2.4626   -1.8679    5.5836 P   0  0  0  0  0  0  0  0  0  0  0  0
   -2.7679   -2.8960    6.6043 O   0  0  0  0  0  0  0  0  0  0  0  0
   -1.0751   -1.3679    5.4753 O   0  5  0  0  0  0  0  0  0  0  0  0
   -3.3588   -0.6092    5.9675 O   0  5  0  0  0  0  0  0  0  0  0  0
  1 18  1  0  0  0  0
  1  2  1  0  0  0  0
  2  4  1  0  0  0  0
  2  3  2  0  0  0  0
  4  5  1  0  0  0  0
  5  7  1  0  0  0  0
  5  6  2  0  0  0  0
  7 18  2  0  0  0  0
  7  8  1  0  0  0  0
  8  9  1  0  0  0  0
  9 10  2  0  0  0  0
  9 16  1  0  0  0  0
 10 11  1  0  0  0  0
 11 12  1  0  0  0  0
 11 13  2  0  0  0  0
 13 14  1  0  0  0  0
 13 15  1  0  0  0  0
 15 16  2  0  0  0  0
 16 17  1  0  0  0  0
 17 19  1  0  0  0  0
 17 18  1  0  0  0  0
 20 19  1  1  0  0  0
 20 22  1  0  0  0  0
 20 21  1  0  0  0  0
 22 24  1  0  0  0  0
 22 23  1  6  0  0  0
 24 26  1  1  0  0  0
 24 25  1  0  0  0  0
 26 27  1  0  0  0  0
 27 28  1  0  0  0  0
 28 30  1  0  0  0  0
 28 29  2  0  0  0  0
 28 31  1  0  0  0  0
M  CHG  2  30  -1  31  -1
M  END
>  <CHROM.1>
76.62156417,76.10649609,46.07410805,173.51340882,-31.66561412,-172.78359180
-156.17184736,-56.96966999,-176.58298319,-23.60731312,-6.91958735,-4.47580034
2.43583736,2.61814747,-0.40079606,-1.56640475

>  <Name>
1fmn_cryst

>  <RI>
0

>  <Rbt.Current_Directory>
/home/itssahil/PROJECTS/Mol_Feturizer/New_Systems/rnas/1fmn

>  <Rbt.Executable>
rbdock ($Id: //depot/dev/client3/rdock/2013.1/src/exe/rbdock.cxx#4 $)

>  <Rbt.Library>
libRbt.so (2013.1, Build901 2013/11/27)

>  <Rbt.Parameter_File>
/export/apps/rDock/src/rDock_2013.1_src/data/scripts/dock_solv.prm

>  <Rbt.Receptor>
prm/pocket_docking_8.prm

>  <SCORE>
-62.6304

>  <SCORE.INTER>
-58.3643

>  <SCORE.INTER.CONST>
1

>  <SCORE.INTER.POLAR>
-5.12579

>  <SCORE.INTER.ROT>
7

>  <SCORE.INTER.SOLV>
32.1479

>  <SCORE.INTER.VDW>
-40.8062

>  <SCORE.INTER.norm>
-1.88272

>  <SCORE.INTRA>
-4.26605

>  <SCORE.INTRA.DIHEDRAL>
-6.12277

>  <SCORE.INTRA.DIHEDRAL.0>
15.5708

>  <SCORE.INTRA.POLAR>
0.0677885

>  <SCORE.INTRA.POLAR.0>
-0.0677885

>  <SCORE.INTRA.REPUL>
0

>  <SCORE.INTRA.REPUL.0>
0

>  <SCORE.INTRA.SOLV>
-4.2658

>  <SCORE.INTRA.SOLV.lig_0>
-87.6316

>  <SCORE.INTRA.VDW>
0.697758

>  <SCORE.INTRA.VDW.0>
-2.87309

>  <SCORE.INTRA.norm>
-0.137614

>  <SCORE.RESTR>
0

>  <SCORE.RESTR.CAVITY>
0

>  <SCORE.RESTR.norm>
0

>  <SCORE.SYSTEM>
0

>  <SCORE.SYSTEM.CONST>
0

>  <SCORE.SYSTEM.DIHEDRAL>
0

>  <SCORE.SYSTEM.SOLV>
0

>  <SCORE.SYSTEM.norm>
0

>  <SCORE.heavy>
31

>  <SCORE.norm>
-2.02034

>  <SYMMETRIC_BONDS>
33 34 3

>  <RMSD>
3.243

$$$$
1fmn_cryst
 OpenBabel11021811393D
libRbt.so/2013.1/901 2013/11/27
 31 33  0  0  0  0  0  0  0  0999 V2000
   -9.6256   -4.8803    1.0560 N   0  0  0  0  0  0  0  0  0  0  0  0
  -10.6359   -4.4706    1.8944 C   0  0  0  0  0  0  0  0  0  0  0  0
  -10.6733   -4.7993    3.0806 O   0  0  0  0  0  0  0  0  0  0  0  0
  -11.6320   -3.6516    1.3058 N   0  0  0  0  0  0  0  0  0  0  0  0
  -11.6867   -3.2236   -0.0388 C   0  0  0  0  0  0  0  0  0  0  0  0
  -12.6180   -2.5044   -0.4218 O   0  0  0  0  0  0  0  0  0  0  0  0
  -10.5766   -3.7025   -0.8657 C   0  0  0  0  0  0  0  0  0  0  0  0
  -10.5560   -3.3299   -2.1867 N   0  0  0  0  0  0  0  0  0  0  0  0
   -9.6273   -3.9205   -2.9936 C   0  0  0  0  0  0  0  0  0  0  0  0
   -9.7166   -3.6932   -4.3555 C   0  0  0  0  0  0  0  0  0  0  0  0
   -8.8296   -4.2458   -5.2153 C   0  0  0  0  0  0  0  0  0  0  0  0
   -8.9687   -3.9659   -6.6778 C   0  0  0  0  0  0  0  0  0  0  0  0
   -7.8281   -5.0419   -4.7524 C   0  0  0  0  0  0  0  0  0  0  0  0
   -6.8573   -5.6535   -5.7093 C   0  0  0  0  0  0  0  0  0  0  0  0
   -7.7008   -5.2923   -3.4243 C   0  0  0  0  0  0  0  0  0  0  0  0
   -8.5880   -4.7469   -2.4964 C   0  0  0  0  0  0  0  0  0  0  0  0
   -8.5112   -4.9631   -1.1045 N   0  0  0  0  0  0  0  0  0  0  0  0
   -9.5604   -4.5347   -0.2657 C   0  0  0  0  0  0  0  0  0  0  0  0
   -7.1427   -5.1050   -0.4838 C   0  0  0  0  0  0  0  0  0  0  0  0
   -6.9812   -6.2276    0.5858 C   0  0  1  0  0  0  0  0  0  0  0  0
   -8.1809   -6.9811    0.6893 O   0  0  0  0  0  0  0  0  0  0  0  0
   -5.7468   -7.1285    0.3432 C   0  0  1  0  0  0  0  0  0  0  0  0
   -4.5669   -6.3351    0.2535 O   0  0  0  0  0  0  0  0  0  0  0  0
   -5.5238   -8.2944    1.3375 C   0  0  1  0  0  0  0  0  0  0  0  0
   -4.2584   -8.8846    1.0613 O   0  0  0  0  0  0  0  0  0  0  0  0
   -5.5491   -7.8402    2.8142 C   0  0  0  0  0  0  0  0  0  0  0  0
   -5.2951   -8.9105    3.7164 O   0  0  0  0  0  0  0  0  0  0  0  0
   -5.2348   -8.7105    5.2873 P   0  0  0  0  0  0  0  0  0  0  0  0
   -4.2206   -7.6955    5.6524 O   0  0  0  0  0  0  0  0  0  0  0  0
   -6.5968   -8.5844    5.8493 O   0  5  0  0  0  0  0  0  0  0  0  0
   -4.6609  -10.0959    5.8223 O   0  5  0  0  0  0  0  0  0  0  0  0
  1 18  1  0  0  0  0
  1  2  1  0  0  0  0
  2  4  1  0  0  0  0
  2  3  2  0  0  0  0
  4  5  1  0  0  0  0
  5  7  1  0  0  0  0
  5  6  2  0  0  0  0
  7 18  2  0  0  0  0
  7  8  1  0  0  0  0
  8  9  1  0  0  0  0
  9 10  2  0  0  0  0
  9 16  1  0  0  0  0
 10 11  1  0  0  0  0
 11 12  1  0  0  0  0
 11 13  2  0  0  0  0
 13 14  1  0  0  0  0
 13 15  1  0  0  0  0
 15 16  2  0  0  0  0
 16 17  1  0  0  0  0
 17 19  1  0  0  0  0
 17 18  1  0  0  0  0
 20 19  1  6  0  0  0
 20 22  1  0  0  0  0
 20 21  1  0  0  0  0
 22 24  1  0  0  0  0
 22 23  1  1  0  0  0
 24 26  1  1  0  0  0
 24 25  1  0  0  0  0
 26 27  1  0  0  0  0
 27 28  1  0  0  0  0
 28 30  1  0  0  0  0
 28 29  2  0  0  0  0
 28 31  1  0  0  0  0
M  CHG  2  30  -1  31  -1
M  END
>  <CHROM.1>
-137.63116867,4.42327015,54.95929109,48.43703909,-172.16925181,61.91232654
-177.86619366,60.95399516,178.71134143,-56.83197621,-7.80678485,-5.93219498
0.35631350,2.12745973,0.57170773,-1.35642761

>  <Name>
1fmn_cryst

>  <RI>
0

>  <Rbt.Current_Directory>
/home/itssahil/PROJECTS/Mol_Feturizer/New_Systems/rnas/1fmn

>  <Rbt.Executable>
rbdock ($Id: //depot/dev/client3/rdock/2013.1/src/exe/rbdock.cxx#4 $)

>  <Rbt.Library>
libRbt.so (2013.1, Build901 2013/11/27)

>  <Rbt.Parameter_File>
/export/apps/rDock/src/rDock_2013.1_src/data/scripts/dock_solv.prm

>  <Rbt.Receptor>
prm/pocket_docking_8.prm

>  <SCORE>
-39.5215

>  <SCORE.INTER>
-35.5031

>  <SCORE.INTER.CONST>
1

>  <SCORE.INTER.POLAR>
-1.20746

>  <SCORE.INTER.ROT>
7

>  <SCORE.INTER.SOLV>
22.5173

>  <SCORE.INTER.VDW>
-35.4163

>  <SCORE.INTER.norm>
-1.14526

>  <SCORE.INTRA>
-4.01848

>  <SCORE.INTRA.DIHEDRAL>
-7.50201

>  <SCORE.INTRA.DIHEDRAL.0>
15.5708

>  <SCORE.INTRA.POLAR>
-0.248508

>  <SCORE.INTRA.POLAR.0>
-0.0677885

>  <SCORE.INTRA.REPUL>
0

>  <SCORE.INTRA.REPUL.0>
0

>  <SCORE.INTRA.SOLV>
-4.04699

>  <SCORE.INTRA.SOLV.lig_0>
-87.6316

>  <SCORE.INTRA.VDW>
2.60095

>  <SCORE.INTRA.VDW.0>
-2.87309

>  <SCORE.INTRA.norm>
-0.129628

>  <SCORE.RESTR>
0

>  <SCORE.RESTR.CAVITY>
0

>  <SCORE.RESTR.norm>
0

>  <SCORE.SYSTEM>
0

>  <SCORE.SYSTEM.CONST>
0

>  <SCORE.SYSTEM.DIHEDRAL>
0

>  <SCORE.SYSTEM.SOLV>
0

>  <SCORE.SYSTEM.norm>
0

>  <SCORE.heavy>
31

>  <SCORE.norm>
-1.27489

>  <SYMMETRIC_BONDS>
33 34 3

>  <RMSD>
3.294

$$$$
1fmn_cryst
 OpenBabel11021811393D
libRbt.so/2013.1/901 2013/11/27
 31 33  0  0  0  0  0  0  0  0999 V2000
   -8.9775   -6.1983    3.5291 N   0  0  0  0  0  0  0  0  0  0  0  0
   -9.6688   -6.2423    4.7173 C   0  0  0  0  0  0  0  0  0  0  0  0
   -9.2480   -6.8621    5.6947 O   0  0  0  0  0  0  0  0  0  0  0  0
  -10.8966   -5.5342    4.7432 N   0  0  0  0  0  0  0  0  0  0  0  0
  -11.4702   -4.8003    3.6819 C   0  0  0  0  0  0  0  0  0  0  0  0
  -12.5539   -4.2248    3.8424 O   0  0  0  0  0  0  0  0  0  0  0  0
  -10.6742   -4.8029    2.4525 C   0  0  0  0  0  0  0  0  0  0  0  0
  -11.1632   -4.1111    1.3724 N   0  0  0  0  0  0  0  0  0  0  0  0
  -10.5154   -4.2631    0.1809 C   0  0  0  0  0  0  0  0  0  0  0  0
  -11.1040   -3.7215   -0.9482 C   0  0  0  0  0  0  0  0  0  0  0  0
  -10.5180   -3.8332   -2.1629 C   0  0  0  0  0  0  0  0  0  0  0  0
  -11.1942   -3.2271   -3.3511 C   0  0  0  0  0  0  0  0  0  0  0  0
   -9.3321   -4.4865   -2.2966 C   0  0  0  0  0  0  0  0  0  0  0  0
   -8.6957   -4.6111   -3.6425 C   0  0  0  0  0  0  0  0  0  0  0  0
   -8.7175   -5.0331   -1.2167 C   0  0  0  0  0  0  0  0  0  0  0  0
   -9.2788   -4.9456    0.0572 C   0  0  0  0  0  0  0  0  0  0  0  0
   -8.6928   -5.4871    1.2205 N   0  0  0  0  0  0  0  0  0  0  0  0
   -9.4222   -5.5220    2.4266 C   0  0  0  0  0  0  0  0  0  0  0  0
   -7.1868   -5.4849    1.3222 C   0  0  0  0  0  0  0  0  0  0  0  0
   -6.4324   -6.5278    0.4428 C   0  0  1  0  0  0  0  0  0  0  0  0
   -6.0749   -5.9491   -0.8043 O   0  0  0  0  0  0  0  0  0  0  0  0
   -5.2175   -7.1648    1.1586 C   0  0  1  0  0  0  0  0  0  0  0  0
   -5.1254   -8.5495    0.8367 O   0  0  0  0  0  0  0  0  0  0  0  0
   -3.8434   -6.4823    0.9489 C   0  0  1  0  0  0  0  0  0  0  0  0
   -3.2209   -6.3258    2.2193 O   0  0  0  0  0  0  0  0  0  0  0  0
   -2.9019   -7.2929    0.0301 C   0  0  0  0  0  0  0  0  0  0  0  0
   -2.0300   -6.4601   -0.7250 O   0  0  0  0  0  0  0  0  0  0  0  0
   -0.6428   -6.9689   -1.2978 P   0  0  0  0  0  0  0  0  0  0  0  0
   -0.1177   -6.0342   -2.3190 O   0  0  0  0  0  0  0  0  0  0  0  0
    0.2515   -7.3917   -0.1986 O   0  5  0  0  0  0  0  0  0  0  0  0
   -1.0260   -8.2943   -2.0924 O   0  5  0  0  0  0  0  0  0  0  0  0
  1 18  1  0  0  0  0
  1  2  1  0  0  0  0
  2  4  1  0  0  0  0
  2  3  2  0  0  0  0
  4  5  1  0  0  0  0
  5  7  1  0  0  0  0
  5  6  2  0  0  0  0
  7 18  2  0  0  0  0
  7  8  1  0  0  0  0
  8  9  1  0  0  0  0
  9 10  2  0  0  0  0
  9 16  1  0  0  0  0
 10 11  1  0  0  0  0
 11 12  1  0  0  0  0
 11 13  2  0  0  0  0
 13 14  1  0  0  0  0
 13 15  1  0  0  0  0
 15 16  2  0  0  0  0
 16 17  1  0  0  0  0
 17 19  1  0  0  0  0
 17 18  1  0  0  0  0
 20 19  1  1  0  0  0
 20 22  1  0  0  0  0
 20 21  1  0  0  0  0
 22 24  1  0  0  0  0
 22 23  1  6  0  0  0
 24 26  1  6  0  0  0
 24 25  1  0  0  0  0
 26 27  1  0  0  0  0
 27 28  1  0  0  0  0
 28 30  1  0  0  0  0
 28 29  2  0  0  0  0
 28 31  1  0  0  0  0
M  CHG  2  30  -1  31  -1
M  END
>  <CHROM.1>
-74.17456657,92.69772998,141.26245508,-167.31261622,132.18630819,-173.99832857
148.39348295,-177.30231620,155.98758895,165.24118416,-6.83451659,-5.81669779
0.56006044,-2.93777257,0.30427073,-1.30096866

>  <Name>
1fmn_cryst

>  <RI>
0

>  <Rbt.Current_Directory>
/home/itssahil/PROJECTS/Mol_Feturizer/New_Systems/rnas/1fmn

>  <Rbt.Executable>
rbdock ($Id: //depot/dev/client3/rdock/2013.1/src/exe/rbdock.cxx#4 $)

>  <Rbt.Library>
libRbt.so (2013.1, Build901 2013/11/27)

>  <Rbt.Parameter_File>
/export/apps/rDock/src/rDock_2013.1_src/data/scripts/dock_solv.prm

>  <Rbt.Receptor>
prm/pocket_docking_8.prm

>  <SCORE>
-56.9478

>  <SCORE.INTER>
-58.5875

>  <SCORE.INTER.CONST>
1

>  <SCORE.INTER.POLAR>
-3.60741

>  <SCORE.INTER.ROT>
7

>  <SCORE.INTER.SOLV>
28.1318

>  <SCORE.INTER.VDW>
-44.6776

>  <SCORE.INTER.norm>
-1.88992

>  <SCORE.INTRA>
1.63972

>  <SCORE.INTRA.DIHEDRAL>
4.31825

>  <SCORE.INTRA.DIHEDRAL.0>
15.5708

>  <SCORE.INTRA.POLAR>
0.0677885

>  <SCORE.INTRA.POLAR.0>
-0.0677885

>  <SCORE.INTRA.REPUL>
0

>  <SCORE.INTRA.REPUL.0>
0

>  <SCORE.INTRA.SOLV>
-4.72722

>  <SCORE.INTRA.SOLV.lig_0>
-87.6316

>  <SCORE.INTRA.VDW>
1.61373

>  <SCORE.INTRA.VDW.0>
-2.87309

>  <SCORE.INTRA.norm>
0.0528942

>  <SCORE.RESTR>
0

>  <SCORE.RESTR.CAVITY>
0

>  <SCORE.RESTR.norm>
0

>  <SCORE.SYSTEM>
0

>  <SCORE.SYSTEM.CONST>
0

>  <SCORE.SYSTEM.DIHEDRAL>
0

>  <SCORE.SYSTEM.SOLV>
0

>  <SCORE.SYSTEM.norm>
0

>  <SCORE.heavy>
31

>  <SCORE.norm>
-1.83703

>  <SYMMETRIC_BONDS>
33 34 3

>  <RMSD>
3.414

$$$$
1fmn_cryst
 OpenBabel11021811393D
libRbt.so/2013.1/901 2013/11/27
 31 33  0  0  0  0  0  0  0  0999 V2000
   -9.2560   -5.1602    1.6831 N   0  0  0  0  0  0  0  0  0  0  0  0
  -10.2594   -4.8215    2.5607 C   0  0  0  0  0  0  0  0  0  0  0  0
  -10.2529   -5.1934    3.7346 O   0  0  0  0  0  0  0  0  0  0  0  0
  -11.3019   -4.0228    2.0271 N   0  0  0  0  0  0  0  0  0  0  0  0
  -11.4084   -3.5498    0.7008 C   0  0  0  0  0  0  0  0  0  0  0  0
  -12.3770   -2.8555    0.3675 O   0  0  0  0  0  0  0  0  0  0  0  0
  -10.3024   -3.9539   -0.1702 C   0  0  0  0  0  0  0  0  0  0  0  0
  -10.3310   -3.5340   -1.4768 N   0  0  0  0  0  0  0  0  0  0  0  0
   -9.4011   -4.0577   -2.3274 C   0  0  0  0  0  0  0  0  0  0  0  0
   -9.5349   -3.7860   -3.6775 C   0  0  0  0  0  0  0  0  0  0  0  0
   -8.6496   -4.2716   -4.5785 C   0  0  0  0  0  0  0  0  0  0  0  0
   -8.8377   -3.9456   -6.0259 C   0  0  0  0  0  0  0  0  0  0  0  0
   -7.6058   -5.0427   -4.1699 C   0  0  0  0  0  0  0  0  0  0  0  0
   -6.6371   -5.5803   -5.1722 C   0  0  0  0  0  0  0  0  0  0  0  0
   -7.4341   -5.3348   -2.8554 C   0  0  0  0  0  0  0  0  0  0  0  0
   -8.3176   -4.8589   -1.8866 C   0  0  0  0  0  0  0  0  0  0  0  0
   -8.1961   -5.1212   -0.5058 N   0  0  0  0  0  0  0  0  0  0  0  0
   -9.2390   -4.7654    0.3738 C   0  0  0  0  0  0  0  0  0  0  0  0
   -6.8073   -5.2300    0.0754 C   0  0  0  0  0  0  0  0  0  0  0  0
   -6.5635   -6.4056    1.0697 C   0  0  1  0  0  0  0  0  0  0  0  0
   -7.0263   -7.6255    0.5080 O   0  0  0  0  0  0  0  0  0  0  0  0
   -5.0957   -6.5051    1.5489 C   0  0  1  0  0  0  0  0  0  0  0  0
   -4.2050   -6.2467    0.4674 O   0  0  0  0  0  0  0  0  0  0  0  0
   -4.6990   -5.6467    2.7751 C   0  0  1  0  0  0  0  0  0  0  0  0
   -5.2398   -4.3413    2.6036 O   0  0  0  0  0  0  0  0  0  0  0  0
   -5.2160   -6.2279    4.1102 C   0  0  0  0  0  0  0  0  0  0  0  0
   -6.5848   -5.9183    4.3438 O   0  0  0  0  0  0  0  0  0  0  0  0
   -7.6478   -7.0104    4.7780 P   0  0  0  0  0  0  0  0  0  0  0  0
   -6.9785   -8.2646    5.1916 O   0  0  0  0  0  0  0  0  0  0  0  0
   -8.6639   -6.4207    5.6762 O   0  5  0  0  0  0  0  0  0  0  0  0
   -8.4047   -7.3604    3.4216 O   0  5  0  0  0  0  0  0  0  0  0  0
  1 18  1  0  0  0  0
  1  2  1  0  0  0  0
  2  4  1  0  0  0  0
  2  3  2  0  0  0  0
  4  5  1  0  0  0  0
  5  7  1  0  0  0  0
  5  6  2  0  0  0  0
  7 18  2  0  0  0  0
  7  8  1  0  0  0  0
  8  9  1  0  0  0  0
  9 10  2  0  0  0  0
  9 16  1  0  0  0  0
 10 11  1  0  0  0  0
 11 12  1  0  0  0  0
 11 13  2  0  0  0  0
 13 14  1  0  0  0  0
 13 15  1  0  0  0  0
 15 16  2  0  0  0  0
 16 17  1  0  0  0  0
 17 19  1  0  0  0  0
 17 18  1  0  0  0  0
 20 19  1  6  0  0  0
 20 22  1  0  0  0  0
 20 21  1  0  0  0  0
 22 24  1  0  0  0  0
 22 23  1  6  0  0  0
 24 26  1  1  0  0  0
 24 25  1  0  0  0  0
 26 27  1  0  0  0  0
 27 28  1  0  0  0  0
 28 30  1  0  0  0  0
 28 29  2  0  0  0  0
 28 31  1  0  0  0  0
M  CHG  2  30  -1  31  -1
M  END
>  <CHROM.1>
-136.04867740,49.80050535,-40.06274088,176.90994329,-44.87437166,-174.66813453
-80.20430235,-62.27522256,131.37437096,12.80208717,-8.07536284,-5.37827906
0.79168356,1.35159387,-0.38135422,1.77102488

>  <Name>
1fmn_cryst

>  <RI>
0

>  <Rbt.Current_Directory>
/home/itssahil/PROJECTS/Mol_Feturizer/New_Systems/rnas/1fmn

>  <Rbt.Executable>
rbdock ($Id: //depot/dev/client3/rdock/2013.1/src/exe/rbdock.cxx#4 $)

>  <Rbt.Library>
libRbt.so (2013.1, Build901 2013/11/27)

>  <Rbt.Parameter_File>
/export/apps/rDock/src/rDock_2013.1_src/data/scripts/dock_solv.prm

>  <Rbt.Receptor>
prm/pocket_docking_7.prm

>  <SCORE>
-43.0231

>  <SCORE.INTER>
-42.4242

>  <SCORE.INTER.CONST>
1

>  <SCORE.INTER.POLAR>
-2.77429

>  <SCORE.INTER.ROT>
7

>  <SCORE.INTER.SOLV>
33.3936

>  <SCORE.INTER.VDW>
-38.433

>  <SCORE.INTER.norm>
-1.36852

>  <SCORE.INTRA>
-0.598939

>  <SCORE.INTRA.DIHEDRAL>
-1.39289

>  <SCORE.INTRA.DIHEDRAL.0>
15.5708

>  <SCORE.INTRA.POLAR>
-0.704658

>  <SCORE.INTRA.POLAR.0>
-0.0677885

>  <SCORE.INTRA.REPUL>
0

>  <SCORE.INTRA.REPUL.0>
0

>  <SCORE.INTRA.SOLV>
5.80345

>  <SCORE.INTRA.SOLV.lig_0>
-87.6316

>  <SCORE.INTRA.VDW>
-0.408382

>  <SCORE.INTRA.VDW.0>
-2.87309

>  <SCORE.INTRA.norm>
-0.0193206

>  <SCORE.RESTR>
0

>  <SCORE.RESTR.CAVITY>
0

>  <SCORE.RESTR.norm>
0

>  <SCORE.SYSTEM>
0

>  <SCORE.SYSTEM.CONST>
0

>  <SCORE.SYSTEM.DIHEDRAL>
0

>  <SCORE.SYSTEM.SOLV>
0

>  <SCORE.SYSTEM.norm>
0

>  <SCORE.heavy>
31

>  <SCORE.norm>
-1.38784

>  <SYMMETRIC_BONDS>
33 34 3

>  <RMSD>
3.422

$$$$
1fmn_cryst
 OpenBabel11021811393D
libRbt.so/2013.1/901 2013/11/27
 31 33  0  0  0  0  0  0  0  0999 V2000
   -6.1980   -7.7561    3.8917 N   0  0  0  0  0  0  0  0  0  0  0  0
   -6.5624   -8.1021    5.1720 C   0  0  0  0  0  0  0  0  0  0  0  0
   -5.8472   -8.8049    5.8868 O   0  0  0  0  0  0  0  0  0  0  0  0
   -7.8137   -7.6031    5.6133 N   0  0  0  0  0  0  0  0  0  0  0  0
   -8.7092   -6.7983    4.8755 C   0  0  0  0  0  0  0  0  0  0  0  0
   -9.7740   -6.4291    5.3865 O   0  0  0  0  0  0  0  0  0  0  0  0
   -8.2493   -6.4750    3.5230 C   0  0  0  0  0  0  0  0  0  0  0  0
   -9.0635   -5.6952    2.7400 N   0  0  0  0  0  0  0  0  0  0  0  0
   -8.7208   -5.5462    1.4274 C   0  0  0  0  0  0  0  0  0  0  0  0
   -9.6269   -4.9198    0.5901 C   0  0  0  0  0  0  0  0  0  0  0  0
   -9.3538   -4.7371   -0.7227 C   0  0  0  0  0  0  0  0  0  0  0  0
  -10.3659   -4.0512   -1.5838 C   0  0  0  0  0  0  0  0  0  0  0  0
   -8.1755   -5.1710   -1.2466 C   0  0  0  0  0  0  0  0  0  0  0  0
   -7.8852   -4.9714   -2.6984 C   0  0  0  0  0  0  0  0  0  0  0  0
   -7.2560   -5.7903   -0.4630 C   0  0  0  0  0  0  0  0  0  0  0  0
   -7.4881   -6.0027    0.8958 C   0  0  0  0  0  0  0  0  0  0  0  0
   -6.5759   -6.6351    1.7664 N   0  0  0  0  0  0  0  0  0  0  0  0
   -6.9735   -6.9810    3.0741 C   0  0  0  0  0  0  0  0  0  0  0  0
   -5.1013   -6.4211    1.5250 C   0  0  0  0  0  0  0  0  0  0  0  0
   -4.5886   -4.9528    1.6320 C   0  0  1  0  0  0  0  0  0  0  0  0
   -5.3732   -4.2276    2.5681 O   0  0  0  0  0  0  0  0  0  0  0  0
   -3.0757   -4.8558    1.9412 C   0  0  1  0  0  0  0  0  0  0  0  0
   -2.8116   -5.3171    3.2629 O   0  0  0  0  0  0  0  0  0  0  0  0
   -2.1107   -5.5395    0.9415 C   0  0  1  0  0  0  0  0  0  0  0  0
   -0.7785   -5.1677    1.2772 O   0  0  0  0  0  0  0  0  0  0  0  0
   -2.2167   -7.0810    0.9602 C   0  0  0  0  0  0  0  0  0  0  0  0
   -1.0742   -7.7111    0.3929 O   0  0  0  0  0  0  0  0  0  0  0  0
    0.0211   -8.4480    1.2696 P   0  0  0  0  0  0  0  0  0  0  0  0
   -0.6108   -9.2391    2.3498 O   0  0  0  0  0  0  0  0  0  0  0  0
    1.0250   -9.1053    0.4051 O   0  5  0  0  0  0  0  0  0  0  0  0
    0.7805   -7.2569    2.0041 O   0  5  0  0  0  0  0  0  0  0  0  0
  1 18  1  0  0  0  0
  1  2  1  0  0  0  0
  2  4  1  0  0  0  0
  2  3  2  0  0  0  0
  4  5  1  0  0  0  0
  5  7  1  0  0  0  0
  5  6  2  0  0  0  0
  7 18  2  0  0  0  0
  7  8  1  0  0  0  0
  8  9  1  0  0  0  0
  9 10  2  0  0  0  0
  9 16  1  0  0  0  0
 10 11  1  0  0  0  0
 11 12  1  0  0  0  0
 11 13  2  0  0  0  0
 13 14  1  0  0  0  0
 13 15  1  0  0  0  0
 15 16  2  0  0  0  0
 16 17  1  0  0  0  0
 17 19  1  0  0  0  0
 17 18  1  0  0  0  0
 20 19  1  1  0  0  0
 20 22  1  0  0  0  0
 20 21  1  0  0  0  0
 22 24  1  0  0  0  0
 22 23  1  1  0  0  0
 24 26  1  1  0  0  0
 24 25  1  0  0  0  0
 26 27  1  0  0  0  0
 27 28  1  0  0  0  0
 28 30  1  0  0  0  0
 28 29  2  0  0  0  0
 28 31  1  0  0  0  0
M  CHG  2  30  -1  31  -1
M  END
>  <CHROM.1>
61.65411334,30.42659646,-68.42684204,60.66845736,171.08766045,59.58821574
-160.94977422,-61.25193781,106.18494701,41.35022946,-5.11525000,-6.48796021
1.90332323,3.08644332,0.22268639,-1.16804363

>  <Name>
1fmn_cryst

>  <RI>
0

>  <Rbt.Current_Directory>
/home/itssahil/PROJECTS/Mol_Feturizer/New_Systems/rnas/1fmn

>  <Rbt.Executable>
rbdock ($Id: //depot/dev/client3/rdock/2013.1/src/exe/rbdock.cxx#4 $)

>  <Rbt.Library>
libRbt.so (2013.1, Build901 2013/11/27)

>  <Rbt.Parameter_File>
/export/apps/rDock/src/rDock_2013.1_src/data/scripts/dock_solv.prm

>  <Rbt.Receptor>
prm/pocket_docking_6.prm

>  <SCORE>
-37.7951

>  <SCORE.INTER>
-36.545

>  <SCORE.INTER.CONST>
1

>  <SCORE.INTER.POLAR>
-1.81629

>  <SCORE.INTER.ROT>
7

>  <SCORE.INTER.SOLV>
12.2137

>  <SCORE.INTER.VDW>
-30.647

>  <SCORE.INTER.norm>
-1.17887

>  <SCORE.INTRA>
-1.26715

>  <SCORE.INTRA.DIHEDRAL>
-3.06926

>  <SCORE.INTRA.DIHEDRAL.0>
15.5708

>  <SCORE.INTRA.POLAR>
0.0677885

>  <SCORE.INTRA.POLAR.0>
-0.0677885

>  <SCORE.INTRA.REPUL>
0

>  <SCORE.INTRA.REPUL.0>
0

>  <SCORE.INTRA.SOLV>
-1.09959

>  <SCORE.INTRA.SOLV.lig_0>
-87.6316

>  <SCORE.INTRA.VDW>
0.586791

>  <SCORE.INTRA.VDW.0>
-2.87309

>  <SCORE.INTRA.norm>
-0.0408759

>  <SCORE.RESTR>
0.0170537

>  <SCORE.RESTR.CAVITY>
0.0170537

>  <SCORE.RESTR.norm>
0.00055012

>  <SCORE.SYSTEM>
0

>  <SCORE.SYSTEM.CONST>
0

>  <SCORE.SYSTEM.DIHEDRAL>
0

>  <SCORE.SYSTEM.SOLV>
0

>  <SCORE.SYSTEM.norm>
0

>  <SCORE.heavy>
31

>  <SCORE.norm>
-1.2192

>  <SYMMETRIC_BONDS>
33 34 3

>  <RMSD>
3.446

$$$$
1fmn_cryst
 OpenBabel11021811393D
libRbt.so/2013.1/901 2013/11/27
 31 33  0  0  0  0  0  0  0  0999 V2000
   -6.9019   -7.8402    3.6235 N   0  0  0  0  0  0  0  0  0  0  0  0
   -7.0693   -8.1768    4.9465 C   0  0  0  0  0  0  0  0  0  0  0  0
   -6.3344   -8.9872    5.5119 O   0  0  0  0  0  0  0  0  0  0  0  0
   -8.1429   -7.5363    5.6148 N   0  0  0  0  0  0  0  0  0  0  0  0
   -9.0444   -6.6012    5.0607 C   0  0  0  0  0  0  0  0  0  0  0  0
   -9.9406   -6.1152    5.7622 O   0  0  0  0  0  0  0  0  0  0  0  0
   -8.7999   -6.2970    3.6490 C   0  0  0  0  0  0  0  0  0  0  0  0
   -9.6336   -5.3955    3.0353 N   0  0  0  0  0  0  0  0  0  0  0  0
   -9.5190   -5.2505    1.6832 C   0  0  0  0  0  0  0  0  0  0  0  0
  -10.4721   -4.4876    1.0321 C   0  0  0  0  0  0  0  0  0  0  0  0
  -10.4209   -4.3003   -0.3072 C   0  0  0  0  0  0  0  0  0  0  0  0
  -11.4740   -3.4643   -0.9618 C   0  0  0  0  0  0  0  0  0  0  0  0
   -9.4250   -4.8645   -1.0427 C   0  0  0  0  0  0  0  0  0  0  0  0
   -9.3801   -4.6582   -2.5217 C   0  0  0  0  0  0  0  0  0  0  0  0
   -8.4676   -5.6202   -0.4468 C   0  0  0  0  0  0  0  0  0  0  0  0
   -8.4743   -5.8436    0.9300 C   0  0  0  0  0  0  0  0  0  0  0  0
   -7.5098   -6.6143    1.6126 N   0  0  0  0  0  0  0  0  0  0  0  0
   -7.7047   -6.9474    2.9687 C   0  0  0  0  0  0  0  0  0  0  0  0
   -6.0887   -6.5827    1.1049 C   0  0  0  0  0  0  0  0  0  0  0  0
   -5.1240   -5.5818    1.8103 C   0  0  1  0  0  0  0  0  0  0  0  0
   -5.0213   -5.8927    3.1925 O   0  0  0  0  0  0  0  0  0  0  0  0
   -3.7375   -5.4883    1.1299 C   0  0  1  0  0  0  0  0  0  0  0  0
   -2.9155   -4.5458    1.8123 O   0  0  0  0  0  0  0  0  0  0  0  0
   -2.9641   -6.8148    0.9298 C   0  0  1  0  0  0  0  0  0  0  0  0
   -3.6365   -7.5815   -0.0632 O   0  0  0  0  0  0  0  0  0  0  0  0
   -1.5006   -6.5978    0.4842 C   0  0  0  0  0  0  0  0  0  0  0  0
   -0.6831   -6.0902    1.5321 O   0  0  0  0  0  0  0  0  0  0  0  0
    0.8906   -5.9559    1.4021 P   0  0  0  0  0  0  0  0  0  0  0  0
    1.5240   -7.2858    1.2525 O   0  0  0  0  0  0  0  0  0  0  0  0
    1.2452   -4.8906    0.4397 O   0  5  0  0  0  0  0  0  0  0  0  0
    1.3438   -5.4284    2.8343 O   0  5  0  0  0  0  0  0  0  0  0  0
  1 18  1  0  0  0  0
  1  2  1  0  0  0  0
  2  4  1  0  0  0  0
  2  3  2  0  0  0  0
  4  5  1  0  0  0  0
  5  7  1  0  0  0  0
  5  6  2  0  0  0  0
  7 18  2  0  0  0  0
  7  8  1  0  0  0  0
  8  9  1  0  0  0  0
  9 10  2  0  0  0  0
  9 16  1  0  0  0  0
 10 11  1  0  0  0  0
 11 12  1  0  0  0  0
 11 13  2  0  0  0  0
 13 14  1  0  0  0  0
 13 15  1  0  0  0  0
 15 16  2  0  0  0  0
 16 17  1  0  0  0  0
 17 19  1  0  0  0  0
 17 18  1  0  0  0  0
 20 19  1  6  0  0  0
 20 22  1  0  0  0  0
 20 21  1  0  0  0  0
 22 24  1  0  0  0  0
 22 23  1  1  0  0  0
 24 26  1  6  0  0  0
 24 25  1  0  0  0  0
 26 27  1  0  0  0  0
 27 28  1  0  0  0  0
 28 30  1  0  0  0  0
 28 29  2  0  0  0  0
 28 31  1  0  0  0  0
M  CHG  2  30  -1  31  -1
M  END
>  <CHROM.1>
96.01351102,60.30859837,179.21247790,57.09401612,69.81471205,103.31096068
72.01253444,67.91090737,171.81593118,-64.20354787,-5.51400414,-6.06692527
1.87415254,-3.11561464,0.06555071,-1.15118089

>  <Name>
1fmn_cryst

>  <RI>
0

>  <Rbt.Current_Directory>
/home/itssahil/PROJECTS/Mol_Feturizer/New_Systems/rnas/1fmn

>  <Rbt.Executable>
rbdock ($Id: //depot/dev/client3/rdock/2013.1/src/exe/rbdock.cxx#4 $)

>  <Rbt.Library>
libRbt.so (2013.1, Build901 2013/11/27)

>  <Rbt.Parameter_File>
/export/apps/rDock/src/rDock_2013.1_src/data/scripts/dock_solv.prm

>  <Rbt.Receptor>
prm/pocket_docking_8.prm

>  <SCORE>
-41.2836

>  <SCORE.INTER>
-36.1843

>  <SCORE.INTER.CONST>
1

>  <SCORE.INTER.POLAR>
-1.78326

>  <SCORE.INTER.ROT>
7

>  <SCORE.INTER.SOLV>
15.7111

>  <SCORE.INTER.VDW>
-31.6824

>  <SCORE.INTER.norm>
-1.16724

>  <SCORE.INTRA>
-5.09923

>  <SCORE.INTRA.DIHEDRAL>
-6.99756

>  <SCORE.INTRA.DIHEDRAL.0>
15.5708

>  <SCORE.INTRA.POLAR>
-0.376651

>  <SCORE.INTRA.POLAR.0>
-0.0677885

>  <SCORE.INTRA.REPUL>
0

>  <SCORE.INTRA.REPUL.0>
0

>  <SCORE.INTRA.SOLV>
-3.63932

>  <SCORE.INTRA.SOLV.lig_0>
-87.6316

>  <SCORE.INTRA.VDW>
1.49983

>  <SCORE.INTRA.VDW.0>
-2.87309

>  <SCORE.INTRA.norm>
-0.164491

>  <SCORE.RESTR>
0

>  <SCORE.RESTR.CAVITY>
0

>  <SCORE.RESTR.norm>
0

>  <SCORE.SYSTEM>
0

>  <SCORE.SYSTEM.CONST>
0

>  <SCORE.SYSTEM.DIHEDRAL>
0

>  <SCORE.SYSTEM.SOLV>
0

>  <SCORE.SYSTEM.norm>
0

>  <SCORE.heavy>
31

>  <SCORE.norm>
-1.33173

>  <SYMMETRIC_BONDS>
33 34 3

>  <RMSD>
3.458

$$$$
1fmn_cryst
 OpenBabel11021811393D
libRbt.so/2013.1/901 2013/11/27
 31 33  0  0  0  0  0  0  0  0999 V2000
   -8.7211   -6.7420    3.7324 N   0  0  0  0  0  0  0  0  0  0  0  0
   -9.5994   -6.6359    4.7854 C   0  0  0  0  0  0  0  0  0  0  0  0
   -9.4419   -7.2644    5.8326 O   0  0  0  0  0  0  0  0  0  0  0  0
  -10.6980   -5.7623    4.5868 N   0  0  0  0  0  0  0  0  0  0  0  0
  -10.9740   -5.0032    3.4285 C   0  0  0  0  0  0  0  0  0  0  0  0
  -11.9738   -4.2750    3.3897 O   0  0  0  0  0  0  0  0  0  0  0  0
   -9.9935   -5.1719    2.3536 C   0  0  0  0  0  0  0  0  0  0  0  0
  -10.1899   -4.4671    1.1922 N   0  0  0  0  0  0  0  0  0  0  0  0
   -9.3821   -4.7612    0.1323 C   0  0  0  0  0  0  0  0  0  0  0  0
   -9.6893   -4.1932   -1.0914 C   0  0  0  0  0  0  0  0  0  0  0  0
   -8.9321   -4.4398   -2.1855 C   0  0  0  0  0  0  0  0  0  0  0  0
   -9.3056   -3.7983   -3.4837 C   0  0  0  0  0  0  0  0  0  0  0  0
   -7.8483   -5.2581   -2.1012 C   0  0  0  0  0  0  0  0  0  0  0  0
   -7.0219   -5.5304   -3.3157 C   0  0  0  0  0  0  0  0  0  0  0  0
   -7.5082   -5.8369   -0.9214 C   0  0  0  0  0  0  0  0  0  0  0  0
   -8.2549   -5.6150    0.2357 C   0  0  0  0  0  0  0  0  0  0  0  0
   -7.9557   -6.1811    1.4927 N   0  0  0  0  0  0  0  0  0  0  0  0
   -8.8729   -6.0598    2.5567 C   0  0  0  0  0  0  0  0  0  0  0  0
   -6.5036   -6.3854    1.8505 C   0  0  0  0  0  0  0  0  0  0  0  0
   -5.5762   -5.1395    1.7167 C   0  0  1  0  0  0  0  0  0  0  0  0
   -5.7382   -4.2860    2.8407 O   0  0  0  0  0  0  0  0  0  0  0  0
   -4.0929   -5.5063    1.4732 C   0  0  1  0  0  0  0  0  0  0  0  0
   -3.9593   -6.2425    0.2609 O   0  0  0  0  0  0  0  0  0  0  0  0
   -3.0700   -4.3440    1.4996 C   0  0  1  0  0  0  0  0  0  0  0  0
   -3.1010   -3.7475    2.7916 O   0  0  0  0  0  0  0  0  0  0  0  0
   -1.6261   -4.8051    1.1991 C   0  0  0  0  0  0  0  0  0  0  0  0
   -0.7197   -3.7143    1.0867 O   0  0  0  0  0  0  0  0  0  0  0  0
    0.8149   -3.9081    0.7422 P   0  0  0  0  0  0  0  0  0  0  0  0
    0.9919   -4.8976   -0.3448 O   0  0  0  0  0  0  0  0  0  0  0  0
    1.4922   -2.5987    0.6248 O   0  5  0  0  0  0  0  0  0  0  0  0
    1.4101   -4.5997    2.0470 O   0  5  0  0  0  0  0  0  0  0  0  0
  1 18  1  0  0  0  0
  1  2  1  0  0  0  0
  2  4  1  0  0  0  0
  2  3  2  0  0  0  0
  4  5  1  0  0  0  0
  5  7  1  0  0  0  0
  5  6  2  0  0  0  0
  7 18  2  0  0  0  0
  7  8  1  0  0  0  0
  8  9  1  0  0  0  0
  9 10  2  0  0  0  0
  9 16  1  0  0  0  0
 10 11  1  0  0  0  0
 11 12  1  0  0  0  0
 11 13  2  0  0  0  0
 13 14  1  0  0  0  0
 13 15  1  0  0  0  0
 15 16  2  0  0  0  0
 16 17  1  0  0  0  0
 17 19  1  0  0  0  0
 17 18  1  0  0  0  0
 20 19  1  1  0  0  0
 20 22  1  0  0  0  0
 20 21  1  0  0  0  0
 22 24  1  0  0  0  0
 22 23  1  6  0  0  0
 24 26  1  1  0  0  0
 24 25  1  0  0  0  0
 26 27  1  0  0  0  0
 27 28  1  0  0  0  0
 28 30  1  0  0  0  0
 28 29  2  0  0  0  0
 28 31  1  0  0  0  0
M  CHG  2  30  -1  31  -1
M  END
>  <CHROM.1>
52.71143156,79.28380333,60.78306781,63.87304989,61.32743938,-59.56816592
173.79919075,60.16550610,-178.25218129,43.38151214,-5.86667280,-5.00343466
1.26530973,-3.00568352,-0.10631474,-1.40418864

>  <Name>
1fmn_cryst

>  <RI>
0

>  <Rbt.Current_Directory>
/home/itssahil/PROJECTS/Mol_Feturizer/New_Systems/rnas/1fmn

>  <Rbt.Executable>
rbdock ($Id: //depot/dev/client3/rdock/2013.1/src/exe/rbdock.cxx#4 $)

>  <Rbt.Library>
libRbt.so (2013.1, Build901 2013/11/27)

>  <Rbt.Parameter_File>
/export/apps/rDock/src/rDock_2013.1_src/data/scripts/dock_solv.prm

>  <Rbt.Receptor>
prm/pocket_docking_8.prm

>  <SCORE>
-54.8391

>  <SCORE.INTER>
-47.3738

>  <SCORE.INTER.CONST>
1

>  <SCORE.INTER.POLAR>
-2.78662

>  <SCORE.INTER.ROT>
7

>  <SCORE.INTER.SOLV>
17.1931

>  <SCORE.INTER.VDW>
-36.2915

>  <SCORE.INTER.norm>
-1.52819

>  <SCORE.INTRA>
-7.4653

>  <SCORE.INTRA.DIHEDRAL>
-12.0729

>  <SCORE.INTRA.DIHEDRAL.0>
15.5708

>  <SCORE.INTRA.POLAR>
0.0677885

>  <SCORE.INTRA.POLAR.0>
-0.0677885

>  <SCORE.INTRA.REPUL>
0

>  <SCORE.INTRA.REPUL.0>
0

>  <SCORE.INTRA.SOLV>
-4.84013

>  <SCORE.INTRA.SOLV.lig_0>
-87.6316

>  <SCORE.INTRA.VDW>
0.760751

>  <SCORE.INTRA.VDW.0>
-2.87309

>  <SCORE.INTRA.norm>
-0.240816

>  <SCORE.RESTR>
0

>  <SCORE.RESTR.CAVITY>
0

>  <SCORE.RESTR.norm>
0

>  <SCORE.SYSTEM>
0

>  <SCORE.SYSTEM.CONST>
0

>  <SCORE.SYSTEM.DIHEDRAL>
0

>  <SCORE.SYSTEM.SOLV>
0

>  <SCORE.SYSTEM.norm>
0

>  <SCORE.heavy>
31

>  <SCORE.norm>
-1.769

>  <SYMMETRIC_BONDS>
33 34 3

>  <RMSD>
3.541

$$$$
1fmn_cryst
 OpenBabel11021811393D
libRbt.so/2013.1/901 2013/11/27
 31 33  0  0  0  0  0  0  0  0999 V2000
   -6.5822   -7.7606    3.9047 N   0  0  0  0  0  0  0  0  0  0  0  0
   -6.8374   -8.1239    5.2064 C   0  0  0  0  0  0  0  0  0  0  0  0
   -6.0856   -8.8694    5.8354 O   0  0  0  0  0  0  0  0  0  0  0  0
   -8.0213   -7.5904    5.7750 N   0  0  0  0  0  0  0  0  0  0  0  0
   -8.9507   -6.7359    5.1423 C   0  0  0  0  0  0  0  0  0  0  0  0
   -9.9475   -6.3405    5.7598 O   0  0  0  0  0  0  0  0  0  0  0  0
   -8.6081   -6.3970    3.7592 C   0  0  0  0  0  0  0  0  0  0  0  0
   -9.4617   -5.5693    3.0733 N   0  0  0  0  0  0  0  0  0  0  0  0
   -9.2388   -5.4014    1.7374 C   0  0  0  0  0  0  0  0  0  0  0  0
  -10.1948   -4.7222    1.0031 C   0  0  0  0  0  0  0  0  0  0  0  0
  -10.0398   -4.5180   -0.3256 C   0  0  0  0  0  0  0  0  0  0  0  0
  -11.1013   -3.7751   -1.0724 C   0  0  0  0  0  0  0  0  0  0  0  0
   -8.9338   -4.9819   -0.9680 C   0  0  0  0  0  0  0  0  0  0  0  0
   -8.7740   -4.7580   -2.4365 C   0  0  0  0  0  0  0  0  0  0  0  0
   -7.9691   -5.6530   -0.2883 C   0  0  0  0  0  0  0  0  0  0  0  0
   -8.0802   -5.8895    1.0818 C   0  0  0  0  0  0  0  0  0  0  0  0
   -7.1151   -6.5756    1.8484 N   0  0  0  0  0  0  0  0  0  0  0  0
   -7.4007   -6.9383    3.1807 C   0  0  0  0  0  0  0  0  0  0  0  0
   -5.6626   -6.4098    1.4725 C   0  0  0  0  0  0  0  0  0  0  0  0
   -4.8293   -7.7202    1.3362 C   0  0  1  0  0  0  0  0  0  0  0  0
   -5.6223   -8.7464    0.7566 O   0  0  0  0  0  0  0  0  0  0  0  0
   -3.4944   -7.5185    0.5801 C   0  0  1  0  0  0  0  0  0  0  0  0
   -3.7148   -6.7909   -0.6246 O   0  0  0  0  0  0  0  0  0  0  0  0
   -2.3280   -6.8816    1.3749 C   0  0  1  0  0  0  0  0  0  0  0  0
   -1.1336   -7.5916    1.0665 O   0  0  0  0  0  0  0  0  0  0  0  0
   -2.1181   -5.3871    1.0430 C   0  0  0  0  0  0  0  0  0  0  0  0
   -0.9607   -4.8484    1.6710 O   0  0  0  0  0  0  0  0  0  0  0  0
   -0.4116   -3.3962    1.3534 P   0  0  0  0  0  0  0  0  0  0  0  0
   -0.5711   -3.0731   -0.0827 O   0  0  0  0  0  0  0  0  0  0  0  0
   -0.8980   -2.4241    2.3560 O   0  5  0  0  0  0  0  0  0  0  0  0
    1.1578   -3.5268    1.5875 O   0  5  0  0  0  0  0  0  0  0  0  0
  1 18  1  0  0  0  0
  1  2  1  0  0  0  0
  2  4  1  0  0  0  0
  2  3  2  0  0  0  0
  4  5  1  0  0  0  0
  5  7  1  0  0  0  0
  5  6  2  0  0  0  0
  7 18  2  0  0  0  0
  7  8  1  0  0  0  0
  8  9  1  0  0  0  0
  9 10  2  0  0  0  0
  9 16  1  0  0  0  0
 10 11  1  0  0  0  0
 11 12  1  0  0  0  0
 11 13  2  0  0  0  0
 13 14  1  0  0  0  0
 13 15  1  0  0  0  0
 15 16  2  0  0  0  0
 16 17  1  0  0  0  0
 17 19  1  0  0  0  0
 17 18  1  0  0  0  0
 20 19  1  6  0  0  0
 20 22  1  0  0  0  0
 20 21  1  0  0  0  0
 22 24  1  0  0  0  0
 22 23  1  6  0  0  0
 24 26  1  6  0  0  0
 24 25  1  0  0  0  0
 26 27  1  0  0  0  0
 27 28  1  0  0  0  0
 28 30  1  0  0  0  0
 28 29  2  0  0  0  0
 28 31  1  0  0  0  0
M  CHG  2  30  -1  31  -1
M  END
>  <CHROM.1>
-130.96498452,37.46178770,-48.18778833,-63.08282440,137.31107209,-156.32950849
-173.85351445,-59.52530566,171.98332423,-37.18967989,-5.54381853,-5.86553943
1.78720783,-2.92080858,-0.08379714,-1.03353556

>  <Name>
1fmn_cryst

>  <RI>
0

>  <Rbt.Current_Directory>
/home/itssahil/PROJECTS/Mol_Feturizer/New_Systems/rnas/1fmn

>  <Rbt.Executable>
rbdock ($Id: //depot/dev/client3/rdock/2013.1/src/exe/rbdock.cxx#4 $)

>  <Rbt.Library>
libRbt.so (2013.1, Build901 2013/11/27)

>  <Rbt.Parameter_File>
/export/apps/rDock/src/rDock_2013.1_src/data/scripts/dock_solv.prm

>  <Rbt.Receptor>
prm/pocket_docking_7.prm

>  <SCORE>
-40.7034

>  <SCORE.INTER>
-38.6262

>  <SCORE.INTER.CONST>
1

>  <SCORE.INTER.POLAR>
-2.08931

>  <SCORE.INTER.ROT>
7

>  <SCORE.INTER.SOLV>
18.0947

>  <SCORE.INTER.VDW>
-33.0847

>  <SCORE.INTER.norm>
-1.24601

>  <SCORE.INTRA>
-2.07718

>  <SCORE.INTRA.DIHEDRAL>
-3.22678

>  <SCORE.INTRA.DIHEDRAL.0>
15.5708

>  <SCORE.INTRA.POLAR>
0.0677885

>  <SCORE.INTRA.POLAR.0>
-0.0677885

>  <SCORE.INTRA.REPUL>
0

>  <SCORE.INTRA.REPUL.0>
0

>  <SCORE.INTRA.SOLV>
-4.71587

>  <SCORE.INTRA.SOLV.lig_0>
-87.6316

>  <SCORE.INTRA.VDW>
1.66366

>  <SCORE.INTRA.VDW.0>
-2.87309

>  <SCORE.INTRA.norm>
-0.0670059

>  <SCORE.RESTR>
0

>  <SCORE.RESTR.CAVITY>
0

>  <SCORE.RESTR.norm>
0

>  <SCORE.SYSTEM>
0

>  <SCORE.SYSTEM.CONST>
0

>  <SCORE.SYSTEM.DIHEDRAL>
0

>  <SCORE.SYSTEM.SOLV>
0

>  <SCORE.SYSTEM.norm>
0

>  <SCORE.heavy>
31

>  <SCORE.norm>
-1.31301

>  <SYMMETRIC_BONDS>
33 34 3

>  <RMSD>
3.693

$$$$
1fmn_cryst
 OpenBabel11021811393D
libRbt.so/2013.1/901 2013/11/27
 31 33  0  0  0  0  0  0  0  0999 V2000
   -6.2401   -7.7619    3.8204 N   0  0  0  0  0  0  0  0  0  0  0  0
   -6.5662   -8.1133    5.1095 C   0  0  0  0  0  0  0  0  0  0  0  0
   -5.8307   -8.8202    5.7993 O   0  0  0  0  0  0  0  0  0  0  0  0
   -7.8029   -7.6148    5.5907 N   0  0  0  0  0  0  0  0  0  0  0  0
   -8.7192   -6.8056    4.8837 C   0  0  0  0  0  0  0  0  0  0  0  0
   -9.7676   -6.4373    5.4283 O   0  0  0  0  0  0  0  0  0  0  0  0
   -8.2998   -6.4766    3.5195 C   0  0  0  0  0  0  0  0  0  0  0  0
   -9.1362   -5.6923    2.7649 N   0  0  0  0  0  0  0  0  0  0  0  0
   -8.8330   -5.5378    1.4432 C   0  0  0  0  0  0  0  0  0  0  0  0
   -9.7630   -4.9064    0.6365 C   0  0  0  0  0  0  0  0  0  0  0  0
   -9.5294   -4.7181   -0.6831 C   0  0  0  0  0  0  0  0  0  0  0  0
  -10.5661   -4.0271   -1.5102 C   0  0  0  0  0  0  0  0  0  0  0  0
   -8.3680   -5.1511   -1.2442 C   0  0  0  0  0  0  0  0  0  0  0  0
   -8.1213   -4.9452   -2.7033 C   0  0  0  0  0  0  0  0  0  0  0  0
   -7.4262   -5.7750   -0.4915 C   0  0  0  0  0  0  0  0  0  0  0  0
   -7.6175   -5.9933    0.8727 C   0  0  0  0  0  0  0  0  0  0  0  0
   -6.6803   -6.6308    1.7125 N   0  0  0  0  0  0  0  0  0  0  0  0
   -7.0388   -6.9822    3.0301 C   0  0  0  0  0  0  0  0  0  0  0  0
   -5.2134   -6.4175    1.4278 C   0  0  0  0  0  0  0  0  0  0  0  0
   -4.5603   -7.3880    0.3973 C   0  0  1  0  0  0  0  0  0  0  0  0
   -3.4232   -6.7781   -0.1966 O   0  0  0  0  0  0  0  0  0  0  0  0
   -4.2316   -8.7782    0.9918 C   0  0  1  0  0  0  0  0  0  0  0  0
   -5.4287   -9.5229    1.1966 O   0  0  0  0  0  0  0  0  0  0  0  0
   -3.1982   -9.6411    0.2267 C   0  0  1  0  0  0  0  0  0  0  0  0
   -1.9084   -9.0690    0.4140 O   0  0  0  0  0  0  0  0  0  0  0  0
   -3.1657  -11.1094    0.7070 C   0  0  0  0  0  0  0  0  0  0  0  0
   -2.1553  -11.8715    0.0570 O   0  0  0  0  0  0  0  0  0  0  0  0
   -1.8511  -13.3822    0.4268 P   0  0  0  0  0  0  0  0  0  0  0  0
   -0.4708  -13.7532    0.0405 O   0  0  0  0  0  0  0  0  0  0  0  0
   -2.3074  -13.6847    1.8005 O   0  5  0  0  0  0  0  0  0  0  0  0
   -2.8013  -14.2079   -0.5480 O   0  5  0  0  0  0  0  0  0  0  0  0
  1 18  1  0  0  0  0
  1  2  1  0  0  0  0
  2  4  1  0  0  0  0
  2  3  2  0  0  0  0
  4  5  1  0  0  0  0
  5  7  1  0  0  0  0
  5  6  2  0  0  0  0
  7 18  2  0  0  0  0
  7  8  1  0  0  0  0
  8  9  1  0  0  0  0
  9 10  2  0  0  0  0
  9 16  1  0  0  0  0
 10 11  1  0  0  0  0
 11 12  1  0  0  0  0
 11 13  2  0  0  0  0
 13 14  1  0  0  0  0
 13 15  1  0  0  0  0
 15 16  2  0  0  0  0
 16 17  1  0  0  0  0
 17 19  1  0  0  0  0
 17 18  1  0  0  0  0
 20 19  1  1  0  0  0
 20 22  1  0  0  0  0
 20 21  1  0  0  0  0
 22 24  1  0  0  0  0
 22 23  1  6  0  0  0
 24 26  1  1  0  0  0
 24 25  1  0  0  0  0
 26 27  1  0  0  0  0
 27 28  1  0  0  0  0
 28 30  1  0  0  0  0
 28 29  2  0  0  0  0
 28 31  1  0  0  0  0
M  CHG  2  30  -1  31  -1
M  END
>  <CHROM.1>
-86.93975366,155.35169621,72.57348963,-156.56623652,72.04037235,-43.62086060
-176.26674071,-54.60159027,176.27599937,-156.82792047,-5.72969849,-8.34506806
1.39908684,3.01433323,0.80115641,-1.23650228

>  <Name>
1fmn_cryst

>  <RI>
0

>  <Rbt.Current_Directory>
/home/itssahil/PROJECTS/Mol_Feturizer/New_Systems/rnas/1fmn

>  <Rbt.Executable>
rbdock ($Id: //depot/dev/client3/rdock/2013.1/src/exe/rbdock.cxx#4 $)

>  <Rbt.Library>
libRbt.so (2013.1, Build901 2013/11/27)

>  <Rbt.Parameter_File>
/export/apps/rDock/src/rDock_2013.1_src/data/scripts/dock_solv.prm

>  <Rbt.Receptor>
prm/pocket_docking_8.prm

>  <SCORE>
-51.0409

>  <SCORE.INTER>
-45.2205

>  <SCORE.INTER.CONST>
1

>  <SCORE.INTER.POLAR>
-2.50277

>  <SCORE.INTER.ROT>
7

>  <SCORE.INTER.SOLV>
21.3341

>  <SCORE.INTER.VDW>
-37.1825

>  <SCORE.INTER.norm>
-1.45873

>  <SCORE.INTRA>
-5.82035

>  <SCORE.INTRA.DIHEDRAL>
-5.26334

>  <SCORE.INTRA.DIHEDRAL.0>
15.5708

>  <SCORE.INTRA.POLAR>
-0.506975

>  <SCORE.INTRA.POLAR.0>
-0.0677885

>  <SCORE.INTRA.REPUL>
0

>  <SCORE.INTRA.REPUL.0>
0

>  <SCORE.INTRA.SOLV>
-3.90072

>  <SCORE.INTRA.SOLV.lig_0>
-87.6316

>  <SCORE.INTRA.VDW>
0.485396

>  <SCORE.INTRA.VDW.0>
-2.87309

>  <SCORE.INTRA.norm>
-0.187753

>  <SCORE.RESTR>
0

>  <SCORE.RESTR.CAVITY>
0

>  <SCORE.RESTR.norm>
0

>  <SCORE.SYSTEM>
0

>  <SCORE.SYSTEM.CONST>
0

>  <SCORE.SYSTEM.DIHEDRAL>
0

>  <SCORE.SYSTEM.SOLV>
0

>  <SCORE.SYSTEM.norm>
0

>  <SCORE.heavy>
31

>  <SCORE.norm>
-1.64648

>  <SYMMETRIC_BONDS>
33 34 3

>  <RMSD>
3.950

$$$$
1fmn_cryst
 OpenBabel11021811393D
libRbt.so/2013.1/901 2013/11/27
 31 33  0  0  0  0  0  0  0  0999 V2000
   -5.3402   -8.9508    4.6259 N   0  0  0  0  0  0  0  0  0  0  0  0
   -5.2069   -9.6298    5.8145 C   0  0  0  0  0  0  0  0  0  0  0  0
   -4.2371  -10.3517    6.0486 O   0  0  0  0  0  0  0  0  0  0  0  0
   -6.2577   -9.4499    6.7488 N   0  0  0  0  0  0  0  0  0  0  0  0
   -7.4115   -8.6537    6.5785 C   0  0  0  0  0  0  0  0  0  0  0  0
   -8.2541   -8.5843    7.4821 O   0  0  0  0  0  0  0  0  0  0  0  0
   -7.4792   -7.9650    5.2877 C   0  0  0  0  0  0  0  0  0  0  0  0
   -8.5710   -7.1697    5.0436 N   0  0  0  0  0  0  0  0  0  0  0  0
   -8.7213   -6.6763    3.7801 C   0  0  0  0  0  0  0  0  0  0  0  0
   -9.9066   -6.0308    3.4753 C   0  0  0  0  0  0  0  0  0  0  0  0
  -10.1245   -5.5162    2.2428 C   0  0  0  0  0  0  0  0  0  0  0  0
  -11.4216   -4.8252    1.9660 C   0  0  0  0  0  0  0  0  0  0  0  0
   -9.1756   -5.6267    1.2741 C   0  0  0  0  0  0  0  0  0  0  0  0
   -9.4273   -5.0617   -0.0859 C   0  0  0  0  0  0  0  0  0  0  0  0
   -7.9971   -6.2510    1.5276 C   0  0  0  0  0  0  0  0  0  0  0  0
   -7.7226   -6.7980    2.7810 C   0  0  0  0  0  0  0  0  0  0  0  0
   -6.5195   -7.4557    3.1125 N   0  0  0  0  0  0  0  0  0  0  0  0
   -6.4076   -8.1461    4.3367 C   0  0  0  0  0  0  0  0  0  0  0  0
   -5.2427   -6.9597    2.4784 C   0  0  0  0  0  0  0  0  0  0  0  0
   -4.7208   -7.7667    1.2510 C   0  0  1  0  0  0  0  0  0  0  0  0
   -5.8073   -8.1530    0.4214 O   0  0  0  0  0  0  0  0  0  0  0  0
   -3.6175   -7.0262    0.4582 C   0  0  1  0  0  0  0  0  0  0  0  0
   -2.9079   -6.1358    1.3144 O   0  0  0  0  0  0  0  0  0  0  0  0
   -2.6180   -7.9019   -0.3368 C   0  0  1  0  0  0  0  0  0  0  0  0
   -1.6237   -7.0520   -0.8980 O   0  0  0  0  0  0  0  0  0  0  0  0
   -1.9236   -8.9694    0.5384 C   0  0  0  0  0  0  0  0  0  0  0  0
   -1.4853   -8.4471    1.7871 O   0  0  0  0  0  0  0  0  0  0  0  0
   -1.2702   -9.3559    3.0674 P   0  0  0  0  0  0  0  0  0  0  0  0
   -0.4340  -10.5343    2.7447 O   0  0  0  0  0  0  0  0  0  0  0  0
   -0.9066   -8.5291    4.2384 O   0  5  0  0  0  0  0  0  0  0  0  0
   -2.7226   -9.9350    3.3673 O   0  5  0  0  0  0  0  0  0  0  0  0
  1 18  1  0  0  0  0
  1  2  1  0  0  0  0
  2  4  1  0  0  0  0
  2  3  2  0  0  0  0
  4  5  1  0  0  0  0
  5  7  1  0  0  0  0
  5  6  2  0  0  0  0
  7 18  2  0  0  0  0
  7  8  1  0  0  0  0
  8  9  1  0  0  0  0
  9 10  2  0  0  0  0
  9 16  1  0  0  0  0
 10 11  1  0  0  0  0
 11 12  1  0  0  0  0
 11 13  2  0  0  0  0
 13 14  1  0  0  0  0
 13 15  1  0  0  0  0
 15 16  2  0  0  0  0
 16 17  1  0  0  0  0
 17 19  1  0  0  0  0
 17 18  1  0  0  0  0
 20 19  1  1  0  0  0
 20 22  1  0  0  0  0
 20 21  1  0  0  0  0
 22 24  1  0  0  0  0
 22 23  1  1  0  0  0
 24 26  1  1  0  0  0
 24 25  1  0  0  0  0
 26 27  1  0  0  0  0
 27 28  1  0  0  0  0
 28 30  1  0  0  0  0
 28 29  2  0  0  0  0
 28 31  1  0  0  0  0
M  CHG  2  30  -1  31  -1
M  END
>  <CHROM.1>
-99.71421769,40.05356873,27.22348616,-121.58991863,-175.10620927,70.95288113
-44.37996686,57.02061877,155.63385376,50.26866596,-5.33414466,-7.84656488
2.96119394,0.01148919,-0.34442457,2.02097169

>  <Name>
1fmn_cryst

>  <RI>
0

>  <Rbt.Current_Directory>
/home/itssahil/PROJECTS/Mol_Feturizer/New_Systems/rnas/1fmn

>  <Rbt.Executable>
rbdock ($Id: //depot/dev/client3/rdock/2013.1/src/exe/rbdock.cxx#4 $)

>  <Rbt.Library>
libRbt.so (2013.1, Build901 2013/11/27)

>  <Rbt.Parameter_File>
/export/apps/rDock/src/rDock_2013.1_src/data/scripts/dock_solv.prm

>  <Rbt.Receptor>
prm/pocket_docking_4.prm

>  <SCORE>
-30.354

>  <SCORE.INTER>
-25.4046

>  <SCORE.INTER.CONST>
1

>  <SCORE.INTER.POLAR>
-1.09063

>  <SCORE.INTER.ROT>
7

>  <SCORE.INTER.SOLV>
14.2732

>  <SCORE.INTER.VDW>
-26.3254

>  <SCORE.INTER.norm>
-0.819502

>  <SCORE.INTRA>
-4.94948

>  <SCORE.INTRA.DIHEDRAL>
2.42407

>  <SCORE.INTRA.DIHEDRAL.0>
15.5708

>  <SCORE.INTRA.POLAR>
-1.91588

>  <SCORE.INTRA.POLAR.0>
-0.0677885

>  <SCORE.INTRA.REPUL>
0

>  <SCORE.INTRA.REPUL.0>
0

>  <SCORE.INTRA.SOLV>
1.52663

>  <SCORE.INTRA.SOLV.lig_0>
-87.6316

>  <SCORE.INTRA.VDW>
-0.41083

>  <SCORE.INTRA.VDW.0>
-2.87309

>  <SCORE.INTRA.norm>
-0.159661

>  <SCORE.RESTR>
0

>  <SCORE.RESTR.CAVITY>
0

>  <SCORE.RESTR.norm>
0

>  <SCORE.SYSTEM>
0

>  <SCORE.SYSTEM.CONST>
0

>  <SCORE.SYSTEM.DIHEDRAL>
0

>  <SCORE.SYSTEM.SOLV>
0

>  <SCORE.SYSTEM.norm>
0

>  <SCORE.heavy>
31

>  <SCORE.norm>
-0.979163

>  <SYMMETRIC_BONDS>
33 34 3

>  <RMSD>
4.279

$$$$
1fmn_cryst
 OpenBabel11021811393D
libRbt.so/2013.1/901 2013/11/27
 31 33  0  0  0  0  0  0  0  0999 V2000
   -7.3071   -5.5462   -1.8261 N   0  0  0  0  0  0  0  0  0  0  0  0
   -7.3079   -5.0852   -3.1219 C   0  0  0  0  0  0  0  0  0  0  0  0
   -6.3394   -5.2335   -3.8680 O   0  0  0  0  0  0  0  0  0  0  0  0
   -8.4904   -4.4254   -3.5412 N   0  0  0  0  0  0  0  0  0  0  0  0
   -9.6496   -4.1980   -2.7675 C   0  0  0  0  0  0  0  0  0  0  0  0
  -10.6174   -3.6064   -3.2623 O   0  0  0  0  0  0  0  0  0  0  0  0
   -9.5693   -4.7177   -1.4005 C   0  0  0  0  0  0  0  0  0  0  0  0
  -10.6569   -4.5373   -0.5828 N   0  0  0  0  0  0  0  0  0  0  0  0
  -10.5139   -4.8583    0.7360 C   0  0  0  0  0  0  0  0  0  0  0  0
  -11.5363   -4.5092    1.6004 C   0  0  0  0  0  0  0  0  0  0  0  0
  -11.4629   -4.7964    2.9208 C   0  0  0  0  0  0  0  0  0  0  0  0
  -12.5967   -4.4001    3.8118 C   0  0  0  0  0  0  0  0  0  0  0  0
  -10.3736   -5.4367    3.4255 C   0  0  0  0  0  0  0  0  0  0  0  0
  -10.2978   -5.7437    4.8857 C   0  0  0  0  0  0  0  0  0  0  0  0
   -9.3467   -5.7991    2.6151 C   0  0  0  0  0  0  0  0  0  0  0  0
   -9.3731   -5.5271    1.2473 C   0  0  0  0  0  0  0  0  0  0  0  0
   -8.3434   -5.8783    0.3493 N   0  0  0  0  0  0  0  0  0  0  0  0
   -8.3658   -5.3922   -0.9740 C   0  0  0  0  0  0  0  0  0  0  0  0
   -7.5888   -7.1608    0.6029 C   0  0  0  0  0  0  0  0  0  0  0  0
   -6.2851   -7.0407    1.4493 C   0  0  1  0  0  0  0  0  0  0  0  0
   -6.4189   -6.0021    2.4092 O   0  0  0  0  0  0  0  0  0  0  0  0
   -5.8516   -8.3782    2.0951 C   0  0  1  0  0  0  0  0  0  0  0  0
   -5.0864   -9.1470    1.1715 O   0  0  0  0  0  0  0  0  0  0  0  0
   -5.1102   -8.2935    3.4519 C   0  0  1  0  0  0  0  0  0  0  0  0
   -4.6574   -9.5976    3.7987 O   0  0  0  0  0  0  0  0  0  0  0  0
   -3.8960   -7.3384    3.4166 C   0  0  0  0  0  0  0  0  0  0  0  0
   -3.4735   -6.9482    4.7178 O   0  0  0  0  0  0  0  0  0  0  0  0
   -2.8101   -7.9594    5.7420 P   0  0  0  0  0  0  0  0  0  0  0  0
   -3.8114   -8.9179    6.2621 O   0  0  0  0  0  0  0  0  0  0  0  0
   -1.5379   -8.4871    5.2035 O   0  5  0  0  0  0  0  0  0  0  0  0
   -2.4193   -7.0393    6.9811 O   0  5  0  0  0  0  0  0  0  0  0  0
  1 18  1  0  0  0  0
  1  2  1  0  0  0  0
  2  4  1  0  0  0  0
  2  3  2  0  0  0  0
  4  5  1  0  0  0  0
  5  7  1  0  0  0  0
  5  6  2  0  0  0  0
  7 18  2  0  0  0  0
  7  8  1  0  0  0  0
  8  9  1  0  0  0  0
  9 10  2  0  0  0  0
  9 16  1  0  0  0  0
 10 11  1  0  0  0  0
 11 12  1  0  0  0  0
 11 13  2  0  0  0  0
 13 14  1  0  0  0  0
 13 15  1  0  0  0  0
 15 16  2  0  0  0  0
 16 17  1  0  0  0  0
 17 19  1  0  0  0  0
 17 18  1  0  0  0  0
 20 19  1  1  0  0  0
 20 22  1  0  0  0  0
 20 21  1  0  0  0  0
 22 24  1  0  0  0  0
 22 23  1  6  0  0  0
 24 26  1  6  0  0  0
 24 25  1  0  0  0  0
 26 27  1  0  0  0  0
 27 28  1  0  0  0  0
 28 30  1  0  0  0  0
 28 29  2  0  0  0  0
 28 31  1  0  0  0  0
M  CHG  2  30  -1  31  -1
M  END
>  <CHROM.1>
-92.69606386,32.74387676,84.60800090,-57.88764313,-173.08890449,-67.52461206
162.06942946,-58.66108200,68.36675245,-71.44938229,-7.12334525,-6.33391092
1.76883148,-2.36687582,-0.37155793,1.72198598

>  <Name>
1fmn_cryst

>  <RI>
0

>  <Rbt.Current_Directory>
/home/itssahil/PROJECTS/Mol_Feturizer/New_Systems/rnas/1fmn

>  <Rbt.Executable>
rbdock ($Id: //depot/dev/client3/rdock/2013.1/src/exe/rbdock.cxx#4 $)

>  <Rbt.Library>
libRbt.so (2013.1, Build901 2013/11/27)

>  <Rbt.Parameter_File>
/export/apps/rDock/src/rDock_2013.1_src/data/scripts/dock_solv.prm

>  <Rbt.Receptor>
prm/pocket_docking_2.prm

>  <SCORE>
-50.7239

>  <SCORE.INTER>
-47.8405

>  <SCORE.INTER.CONST>
1

>  <SCORE.INTER.POLAR>
-2.25123

>  <SCORE.INTER.ROT>
7

>  <SCORE.INTER.SOLV>
15.6545

>  <SCORE.INTER.VDW>
-37.8744

>  <SCORE.INTER.norm>
-1.54324

>  <SCORE.INTRA>
-3.32124

>  <SCORE.INTRA.DIHEDRAL>
-6.91564

>  <SCORE.INTRA.DIHEDRAL.0>
15.5708

>  <SCORE.INTRA.POLAR>
0.0609371

>  <SCORE.INTRA.POLAR.0>
-0.0677885

>  <SCORE.INTRA.REPUL>
0

>  <SCORE.INTRA.REPUL.0>
0

>  <SCORE.INTRA.SOLV>
-0.533473

>  <SCORE.INTRA.SOLV.lig_0>
-87.6316

>  <SCORE.INTRA.VDW>
0.196136

>  <SCORE.INTRA.VDW.0>
-2.87309

>  <SCORE.INTRA.norm>
-0.107137

>  <SCORE.RESTR>
0.437795

>  <SCORE.RESTR.CAVITY>
0.437795

>  <SCORE.RESTR.norm>
0.0141224

>  <SCORE.SYSTEM>
0

>  <SCORE.SYSTEM.CONST>
0

>  <SCORE.SYSTEM.DIHEDRAL>
0

>  <SCORE.SYSTEM.SOLV>
0

>  <SCORE.SYSTEM.norm>
0

>  <SCORE.heavy>
31

>  <SCORE.norm>
-1.63626

>  <SYMMETRIC_BONDS>
33 34 3

>  <RMSD>
4.591

$$$$
1fmn_cryst
 OpenBabel11021811393D
libRbt.so/2013.1/901 2013/11/27
 31 33  0  0  0  0  0  0  0  0999 V2000
   -7.3424   -5.5411   -1.8366 N   0  0  0  0  0  0  0  0  0  0  0  0
   -7.3337   -5.0600   -3.1251 C   0  0  0  0  0  0  0  0  0  0  0  0
   -6.3725   -5.2252   -3.8769 O   0  0  0  0  0  0  0  0  0  0  0  0
   -8.4975   -4.3591   -3.5297 N   0  0  0  0  0  0  0  0  0  0  0  0
   -9.6470   -4.1096   -2.7483 C   0  0  0  0  0  0  0  0  0  0  0  0
  -10.5984   -3.4820   -3.2302 O   0  0  0  0  0  0  0  0  0  0  0  0
   -9.5777   -4.6529   -1.3899 C   0  0  0  0  0  0  0  0  0  0  0  0
  -10.6568   -4.4532   -0.5654 N   0  0  0  0  0  0  0  0  0  0  0  0
  -10.5192   -4.7990    0.7476 C   0  0  0  0  0  0  0  0  0  0  0  0
  -11.5280   -4.4335    1.6212 C   0  0  0  0  0  0  0  0  0  0  0  0
  -11.4588   -4.7434    2.9367 C   0  0  0  0  0  0  0  0  0  0  0  0
  -12.5775   -4.3278    3.8379 C   0  0  0  0  0  0  0  0  0  0  0  0
  -10.3874   -5.4235    3.4273 C   0  0  0  0  0  0  0  0  0  0  0  0
  -10.3160   -5.7555    4.8822 C   0  0  0  0  0  0  0  0  0  0  0  0
   -9.3743   -5.8033    2.6075 C   0  0  0  0  0  0  0  0  0  0  0  0
   -9.3970   -5.5092    1.2443 C   0  0  0  0  0  0  0  0  0  0  0  0
   -8.3811   -5.8766    0.3371 N   0  0  0  0  0  0  0  0  0  0  0  0
   -8.3933   -5.3693   -0.9784 C   0  0  0  0  0  0  0  0  0  0  0  0
   -7.6640   -7.1846    0.5679 C   0  0  0  0  0  0  0  0  0  0  0  0
   -6.2928   -7.1013    1.3049 C   0  0  1  0  0  0  0  0  0  0  0  0
   -6.2949   -6.0157    2.2211 O   0  0  0  0  0  0  0  0  0  0  0  0
   -5.8807   -8.4315    1.9792 C   0  0  1  0  0  0  0  0  0  0  0  0
   -5.2718   -9.2993    1.0274 O   0  0  0  0  0  0  0  0  0  0  0  0
   -4.9931   -8.3306    3.2441 C   0  0  1  0  0  0  0  0  0  0  0  0
   -5.0391   -9.5791    3.9260 O   0  0  0  0  0  0  0  0  0  0  0  0
   -3.5200   -7.9941    2.9213 C   0  0  0  0  0  0  0  0  0  0  0  0
   -2.8866   -7.2678    3.9679 O   0  0  0  0  0  0  0  0  0  0  0  0
   -2.4488   -7.9408    5.3341 P   0  0  0  0  0  0  0  0  0  0  0  0
   -1.7666   -6.9621    6.2109 O   0  0  0  0  0  0  0  0  0  0  0  0
   -3.5549   -8.7449    5.8971 O   0  5  0  0  0  0  0  0  0  0  0  0
   -1.3226   -8.9789    4.8995 O   0  5  0  0  0  0  0  0  0  0  0  0
  1 18  1  0  0  0  0
  1  2  1  0  0  0  0
  2  4  1  0  0  0  0
  2  3  2  0  0  0  0
  4  5  1  0  0  0  0
  5  7  1  0  0  0  0
  5  6  2  0  0  0  0
  7 18  2  0  0  0  0
  7  8  1  0  0  0  0
  8  9  1  0  0  0  0
  9 10  2  0  0  0  0
  9 16  1  0  0  0  0
 10 11  1  0  0  0  0
 11 12  1  0  0  0  0
 11 13  2  0  0  0  0
 13 14  1  0  0  0  0
 13 15  1  0  0  0  0
 15 16  2  0  0  0  0
 16 17  1  0  0  0  0
 17 19  1  0  0  0  0
 17 18  1  0  0  0  0
 20 19  1  1  0  0  0
 20 22  1  0  0  0  0
 20 21  1  0  0  0  0
 22 24  1  0  0  0  0
 22 23  1  6  0  0  0
 24 26  1  6  0  0  0
 24 25  1  0  0  0  0
 26 27  1  0  0  0  0
 27 28  1  0  0  0  0
 28 30  1  0  0  0  0
 28 29  2  0  0  0  0
 28 31  1  0  0  0  0
M  CHG  2  30  -1  31  -1
M  END
>  <CHROM.1>
-97.78082454,31.51180417,82.73310739,66.55521765,163.54189155,56.69144319
150.46207960,-167.24399694,73.89817377,177.67255581,-7.04546326,-6.35910759
1.63565834,-2.43724285,-0.36817545,1.74269931

>  <Name>
1fmn_cryst

>  <RI>
0

>  <Rbt.Current_Directory>
/home/itssahil/PROJECTS/Mol_Feturizer/New_Systems/rnas/1fmn

>  <Rbt.Executable>
rbdock ($Id: //depot/dev/client3/rdock/2013.1/src/exe/rbdock.cxx#4 $)

>  <Rbt.Library>
libRbt.so (2013.1, Build901 2013/11/27)

>  <Rbt.Parameter_File>
/export/apps/rDock/src/rDock_2013.1_src/data/scripts/dock_solv.prm

>  <Rbt.Receptor>
prm/pocket_docking_2.prm

>  <SCORE>
-41.6136

>  <SCORE.INTER>
-36.7806

>  <SCORE.INTER.CONST>
1

>  <SCORE.INTER.POLAR>
-0.326114

>  <SCORE.INTER.ROT>
7

>  <SCORE.INTER.SOLV>
16.1809

>  <SCORE.INTER.VDW>
-37.0936

>  <SCORE.INTER.norm>
-1.18647

>  <SCORE.INTRA>
-5.29978

>  <SCORE.INTRA.DIHEDRAL>
-3.28515

>  <SCORE.INTRA.DIHEDRAL.0>
15.5708

>  <SCORE.INTRA.POLAR>
-1.20797

>  <SCORE.INTRA.POLAR.0>
-0.0677885

>  <SCORE.INTRA.REPUL>
0

>  <SCORE.INTRA.REPUL.0>
0

>  <SCORE.INTRA.SOLV>
-0.242445

>  <SCORE.INTRA.SOLV.lig_0>
-87.6316

>  <SCORE.INTRA.VDW>
0.5711

>  <SCORE.INTRA.VDW.0>
-2.87309

>  <SCORE.INTRA.norm>
-0.170961

>  <SCORE.RESTR>
0.466797

>  <SCORE.RESTR.CAVITY>
0.466797

>  <SCORE.RESTR.norm>
0.015058

>  <SCORE.SYSTEM>
0

>  <SCORE.SYSTEM.CONST>
0

>  <SCORE.SYSTEM.DIHEDRAL>
0

>  <SCORE.SYSTEM.SOLV>
0

>  <SCORE.SYSTEM.norm>
0

>  <SCORE.heavy>
31

>  <SCORE.norm>
-1.34237

>  <SYMMETRIC_BONDS>
33 34 3

>  <RMSD>
4.625

$$$$
1fmn_cryst
 OpenBabel11021811393D
libRbt.so/2013.1/901 2013/11/27
 31 33  0  0  0  0  0  0  0  0999 V2000
   -7.5018   -5.5346   -1.9079 N   0  0  0  0  0  0  0  0  0  0  0  0
   -7.5019   -5.0282   -3.1866 C   0  0  0  0  0  0  0  0  0  0  0  0
   -6.5625   -5.2118   -3.9614 O   0  0  0  0  0  0  0  0  0  0  0  0
   -8.6480   -4.2788   -3.5532 N   0  0  0  0  0  0  0  0  0  0  0  0
   -9.7720   -4.0050   -2.7433 C   0  0  0  0  0  0  0  0  0  0  0  0
  -10.7100   -3.3347   -3.1930 O   0  0  0  0  0  0  0  0  0  0  0  0
   -9.6947   -4.5777   -1.3975 C   0  0  0  0  0  0  0  0  0  0  0  0
  -10.7493   -4.3570   -0.5470 N   0  0  0  0  0  0  0  0  0  0  0  0
  -10.5976   -4.7338    0.7559 C   0  0  0  0  0  0  0  0  0  0  0  0
  -11.5750   -4.3508    1.6572 C   0  0  0  0  0  0  0  0  0  0  0  0
  -11.4904   -4.6895    2.9647 C   0  0  0  0  0  0  0  0  0  0  0  0
  -12.5753   -4.2531    3.8969 C   0  0  0  0  0  0  0  0  0  0  0  0
  -10.4342   -5.4164    3.4196 C   0  0  0  0  0  0  0  0  0  0  0  0
  -10.3453   -5.7801    4.8659 C   0  0  0  0  0  0  0  0  0  0  0  0
   -9.4518   -5.8150    2.5716 C   0  0  0  0  0  0  0  0  0  0  0  0
   -9.4915   -5.4928    1.2151 C   0  0  0  0  0  0  0  0  0  0  0  0
   -8.5077   -5.8772    0.2801 N   0  0  0  0  0  0  0  0  0  0  0  0
   -8.5284   -5.3433   -1.0248 C   0  0  0  0  0  0  0  0  0  0  0  0
   -7.8330   -7.2140    0.4703 C   0  0  0  0  0  0  0  0  0  0  0  0
   -6.3165   -7.1787    0.8298 C   0  0  1  0  0  0  0  0  0  0  0  0
   -5.9549   -5.8876    1.2992 O   0  0  0  0  0  0  0  0  0  0  0  0
   -5.8969   -8.2952    1.8153 C   0  0  1  0  0  0  0  0  0  0  0  0
   -4.9064   -9.1300    1.2224 O   0  0  0  0  0  0  0  0  0  0  0  0
   -5.4356   -7.8491    3.2246 C   0  0  1  0  0  0  0  0  0  0  0  0
   -6.5741   -7.3921    3.9463 O   0  0  0  0  0  0  0  0  0  0  0  0
   -4.7620   -8.9857    4.0260 C   0  0  0  0  0  0  0  0  0  0  0  0
   -4.1877   -8.5256    5.2436 O   0  0  0  0  0  0  0  0  0  0  0  0
   -3.1912   -9.4052    6.1066 P   0  0  0  0  0  0  0  0  0  0  0  0
   -3.8732  -10.6056    6.6412 O   0  0  0  0  0  0  0  0  0  0  0  0
   -1.9034   -9.5781    5.4005 O   0  5  0  0  0  0  0  0  0  0  0  0
   -2.8829   -8.4922    7.3739 O   0  5  0  0  0  0  0  0  0  0  0  0
  1 18  1  0  0  0  0
  1  2  1  0  0  0  0
  2  4  1  0  0  0  0
  2  3  2  0  0  0  0
  4  5  1  0  0  0  0
  5  7  1  0  0  0  0
  5  6  2  0  0  0  0
  7 18  2  0  0  0  0
  7  8  1  0  0  0  0
  8  9  1  0  0  0  0
  9 10  2  0  0  0  0
  9 16  1  0  0  0  0
 10 11  1  0  0  0  0
 11 12  1  0  0  0  0
 11 13  2  0  0  0  0
 13 14  1  0  0  0  0
 13 15  1  0  0  0  0
 15 16  2  0  0  0  0
 16 17  1  0  0  0  0
 17 19  1  0  0  0  0
 17 18  1  0  0  0  0
 20 19  1  1  0  0  0
 20 22  1  0  0  0  0
 20 21  1  0  0  0  0
 22 24  1  0  0  0  0
 22 23  1  6  0  0  0
 24 26  1  1  0  0  0
 24 25  1  0  0  0  0
 26 27  1  0  0  0  0
 27 28  1  0  0  0  0
 28 30  1  0  0  0  0
 28 29  2  0  0  0  0
 28 31  1  0  0  0  0
M  CHG  2  30  -1  31  -1
M  END
>  <CHROM.1>
-113.14638488,17.50656018,119.96161461,-178.14948265,71.48988818,-66.71974877
172.30650457,-62.51573123,-167.22483094,-65.00496301,-7.35403044,-6.54063305
1.79084207,-2.29344568,-0.46177018,1.79627646

>  <Name>
1fmn_cryst

>  <RI>
0

>  <Rbt.Current_Directory>
/home/itssahil/PROJECTS/Mol_Feturizer/New_Systems/rnas/1fmn

>  <Rbt.Executable>
rbdock ($Id: //depot/dev/client3/rdock/2013.1/src/exe/rbdock.cxx#4 $)

>  <Rbt.Library>
libRbt.so (2013.1, Build901 2013/11/27)

>  <Rbt.Parameter_File>
/export/apps/rDock/src/rDock_2013.1_src/data/scripts/dock_solv.prm

>  <Rbt.Receptor>
prm/pocket_docking_2.prm

>  <SCORE>
-46.6836

>  <SCORE.INTER>
-44.0939

>  <SCORE.INTER.CONST>
1

>  <SCORE.INTER.POLAR>
-1.53397

>  <SCORE.INTER.ROT>
7

>  <SCORE.INTER.SOLV>
16.263

>  <SCORE.INTER.VDW>
-37.9704

>  <SCORE.INTER.norm>
-1.42239

>  <SCORE.INTRA>
-2.91769

>  <SCORE.INTRA.DIHEDRAL>
-1.98248

>  <SCORE.INTRA.DIHEDRAL.0>
15.5708

>  <SCORE.INTRA.POLAR>
0.0677885

>  <SCORE.INTRA.POLAR.0>
-0.0677885

>  <SCORE.INTRA.REPUL>
0

>  <SCORE.INTRA.REPUL.0>
0

>  <SCORE.INTRA.SOLV>
-4.17642

>  <SCORE.INTRA.SOLV.lig_0>
-87.6316

>  <SCORE.INTRA.VDW>
-0.0687259

>  <SCORE.INTRA.VDW.0>
-2.87309

>  <SCORE.INTRA.norm>
-0.0941192

>  <SCORE.RESTR>
0.32799

>  <SCORE.RESTR.CAVITY>
0.32799

>  <SCORE.RESTR.norm>
0.0105803

>  <SCORE.SYSTEM>
0

>  <SCORE.SYSTEM.CONST>
0

>  <SCORE.SYSTEM.DIHEDRAL>
0

>  <SCORE.SYSTEM.SOLV>
0

>  <SCORE.SYSTEM.norm>
0

>  <SCORE.heavy>
31

>  <SCORE.norm>
-1.50592

>  <SYMMETRIC_BONDS>
33 34 3

>  <RMSD>
4.642

$$$$
1fmn_cryst
 OpenBabel11021811393D
libRbt.so/2013.1/901 2013/11/27
 31 33  0  0  0  0  0  0  0  0999 V2000
   -7.3466   -5.6319   -1.8653 N   0  0  0  0  0  0  0  0  0  0  0  0
   -7.3288   -5.1433   -3.1508 C   0  0  0  0  0  0  0  0  0  0  0  0
   -6.3737   -5.3278   -3.9060 O   0  0  0  0  0  0  0  0  0  0  0  0
   -8.4756   -4.4110   -3.5483 N   0  0  0  0  0  0  0  0  0  0  0  0
   -9.6167   -4.1377   -2.7627 C   0  0  0  0  0  0  0  0  0  0  0  0
  -10.5532   -3.4836   -3.2385 O   0  0  0  0  0  0  0  0  0  0  0  0
   -9.5580   -4.6909   -1.4078 C   0  0  0  0  0  0  0  0  0  0  0  0
  -10.6300   -4.4694   -0.5795 N   0  0  0  0  0  0  0  0  0  0  0  0
  -10.4980   -4.8266    0.7310 C   0  0  0  0  0  0  0  0  0  0  0  0
  -11.4954   -4.4413    1.6092 C   0  0  0  0  0  0  0  0  0  0  0  0
  -11.4311   -4.7610    2.9226 C   0  0  0  0  0  0  0  0  0  0  0  0
  -12.5370   -4.3231    3.8290 C   0  0  0  0  0  0  0  0  0  0  0  0
  -10.3759   -5.4706    3.4065 C   0  0  0  0  0  0  0  0  0  0  0  0
  -10.3095   -5.8132    4.8592 C   0  0  0  0  0  0  0  0  0  0  0  0
   -9.3744   -5.8706    2.5820 C   0  0  0  0  0  0  0  0  0  0  0  0
   -9.3928   -5.5676    1.2207 C   0  0  0  0  0  0  0  0  0  0  0  0
   -8.3884   -5.9547    0.3089 N   0  0  0  0  0  0  0  0  0  0  0  0
   -8.3909   -5.4392   -1.0035 C   0  0  0  0  0  0  0  0  0  0  0  0
   -7.7037   -7.2816    0.5299 C   0  0  0  0  0  0  0  0  0  0  0  0
   -6.1511   -7.2449    0.6653 C   0  0  1  0  0  0  0  0  0  0  0  0
   -5.6351   -6.0663    0.0632 O   0  0  0  0  0  0  0  0  0  0  0  0
   -5.6615   -7.4164    2.1230 C   0  0  1  0  0  0  0  0  0  0  0  0
   -6.3290   -6.4941    2.9794 O   0  0  0  0  0  0  0  0  0  0  0  0
   -5.7347   -8.8416    2.7239 C   0  0  1  0  0  0  0  0  0  0  0  0
   -5.1502   -9.7504    1.7975 O   0  0  0  0  0  0  0  0  0  0  0  0
   -4.9953   -8.9646    4.0752 C   0  0  0  0  0  0  0  0  0  0  0  0
   -3.5968   -8.7338    3.9524 O   0  0  0  0  0  0  0  0  0  0  0  0
   -2.5959   -8.8700    5.1734 P   0  0  0  0  0  0  0  0  0  0  0  0
   -2.7484  -10.1843    5.8378 O   0  0  0  0  0  0  0  0  0  0  0  0
   -1.2395   -8.4248    4.7877 O   0  5  0  0  0  0  0  0  0  0  0  0
   -3.1325   -7.7992    6.2223 O   0  5  0  0  0  0  0  0  0  0  0  0
  1 18  1  0  0  0  0
  1  2  1  0  0  0  0
  2  4  1  0  0  0  0
  2  3  2  0  0  0  0
  4  5  1  0  0  0  0
  5  7  1  0  0  0  0
  5  6  2  0  0  0  0
  7 18  2  0  0  0  0
  7  8  1  0  0  0  0
  8  9  1  0  0  0  0
  9 10  2  0  0  0  0
  9 16  1  0  0  0  0
 10 11  1  0  0  0  0
 11 12  1  0  0  0  0
 11 13  2  0  0  0  0
 13 14  1  0  0  0  0
 13 15  1  0  0  0  0
 15 16  2  0  0  0  0
 16 17  1  0  0  0  0
 17 19  1  0  0  0  0
 17 18  1  0  0  0  0
 20 19  1  1  0  0  0
 20 22  1  0  0  0  0
 20 21  1  0  0  0  0
 22 24  1  0  0  0  0
 22 23  1  1  0  0  0
 24 26  1  1  0  0  0
 24 25  1  0  0  0  0
 26 27  1  0  0  0  0
 27 28  1  0  0  0  0
 28 30  1  0  0  0  0
 28 29  2  0  0  0  0
 28 31  1  0  0  0  0
M  CHG  2  30  -1  31  -1
M  END
>  <CHROM.1>
-123.62626088,-22.08101333,-51.57263728,-176.87053726,48.96915613,-177.11418977
-63.60999026,-66.46566684,-176.85875252,52.64260860,-7.16437358,-6.48623302
1.52415472,-2.39636737,-0.41530162,1.78964565

>  <Name>
1fmn_cryst

>  <RI>
0

>  <Rbt.Current_Directory>
/home/itssahil/PROJECTS/Mol_Feturizer/New_Systems/rnas/1fmn

>  <Rbt.Executable>
rbdock ($Id: //depot/dev/client3/rdock/2013.1/src/exe/rbdock.cxx#4 $)

>  <Rbt.Library>
libRbt.so (2013.1, Build901 2013/11/27)

>  <Rbt.Parameter_File>
/export/apps/rDock/src/rDock_2013.1_src/data/scripts/dock_solv.prm

>  <Rbt.Receptor>
prm/pocket_docking_7.prm

>  <SCORE>
-50.9446

>  <SCORE.INTER>
-43.8219

>  <SCORE.INTER.CONST>
1

>  <SCORE.INTER.POLAR>
-1.62748

>  <SCORE.INTER.ROT>
7

>  <SCORE.INTER.SOLV>
16.037

>  <SCORE.INTER.VDW>
-37.402

>  <SCORE.INTER.norm>
-1.41361

>  <SCORE.INTRA>
-7.13475

>  <SCORE.INTRA.DIHEDRAL>
-8.51352

>  <SCORE.INTRA.DIHEDRAL.0>
15.5708

>  <SCORE.INTRA.POLAR>
-0.500206

>  <SCORE.INTRA.POLAR.0>
-0.0677885

>  <SCORE.INTRA.REPUL>
0

>  <SCORE.INTRA.REPUL.0>
0

>  <SCORE.INTRA.SOLV>
-3.13375

>  <SCORE.INTRA.SOLV.lig_0>
-87.6316

>  <SCORE.INTRA.VDW>
0.389584

>  <SCORE.INTRA.VDW.0>
-2.87309

>  <SCORE.INTRA.norm>
-0.230153

>  <SCORE.RESTR>
0.012052

>  <SCORE.RESTR.CAVITY>
0.012052

>  <SCORE.RESTR.norm>
0.000388775

>  <SCORE.SYSTEM>
0

>  <SCORE.SYSTEM.CONST>
0

>  <SCORE.SYSTEM.DIHEDRAL>
0

>  <SCORE.SYSTEM.SOLV>
0

>  <SCORE.SYSTEM.norm>
0

>  <SCORE.heavy>
31

>  <SCORE.norm>
-1.64337

>  <SYMMETRIC_BONDS>
33 34 3

>  <RMSD>
4.671

$$$$
1fmn_cryst
 OpenBabel11021811393D
libRbt.so/2013.1/901 2013/11/27
 31 33  0  0  0  0  0  0  0  0999 V2000
   -7.2390   -5.6777   -1.7785 N   0  0  0  0  0  0  0  0  0  0  0  0
   -7.2112   -5.2280   -3.0779 C   0  0  0  0  0  0  0  0  0  0  0  0
   -6.2355   -5.4034   -3.8085 O   0  0  0  0  0  0  0  0  0  0  0  0
   -8.3731   -4.5468   -3.5199 N   0  0  0  0  0  0  0  0  0  0  0  0
   -9.5383   -4.2880   -2.7652 C   0  0  0  0  0  0  0  0  0  0  0  0
  -10.4859   -3.6803   -3.2789 O   0  0  0  0  0  0  0  0  0  0  0  0
   -9.4888   -4.7976   -1.3929 C   0  0  0  0  0  0  0  0  0  0  0  0
  -10.5840   -4.5870   -0.5926 N   0  0  0  0  0  0  0  0  0  0  0  0
  -10.4670   -4.8996    0.7307 C   0  0  0  0  0  0  0  0  0  0  0  0
  -11.4940   -4.5214    1.5772 C   0  0  0  0  0  0  0  0  0  0  0  0
  -11.4458   -4.7987    2.9009 C   0  0  0  0  0  0  0  0  0  0  0  0
  -12.5836   -4.3707    3.7719 C   0  0  0  0  0  0  0  0  0  0  0  0
  -10.3779   -5.4577    3.4267 C   0  0  0  0  0  0  0  0  0  0  0  0
  -10.3297   -5.7537    4.8903 C   0  0  0  0  0  0  0  0  0  0  0  0
   -9.3474   -5.8489    2.6344 C   0  0  0  0  0  0  0  0  0  0  0  0
   -9.3482   -5.5881    1.2642 C   0  0  0  0  0  0  0  0  0  0  0  0
   -8.3134   -5.9690    0.3843 N   0  0  0  0  0  0  0  0  0  0  0  0
   -8.3063   -5.4939   -0.9432 C   0  0  0  0  0  0  0  0  0  0  0  0
   -7.5902   -7.2649    0.6595 C   0  0  0  0  0  0  0  0  0  0  0  0
   -6.2480   -7.1550    1.4447 C   0  0  1  0  0  0  0  0  0  0  0  0
   -6.3493   -6.1560    2.4495 O   0  0  0  0  0  0  0  0  0  0  0  0
   -5.7627   -8.5086    2.0161 C   0  0  1  0  0  0  0  0  0  0  0  0
   -5.0943   -9.2592    1.0065 O   0  0  0  0  0  0  0  0  0  0  0  0
   -4.8942   -8.4576    3.2971 C   0  0  1  0  0  0  0  0  0  0  0  0
   -3.9749   -7.3780    3.1740 O   0  0  0  0  0  0  0  0  0  0  0  0
   -5.7277   -8.2571    4.5827 C   0  0  0  0  0  0  0  0  0  0  0  0
   -4.9717   -8.4979    5.7635 O   0  0  0  0  0  0  0  0  0  0  0  0
   -3.8634   -7.4951    6.2902 P   0  0  0  0  0  0  0  0  0  0  0  0
   -2.5999   -7.6601    5.5363 O   0  0  0  0  0  0  0  0  0  0  0  0
   -4.4226   -6.1349    6.4456 O   0  5  0  0  0  0  0  0  0  0  0  0
   -3.5511   -8.0168    7.7617 O   0  5  0  0  0  0  0  0  0  0  0  0
  1 18  1  0  0  0  0
  1  2  1  0  0  0  0
  2  4  1  0  0  0  0
  2  3  2  0  0  0  0
  4  5  1  0  0  0  0
  5  7  1  0  0  0  0
  5  6  2  0  0  0  0
  7 18  2  0  0  0  0
  7  8  1  0  0  0  0
  8  9  1  0  0  0  0
  9 10  2  0  0  0  0
  9 16  1  0  0  0  0
 10 11  1  0  0  0  0
 11 12  1  0  0  0  0
 11 13  2  0  0  0  0
 13 14  1  0  0  0  0
 13 15  1  0  0  0  0
 15 16  2  0  0  0  0
 16 17  1  0  0  0  0
 17 19  1  0  0  0  0
 17 18  1  0  0  0  0
 20 19  1  1  0  0  0
 20 22  1  0  0  0  0
 20 21  1  0  0  0  0
 22 24  1  0  0  0  0
 22 23  1  6  0  0  0
 24 26  1  1  0  0  0
 24 25  1  0  0  0  0
 26 27  1  0  0  0  0
 27 28  1  0  0  0  0
 28 30  1  0  0  0  0
 28 29  2  0  0  0  0
 28 31  1  0  0  0  0
M  CHG  2  30  -1  31  -1
M  END
>  <CHROM.1>
-96.53001128,38.11492253,81.54765488,60.14938874,-41.28233282,-67.64059873
167.29558965,58.71191509,73.17832066,-79.49816569,-7.33559750,-6.27053915
1.89837329,-2.22813658,-0.39125389,1.68587921

>  <Name>
1fmn_cryst

>  <RI>
0

>  <Rbt.Current_Directory>
/home/itssahil/PROJECTS/Mol_Feturizer/New_Systems/rnas/1fmn

>  <Rbt.Executable>
rbdock ($Id: //depot/dev/client3/rdock/2013.1/src/exe/rbdock.cxx#4 $)

>  <Rbt.Library>
libRbt.so (2013.1, Build901 2013/11/27)

>  <Rbt.Parameter_File>
/export/apps/rDock/src/rDock_2013.1_src/data/scripts/dock_solv.prm

>  <Rbt.Receptor>
prm/pocket_docking_7.prm

>  <SCORE>
-47.76

>  <SCORE.INTER>
-43.6039

>  <SCORE.INTER.CONST>
1

>  <SCORE.INTER.POLAR>
-1.49956

>  <SCORE.INTER.ROT>
7

>  <SCORE.INTER.SOLV>
17.0404

>  <SCORE.INTER.VDW>
-38.0175

>  <SCORE.INTER.norm>
-1.40658

>  <SCORE.INTRA>
-4.20143

>  <SCORE.INTRA.DIHEDRAL>
-6.82088

>  <SCORE.INTRA.DIHEDRAL.0>
15.5708

>  <SCORE.INTRA.POLAR>
-0.387374

>  <SCORE.INTRA.POLAR.0>
-0.0677885

>  <SCORE.INTRA.REPUL>
0

>  <SCORE.INTRA.REPUL.0>
0

>  <SCORE.INTRA.SOLV>
-0.0909501

>  <SCORE.INTRA.SOLV.lig_0>
-87.6316

>  <SCORE.INTRA.VDW>
0.57156

>  <SCORE.INTRA.VDW.0>
-2.87309

>  <SCORE.INTRA.norm>
-0.13553

>  <SCORE.RESTR>
0.0453353

>  <SCORE.RESTR.CAVITY>
0.0453353

>  <SCORE.RESTR.norm>
0.00146243

>  <SCORE.SYSTEM>
0

>  <SCORE.SYSTEM.CONST>
0

>  <SCORE.SYSTEM.DIHEDRAL>
0

>  <SCORE.SYSTEM.SOLV>
0

>  <SCORE.SYSTEM.norm>
0

>  <SCORE.heavy>
31

>  <SCORE.norm>
-1.54065

>  <SYMMETRIC_BONDS>
33 34 3

>  <RMSD>
4.691

$$$$
1fmn_cryst
 OpenBabel11021811393D
libRbt.so/2013.1/901 2013/11/27
 31 33  0  0  0  0  0  0  0  0999 V2000
   -7.5306   -5.2212   -1.9448 N   0  0  0  0  0  0  0  0  0  0  0  0
   -7.6025   -4.7092   -3.2192 C   0  0  0  0  0  0  0  0  0  0  0  0
   -6.6613   -4.7902   -4.0092 O   0  0  0  0  0  0  0  0  0  0  0  0
   -8.8250   -4.0793   -3.5629 N   0  0  0  0  0  0  0  0  0  0  0  0
   -9.9585   -3.9278   -2.7344 C   0  0  0  0  0  0  0  0  0  0  0  0
  -10.9673   -3.3547   -3.1648 O   0  0  0  0  0  0  0  0  0  0  0  0
   -9.8020   -4.4982   -1.3945 C   0  0  0  0  0  0  0  0  0  0  0  0
  -10.8604   -4.3926   -0.5268 N   0  0  0  0  0  0  0  0  0  0  0  0
  -10.6507   -4.7603    0.7706 C   0  0  0  0  0  0  0  0  0  0  0  0
  -11.6482   -4.4857    1.6893 C   0  0  0  0  0  0  0  0  0  0  0  0
  -11.5091   -4.8223    2.9926 C   0  0  0  0  0  0  0  0  0  0  0  0
  -12.6185   -4.5059    3.9442 C   0  0  0  0  0  0  0  0  0  0  0  0
  -10.3768   -5.4397    3.4261 C   0  0  0  0  0  0  0  0  0  0  0  0
  -10.2287   -5.8017    4.8680 C   0  0  0  0  0  0  0  0  0  0  0  0
   -9.3720   -5.7297    2.5606 C   0  0  0  0  0  0  0  0  0  0  0  0
   -9.4655   -5.4045    1.2074 C   0  0  0  0  0  0  0  0  0  0  0  0
   -8.4620   -5.6796    0.2549 N   0  0  0  0  0  0  0  0  0  0  0  0
   -8.5576   -5.1423   -1.0451 C   0  0  0  0  0  0  0  0  0  0  0  0
   -7.6507   -6.9411    0.4245 C   0  0  0  0  0  0  0  0  0  0  0  0
   -6.3884   -6.8350    1.3331 C   0  0  1  0  0  0  0  0  0  0  0  0
   -6.5704   -5.8167    2.3067 O   0  0  0  0  0  0  0  0  0  0  0  0
   -5.9805   -8.1843    1.9710 C   0  0  1  0  0  0  0  0  0  0  0  0
   -5.1488   -8.9205    1.0789 O   0  0  0  0  0  0  0  0  0  0  0  0
   -5.3281   -8.1275    3.3742 C   0  0  1  0  0  0  0  0  0  0  0  0
   -6.3244   -7.7502    4.3180 O   0  0  0  0  0  0  0  0  0  0  0  0
   -4.7164   -9.4780    3.8096 C   0  0  0  0  0  0  0  0  0  0  0  0
   -4.3110   -9.4765    5.1733 O   0  0  0  0  0  0  0  0  0  0  0  0
   -3.0951   -8.6099    5.7042 P   0  0  0  0  0  0  0  0  0  0  0  0
   -3.3781   -7.1630    5.5686 O   0  0  0  0  0  0  0  0  0  0  0  0
   -2.6224   -9.1196    7.0095 O   0  5  0  0  0  0  0  0  0  0  0  0
   -1.9310   -8.9144    4.6615 O   0  5  0  0  0  0  0  0  0  0  0  0
  1 18  1  0  0  0  0
  1  2  1  0  0  0  0
  2  4  1  0  0  0  0
  2  3  2  0  0  0  0
  4  5  1  0  0  0  0
  5  7  1  0  0  0  0
  5  6  2  0  0  0  0
  7 18  2  0  0  0  0
  7  8  1  0  0  0  0
  8  9  1  0  0  0  0
  9 10  2  0  0  0  0
  9 16  1  0  0  0  0
 10 11  1  0  0  0  0
 11 12  1  0  0  0  0
 11 13  2  0  0  0  0
 13 14  1  0  0  0  0
 13 15  1  0  0  0  0
 15 16  2  0  0  0  0
 16 17  1  0  0  0  0
 17 19  1  0  0  0  0
 17 18  1  0  0  0  0
 20 19  1  1  0  0  0
 20 22  1  0  0  0  0
 20 21  1  0  0  0  0
 22 24  1  0  0  0  0
 22 23  1  6  0  0  0
 24 26  1  1  0  0  0
 24 25  1  0  0  0  0
 26 27  1  0  0  0  0
 27 28  1  0  0  0  0
 28 30  1  0  0  0  0
 28 29  2  0  0  0  0
 28 31  1  0  0  0  0
M  CHG  2  30  -1  31  -1
M  END
>  <CHROM.1>
-87.16279478,27.84799344,85.74501826,-172.39232877,70.30479120,-72.80822163
-170.66840397,59.58094931,-68.39901217,64.83720552,-7.37450997,-6.36448316
1.74737112,-2.32237846,-0.40794739,1.80106906

>  <Name>
1fmn_cryst

>  <RI>
0

>  <Rbt.Current_Directory>
/home/itssahil/PROJECTS/Mol_Feturizer/New_Systems/rnas/1fmn

>  <Rbt.Executable>
rbdock ($Id: //depot/dev/client3/rdock/2013.1/src/exe/rbdock.cxx#4 $)

>  <Rbt.Library>
libRbt.so (2013.1, Build901 2013/11/27)

>  <Rbt.Parameter_File>
/export/apps/rDock/src/rDock_2013.1_src/data/scripts/dock_solv.prm

>  <Rbt.Receptor>
prm/pocket_docking_2.prm

>  <SCORE>
-46.1272

>  <SCORE.INTER>
-43.609

>  <SCORE.INTER.CONST>
1

>  <SCORE.INTER.POLAR>
-1.11102

>  <SCORE.INTER.ROT>
7

>  <SCORE.INTER.SOLV>
15.2501

>  <SCORE.INTER.VDW>
-38.7193

>  <SCORE.INTER.norm>
-1.40674

>  <SCORE.INTRA>
-2.75694

>  <SCORE.INTRA.DIHEDRAL>
-5.94837

>  <SCORE.INTRA.DIHEDRAL.0>
15.5708

>  <SCORE.INTRA.POLAR>
0.0677885

>  <SCORE.INTRA.POLAR.0>
-0.0677885

>  <SCORE.INTRA.REPUL>
0

>  <SCORE.INTRA.REPUL.0>
0

>  <SCORE.INTRA.SOLV>
-1.26544

>  <SCORE.INTRA.SOLV.lig_0>
-87.6316

>  <SCORE.INTRA.VDW>
0.619488

>  <SCORE.INTRA.VDW.0>
-2.87309

>  <SCORE.INTRA.norm>
-0.0889334

>  <SCORE.RESTR>
0.238732

>  <SCORE.RESTR.CAVITY>
0.238732

>  <SCORE.RESTR.norm>
0.00770102

>  <SCORE.SYSTEM>
0

>  <SCORE.SYSTEM.CONST>
0

>  <SCORE.SYSTEM.DIHEDRAL>
0

>  <SCORE.SYSTEM.SOLV>
0

>  <SCORE.SYSTEM.norm>
0

>  <SCORE.heavy>
31

>  <SCORE.norm>
-1.48798

>  <SYMMETRIC_BONDS>
33 34 3

>  <RMSD>
4.692

$$$$
1fmn_cryst
 OpenBabel11021811393D
libRbt.so/2013.1/901 2013/11/27
 31 33  0  0  0  0  0  0  0  0999 V2000
   -7.3652   -5.4544   -1.8319 N   0  0  0  0  0  0  0  0  0  0  0  0
   -7.3701   -4.9439   -3.1090 C   0  0  0  0  0  0  0  0  0  0  0  0
   -6.4174   -5.0928   -3.8750 O   0  0  0  0  0  0  0  0  0  0  0  0
   -8.5373   -4.2326   -3.4846 N   0  0  0  0  0  0  0  0  0  0  0  0
   -9.6778   -4.0000   -2.6850 C   0  0  0  0  0  0  0  0  0  0  0  0
  -10.6337   -3.3605   -3.1419 O   0  0  0  0  0  0  0  0  0  0  0  0
   -9.5943   -4.5743   -1.3403 C   0  0  0  0  0  0  0  0  0  0  0  0
  -10.6640   -4.3925   -0.4996 N   0  0  0  0  0  0  0  0  0  0  0  0
  -10.5124   -4.7684    0.8036 C   0  0  0  0  0  0  0  0  0  0  0  0
  -11.5110   -4.4220    1.6964 C   0  0  0  0  0  0  0  0  0  0  0  0
  -11.4278   -4.7621    3.0036 C   0  0  0  0  0  0  0  0  0  0  0  0
  -12.5360   -4.3661    3.9264 C   0  0  0  0  0  0  0  0  0  0  0  0
  -10.3519   -5.4543    3.4666 C   0  0  0  0  0  0  0  0  0  0  0  0
  -10.2649   -5.8197    4.9127 C   0  0  0  0  0  0  0  0  0  0  0  0
   -9.3483   -5.8163    2.6272 C   0  0  0  0  0  0  0  0  0  0  0  0
   -9.3857   -5.4910    1.2714 C   0  0  0  0  0  0  0  0  0  0  0  0
   -8.3803   -5.8386    0.3449 N   0  0  0  0  0  0  0  0  0  0  0  0
   -8.4064   -5.3012   -0.9584 C   0  0  0  0  0  0  0  0  0  0  0  0
   -7.6624   -7.1522    0.5377 C   0  0  0  0  0  0  0  0  0  0  0  0
   -6.1139   -7.0770    0.7013 C   0  0  1  0  0  0  0  0  0  0  0  0
   -5.6097   -5.9155    0.0574 O   0  0  0  0  0  0  0  0  0  0  0  0
   -5.6506   -7.1736    2.1744 C   0  0  1  0  0  0  0  0  0  0  0  0
   -6.2339   -8.3120    2.8015 O   0  0  0  0  0  0  0  0  0  0  0  0
   -4.1237   -7.1547    2.4316 C   0  0  1  0  0  0  0  0  0  0  0  0
   -3.6264   -5.8656    2.0899 O   0  0  0  0  0  0  0  0  0  0  0  0
   -3.7564   -7.4559    3.9020 C   0  0  0  0  0  0  0  0  0  0  0  0
   -2.3764   -7.7602    4.0661 O   0  0  0  0  0  0  0  0  0  0  0  0
   -1.7562   -8.2020    5.4558 P   0  0  0  0  0  0  0  0  0  0  0  0
   -1.6470   -7.0479    6.3768 O   0  0  0  0  0  0  0  0  0  0  0  0
   -2.4016   -9.4394    5.9449 O   0  5  0  0  0  0  0  0  0  0  0  0
   -0.2577   -8.5977    5.0915 O   0  5  0  0  0  0  0  0  0  0  0  0
  1 18  1  0  0  0  0
  1  2  1  0  0  0  0
  2  4  1  0  0  0  0
  2  3  2  0  0  0  0
  4  5  1  0  0  0  0
  5  7  1  0  0  0  0
  5  6  2  0  0  0  0
  7 18  2  0  0  0  0
  7  8  1  0  0  0  0
  8  9  1  0  0  0  0
  9 10  2  0  0  0  0
  9 16  1  0  0  0  0
 10 11  1  0  0  0  0
 11 12  1  0  0  0  0
 11 13  2  0  0  0  0
 13 14  1  0  0  0  0
 13 15  1  0  0  0  0
 15 16  2  0  0  0  0
 16 17  1  0  0  0  0
 17 19  1  0  0  0  0
 17 18  1  0  0  0  0
 20 19  1  1  0  0  0
 20 22  1  0  0  0  0
 20 21  1  0  0  0  0
 22 24  1  0  0  0  0
 22 23  1  6  0  0  0
 24 26  1  1  0  0  0
 24 25  1  0  0  0  0
 26 27  1  0  0  0  0
 27 28  1  0  0  0  0
 28 30  1  0  0  0  0
 28 29  2  0  0  0  0
 28 31  1  0  0  0  0
M  CHG  2  30  -1  31  -1
M  END
>  <CHROM.1>
-121.95381459,-26.39227299,51.57927805,177.99055693,67.53284293,59.45569658
165.54786777,62.66536811,-175.75013655,-74.01673767,-6.82749114,-6.11700276
1.59366896,-2.46879946,-0.28204724,1.77915125

>  <Name>
1fmn_cryst

>  <RI>
0

>  <Rbt.Current_Directory>
/home/itssahil/PROJECTS/Mol_Feturizer/New_Systems/rnas/1fmn

>  <Rbt.Executable>
rbdock ($Id: //depot/dev/client3/rdock/2013.1/src/exe/rbdock.cxx#4 $)

>  <Rbt.Library>
libRbt.so (2013.1, Build901 2013/11/27)

>  <Rbt.Parameter_File>
/export/apps/rDock/src/rDock_2013.1_src/data/scripts/dock_solv.prm

>  <Rbt.Receptor>
prm/pocket_docking_2.prm

>  <SCORE>
-43.0041

>  <SCORE.INTER>
-34.9792

>  <SCORE.INTER.CONST>
1

>  <SCORE.INTER.POLAR>
-0.235633

>  <SCORE.INTER.ROT>
7

>  <SCORE.INTER.SOLV>
14.9725

>  <SCORE.INTER.VDW>
-35.7915

>  <SCORE.INTER.norm>
-1.12836

>  <SCORE.INTRA>
-8.37104

>  <SCORE.INTRA.DIHEDRAL>
-8.70632

>  <SCORE.INTRA.DIHEDRAL.0>
15.5708

>  <SCORE.INTRA.POLAR>
-0.851584

>  <SCORE.INTRA.POLAR.0>
-0.0677885

>  <SCORE.INTRA.REPUL>
0

>  <SCORE.INTRA.REPUL.0>
0

>  <SCORE.INTRA.SOLV>
-3.93779

>  <SCORE.INTRA.SOLV.lig_0>
-87.6316

>  <SCORE.INTRA.VDW>
0.846405

>  <SCORE.INTRA.VDW.0>
-2.87309

>  <SCORE.INTRA.norm>
-0.270033

>  <SCORE.RESTR>
0.346126

>  <SCORE.RESTR.CAVITY>
0.346126

>  <SCORE.RESTR.norm>
0.0111653

>  <SCORE.SYSTEM>
0

>  <SCORE.SYSTEM.CONST>
0

>  <SCORE.SYSTEM.DIHEDRAL>
0

>  <SCORE.SYSTEM.SOLV>
0

>  <SCORE.SYSTEM.norm>
0

>  <SCORE.heavy>
31

>  <SCORE.norm>
-1.38723

>  <SYMMETRIC_BONDS>
33 34 3

>  <RMSD>
4.694

$$$$
1fmn_cryst
 OpenBabel11021811393D
libRbt.so/2013.1/901 2013/11/27
 31 33  0  0  0  0  0  0  0  0999 V2000
   -7.3148   -5.5414   -1.8323 N   0  0  0  0  0  0  0  0  0  0  0  0
   -7.3224   -5.0574   -3.1196 C   0  0  0  0  0  0  0  0  0  0  0  0
   -6.3626   -5.2030   -3.8773 O   0  0  0  0  0  0  0  0  0  0  0  0
   -8.5012   -4.3772   -3.5160 N   0  0  0  0  0  0  0  0  0  0  0  0
   -9.6507   -4.1509   -2.7275 C   0  0  0  0  0  0  0  0  0  0  0  0
  -10.6163   -3.5399   -3.2025 O   0  0  0  0  0  0  0  0  0  0  0  0
   -9.5635   -4.6958   -1.3708 C   0  0  0  0  0  0  0  0  0  0  0  0
  -10.6415   -4.5180   -0.5397 N   0  0  0  0  0  0  0  0  0  0  0  0
  -10.4899   -4.8641    0.7717 C   0  0  0  0  0  0  0  0  0  0  0  0
  -11.5003   -4.5192    1.6519 C   0  0  0  0  0  0  0  0  0  0  0  0
  -11.4178   -4.8308    2.9662 C   0  0  0  0  0  0  0  0  0  0  0  0
  -12.5388   -4.4380    3.8748 C   0  0  0  0  0  0  0  0  0  0  0  0
  -10.3312   -5.4919    3.4492 C   0  0  0  0  0  0  0  0  0  0  0  0
  -10.2453   -5.8257    4.9029 C   0  0  0  0  0  0  0  0  0  0  0  0
   -9.3159   -5.8511    2.6228 C   0  0  0  0  0  0  0  0  0  0  0  0
   -9.3519   -5.5544    1.2603 C   0  0  0  0  0  0  0  0  0  0  0  0
   -8.3345   -5.9009    0.3466 N   0  0  0  0  0  0  0  0  0  0  0  0
   -8.3637   -5.3910   -0.9676 C   0  0  0  0  0  0  0  0  0  0  0  0
   -7.5920   -7.1959    0.5702 C   0  0  0  0  0  0  0  0  0  0  0  0
   -6.0370   -7.1011    0.6259 C   0  0  1  0  0  0  0  0  0  0  0  0
   -5.6083   -5.8228    0.1783 O   0  0  0  0  0  0  0  0  0  0  0  0
   -5.4532   -7.4581    2.0136 C   0  0  1  0  0  0  0  0  0  0  0  0
   -6.1428   -6.7463    3.0370 O   0  0  0  0  0  0  0  0  0  0  0  0
   -5.3775   -8.9616    2.3765 C   0  0  1  0  0  0  0  0  0  0  0  0
   -4.9258   -9.6777    1.2324 O   0  0  0  0  0  0  0  0  0  0  0  0
   -4.4194   -9.2498    3.5540 C   0  0  0  0  0  0  0  0  0  0  0  0
   -4.7662   -8.5235    4.7271 O   0  0  0  0  0  0  0  0  0  0  0  0
   -3.9029   -8.5783    6.0549 P   0  0  0  0  0  0  0  0  0  0  0  0
   -4.1081   -9.8605    6.7663 O   0  0  0  0  0  0  0  0  0  0  0  0
   -2.5190   -8.1260    5.7959 O   0  5  0  0  0  0  0  0  0  0  0  0
   -4.5663   -7.4672    6.9824 O   0  5  0  0  0  0  0  0  0  0  0  0
  1 18  1  0  0  0  0
  1  2  1  0  0  0  0
  2  4  1  0  0  0  0
  2  3  2  0  0  0  0
  4  5  1  0  0  0  0
  5  7  1  0  0  0  0
  5  6  2  0  0  0  0
  7 18  2  0  0  0  0
  7  8  1  0  0  0  0
  8  9  1  0  0  0  0
  9 10  2  0  0  0  0
  9 16  1  0  0  0  0
 10 11  1  0  0  0  0
 11 12  1  0  0  0  0
 11 13  2  0  0  0  0
 13 14  1  0  0  0  0
 13 15  1  0  0  0  0
 15 16  2  0  0  0  0
 16 17  1  0  0  0  0
 17 19  1  0  0  0  0
 17 18  1  0  0  0  0
 20 19  1  1  0  0  0
 20 22  1  0  0  0  0
 20 21  1  0  0  0  0
 22 24  1  0  0  0  0
 22 23  1  1  0  0  0
 24 26  1  1  0  0  0
 24 25  1  0  0  0  0
 26 27  1  0  0  0  0
 27 28  1  0  0  0  0
 28 30  1  0  0  0  0
 28 29  2  0  0  0  0
 28 31  1  0  0  0  0
M  CHG  2  30  -1  31  -1
M  END
>  <CHROM.1>
-126.70802422,-11.92352070,-49.18733667,60.61346991,42.08073620,66.47627982
57.01211825,-76.83768288,-176.71918934,-74.87483304,-7.38032651,-6.42822850
1.68204299,-2.23420002,-0.44786385,1.77656457

>  <Name>
1fmn_cryst

>  <RI>
0

>  <Rbt.Current_Directory>
/home/itssahil/PROJECTS/Mol_Feturizer/New_Systems/rnas/1fmn

>  <Rbt.Executable>
rbdock ($Id: //depot/dev/client3/rdock/2013.1/src/exe/rbdock.cxx#4 $)

>  <Rbt.Library>
libRbt.so (2013.1, Build901 2013/11/27)

>  <Rbt.Parameter_File>
/export/apps/rDock/src/rDock_2013.1_src/data/scripts/dock_solv.prm

>  <Rbt.Receptor>
prm/pocket_docking_2.prm

>  <SCORE>
-49.2737

>  <SCORE.INTER>
-44.7145

>  <SCORE.INTER.CONST>
1

>  <SCORE.INTER.POLAR>
-1.39353

>  <SCORE.INTER.ROT>
7

>  <SCORE.INTER.SOLV>
17.0862

>  <SCORE.INTER.VDW>
-39.1266

>  <SCORE.INTER.norm>
-1.4424

>  <SCORE.INTRA>
-5.01084

>  <SCORE.INTRA.DIHEDRAL>
-5.4745

>  <SCORE.INTRA.DIHEDRAL.0>
15.5708

>  <SCORE.INTRA.POLAR>
-0.312033

>  <SCORE.INTRA.POLAR.0>
-0.0677885

>  <SCORE.INTRA.REPUL>
0

>  <SCORE.INTRA.REPUL.0>
0

>  <SCORE.INTRA.SOLV>
-3.32204

>  <SCORE.INTRA.SOLV.lig_0>
-87.6316

>  <SCORE.INTRA.VDW>
0.448346

>  <SCORE.INTRA.VDW.0>
-2.87309

>  <SCORE.INTRA.norm>
-0.16164

>  <SCORE.RESTR>
0.451623

>  <SCORE.RESTR.CAVITY>
0.451623

>  <SCORE.RESTR.norm>
0.0145685

>  <SCORE.SYSTEM>
0

>  <SCORE.SYSTEM.CONST>
0

>  <SCORE.SYSTEM.DIHEDRAL>
0

>  <SCORE.SYSTEM.SOLV>
0

>  <SCORE.SYSTEM.norm>
0

>  <SCORE.heavy>
31

>  <SCORE.norm>
-1.58947

>  <SYMMETRIC_BONDS>
33 34 3

>  <RMSD>
4.696

$$$$
1fmn_cryst
 OpenBabel11021811393D
libRbt.so/2013.1/901 2013/11/27
 31 33  0  0  0  0  0  0  0  0999 V2000
   -7.4692   -5.5204   -1.8548 N   0  0  0  0  0  0  0  0  0  0  0  0
   -7.4485   -4.9604   -3.1108 C   0  0  0  0  0  0  0  0  0  0  0  0
   -6.5179   -5.1501   -3.8948 O   0  0  0  0  0  0  0  0  0  0  0  0
   -8.5622   -4.1486   -3.4426 N   0  0  0  0  0  0  0  0  0  0  0  0
   -9.6733   -3.8627   -2.6194 C   0  0  0  0  0  0  0  0  0  0  0  0
  -10.5826   -3.1351   -3.0381 O   0  0  0  0  0  0  0  0  0  0  0  0
   -9.6197   -4.4949   -1.2994 C   0  0  0  0  0  0  0  0  0  0  0  0
  -10.6637   -4.2666   -0.4379 N   0  0  0  0  0  0  0  0  0  0  0  0
  -10.5275   -4.7046    0.8474 C   0  0  0  0  0  0  0  0  0  0  0  0
  -11.4876   -4.3197    1.7664 C   0  0  0  0  0  0  0  0  0  0  0  0
  -11.4168   -4.7171    3.0580 C   0  0  0  0  0  0  0  0  0  0  0  0
  -12.4821   -4.2757    4.0104 C   0  0  0  0  0  0  0  0  0  0  0  0
  -10.3919   -5.5065    3.4793 C   0  0  0  0  0  0  0  0  0  0  0  0
  -10.3178   -5.9348    4.9086 C   0  0  0  0  0  0  0  0  0  0  0  0
   -9.4275   -5.9094    2.6130 C   0  0  0  0  0  0  0  0  0  0  0  0
   -9.4541   -5.5283    1.2715 C   0  0  0  0  0  0  0  0  0  0  0  0
   -8.4877   -5.9135    0.3188 N   0  0  0  0  0  0  0  0  0  0  0  0
   -8.4865   -5.3241   -0.9621 C   0  0  0  0  0  0  0  0  0  0  0  0
   -7.8697   -7.2842    0.4505 C   0  0  0  0  0  0  0  0  0  0  0  0
   -6.3632   -7.3286    0.8487 C   0  0  1  0  0  0  0  0  0  0  0  0
   -5.5934   -6.5568   -0.0621 O   0  0  0  0  0  0  0  0  0  0  0  0
   -6.1083   -6.9194    2.3190 C   0  0  1  0  0  0  0  0  0  0  0  0
   -6.9095   -7.7058    3.1960 O   0  0  0  0  0  0  0  0  0  0  0  0
   -4.6373   -6.9235    2.8028 C   0  0  1  0  0  0  0  0  0  0  0  0
   -3.9352   -5.8942    2.1148 O   0  0  0  0  0  0  0  0  0  0  0  0
   -4.5025   -6.6868    4.3238 C   0  0  0  0  0  0  0  0  0  0  0  0
   -3.1725   -6.8841    4.7887 O   0  0  0  0  0  0  0  0  0  0  0  0
   -2.4858   -8.3114    4.8389 P   0  0  0  0  0  0  0  0  0  0  0  0
   -2.5869   -8.9931    3.5286 O   0  0  0  0  0  0  0  0  0  0  0  0
   -1.1628   -8.2305    5.4947 O   0  5  0  0  0  0  0  0  0  0  0  0
   -3.4187   -9.1445    5.8241 O   0  5  0  0  0  0  0  0  0  0  0  0
  1 18  1  0  0  0  0
  1  2  1  0  0  0  0
  2  4  1  0  0  0  0
  2  3  2  0  0  0  0
  4  5  1  0  0  0  0
  5  7  1  0  0  0  0
  5  6  2  0  0  0  0
  7 18  2  0  0  0  0
  7  8  1  0  0  0  0
  8  9  1  0  0  0  0
  9 10  2  0  0  0  0
  9 16  1  0  0  0  0
 10 11  1  0  0  0  0
 11 12  1  0  0  0  0
 11 13  2  0  0  0  0
 13 14  1  0  0  0  0
 13 15  1  0  0  0  0
 15 16  2  0  0  0  0
 16 17  1  0  0  0  0
 17 19  1  0  0  0  0
 17 18  1  0  0  0  0
 20 19  1  6  0  0  0
 20 22  1  0  0  0  0
 20 21  1  0  0  0  0
 22 24  1  0  0  0  0
 22 23  1  1  0  0  0
 24 26  1  1  0  0  0
 24 25  1  0  0  0  0
 26 27  1  0  0  0  0
 27 28  1  0  0  0  0
 28 30  1  0  0  0  0
 28 29  2  0  0  0  0
 28 31  1  0  0  0  0
M  CHG  2  30  -1  31  -1
M  END
>  <CHROM.1>
-111.41828253,-55.17822959,53.96569193,-80.98505122,67.07114330,69.98360176
171.46168958,-49.67251547,-69.25773108,52.16043375,-7.12502864,-6.10490873
1.53782930,-2.43504748,-0.32370673,1.79039819

>  <Name>
1fmn_cryst

>  <RI>
0

>  <Rbt.Current_Directory>
/home/itssahil/PROJECTS/Mol_Feturizer/New_Systems/rnas/1fmn

>  <Rbt.Executable>
rbdock ($Id: //depot/dev/client3/rdock/2013.1/src/exe/rbdock.cxx#4 $)

>  <Rbt.Library>
libRbt.so (2013.1, Build901 2013/11/27)

>  <Rbt.Parameter_File>
/export/apps/rDock/src/rDock_2013.1_src/data/scripts/dock_solv.prm

>  <Rbt.Receptor>
prm/pocket_docking_2.prm

>  <SCORE>
-45.529

>  <SCORE.INTER>
-39.1317

>  <SCORE.INTER.CONST>
1

>  <SCORE.INTER.POLAR>
-1.38009

>  <SCORE.INTER.ROT>
7

>  <SCORE.INTER.SOLV>
14.9392

>  <SCORE.INTER.VDW>
-34.7339

>  <SCORE.INTER.norm>
-1.26231

>  <SCORE.INTRA>
-7.17677

>  <SCORE.INTRA.DIHEDRAL>
-8.9358

>  <SCORE.INTRA.DIHEDRAL.0>
15.5708

>  <SCORE.INTRA.POLAR>
-0.950282

>  <SCORE.INTRA.POLAR.0>
-0.0677885

>  <SCORE.INTRA.REPUL>
0

>  <SCORE.INTRA.REPUL.0>
0

>  <SCORE.INTRA.SOLV>
-0.545785

>  <SCORE.INTRA.SOLV.lig_0>
-87.6316

>  <SCORE.INTRA.VDW>
0.794976

>  <SCORE.INTRA.VDW.0>
-2.87309

>  <SCORE.INTRA.norm>
-0.231509

>  <SCORE.RESTR>
0.779561

>  <SCORE.RESTR.CAVITY>
0.779561

>  <SCORE.RESTR.norm>
0.0251471

>  <SCORE.SYSTEM>
0

>  <SCORE.SYSTEM.CONST>
0

>  <SCORE.SYSTEM.DIHEDRAL>
0

>  <SCORE.SYSTEM.SOLV>
0

>  <SCORE.SYSTEM.norm>
0

>  <SCORE.heavy>
31

>  <SCORE.norm>
-1.46868

>  <SYMMETRIC_BONDS>
33 34 3

>  <RMSD>
4.710

$$$$
1fmn_cryst
 OpenBabel11021811393D
libRbt.so/2013.1/901 2013/11/27
 31 33  0  0  0  0  0  0  0  0999 V2000
   -7.2584   -5.5983   -1.8363 N   0  0  0  0  0  0  0  0  0  0  0  0
   -7.2578   -5.1485   -3.1360 C   0  0  0  0  0  0  0  0  0  0  0  0
   -6.2879   -5.3016   -3.8792 O   0  0  0  0  0  0  0  0  0  0  0  0
   -8.4408   -4.4945   -3.5630 N   0  0  0  0  0  0  0  0  0  0  0  0
   -9.6017   -4.2624   -2.7932 C   0  0  0  0  0  0  0  0  0  0  0  0
  -10.5697   -3.6768   -3.2947 O   0  0  0  0  0  0  0  0  0  0  0  0
   -9.5228   -4.7701   -1.4217 C   0  0  0  0  0  0  0  0  0  0  0  0
  -10.6121   -4.5845   -0.6073 N   0  0  0  0  0  0  0  0  0  0  0  0
  -10.4707   -4.8939    0.7144 C   0  0  0  0  0  0  0  0  0  0  0  0
  -11.4952   -4.5391    1.5741 C   0  0  0  0  0  0  0  0  0  0  0  0
  -11.4234   -4.8148    2.8971 C   0  0  0  0  0  0  0  0  0  0  0  0
  -12.5594   -4.4128    3.7827 C   0  0  0  0  0  0  0  0  0  0  0  0
  -10.3339   -5.4487    3.4091 C   0  0  0  0  0  0  0  0  0  0  0  0
  -10.2600   -5.7429    4.8720 C   0  0  0  0  0  0  0  0  0  0  0  0
   -9.3050   -5.8163    2.6035 C   0  0  0  0  0  0  0  0  0  0  0  0
   -9.3295   -5.5562    1.2334 C   0  0  0  0  0  0  0  0  0  0  0  0
   -8.2978   -5.9134    0.3402 N   0  0  0  0  0  0  0  0  0  0  0  0
   -8.3188   -5.4387   -0.9873 C   0  0  0  0  0  0  0  0  0  0  0  0
   -7.5413   -7.1922    0.6061 C   0  0  0  0  0  0  0  0  0  0  0  0
   -5.9886   -7.1143    0.4914 C   0  0  1  0  0  0  0  0  0  0  0  0
   -5.5667   -5.7580    0.4732 O   0  0  0  0  0  0  0  0  0  0  0  0
   -5.2545   -7.9379    1.5762 C   0  0  1  0  0  0  0  0  0  0  0  0
   -5.8505   -9.2254    1.7059 O   0  0  0  0  0  0  0  0  0  0  0  0
   -3.7195   -8.0800    1.4294 C   0  0  1  0  0  0  0  0  0  0  0  0
   -3.1473   -6.7768    1.4124 O   0  0  0  0  0  0  0  0  0  0  0  0
   -3.0768   -8.8906    2.5771 C   0  0  0  0  0  0  0  0  0  0  0  0
   -3.3312   -8.3190    3.8549 O   0  0  0  0  0  0  0  0  0  0  0  0
   -2.7604   -8.9362    5.1982 P   0  0  0  0  0  0  0  0  0  0  0  0
   -1.2812   -8.9909    5.1682 O   0  0  0  0  0  0  0  0  0  0  0  0
   -3.4227   -8.3298    6.3732 O   0  5  0  0  0  0  0  0  0  0  0  0
   -3.2425  -10.4529    5.1512 O   0  5  0  0  0  0  0  0  0  0  0  0
  1 18  1  0  0  0  0
  1  2  1  0  0  0  0
  2  4  1  0  0  0  0
  2  3  2  0  0  0  0
  4  5  1  0  0  0  0
  5  7  1  0  0  0  0
  5  6  2  0  0  0  0
  7 18  2  0  0  0  0
  7  8  1  0  0  0  0
  8  9  1  0  0  0  0
  9 10  2  0  0  0  0
  9 16  1  0  0  0  0
 10 11  1  0  0  0  0
 11 12  1  0  0  0  0
 11 13  2  0  0  0  0
 13 14  1  0  0  0  0
 13 15  1  0  0  0  0
 15 16  2  0  0  0  0
 16 17  1  0  0  0  0
 17 19  1  0  0  0  0
 17 18  1  0  0  0  0
 20 19  1  1  0  0  0
 20 22  1  0  0  0  0
 20 21  1  0  0  0  0
 22 24  1  0  0  0  0
 22 23  1  6  0  0  0
 24 26  1  1  0  0  0
 24 25  1  0  0  0  0
 26 27  1  0  0  0  0
 27 28  1  0  0  0  0
 28 30  1  0  0  0  0
 28 29  2  0  0  0  0
 28 31  1  0  0  0  0
M  CHG  2  30  -1  31  -1
M  END
>  <CHROM.1>
-134.45046918,14.28192007,45.41358525,168.30499616,58.04413174,59.56591437
-58.21547042,-176.63125172,-178.68841424,59.01096134,-6.93832500,-6.50848541
1.36389641,-2.45207038,-0.39121352,1.80966924

>  <Name>
1fmn_cryst

>  <RI>
0

>  <Rbt.Current_Directory>
/home/itssahil/PROJECTS/Mol_Feturizer/New_Systems/rnas/1fmn

>  <Rbt.Executable>
rbdock ($Id: //depot/dev/client3/rdock/2013.1/src/exe/rbdock.cxx#4 $)

>  <Rbt.Library>
libRbt.so (2013.1, Build901 2013/11/27)

>  <Rbt.Parameter_File>
/export/apps/rDock/src/rDock_2013.1_src/data/scripts/dock_solv.prm

>  <Rbt.Receptor>
prm/pocket_docking_8.prm

>  <SCORE>
-49.0459

>  <SCORE.INTER>
-42.1204

>  <SCORE.INTER.CONST>
1

>  <SCORE.INTER.POLAR>
-1.42746

>  <SCORE.INTER.ROT>
7

>  <SCORE.INTER.SOLV>
16.9882

>  <SCORE.INTER.VDW>
-37.2515

>  <SCORE.INTER.norm>
-1.35872

>  <SCORE.INTRA>
-6.92553

>  <SCORE.INTRA.DIHEDRAL>
-7.56307

>  <SCORE.INTRA.DIHEDRAL.0>
15.5708

>  <SCORE.INTRA.POLAR>
-0.878839

>  <SCORE.INTRA.POLAR.0>
-0.0677885

>  <SCORE.INTRA.REPUL>
0

>  <SCORE.INTRA.REPUL.0>
0

>  <SCORE.INTRA.SOLV>
-3.69243

>  <SCORE.INTRA.SOLV.lig_0>
-87.6316

>  <SCORE.INTRA.VDW>
1.69027

>  <SCORE.INTRA.VDW.0>
-2.87309

>  <SCORE.INTRA.norm>
-0.223404

>  <SCORE.RESTR>
0

>  <SCORE.RESTR.CAVITY>
0

>  <SCORE.RESTR.norm>
0

>  <SCORE.SYSTEM>
0

>  <SCORE.SYSTEM.CONST>
0

>  <SCORE.SYSTEM.DIHEDRAL>
0

>  <SCORE.SYSTEM.SOLV>
0

>  <SCORE.SYSTEM.norm>
0

>  <SCORE.heavy>
31

>  <SCORE.norm>
-1.58213

>  <SYMMETRIC_BONDS>
33 34 3

>  <RMSD>
4.711

$$$$
1fmn_cryst
 OpenBabel11021811393D
libRbt.so/2013.1/901 2013/11/27
 31 33  0  0  0  0  0  0  0  0999 V2000
   -7.3448   -5.5918   -1.8526 N   0  0  0  0  0  0  0  0  0  0  0  0
   -7.3428   -5.1085   -3.1403 C   0  0  0  0  0  0  0  0  0  0  0  0
   -6.3873   -5.2761   -3.8988 O   0  0  0  0  0  0  0  0  0  0  0  0
   -8.5065   -4.4023   -3.5359 N   0  0  0  0  0  0  0  0  0  0  0  0
   -9.6497   -4.1497   -2.7464 C   0  0  0  0  0  0  0  0  0  0  0  0
  -10.6019   -3.5175   -3.2208 O   0  0  0  0  0  0  0  0  0  0  0  0
   -9.5735   -4.6957   -1.3894 C   0  0  0  0  0  0  0  0  0  0  0  0
  -10.6463   -4.4932   -0.5574 N   0  0  0  0  0  0  0  0  0  0  0  0
  -10.5013   -4.8418    0.7541 C   0  0  0  0  0  0  0  0  0  0  0  0
  -11.5028   -4.4739    1.6350 C   0  0  0  0  0  0  0  0  0  0  0  0
  -11.4260   -4.7864    2.9495 C   0  0  0  0  0  0  0  0  0  0  0  0
  -12.5371   -4.3680    3.8589 C   0  0  0  0  0  0  0  0  0  0  0  0
  -10.3540   -5.4715    3.4317 C   0  0  0  0  0  0  0  0  0  0  0  0
  -10.2742   -5.8063    4.8856 C   0  0  0  0  0  0  0  0  0  0  0  0
   -9.3479   -5.8539    2.6045 C   0  0  0  0  0  0  0  0  0  0  0  0
   -9.3786   -5.5573    1.2420 C   0  0  0  0  0  0  0  0  0  0  0  0
   -8.3702   -5.9270    0.3274 N   0  0  0  0  0  0  0  0  0  0  0  0
   -8.3892   -5.4174   -0.9871 C   0  0  0  0  0  0  0  0  0  0  0  0
   -7.6567   -7.2382    0.5511 C   0  0  0  0  0  0  0  0  0  0  0  0
   -6.1404   -7.1497    0.9023 C   0  0  1  0  0  0  0  0  0  0  0  0
   -5.5611   -6.0086    0.2857 O   0  0  0  0  0  0  0  0  0  0  0  0
   -5.8629   -7.1933    2.4238 C   0  0  1  0  0  0  0  0  0  0  0  0
   -5.2148   -8.4132    2.7724 O   0  0  0  0  0  0  0  0  0  0  0  0
   -5.0922   -5.9950    3.0303 C   0  0  1  0  0  0  0  0  0  0  0  0
   -5.8348   -4.8078    2.7754 O   0  0  0  0  0  0  0  0  0  0  0  0
   -4.8742   -6.1278    4.5543 C   0  0  0  0  0  0  0  0  0  0  0  0
   -4.0782   -7.2573    4.8930 O   0  0  0  0  0  0  0  0  0  0  0  0
   -3.6191   -7.5672    6.3777 P   0  0  0  0  0  0  0  0  0  0  0  0
   -2.6905   -8.7197    6.4142 O   0  0  0  0  0  0  0  0  0  0  0  0
   -3.2295   -6.3218    7.0736 O   0  5  0  0  0  0  0  0  0  0  0  0
   -4.9517   -8.0730    7.0870 O   0  5  0  0  0  0  0  0  0  0  0  0
  1 18  1  0  0  0  0
  1  2  1  0  0  0  0
  2  4  1  0  0  0  0
  2  3  2  0  0  0  0
  4  5  1  0  0  0  0
  5  7  1  0  0  0  0
  5  6  2  0  0  0  0
  7 18  2  0  0  0  0
  7  8  1  0  0  0  0
  8  9  1  0  0  0  0
  9 10  2  0  0  0  0
  9 16  1  0  0  0  0
 10 11  1  0  0  0  0
 11 12  1  0  0  0  0
 11 13  2  0  0  0  0
 13 14  1  0  0  0  0
 13 15  1  0  0  0  0
 15 16  2  0  0  0  0
 16 17  1  0  0  0  0
 17 19  1  0  0  0  0
 17 18  1  0  0  0  0
 20 19  1  1  0  0  0
 20 22  1  0  0  0  0
 20 21  1  0  0  0  0
 22 24  1  0  0  0  0
 22 23  1  6  0  0  0
 24 26  1  1  0  0  0
 24 25  1  0  0  0  0
 26 27  1  0  0  0  0
 27 28  1  0  0  0  0
 28 30  1  0  0  0  0
 28 29  2  0  0  0  0
 28 31  1  0  0  0  0
M  CHG  2  30  -1  31  -1
M  END
>  <CHROM.1>
-114.33199173,-30.84408036,111.24284781,68.74447601,58.97716686,-68.08192754
62.59611786,63.54076632,175.59569237,-174.15641752,-7.35313419,-5.93575001
1.85773467,-2.20206248,-0.30372949,1.71350283

>  <Name>
1fmn_cryst

>  <RI>
0

>  <Rbt.Current_Directory>
/home/itssahil/PROJECTS/Mol_Feturizer/New_Systems/rnas/1fmn

>  <Rbt.Executable>
rbdock ($Id: //depot/dev/client3/rdock/2013.1/src/exe/rbdock.cxx#4 $)

>  <Rbt.Library>
libRbt.so (2013.1, Build901 2013/11/27)

>  <Rbt.Parameter_File>
/export/apps/rDock/src/rDock_2013.1_src/data/scripts/dock_solv.prm

>  <Rbt.Receptor>
prm/pocket_docking_7.prm

>  <SCORE>
-47.1867

>  <SCORE.INTER>
-40.881

>  <SCORE.INTER.CONST>
1

>  <SCORE.INTER.POLAR>
-1.00544

>  <SCORE.INTER.ROT>
7

>  <SCORE.INTER.SOLV>
15.695

>  <SCORE.INTER.VDW>
-37.4008

>  <SCORE.INTER.norm>
-1.31874

>  <SCORE.INTRA>
-6.31522

>  <SCORE.INTRA.DIHEDRAL>
-4.58914

>  <SCORE.INTRA.DIHEDRAL.0>
15.5708

>  <SCORE.INTRA.POLAR>
-0.691542

>  <SCORE.INTRA.POLAR.0>
-0.0677885

>  <SCORE.INTRA.REPUL>
0

>  <SCORE.INTRA.REPUL.0>
0

>  <SCORE.INTRA.SOLV>
-2.72734

>  <SCORE.INTRA.SOLV.lig_0>
-87.6316

>  <SCORE.INTRA.VDW>
-0.305735

>  <SCORE.INTRA.VDW.0>
-2.87309

>  <SCORE.INTRA.norm>
-0.203717

>  <SCORE.RESTR>
0.00946647

>  <SCORE.RESTR.CAVITY>
0.00946647

>  <SCORE.RESTR.norm>
0.00030537

>  <SCORE.SYSTEM>
0

>  <SCORE.SYSTEM.CONST>
0

>  <SCORE.SYSTEM.DIHEDRAL>
0

>  <SCORE.SYSTEM.SOLV>
0

>  <SCORE.SYSTEM.norm>
0

>  <SCORE.heavy>
31

>  <SCORE.norm>
-1.52215

>  <SYMMETRIC_BONDS>
33 34 3

>  <RMSD>
4.717

$$$$
1fmn_cryst
 OpenBabel11021811393D
libRbt.so/2013.1/901 2013/11/27
 31 33  0  0  0  0  0  0  0  0999 V2000
   -7.1501   -5.6244   -1.8406 N   0  0  0  0  0  0  0  0  0  0  0  0
   -7.1603   -5.1889   -3.1451 C   0  0  0  0  0  0  0  0  0  0  0  0
   -6.1862   -5.3246   -3.8862 O   0  0  0  0  0  0  0  0  0  0  0  0
   -8.3596   -4.5705   -3.5796 N   0  0  0  0  0  0  0  0  0  0  0  0
   -9.5267   -4.3605   -2.8128 C   0  0  0  0  0  0  0  0  0  0  0  0
  -10.5093   -3.8058   -3.3210 O   0  0  0  0  0  0  0  0  0  0  0  0
   -9.4355   -4.8511   -1.4358 C   0  0  0  0  0  0  0  0  0  0  0  0
  -10.5298   -4.6852   -0.6239 N   0  0  0  0  0  0  0  0  0  0  0  0
  -10.3813   -4.9763    0.7011 C   0  0  0  0  0  0  0  0  0  0  0  0
  -11.4152   -4.6391    1.5565 C   0  0  0  0  0  0  0  0  0  0  0  0
  -11.3372   -4.8985    2.8824 C   0  0  0  0  0  0  0  0  0  0  0  0
  -12.4839   -4.5167    3.7632 C   0  0  0  0  0  0  0  0  0  0  0  0
  -10.2319   -5.4982    3.4017 C   0  0  0  0  0  0  0  0  0  0  0  0
  -10.1512   -5.7745    4.8678 C   0  0  0  0  0  0  0  0  0  0  0  0
   -9.1931   -5.8475    2.6006 C   0  0  0  0  0  0  0  0  0  0  0  0
   -9.2236   -5.6030    1.2277 C   0  0  0  0  0  0  0  0  0  0  0  0
   -8.1823   -5.9428    0.3388 N   0  0  0  0  0  0  0  0  0  0  0  0
   -8.2148   -5.4833   -0.9938 C   0  0  0  0  0  0  0  0  0  0  0  0
   -7.3929   -7.1986    0.6189 C   0  0  0  0  0  0  0  0  0  0  0  0
   -5.8890   -7.0043    0.9805 C   0  0  1  0  0  0  0  0  0  0  0  0
   -5.7665   -6.4510    2.2831 O   0  0  0  0  0  0  0  0  0  0  0  0
   -5.0499   -8.2936    0.8142 C   0  0  1  0  0  0  0  0  0  0  0  0
   -3.6596   -7.9888    0.8748 O   0  0  0  0  0  0  0  0  0  0  0  0
   -5.3741   -9.4688    1.7690 C   0  0  1  0  0  0  0  0  0  0  0  0
   -4.5346  -10.5673    1.4307 O   0  0  0  0  0  0  0  0  0  0  0  0
   -5.1544   -9.1146    3.2569 C   0  0  0  0  0  0  0  0  0  0  0  0
   -3.7934   -8.8220    3.5506 O   0  0  0  0  0  0  0  0  0  0  0  0
   -3.2639   -8.6042    5.0283 P   0  0  0  0  0  0  0  0  0  0  0  0
   -3.9531   -7.4640    5.6741 O   0  0  0  0  0  0  0  0  0  0  0  0
   -3.1946   -9.8917    5.7524 O   0  5  0  0  0  0  0  0  0  0  0  0
   -1.7581   -8.1293    4.8233 O   0  5  0  0  0  0  0  0  0  0  0  0
  1 18  1  0  0  0  0
  1  2  1  0  0  0  0
  2  4  1  0  0  0  0
  2  3  2  0  0  0  0
  4  5  1  0  0  0  0
  5  7  1  0  0  0  0
  5  6  2  0  0  0  0
  7 18  2  0  0  0  0
  7  8  1  0  0  0  0
  8  9  1  0  0  0  0
  9 10  2  0  0  0  0
  9 16  1  0  0  0  0
 10 11  1  0  0  0  0
 11 12  1  0  0  0  0
 11 13  2  0  0  0  0
 13 14  1  0  0  0  0
 13 15  1  0  0  0  0
 15 16  2  0  0  0  0
 16 17  1  0  0  0  0
 17 19  1  0  0  0  0
 17 18  1  0  0  0  0
 20 19  1  1  0  0  0
 20 22  1  0  0  0  0
 20 21  1  0  0  0  0
 22 24  1  0  0  0  0
 22 23  1  1  0  0  0
 24 26  1  1  0  0  0
 24 25  1  0  0  0  0
 26 27  1  0  0  0  0
 27 28  1  0  0  0  0
 28 30  1  0  0  0  0
 28 29  2  0  0  0  0
 28 31  1  0  0  0  0
M  CHG  2  30  -1  31  -1
M  END
>  <CHROM.1>
-114.45776402,71.87990031,167.43417886,-61.66930004,178.04993278,-53.90575993
-63.63173451,57.92151934,-172.24311643,-60.25989979,-7.05105970,-6.62792369
1.38103646,-2.43420314,-0.45649328,1.76226236

>  <Name>
1fmn_cryst

>  <RI>
0

>  <Rbt.Current_Directory>
/home/itssahil/PROJECTS/Mol_Feturizer/New_Systems/rnas/1fmn

>  <Rbt.Executable>
rbdock ($Id: //depot/dev/client3/rdock/2013.1/src/exe/rbdock.cxx#4 $)

>  <Rbt.Library>
libRbt.so (2013.1, Build901 2013/11/27)

>  <Rbt.Parameter_File>
/export/apps/rDock/src/rDock_2013.1_src/data/scripts/dock_solv.prm

>  <Rbt.Receptor>
prm/pocket_docking_5.prm

>  <SCORE>
-46.6626

>  <SCORE.INTER>
-39.5007

>  <SCORE.INTER.CONST>
1

>  <SCORE.INTER.POLAR>
-0.271232

>  <SCORE.INTER.ROT>
7

>  <SCORE.INTER.SOLV>
16.2549

>  <SCORE.INTER.VDW>
-39.1147

>  <SCORE.INTER.norm>
-1.27422

>  <SCORE.INTRA>
-7.16187

>  <SCORE.INTRA.DIHEDRAL>
-11.2087

>  <SCORE.INTRA.DIHEDRAL.0>
15.5708

>  <SCORE.INTRA.POLAR>
0.050264

>  <SCORE.INTRA.POLAR.0>
-0.0677885

>  <SCORE.INTRA.REPUL>
0.0214708

>  <SCORE.INTRA.REPUL.0>
0

>  <SCORE.INTRA.SOLV>
-3.93886

>  <SCORE.INTRA.SOLV.lig_0>
-87.6316

>  <SCORE.INTRA.VDW>
0.133636

>  <SCORE.INTRA.VDW.0>
-2.87309

>  <SCORE.INTRA.norm>
-0.231028

>  <SCORE.RESTR>
0

>  <SCORE.RESTR.CAVITY>
0

>  <SCORE.RESTR.norm>
0

>  <SCORE.SYSTEM>
0

>  <SCORE.SYSTEM.CONST>
0

>  <SCORE.SYSTEM.DIHEDRAL>
0

>  <SCORE.SYSTEM.SOLV>
0

>  <SCORE.SYSTEM.norm>
0

>  <SCORE.heavy>
31

>  <SCORE.norm>
-1.50525

>  <SYMMETRIC_BONDS>
33 34 3

>  <RMSD>
4.737

$$$$
1fmn_cryst
 OpenBabel11021811393D
libRbt.so/2013.1/901 2013/11/27
 31 33  0  0  0  0  0  0  0  0999 V2000
   -7.5901   -5.1710   -1.9173 N   0  0  0  0  0  0  0  0  0  0  0  0
   -7.6567   -4.6454   -3.1865 C   0  0  0  0  0  0  0  0  0  0  0  0
   -6.7189   -4.7338   -3.9796 O   0  0  0  0  0  0  0  0  0  0  0  0
   -8.8697   -3.9923   -3.5207 N   0  0  0  0  0  0  0  0  0  0  0  0
   -9.9985   -3.8306   -2.6879 C   0  0  0  0  0  0  0  0  0  0  0  0
  -10.9989   -3.2370   -3.1100 O   0  0  0  0  0  0  0  0  0  0  0  0
   -9.8481   -4.4167   -1.3540 C   0  0  0  0  0  0  0  0  0  0  0  0
  -10.9025   -4.3025   -0.4826 N   0  0  0  0  0  0  0  0  0  0  0  0
  -10.6956   -4.6863    0.8106 C   0  0  0  0  0  0  0  0  0  0  0  0
  -11.6863   -4.4046    1.7345 C   0  0  0  0  0  0  0  0  0  0  0  0
  -11.5495   -4.7563    3.0341 C   0  0  0  0  0  0  0  0  0  0  0  0
  -12.6513   -4.4314    3.9916 C   0  0  0  0  0  0  0  0  0  0  0  0
  -10.4264   -5.3963    3.4585 C   0  0  0  0  0  0  0  0  0  0  0  0
  -10.2807   -5.7748    4.8964 C   0  0  0  0  0  0  0  0  0  0  0  0
   -9.4285   -5.6939    2.5876 C   0  0  0  0  0  0  0  0  0  0  0  0
   -9.5201   -5.3539    1.2380 C   0  0  0  0  0  0  0  0  0  0  0  0
   -8.5235   -5.6359    0.2802 N   0  0  0  0  0  0  0  0  0  0  0  0
   -8.6135   -5.0843   -1.0142 C   0  0  0  0  0  0  0  0  0  0  0  0
   -7.7323   -6.9120    0.4353 C   0  0  0  0  0  0  0  0  0  0  0  0
   -6.1812   -6.7782    0.3574 C   0  0  1  0  0  0  0  0  0  0  0  0
   -5.8084   -5.4075    0.3422 O   0  0  0  0  0  0  0  0  0  0  0  0
   -5.4441   -7.5699    1.4638 C   0  0  1  0  0  0  0  0  0  0  0  0
   -5.9975   -8.8768    1.5874 O   0  0  0  0  0  0  0  0  0  0  0  0
   -3.9021   -7.6587    1.3531 C   0  0  1  0  0  0  0  0  0  0  0  0
   -3.3862   -6.3413    1.1969 O   0  0  0  0  0  0  0  0  0  0  0  0
   -3.2453   -8.3063    2.5928 C   0  0  0  0  0  0  0  0  0  0  0  0
   -3.6726   -7.7063    3.8100 O   0  0  0  0  0  0  0  0  0  0  0  0
   -3.2147   -8.2346    5.2322 P   0  0  0  0  0  0  0  0  0  0  0  0
   -3.8737   -7.4719    6.3167 O   0  0  0  0  0  0  0  0  0  0  0  0
   -3.2582   -9.7121    5.2782 O   0  5  0  0  0  0  0  0  0  0  0  0
   -1.6756   -7.8338    5.3059 O   0  5  0  0  0  0  0  0  0  0  0  0
  1 18  1  0  0  0  0
  1  2  1  0  0  0  0
  2  4  1  0  0  0  0
  2  3  2  0  0  0  0
  4  5  1  0  0  0  0
  5  7  1  0  0  0  0
  5  6  2  0  0  0  0
  7 18  2  0  0  0  0
  7  8  1  0  0  0  0
  8  9  1  0  0  0  0
  9 10  2  0  0  0  0
  9 16  1  0  0  0  0
 10 11  1  0  0  0  0
 11 12  1  0  0  0  0
 11 13  2  0  0  0  0
 13 14  1  0  0  0  0
 13 15  1  0  0  0  0
 15 16  2  0  0  0  0
 16 17  1  0  0  0  0
 17 19  1  0  0  0  0
 17 18  1  0  0  0  0
 20 19  1  1  0  0  0
 20 22  1  0  0  0  0
 20 21  1  0  0  0  0
 22 24  1  0  0  0  0
 22 23  1  6  0  0  0
 24 26  1  1  0  0  0
 24 25  1  0  0  0  0
 26 27  1  0  0  0  0
 27 28  1  0  0  0  0
 28 30  1  0  0  0  0
 28 29  2  0  0  0  0
 28 31  1  0  0  0  0
M  CHG  2  30  -1  31  -1
M  END
>  <CHROM.1>
-130.26245208,8.42316851,45.31467321,173.16970527,51.88477226,54.72907191
-51.19140521,-171.36071768,176.45546138,-176.70591032,-7.20036110,-6.09517939
1.36621982,-2.42763741,-0.34527572,1.80876312

>  <Name>
1fmn_cryst

>  <RI>
0

>  <Rbt.Current_Directory>
/home/itssahil/PROJECTS/Mol_Feturizer/New_Systems/rnas/1fmn

>  <Rbt.Executable>
rbdock ($Id: //depot/dev/client3/rdock/2013.1/src/exe/rbdock.cxx#4 $)

>  <Rbt.Library>
libRbt.so (2013.1, Build901 2013/11/27)

>  <Rbt.Parameter_File>
/export/apps/rDock/src/rDock_2013.1_src/data/scripts/dock_solv.prm

>  <Rbt.Receptor>
prm/pocket_docking_2.prm

>  <SCORE>
-47.398

>  <SCORE.INTER>
-40.9712

>  <SCORE.INTER.CONST>
1

>  <SCORE.INTER.POLAR>
-1.12956

>  <SCORE.INTER.ROT>
7

>  <SCORE.INTER.SOLV>
16.1349

>  <SCORE.INTER.VDW>
-37.1939

>  <SCORE.INTER.norm>
-1.32165

>  <SCORE.INTRA>
-6.61099

>  <SCORE.INTRA.DIHEDRAL>
-6.28939

>  <SCORE.INTRA.DIHEDRAL.0>
15.5708

>  <SCORE.INTRA.POLAR>
-0.827807

>  <SCORE.INTRA.POLAR.0>
-0.0677885

>  <SCORE.INTRA.REPUL>
0

>  <SCORE.INTRA.REPUL.0>
0

>  <SCORE.INTRA.SOLV>
-3.71008

>  <SCORE.INTRA.SOLV.lig_0>
-87.6316

>  <SCORE.INTRA.VDW>
1.20329

>  <SCORE.INTRA.VDW.0>
-2.87309

>  <SCORE.INTRA.norm>
-0.213258

>  <SCORE.RESTR>
0.184257

>  <SCORE.RESTR.CAVITY>
0.184257

>  <SCORE.RESTR.norm>
0.00594377

>  <SCORE.SYSTEM>
0

>  <SCORE.SYSTEM.CONST>
0

>  <SCORE.SYSTEM.DIHEDRAL>
0

>  <SCORE.SYSTEM.SOLV>
0

>  <SCORE.SYSTEM.norm>
0

>  <SCORE.heavy>
31

>  <SCORE.norm>
-1.52897

>  <SYMMETRIC_BONDS>
33 34 3

>  <RMSD>
4.744

$$$$
1fmn_cryst
 OpenBabel11021811393D
libRbt.so/2013.1/901 2013/11/27
 31 33  0  0  0  0  0  0  0  0999 V2000
   -7.4639   -5.4191   -1.8206 N   0  0  0  0  0  0  0  0  0  0  0  0
   -7.4422   -4.9087   -3.0975 C   0  0  0  0  0  0  0  0  0  0  0  0
   -6.4752   -5.0605   -3.8448 O   0  0  0  0  0  0  0  0  0  0  0  0
   -8.5997   -4.1940   -3.4958 N   0  0  0  0  0  0  0  0  0  0  0  0
   -9.7550   -3.9578   -2.7187 C   0  0  0  0  0  0  0  0  0  0  0  0
  -10.6998   -3.3155   -3.1942 O   0  0  0  0  0  0  0  0  0  0  0  0
   -9.6994   -4.5324   -1.3726 C   0  0  0  0  0  0  0  0  0  0  0  0
  -10.7849   -4.3473   -0.5530 N   0  0  0  0  0  0  0  0  0  0  0  0
  -10.6598   -4.7236    0.7529 C   0  0  0  0  0  0  0  0  0  0  0  0
  -11.6747   -4.3741    1.6260 C   0  0  0  0  0  0  0  0  0  0  0  0
  -11.6180   -4.7144    2.9346 C   0  0  0  0  0  0  0  0  0  0  0  0
  -12.7429   -4.3151    3.8355 C   0  0  0  0  0  0  0  0  0  0  0  0
  -10.5535   -5.4098    3.4186 C   0  0  0  0  0  0  0  0  0  0  0  0
  -10.4959   -5.7753    4.8661 C   0  0  0  0  0  0  0  0  0  0  0  0
   -9.5348   -5.7749    2.5990 C   0  0  0  0  0  0  0  0  0  0  0  0
   -9.5447   -5.4495    1.2427 C   0  0  0  0  0  0  0  0  0  0  0  0
   -8.5224   -5.8001    0.3360 N   0  0  0  0  0  0  0  0  0  0  0  0
   -8.5214   -5.2627   -0.9676 C   0  0  0  0  0  0  0  0  0  0  0  0
   -7.8123   -7.1159    0.5428 C   0  0  0  0  0  0  0  0  0  0  0  0
   -6.7636   -7.1625    1.6953 C   0  0  1  0  0  0  0  0  0  0  0  0
   -7.3824   -7.5814    2.9034 O   0  0  0  0  0  0  0  0  0  0  0  0
   -5.5184   -8.0148    1.3530 C   0  0  1  0  0  0  0  0  0  0  0  0
   -4.7419   -7.3719    0.3463 O   0  0  0  0  0  0  0  0  0  0  0  0
   -4.6084   -8.4321    2.5344 C   0  0  1  0  0  0  0  0  0  0  0  0
   -3.4406   -9.0506    2.0054 O   0  0  0  0  0  0  0  0  0  0  0  0
   -4.1822   -7.2381    3.4177 C   0  0  0  0  0  0  0  0  0  0  0  0
   -3.2769   -7.6194    4.4469 O   0  0  0  0  0  0  0  0  0  0  0  0
   -3.6996   -8.5504    5.6576 P   0  0  0  0  0  0  0  0  0  0  0  0
   -2.6832   -8.5127    6.7335 O   0  0  0  0  0  0  0  0  0  0  0  0
   -5.1174   -8.3291    6.0151 O   0  5  0  0  0  0  0  0  0  0  0  0
   -3.6199  -10.0197    5.0495 O   0  5  0  0  0  0  0  0  0  0  0  0
  1 18  1  0  0  0  0
  1  2  1  0  0  0  0
  2  4  1  0  0  0  0
  2  3  2  0  0  0  0
  4  5  1  0  0  0  0
  5  7  1  0  0  0  0
  5  6  2  0  0  0  0
  7 18  2  0  0  0  0
  7  8  1  0  0  0  0
  8  9  1  0  0  0  0
  9 10  2  0  0  0  0
  9 16  1  0  0  0  0
 10 11  1  0  0  0  0
 11 12  1  0  0  0  0
 11 13  2  0  0  0  0
 13 14  1  0  0  0  0
 13 15  1  0  0  0  0
 15 16  2  0  0  0  0
 16 17  1  0  0  0  0
 17 19  1  0  0  0  0
 17 18  1  0  0  0  0
 20 19  1  6  0  0  0
 20 22  1  0  0  0  0
 20 21  1  0  0  0  0
 22 24  1  0  0  0  0
 22 23  1  6  0  0  0
 24 26  1  6  0  0  0
 24 25  1  0  0  0  0
 26 27  1  0  0  0  0
 27 28  1  0  0  0  0
 28 30  1  0  0  0  0
 28 29  2  0  0  0  0
 28 31  1  0  0  0  0
M  CHG  2  30  -1  31  -1
M  END
>  <CHROM.1>
-76.21113750,91.06968551,69.22213880,-95.01624288,-172.52226942,64.74522493
-176.14392533,60.26443293,-67.52964045,-166.03270652,-7.36123095,-6.37134993
1.62189528,-2.34495158,-0.41003953,1.80425450

>  <Name>
1fmn_cryst

>  <RI>
0

>  <Rbt.Current_Directory>
/home/itssahil/PROJECTS/Mol_Feturizer/New_Systems/rnas/1fmn

>  <Rbt.Executable>
rbdock ($Id: //depot/dev/client3/rdock/2013.1/src/exe/rbdock.cxx#4 $)

>  <Rbt.Library>
libRbt.so (2013.1, Build901 2013/11/27)

>  <Rbt.Parameter_File>
/export/apps/rDock/src/rDock_2013.1_src/data/scripts/dock_solv.prm

>  <Rbt.Receptor>
prm/pocket_docking_2.prm

>  <SCORE>
-37.0961

>  <SCORE.INTER>
-35.7924

>  <SCORE.INTER.CONST>
1

>  <SCORE.INTER.POLAR>
-0.152972

>  <SCORE.INTER.ROT>
7

>  <SCORE.INTER.SOLV>
16.5999

>  <SCORE.INTER.VDW>
-37.1517

>  <SCORE.INTER.norm>
-1.15459

>  <SCORE.INTRA>
-1.58795

>  <SCORE.INTRA.DIHEDRAL>
-4.80239

>  <SCORE.INTRA.DIHEDRAL.0>
15.5708

>  <SCORE.INTRA.POLAR>
0.0674142

>  <SCORE.INTRA.POLAR.0>
-0.0677885

>  <SCORE.INTRA.REPUL>
0

>  <SCORE.INTRA.REPUL.0>
0

>  <SCORE.INTRA.SOLV>
-1.21745

>  <SCORE.INTRA.SOLV.lig_0>
-87.6316

>  <SCORE.INTRA.VDW>
1.19276

>  <SCORE.INTRA.VDW.0>
-2.87309

>  <SCORE.INTRA.norm>
-0.0512243

>  <SCORE.RESTR>
0.284259

>  <SCORE.RESTR.CAVITY>
0.284259

>  <SCORE.RESTR.norm>
0.00916964

>  <SCORE.SYSTEM>
0

>  <SCORE.SYSTEM.CONST>
0

>  <SCORE.SYSTEM.DIHEDRAL>
0

>  <SCORE.SYSTEM.SOLV>
0

>  <SCORE.SYSTEM.norm>
0

>  <SCORE.heavy>
31

>  <SCORE.norm>
-1.19665

>  <SYMMETRIC_BONDS>
33 34 3

>  <RMSD>
4.750

$$$$
1fmn_cryst
 OpenBabel11021811393D
libRbt.so/2013.1/901 2013/11/27
 31 33  0  0  0  0  0  0  0  0999 V2000
   -7.1496   -5.6439   -1.8612 N   0  0  0  0  0  0  0  0  0  0  0  0
   -7.1594   -5.2145   -3.1678 C   0  0  0  0  0  0  0  0  0  0  0  0
   -6.1825   -5.3473   -3.9058 O   0  0  0  0  0  0  0  0  0  0  0  0
   -8.3616   -4.6060   -3.6082 N   0  0  0  0  0  0  0  0  0  0  0  0
   -9.5320   -4.4001   -2.8454 C   0  0  0  0  0  0  0  0  0  0  0  0
  -10.5169   -3.8542   -3.3586 O   0  0  0  0  0  0  0  0  0  0  0  0
   -9.4411   -4.8837   -1.4659 C   0  0  0  0  0  0  0  0  0  0  0  0
  -10.5386   -4.7212   -0.6576 N   0  0  0  0  0  0  0  0  0  0  0  0
  -10.3916   -5.0053    0.6692 C   0  0  0  0  0  0  0  0  0  0  0  0
  -11.4299   -4.6710    1.5204 C   0  0  0  0  0  0  0  0  0  0  0  0
  -11.3536   -4.9237    2.8477 C   0  0  0  0  0  0  0  0  0  0  0  0
  -12.5050   -4.5453    3.7238 C   0  0  0  0  0  0  0  0  0  0  0  0
  -10.2457   -5.5138    3.3725 C   0  0  0  0  0  0  0  0  0  0  0  0
  -10.1671   -5.7828    4.8400 C   0  0  0  0  0  0  0  0  0  0  0  0
   -9.2027   -5.8600    2.5757 C   0  0  0  0  0  0  0  0  0  0  0  0
   -9.2312   -5.6220    1.2016 C   0  0  0  0  0  0  0  0  0  0  0  0
   -8.1853   -5.9591    0.3170 N   0  0  0  0  0  0  0  0  0  0  0  0
   -8.2174   -5.5059   -1.0178 C   0  0  0  0  0  0  0  0  0  0  0  0
   -7.3885   -7.2083    0.6048 C   0  0  0  0  0  0  0  0  0  0  0  0
   -5.9058   -6.9988    1.0381 C   0  0  1  0  0  0  0  0  0  0  0  0
   -5.7581   -5.7431    1.6859 O   0  0  0  0  0  0  0  0  0  0  0  0
   -5.3490   -8.1632    1.8914 C   0  0  1  0  0  0  0  0  0  0  0  0
   -5.0952   -9.2993    1.0702 O   0  0  0  0  0  0  0  0  0  0  0  0
   -4.1096   -7.8592    2.7684 C   0  0  1  0  0  0  0  0  0  0  0  0
   -4.4662   -6.8631    3.7206 O   0  0  0  0  0  0  0  0  0  0  0  0
   -3.5848   -9.1022    3.5217 C   0  0  0  0  0  0  0  0  0  0  0  0
   -4.4384   -9.4895    4.5920 O   0  0  0  0  0  0  0  0  0  0  0  0
   -3.9971  -10.5247    5.7077 P   0  0  0  0  0  0  0  0  0  0  0  0
   -5.0072  -10.6006    6.7876 O   0  0  0  0  0  0  0  0  0  0  0  0
   -3.5222  -11.7830    5.0928 O   0  5  0  0  0  0  0  0  0  0  0  0
   -2.7187   -9.8444    6.3692 O   0  5  0  0  0  0  0  0  0  0  0  0
  1 18  1  0  0  0  0
  1  2  1  0  0  0  0
  2  4  1  0  0  0  0
  2  3  2  0  0  0  0
  4  5  1  0  0  0  0
  5  7  1  0  0  0  0
  5  6  2  0  0  0  0
  7 18  2  0  0  0  0
  7  8  1  0  0  0  0
  8  9  1  0  0  0  0
  9 10  2  0  0  0  0
  9 16  1  0  0  0  0
 10 11  1  0  0  0  0
 11 12  1  0  0  0  0
 11 13  2  0  0  0  0
 13 14  1  0  0  0  0
 13 15  1  0  0  0  0
 15 16  2  0  0  0  0
 16 17  1  0  0  0  0
 17 19  1  0  0  0  0
 17 18  1  0  0  0  0
 20 19  1  1  0  0  0
 20 22  1  0  0  0  0
 20 21  1  0  0  0  0
 22 24  1  0  0  0  0
 22 23  1  6  0  0  0
 24 26  1  1  0  0  0
 24 25  1  0  0  0  0
 26 27  1  0  0  0  0
 27 28  1  0  0  0  0
 28 30  1  0  0  0  0
 28 29  2  0  0  0  0
 28 31  1  0  0  0  0
M  CHG  2  30  -1  31  -1
M  END
>  <CHROM.1>
-111.52837972,28.03337726,74.21117400,52.62116337,62.49127884,-59.89402890
-72.45193937,-64.65109909,-166.73080364,172.37938438,-7.19011980,-6.86928605
1.65813981,-2.25450852,-0.49108890,1.88676234

>  <Name>
1fmn_cryst

>  <RI>
0

>  <Rbt.Current_Directory>
/home/itssahil/PROJECTS/Mol_Feturizer/New_Systems/rnas/1fmn

>  <Rbt.Executable>
rbdock ($Id: //depot/dev/client3/rdock/2013.1/src/exe/rbdock.cxx#4 $)

>  <Rbt.Library>
libRbt.so (2013.1, Build901 2013/11/27)

>  <Rbt.Parameter_File>
/export/apps/rDock/src/rDock_2013.1_src/data/scripts/dock_solv.prm

>  <Rbt.Receptor>
prm/pocket_docking_5.prm

>  <SCORE>
-48.2174

>  <SCORE.INTER>
-42.4647

>  <SCORE.INTER.CONST>
1

>  <SCORE.INTER.POLAR>
-1.24289

>  <SCORE.INTER.ROT>
7

>  <SCORE.INTER.SOLV>
22.291

>  <SCORE.INTER.VDW>
-39.8638

>  <SCORE.INTER.norm>
-1.36983

>  <SCORE.INTRA>
-5.75351

>  <SCORE.INTRA.DIHEDRAL>
-7.56121

>  <SCORE.INTRA.DIHEDRAL.0>
15.5708

>  <SCORE.INTRA.POLAR>
-0.207401

>  <SCORE.INTRA.POLAR.0>
-0.0677885

>  <SCORE.INTRA.REPUL>
0

>  <SCORE.INTRA.REPUL.0>
0

>  <SCORE.INTRA.SOLV>
-3.90666

>  <SCORE.INTRA.SOLV.lig_0>
-87.6316

>  <SCORE.INTRA.VDW>
0.685589

>  <SCORE.INTRA.VDW.0>
-2.87309

>  <SCORE.INTRA.norm>
-0.185597

>  <SCORE.RESTR>
0.000820405

>  <SCORE.RESTR.CAVITY>
0.000820405

>  <SCORE.RESTR.norm>
2.64647e-05

>  <SCORE.SYSTEM>
0

>  <SCORE.SYSTEM.CONST>
0

>  <SCORE.SYSTEM.DIHEDRAL>
0

>  <SCORE.SYSTEM.SOLV>
0

>  <SCORE.SYSTEM.norm>
0

>  <SCORE.heavy>
31

>  <SCORE.norm>
-1.5554

>  <SYMMETRIC_BONDS>
33 34 3

>  <RMSD>
4.752

$$$$
1fmn_cryst
 OpenBabel11021811393D
libRbt.so/2013.1/901 2013/11/27
 31 33  0  0  0  0  0  0  0  0999 V2000
   -7.1352   -5.7091   -1.7482 N   0  0  0  0  0  0  0  0  0  0  0  0
   -7.1309   -5.2678   -3.0509 C   0  0  0  0  0  0  0  0  0  0  0  0
   -6.1593   -5.4267   -3.7906 O   0  0  0  0  0  0  0  0  0  0  0  0
   -8.3122   -4.6155   -3.4850 N   0  0  0  0  0  0  0  0  0  0  0  0
   -9.4748   -4.3772   -2.7196 C   0  0  0  0  0  0  0  0  0  0  0  0
  -10.4409   -3.7940   -3.2273 O   0  0  0  0  0  0  0  0  0  0  0  0
   -9.3997   -4.8760   -1.3446 C   0  0  0  0  0  0  0  0  0  0  0  0
  -10.4908   -4.6840   -0.5341 N   0  0  0  0  0  0  0  0  0  0  0  0
  -10.3530   -4.9848    0.7899 C   0  0  0  0  0  0  0  0  0  0  0  0
  -11.3791   -4.6235    1.6448 C   0  0  0  0  0  0  0  0  0  0  0  0
  -11.3109   -4.8905    2.9697 C   0  0  0  0  0  0  0  0  0  0  0  0
  -12.4486   -4.4816    3.8499 C   0  0  0  0  0  0  0  0  0  0  0  0
  -10.2232   -5.5221    3.4885 C   0  0  0  0  0  0  0  0  0  0  0  0
  -10.1532   -5.8069    4.9535 C   0  0  0  0  0  0  0  0  0  0  0  0
   -9.1927   -5.8960    2.6879 C   0  0  0  0  0  0  0  0  0  0  0  0
   -9.2137   -5.6449    1.3160 C   0  0  0  0  0  0  0  0  0  0  0  0
   -8.1801   -6.0089    0.4277 N   0  0  0  0  0  0  0  0  0  0  0  0
   -8.1974   -5.5429   -0.9029 C   0  0  0  0  0  0  0  0  0  0  0  0
   -7.4256   -7.2867    0.7039 C   0  0  0  0  0  0  0  0  0  0  0  0
   -6.2031   -7.1745    1.6646 C   0  0  1  0  0  0  0  0  0  0  0  0
   -6.0202   -5.8249    2.0684 O   0  0  0  0  0  0  0  0  0  0  0  0
   -6.2861   -8.1376    2.8728 C   0  0  1  0  0  0  0  0  0  0  0  0
   -5.6748   -9.3840    2.5533 O   0  0  0  0  0  0  0  0  0  0  0  0
   -5.7415   -7.6145    4.2248 C   0  0  1  0  0  0  0  0  0  0  0  0
   -6.2278   -8.4591    5.2621 O   0  0  0  0  0  0  0  0  0  0  0  0
   -4.1976   -7.5921    4.2843 C   0  0  0  0  0  0  0  0  0  0  0  0
   -3.6357   -6.5934    3.4412 O   0  0  0  0  0  0  0  0  0  0  0  0
   -2.0725   -6.3984    3.2689 P   0  0  0  0  0  0  0  0  0  0  0  0
   -1.4504   -7.6073    2.6825 O   0  0  0  0  0  0  0  0  0  0  0  0
   -1.7750   -5.0835    2.6612 O   0  5  0  0  0  0  0  0  0  0  0  0
   -1.5340   -6.3272    4.7655 O   0  5  0  0  0  0  0  0  0  0  0  0
  1 18  1  0  0  0  0
  1  2  1  0  0  0  0
  2  4  1  0  0  0  0
  2  3  2  0  0  0  0
  4  5  1  0  0  0  0
  5  7  1  0  0  0  0
  5  6  2  0  0  0  0
  7 18  2  0  0  0  0
  7  8  1  0  0  0  0
  8  9  1  0  0  0  0
  9 10  2  0  0  0  0
  9 16  1  0  0  0  0
 10 11  1  0  0  0  0
 11 12  1  0  0  0  0
 11 13  2  0  0  0  0
 13 14  1  0  0  0  0
 13 15  1  0  0  0  0
 15 16  2  0  0  0  0
 16 17  1  0  0  0  0
 17 19  1  0  0  0  0
 17 18  1  0  0  0  0
 20 19  1  1  0  0  0
 20 22  1  0  0  0  0
 20 21  1  0  0  0  0
 22 24  1  0  0  0  0
 22 23  1  6  0  0  0
 24 26  1  6  0  0  0
 24 25  1  0  0  0  0
 26 27  1  0  0  0  0
 27 28  1  0  0  0  0
 28 30  1  0  0  0  0
 28 29  2  0  0  0  0
 28 31  1  0  0  0  0
M  CHG  2  30  -1  31  -1
M  END
>  <CHROM.1>
-87.06806630,-1.79409485,89.91434226,-172.99427946,164.13268152,-174.68337326
70.05072794,-58.72998253,-177.34139823,62.29432859,-6.98106278,-6.04883850
1.47440682,-2.54079060,-0.17379487,1.80021000

>  <Name>
1fmn_cryst

>  <RI>
0

>  <Rbt.Current_Directory>
/home/itssahil/PROJECTS/Mol_Feturizer/New_Systems/rnas/1fmn

>  <Rbt.Executable>
rbdock ($Id: //depot/dev/client3/rdock/2013.1/src/exe/rbdock.cxx#4 $)

>  <Rbt.Library>
libRbt.so (2013.1, Build901 2013/11/27)

>  <Rbt.Parameter_File>
/export/apps/rDock/src/rDock_2013.1_src/data/scripts/dock_solv.prm

>  <Rbt.Receptor>
prm/pocket_docking_7.prm

>  <SCORE>
-46.8456

>  <SCORE.INTER>
-39.827

>  <SCORE.INTER.CONST>
1

>  <SCORE.INTER.POLAR>
-1.17191

>  <SCORE.INTER.ROT>
7

>  <SCORE.INTER.SOLV>
15.9072

>  <SCORE.INTER.VDW>
-36.214

>  <SCORE.INTER.norm>
-1.28474

>  <SCORE.INTRA>
-7.09975

>  <SCORE.INTRA.DIHEDRAL>
-3.58004

>  <SCORE.INTRA.DIHEDRAL.0>
15.5708

>  <SCORE.INTRA.POLAR>
-0.932211

>  <SCORE.INTRA.POLAR.0>
-0.0677885

>  <SCORE.INTRA.REPUL>
0

>  <SCORE.INTRA.REPUL.0>
0

>  <SCORE.INTRA.SOLV>
-3.78251

>  <SCORE.INTRA.SOLV.lig_0>
-87.6316

>  <SCORE.INTRA.VDW>
-0.248961

>  <SCORE.INTRA.VDW.0>
-2.87309

>  <SCORE.INTRA.norm>
-0.229024

>  <SCORE.RESTR>
0.0811349

>  <SCORE.RESTR.CAVITY>
0.0811349

>  <SCORE.RESTR.norm>
0.00261725

>  <SCORE.SYSTEM>
0

>  <SCORE.SYSTEM.CONST>
0

>  <SCORE.SYSTEM.DIHEDRAL>
0

>  <SCORE.SYSTEM.SOLV>
0

>  <SCORE.SYSTEM.norm>
0

>  <SCORE.heavy>
31

>  <SCORE.norm>
-1.51115

>  <SYMMETRIC_BONDS>
33 34 3

>  <RMSD>
4.763

$$$$
1fmn_cryst
 OpenBabel11021811393D
libRbt.so/2013.1/901 2013/11/27
 31 33  0  0  0  0  0  0  0  0999 V2000
   -7.2194   -5.6649   -1.8653 N   0  0  0  0  0  0  0  0  0  0  0  0
   -7.2349   -5.2315   -3.1705 C   0  0  0  0  0  0  0  0  0  0  0  0
   -6.2656   -5.3727   -3.9167 O   0  0  0  0  0  0  0  0  0  0  0  0
   -8.4339   -4.6086   -3.5994 N   0  0  0  0  0  0  0  0  0  0  0  0
   -9.5958   -4.3922   -2.8265 C   0  0  0  0  0  0  0  0  0  0  0  0
  -10.5788   -3.8340   -3.3302 O   0  0  0  0  0  0  0  0  0  0  0  0
   -9.4991   -4.8809   -1.4492 C   0  0  0  0  0  0  0  0  0  0  0  0
  -10.5881   -4.7088   -0.6316 N   0  0  0  0  0  0  0  0  0  0  0  0
  -10.4336   -4.9984    0.6931 C   0  0  0  0  0  0  0  0  0  0  0  0
  -11.4613   -4.6553    1.5537 C   0  0  0  0  0  0  0  0  0  0  0  0
  -11.3770   -4.9128    2.8796 C   0  0  0  0  0  0  0  0  0  0  0  0
  -12.5171   -4.5245    3.7660 C   0  0  0  0  0  0  0  0  0  0  0  0
  -10.2715   -5.5165    3.3937 C   0  0  0  0  0  0  0  0  0  0  0  0
  -10.1839   -5.7907    4.8598 C   0  0  0  0  0  0  0  0  0  0  0  0
   -9.2388   -5.8717    2.5874 C   0  0  0  0  0  0  0  0  0  0  0  0
   -9.2757   -5.6293    1.2143 C   0  0  0  0  0  0  0  0  0  0  0  0
   -8.2408   -5.9752    0.3203 N   0  0  0  0  0  0  0  0  0  0  0  0
   -8.2787   -5.5178   -1.0129 C   0  0  0  0  0  0  0  0  0  0  0  0
   -7.4555   -7.2339    0.5981 C   0  0  0  0  0  0  0  0  0  0  0  0
   -5.9343   -7.0510    0.8859 C   0  0  1  0  0  0  0  0  0  0  0  0
   -5.7485   -6.2975    2.0757 O   0  0  0  0  0  0  0  0  0  0  0  0
   -5.1538   -8.3867    0.9147 C   0  0  1  0  0  0  0  0  0  0  0  0
   -3.7518   -8.1402    0.8586 O   0  0  0  0  0  0  0  0  0  0  0  0
   -5.4720   -9.3595    2.0767 C   0  0  1  0  0  0  0  0  0  0  0  0
   -5.2096  -10.6871    1.6359 O   0  0  0  0  0  0  0  0  0  0  0  0
   -4.6319   -9.0806    3.3432 C   0  0  0  0  0  0  0  0  0  0  0  0
   -5.2156   -8.0841    4.1740 O   0  0  0  0  0  0  0  0  0  0  0  0
   -4.5151   -7.5492    5.4911 P   0  0  0  0  0  0  0  0  0  0  0  0
   -3.2305   -6.8849    5.1741 O   0  0  0  0  0  0  0  0  0  0  0  0
   -5.4884   -6.8367    6.3466 O   0  5  0  0  0  0  0  0  0  0  0  0
   -4.1237   -8.8777    6.2764 O   0  5  0  0  0  0  0  0  0  0  0  0
  1 18  1  0  0  0  0
  1  2  1  0  0  0  0
  2  4  1  0  0  0  0
  2  3  2  0  0  0  0
  4  5  1  0  0  0  0
  5  7  1  0  0  0  0
  5  6  2  0  0  0  0
  7 18  2  0  0  0  0
  7  8  1  0  0  0  0
  8  9  1  0  0  0  0
  9 10  2  0  0  0  0
  9 16  1  0  0  0  0
 10 11  1  0  0  0  0
 11 12  1  0  0  0  0
 11 13  2  0  0  0  0
 13 14  1  0  0  0  0
 13 15  1  0  0  0  0
 15 16  2  0  0  0  0
 16 17  1  0  0  0  0
 17 19  1  0  0  0  0
 17 18  1  0  0  0  0
 20 19  1  1  0  0  0
 20 22  1  0  0  0  0
 20 21  1  0  0  0  0
 22 24  1  0  0  0  0
 22 23  1  1  0  0  0
 24 26  1  1  0  0  0
 24 25  1  0  0  0  0
 26 27  1  0  0  0  0
 27 28  1  0  0  0  0
 28 30  1  0  0  0  0
 28 29  2  0  0  0  0
 28 31  1  0  0  0  0
M  CHG  2  30  -1  31  -1
M  END
>  <CHROM.1>
-117.20584402,63.67987926,166.07986509,73.55192075,152.36507993,-58.89965791
85.52154520,-177.40524820,-176.32636575,62.76819626,-7.37722370,-6.45489289
1.49447437,-2.27327881,-0.47261126,1.70811308

>  <Name>
1fmn_cryst

>  <RI>
0

>  <Rbt.Current_Directory>
/home/itssahil/PROJECTS/Mol_Feturizer/New_Systems/rnas/1fmn

>  <Rbt.Executable>
rbdock ($Id: //depot/dev/client3/rdock/2013.1/src/exe/rbdock.cxx#4 $)

>  <Rbt.Library>
libRbt.so (2013.1, Build901 2013/11/27)

>  <Rbt.Parameter_File>
/export/apps/rDock/src/rDock_2013.1_src/data/scripts/dock_solv.prm

>  <Rbt.Receptor>
prm/pocket_docking_3.prm

>  <SCORE>
-51.2525

>  <SCORE.INTER>
-43.6172

>  <SCORE.INTER.CONST>
1

>  <SCORE.INTER.POLAR>
-1.21565

>  <SCORE.INTER.ROT>
7

>  <SCORE.INTER.SOLV>
19.6322

>  <SCORE.INTER.VDW>
-39.8367

>  <SCORE.INTER.norm>
-1.40701

>  <SCORE.INTRA>
-7.67279

>  <SCORE.INTRA.DIHEDRAL>
-6.74102

>  <SCORE.INTRA.DIHEDRAL.0>
15.5708

>  <SCORE.INTRA.POLAR>
-0.816452

>  <SCORE.INTRA.POLAR.0>
-0.0677885

>  <SCORE.INTRA.REPUL>
0

>  <SCORE.INTRA.REPUL.0>
0

>  <SCORE.INTRA.SOLV>
-3.64967

>  <SCORE.INTRA.SOLV.lig_0>
-87.6316

>  <SCORE.INTRA.VDW>
0.298489

>  <SCORE.INTRA.VDW.0>
-2.87309

>  <SCORE.INTRA.norm>
-0.247509

>  <SCORE.RESTR>
0.0374325

>  <SCORE.RESTR.CAVITY>
0.0374325

>  <SCORE.RESTR.norm>
0.0012075

>  <SCORE.SYSTEM>
0

>  <SCORE.SYSTEM.CONST>
0

>  <SCORE.SYSTEM.DIHEDRAL>
0

>  <SCORE.SYSTEM.SOLV>
0

>  <SCORE.SYSTEM.norm>
0

>  <SCORE.heavy>
31

>  <SCORE.norm>
-1.65331

>  <SYMMETRIC_BONDS>
33 34 3

>  <RMSD>
4.768

$$$$
1fmn_cryst
 OpenBabel11021811393D
libRbt.so/2013.1/901 2013/11/27
 31 33  0  0  0  0  0  0  0  0999 V2000
   -7.1613   -5.6244   -1.8011 N   0  0  0  0  0  0  0  0  0  0  0  0
   -7.1568   -5.1991   -3.1090 C   0  0  0  0  0  0  0  0  0  0  0  0
   -6.1742   -5.3397   -3.8377 O   0  0  0  0  0  0  0  0  0  0  0  0
   -8.3515   -4.5852   -3.5621 N   0  0  0  0  0  0  0  0  0  0  0  0
   -9.5276   -4.3701   -2.8105 C   0  0  0  0  0  0  0  0  0  0  0  0
  -10.5047   -3.8203   -3.3342 O   0  0  0  0  0  0  0  0  0  0  0  0
   -9.4518   -4.8500   -1.4287 C   0  0  0  0  0  0  0  0  0  0  0  0
  -10.5556   -4.6787   -0.6308 N   0  0  0  0  0  0  0  0  0  0  0  0
  -10.4221   -4.9595    0.6981 C   0  0  0  0  0  0  0  0  0  0  0  0
  -11.4661   -4.6166    1.5389 C   0  0  0  0  0  0  0  0  0  0  0  0
  -11.4032   -4.8656    2.8676 C   0  0  0  0  0  0  0  0  0  0  0  0
  -12.5602   -4.4779    3.7321 C   0  0  0  0  0  0  0  0  0  0  0  0
  -10.3034   -5.4603    3.4042 C   0  0  0  0  0  0  0  0  0  0  0  0
  -10.2395   -5.7252    4.8731 C   0  0  0  0  0  0  0  0  0  0  0  0
   -9.2553   -5.8150    2.6178 C   0  0  0  0  0  0  0  0  0  0  0  0
   -9.2701   -5.5811    1.2428 C   0  0  0  0  0  0  0  0  0  0  0  0
   -8.2183   -5.9269    0.3686 N   0  0  0  0  0  0  0  0  0  0  0  0
   -8.2358   -5.4778   -0.9678 C   0  0  0  0  0  0  0  0  0  0  0  0
   -7.4313   -7.1798    0.6675 C   0  0  0  0  0  0  0  0  0  0  0  0
   -6.6254   -7.1888    2.0019 C   0  0  1  0  0  0  0  0  0  0  0  0
   -6.1249   -8.4924    2.2625 O   0  0  0  0  0  0  0  0  0  0  0  0
   -5.5105   -6.1169    2.0487 C   0  0  1  0  0  0  0  0  0  0  0  0
   -6.0568   -4.8255    1.7971 O   0  0  0  0  0  0  0  0  0  0  0  0
   -4.6289   -6.0777    3.3211 C   0  0  1  0  0  0  0  0  0  0  0  0
   -5.4583   -5.7577    4.4327 O   0  0  0  0  0  0  0  0  0  0  0  0
   -3.9163   -7.4196    3.6021 C   0  0  0  0  0  0  0  0  0  0  0  0
   -3.0820   -7.3613    4.7530 O   0  0  0  0  0  0  0  0  0  0  0  0
   -1.7707   -6.4737    4.8161 P   0  0  0  0  0  0  0  0  0  0  0  0
   -2.0900   -5.0433    4.6062 O   0  0  0  0  0  0  0  0  0  0  0  0
   -0.9418   -6.8504    5.9815 O   0  5  0  0  0  0  0  0  0  0  0  0
   -0.9509   -6.9195    3.5262 O   0  5  0  0  0  0  0  0  0  0  0  0
  1 18  1  0  0  0  0
  1  2  1  0  0  0  0
  2  4  1  0  0  0  0
  2  3  2  0  0  0  0
  4  5  1  0  0  0  0
  5  7  1  0  0  0  0
  5  6  2  0  0  0  0
  7 18  2  0  0  0  0
  7  8  1  0  0  0  0
  8  9  1  0  0  0  0
  9 10  2  0  0  0  0
  9 16  1  0  0  0  0
 10 11  1  0  0  0  0
 11 12  1  0  0  0  0
 11 13  2  0  0  0  0
 13 14  1  0  0  0  0
 13 15  1  0  0  0  0
 15 16  2  0  0  0  0
 16 17  1  0  0  0  0
 17 19  1  0  0  0  0
 17 18  1  0  0  0  0
 20 19  1  6  0  0  0
 20 22  1  0  0  0  0
 20 21  1  0  0  0  0
 22 24  1  0  0  0  0
 22 23  1  1  0  0  0
 24 26  1  1  0  0  0
 24 25  1  0  0  0  0
 26 27  1  0  0  0  0
 27 28  1  0  0  0  0
 28 30  1  0  0  0  0
 28 29  2  0  0  0  0
 28 31  1  0  0  0  0
M  CHG  2  30  -1  31  -1
M  END
>  <CHROM.1>
-63.58595191,170.15240547,55.26403563,59.21946119,-63.05135367,-164.14316437
178.44901189,-179.82363271,-66.98271056,59.86794203,-6.87976399,-5.76794827
1.60586850,-2.50054386,-0.16417414,1.67679712

>  <Name>
1fmn_cryst

>  <RI>
0

>  <Rbt.Current_Directory>
/home/itssahil/PROJECTS/Mol_Feturizer/New_Systems/rnas/1fmn

>  <Rbt.Executable>
rbdock ($Id: //depot/dev/client3/rdock/2013.1/src/exe/rbdock.cxx#4 $)

>  <Rbt.Library>
libRbt.so (2013.1, Build901 2013/11/27)

>  <Rbt.Parameter_File>
/export/apps/rDock/src/rDock_2013.1_src/data/scripts/dock_solv.prm

>  <Rbt.Receptor>
prm/pocket_docking_5.prm

>  <SCORE>
-45.1206

>  <SCORE.INTER>
-39.8306

>  <SCORE.INTER.CONST>
1

>  <SCORE.INTER.POLAR>
-1.21472

>  <SCORE.INTER.ROT>
7

>  <SCORE.INTER.SOLV>
16.3417

>  <SCORE.INTER.VDW>
-36.2186

>  <SCORE.INTER.norm>
-1.28486

>  <SCORE.INTRA>
-5.29003

>  <SCORE.INTRA.DIHEDRAL>
-11.8587

>  <SCORE.INTRA.DIHEDRAL.0>
15.5708

>  <SCORE.INTRA.POLAR>
0.0677885

>  <SCORE.INTRA.POLAR.0>
-0.0677885

>  <SCORE.INTRA.REPUL>
0.00909696

>  <SCORE.INTRA.REPUL.0>
0

>  <SCORE.INTRA.SOLV>
-0.566016

>  <SCORE.INTRA.SOLV.lig_0>
-87.6316

>  <SCORE.INTRA.VDW>
0.64638

>  <SCORE.INTRA.VDW.0>
-2.87309

>  <SCORE.INTRA.norm>
-0.170646

>  <SCORE.RESTR>
0

>  <SCORE.RESTR.CAVITY>
0

>  <SCORE.RESTR.norm>
0

>  <SCORE.SYSTEM>
0

>  <SCORE.SYSTEM.CONST>
0

>  <SCORE.SYSTEM.DIHEDRAL>
0

>  <SCORE.SYSTEM.SOLV>
0

>  <SCORE.SYSTEM.norm>
0

>  <SCORE.heavy>
31

>  <SCORE.norm>
-1.4555

>  <SYMMETRIC_BONDS>
33 34 3

>  <RMSD>
4.828

$$$$
1fmn_cryst
 OpenBabel11021811393D
libRbt.so/2013.1/901 2013/11/27
 31 33  0  0  0  0  0  0  0  0999 V2000
   -7.3135   -5.5951   -1.8858 N   0  0  0  0  0  0  0  0  0  0  0  0
   -7.3193   -5.1359   -3.1822 C   0  0  0  0  0  0  0  0  0  0  0  0
   -6.3567   -5.2919   -3.9342 O   0  0  0  0  0  0  0  0  0  0  0  0
   -8.4998   -4.4685   -3.5949 N   0  0  0  0  0  0  0  0  0  0  0  0
   -9.6525   -4.2320   -2.8141 C   0  0  0  0  0  0  0  0  0  0  0  0
  -10.6193   -3.6344   -3.3035 O   0  0  0  0  0  0  0  0  0  0  0  0
   -9.5671   -4.7504   -1.4470 C   0  0  0  0  0  0  0  0  0  0  0  0
  -10.6482   -4.5614   -0.6226 N   0  0  0  0  0  0  0  0  0  0  0  0
  -10.4990   -4.8816    0.6957 C   0  0  0  0  0  0  0  0  0  0  0  0
  -11.5134   -4.5243    1.5661 C   0  0  0  0  0  0  0  0  0  0  0  0
  -11.4336   -4.8103    2.8865 C   0  0  0  0  0  0  0  0  0  0  0  0
  -12.5589   -4.4050    3.7841 C   0  0  0  0  0  0  0  0  0  0  0  0
  -10.3456   -5.4574    3.3851 C   0  0  0  0  0  0  0  0  0  0  0  0
  -10.2625   -5.7630    4.8451 C   0  0  0  0  0  0  0  0  0  0  0  0
   -9.3263   -5.8280    2.5686 C   0  0  0  0  0  0  0  0  0  0  0  0
   -9.3596   -5.5576    1.2006 C   0  0  0  0  0  0  0  0  0  0  0  0
   -8.3381   -5.9172    0.2966 N   0  0  0  0  0  0  0  0  0  0  0  0
   -8.3655   -5.4327   -1.0272 C   0  0  0  0  0  0  0  0  0  0  0  0
   -7.5908   -7.2045    0.5472 C   0  0  0  0  0  0  0  0  0  0  0  0
   -6.3070   -7.0996    1.4253 C   0  0  1  0  0  0  0  0  0  0  0  0
   -6.4288   -7.9302    2.5712 O   0  0  0  0  0  0  0  0  0  0  0  0
   -5.0047   -7.3804    0.6384 C   0  0  1  0  0  0  0  0  0  0  0  0
   -4.8659   -6.4521   -0.4333 O   0  0  0  0  0  0  0  0  0  0  0  0
   -3.6912   -7.4420    1.4560 C   0  0  1  0  0  0  0  0  0  0  0  0
   -3.7263   -6.4147    2.4407 O   0  0  0  0  0  0  0  0  0  0  0  0
   -3.4839   -8.8008    2.1620 C   0  0  0  0  0  0  0  0  0  0  0  0
   -2.1258   -9.0245    2.5220 O   0  0  0  0  0  0  0  0  0  0  0  0
   -1.4680   -8.3923    3.8177 P   0  0  0  0  0  0  0  0  0  0  0  0
   -0.1033   -8.9251    4.0314 O   0  0  0  0  0  0  0  0  0  0  0  0
   -1.6679   -6.9272    3.8419 O   0  5  0  0  0  0  0  0  0  0  0  0
   -2.3445   -8.9791    5.0104 O   0  5  0  0  0  0  0  0  0  0  0  0
  1 18  1  0  0  0  0
  1  2  1  0  0  0  0
  2  4  1  0  0  0  0
  2  3  2  0  0  0  0
  4  5  1  0  0  0  0
  5  7  1  0  0  0  0
  5  6  2  0  0  0  0
  7 18  2  0  0  0  0
  7  8  1  0  0  0  0
  8  9  1  0  0  0  0
  9 10  2  0  0  0  0
  9 16  1  0  0  0  0
 10 11  1  0  0  0  0
 11 12  1  0  0  0  0
 11 13  2  0  0  0  0
 13 14  1  0  0  0  0
 13 15  1  0  0  0  0
 15 16  2  0  0  0  0
 16 17  1  0  0  0  0
 17 19  1  0  0  0  0
 17 18  1  0  0  0  0
 20 19  1  6  0  0  0
 20 22  1  0  0  0  0
 20 21  1  0  0  0  0
 22 24  1  0  0  0  0
 22 23  1  6  0  0  0
 24 26  1  1  0  0  0
 24 25  1  0  0  0  0
 26 27  1  0  0  0  0
 27 28  1  0  0  0  0
 28 30  1  0  0  0  0
 28 29  2  0  0  0  0
 28 31  1  0  0  0  0
M  CHG  2  30  -1  31  -1
M  END
>  <CHROM.1>
-90.70512489,121.31474593,59.59911203,-173.99806946,-40.17836304,-152.20340090
160.19827755,-170.37071250,80.52585306,172.99428183,-6.72484477,-6.31454134
1.10081162,-2.65501904,-0.32891877,1.77486588

>  <Name>
1fmn_cryst

>  <RI>
0

>  <Rbt.Current_Directory>
/home/itssahil/PROJECTS/Mol_Feturizer/New_Systems/rnas/1fmn

>  <Rbt.Executable>
rbdock ($Id: //depot/dev/client3/rdock/2013.1/src/exe/rbdock.cxx#4 $)

>  <Rbt.Library>
libRbt.so (2013.1, Build901 2013/11/27)

>  <Rbt.Parameter_File>
/export/apps/rDock/src/rDock_2013.1_src/data/scripts/dock_solv.prm

>  <Rbt.Receptor>
prm/pocket_docking_3.prm

>  <SCORE>
-49.2917

>  <SCORE.INTER>
-42.5606

>  <SCORE.INTER.CONST>
1

>  <SCORE.INTER.POLAR>
-1.55142

>  <SCORE.INTER.ROT>
7

>  <SCORE.INTER.SOLV>
15.8495

>  <SCORE.INTER.VDW>
-36.7522

>  <SCORE.INTER.norm>
-1.37292

>  <SCORE.INTRA>
-6.74767

>  <SCORE.INTRA.DIHEDRAL>
0.138736

>  <SCORE.INTRA.DIHEDRAL.0>
15.5708

>  <SCORE.INTRA.POLAR>
-2.14742

>  <SCORE.INTRA.POLAR.0>
-0.0677885

>  <SCORE.INTRA.REPUL>
0

>  <SCORE.INTRA.REPUL.0>
0

>  <SCORE.INTRA.SOLV>
1.06278

>  <SCORE.INTRA.SOLV.lig_0>
-87.6316

>  <SCORE.INTRA.VDW>
-0.0472042

>  <SCORE.INTRA.VDW.0>
-2.87309

>  <SCORE.INTRA.norm>
-0.217667

>  <SCORE.RESTR>
0.0165493

>  <SCORE.RESTR.CAVITY>
0.0165493

>  <SCORE.RESTR.norm>
0.000533848

>  <SCORE.SYSTEM>
0

>  <SCORE.SYSTEM.CONST>
0

>  <SCORE.SYSTEM.DIHEDRAL>
0

>  <SCORE.SYSTEM.SOLV>
0

>  <SCORE.SYSTEM.norm>
0

>  <SCORE.heavy>
31

>  <SCORE.norm>
-1.59006

>  <SYMMETRIC_BONDS>
33 34 3

>  <RMSD>
4.835

$$$$
1fmn_cryst
 OpenBabel11021811393D
libRbt.so/2013.1/901 2013/11/27
 31 33  0  0  0  0  0  0  0  0999 V2000
   -7.4047   -4.9595   -2.0457 N   0  0  0  0  0  0  0  0  0  0  0  0
   -7.5059   -4.4394   -3.3149 C   0  0  0  0  0  0  0  0  0  0  0  0
   -6.5567   -4.4433   -4.0994 O   0  0  0  0  0  0  0  0  0  0  0  0
   -8.7686   -3.8953   -3.6598 N   0  0  0  0  0  0  0  0  0  0  0  0
   -9.9149   -3.8354   -2.8373 C   0  0  0  0  0  0  0  0  0  0  0  0
  -10.9599   -3.3315   -3.2681 O   0  0  0  0  0  0  0  0  0  0  0  0
   -9.7256   -4.4084   -1.5027 C   0  0  0  0  0  0  0  0  0  0  0  0
  -10.7939   -4.3893   -0.6411 N   0  0  0  0  0  0  0  0  0  0  0  0
  -10.5659   -4.7558    0.6536 C   0  0  0  0  0  0  0  0  0  0  0  0
  -11.5860   -4.5644    1.5686 C   0  0  0  0  0  0  0  0  0  0  0  0
  -11.4306   -4.9051    2.8690 C   0  0  0  0  0  0  0  0  0  0  0  0
  -12.5656   -4.6805    3.8166 C   0  0  0  0  0  0  0  0  0  0  0  0
  -10.2594   -5.4443    3.3032 C   0  0  0  0  0  0  0  0  0  0  0  0
  -10.0940   -5.8112    4.7420 C   0  0  0  0  0  0  0  0  0  0  0  0
   -9.2312   -5.6511    2.4413 C   0  0  0  0  0  0  0  0  0  0  0  0
   -9.3400   -5.3180    1.0912 C   0  0  0  0  0  0  0  0  0  0  0  0
   -8.3136   -5.5091    0.1425 N   0  0  0  0  0  0  0  0  0  0  0  0
   -8.4401   -4.9651   -1.1522 C   0  0  0  0  0  0  0  0  0  0  0  0
   -7.4145   -6.7108    0.3035 C   0  0  0  0  0  0  0  0  0  0  0  0
   -6.2402   -6.5651    1.3185 C   0  0  1  0  0  0  0  0  0  0  0  0
   -6.6563   -6.9816    2.6113 O   0  0  0  0  0  0  0  0  0  0  0  0
   -4.9476   -7.2836    0.8633 C   0  0  1  0  0  0  0  0  0  0  0  0
   -4.4342   -6.6742   -0.3176 O   0  0  0  0  0  0  0  0  0  0  0  0
   -3.8198   -7.4297    1.9142 C   0  0  1  0  0  0  0  0  0  0  0  0
   -2.7312   -8.1211    1.3119 O   0  0  0  0  0  0  0  0  0  0  0  0
   -3.3124   -6.0707    2.4467 C   0  0  0  0  0  0  0  0  0  0  0  0
   -3.0653   -6.0939    3.8475 O   0  0  0  0  0  0  0  0  0  0  0  0
   -1.9064   -6.9568    4.4985 P   0  0  0  0  0  0  0  0  0  0  0  0
   -2.3801   -7.6394    5.7239 O   0  0  0  0  0  0  0  0  0  0  0  0
   -1.2093   -7.7557    3.4676 O   0  5  0  0  0  0  0  0  0  0  0  0
   -0.8591   -5.8665    4.9977 O   0  5  0  0  0  0  0  0  0  0  0  0
  1 18  1  0  0  0  0
  1  2  1  0  0  0  0
  2  4  1  0  0  0  0
  2  3  2  0  0  0  0
  4  5  1  0  0  0  0
  5  7  1  0  0  0  0
  5  6  2  0  0  0  0
  7 18  2  0  0  0  0
  7  8  1  0  0  0  0
  8  9  1  0  0  0  0
  9 10  2  0  0  0  0
  9 16  1  0  0  0  0
 10 11  1  0  0  0  0
 11 12  1  0  0  0  0
 11 13  2  0  0  0  0
 13 14  1  0  0  0  0
 13 15  1  0  0  0  0
 15 16  2  0  0  0  0
 16 17  1  0  0  0  0
 17 19  1  0  0  0  0
 17 18  1  0  0  0  0
 20 19  1  6  0  0  0
 20 22  1  0  0  0  0
 20 21  1  0  0  0  0
 22 24  1  0  0  0  0
 22 23  1  6  0  0  0
 24 26  1  6  0  0  0
 24 25  1  0  0  0  0
 26 27  1  0  0  0  0
 27 28  1  0  0  0  0
 28 30  1  0  0  0  0
 28 29  2  0  0  0  0
 28 31  1  0  0  0  0
M  CHG  2  30  -1  31  -1
M  END
>  <CHROM.1>
-81.94212981,90.21178307,64.96282888,63.78930558,179.49239822,-71.93375530
139.52856500,-178.49743740,67.01629227,-136.91007243,-6.79471837,-5.76150622
1.18119403,-2.57690738,-0.22267263,1.74947243

>  <Name>
1fmn_cryst

>  <RI>
0

>  <Rbt.Current_Directory>
/home/itssahil/PROJECTS/Mol_Feturizer/New_Systems/rnas/1fmn

>  <Rbt.Executable>
rbdock ($Id: //depot/dev/client3/rdock/2013.1/src/exe/rbdock.cxx#4 $)

>  <Rbt.Library>
libRbt.so (2013.1, Build901 2013/11/27)

>  <Rbt.Parameter_File>
/export/apps/rDock/src/rDock_2013.1_src/data/scripts/dock_solv.prm

>  <Rbt.Receptor>
prm/pocket_docking_5.prm

>  <SCORE>
-47.6206

>  <SCORE.INTER>
-41.7646

>  <SCORE.INTER.CONST>
1

>  <SCORE.INTER.POLAR>
-1.43821

>  <SCORE.INTER.ROT>
7

>  <SCORE.INTER.SOLV>
15.0269

>  <SCORE.INTER.VDW>
-36.3247

>  <SCORE.INTER.norm>
-1.34724

>  <SCORE.INTRA>
-5.85607

>  <SCORE.INTRA.DIHEDRAL>
-3.36488

>  <SCORE.INTRA.DIHEDRAL.0>
15.5708

>  <SCORE.INTRA.POLAR>
-1.26554

>  <SCORE.INTRA.POLAR.0>
-0.0677885

>  <SCORE.INTRA.REPUL>
0

>  <SCORE.INTRA.REPUL.0>
0

>  <SCORE.INTRA.SOLV>
-0.615258

>  <SCORE.INTRA.SOLV.lig_0>
-87.6316

>  <SCORE.INTRA.VDW>
0.436855

>  <SCORE.INTRA.VDW.0>
-2.87309

>  <SCORE.INTRA.norm>
-0.188905

>  <SCORE.RESTR>
0

>  <SCORE.RESTR.CAVITY>
0

>  <SCORE.RESTR.norm>
0

>  <SCORE.SYSTEM>
0

>  <SCORE.SYSTEM.CONST>
0

>  <SCORE.SYSTEM.DIHEDRAL>
0

>  <SCORE.SYSTEM.SOLV>
0

>  <SCORE.SYSTEM.norm>
0

>  <SCORE.heavy>
31

>  <SCORE.norm>
-1.53615

>  <SYMMETRIC_BONDS>
33 34 3

>  <RMSD>
4.855

$$$$
1fmn_cryst
 OpenBabel11021811393D
libRbt.so/2013.1/901 2013/11/27
 31 33  0  0  0  0  0  0  0  0999 V2000
   -7.8364   -4.5994   -2.2870 N   0  0  0  0  0  0  0  0  0  0  0  0
   -8.0838   -4.0938   -3.5418 C   0  0  0  0  0  0  0  0  0  0  0  0
   -7.2005   -4.0042   -4.3952 O   0  0  0  0  0  0  0  0  0  0  0  0
   -9.4166   -3.6786   -3.7878 N   0  0  0  0  0  0  0  0  0  0  0  0
  -10.4982   -3.7319   -2.8815 C   0  0  0  0  0  0  0  0  0  0  0  0
  -11.6174   -3.3352   -3.2298 O   0  0  0  0  0  0  0  0  0  0  0  0
  -10.1531   -4.2813   -1.5683 C   0  0  0  0  0  0  0  0  0  0  0  0
  -11.1503   -4.3675   -0.6290 N   0  0  0  0  0  0  0  0  0  0  0  0
  -10.7904   -4.7076    0.6428 C   0  0  0  0  0  0  0  0  0  0  0  0
  -11.7528   -4.6173    1.6327 C   0  0  0  0  0  0  0  0  0  0  0  0
  -11.4671   -4.9390    2.9157 C   0  0  0  0  0  0  0  0  0  0  0  0
  -12.5444   -4.8271    3.9470 C   0  0  0  0  0  0  0  0  0  0  0  0
  -10.2188   -5.3583    3.2577 C   0  0  0  0  0  0  0  0  0  0  0  0
   -9.9102   -5.7048    4.6778 C   0  0  0  0  0  0  0  0  0  0  0  0
   -9.2427   -5.4629    2.3200 C   0  0  0  0  0  0  0  0  0  0  0  0
   -9.4852   -5.1442    0.9839 C   0  0  0  0  0  0  0  0  0  0  0  0
   -8.5192   -5.2336   -0.0402 N   0  0  0  0  0  0  0  0  0  0  0  0
   -8.7960   -4.7068   -1.3184 C   0  0  0  0  0  0  0  0  0  0  0  0
   -7.4955   -6.3395    0.0458 C   0  0  0  0  0  0  0  0  0  0  0  0
   -6.3768   -6.1650    1.1175 C   0  0  1  0  0  0  0  0  0  0  0  0
   -6.2613   -4.7980    1.4861 O   0  0  0  0  0  0  0  0  0  0  0  0
   -6.5607   -7.0861    2.3470 C   0  0  1  0  0  0  0  0  0  0  0  0
   -5.9905   -8.3668    2.0938 O   0  0  0  0  0  0  0  0  0  0  0  0
   -6.0593   -6.5457    3.7088 C   0  0  1  0  0  0  0  0  0  0  0  0
   -6.7007   -5.3005    3.9617 O   0  0  0  0  0  0  0  0  0  0  0  0
   -6.3549   -7.5051    4.8835 C   0  0  0  0  0  0  0  0  0  0  0  0
   -5.6962   -7.1149    6.0827 O   0  0  0  0  0  0  0  0  0  0  0  0
   -4.1203   -7.1517    6.2451 P   0  0  0  0  0  0  0  0  0  0  0  0
   -3.5889   -8.4998    5.9413 O   0  0  0  0  0  0  0  0  0  0  0  0
   -3.5009   -5.9815    5.5863 O   0  5  0  0  0  0  0  0  0  0  0  0
   -3.8973   -6.9497    7.8086 O   0  5  0  0  0  0  0  0  0  0  0  0
  1 18  1  0  0  0  0
  1  2  1  0  0  0  0
  2  4  1  0  0  0  0
  2  3  2  0  0  0  0
  4  5  1  0  0  0  0
  5  7  1  0  0  0  0
  5  6  2  0  0  0  0
  7 18  2  0  0  0  0
  7  8  1  0  0  0  0
  8  9  1  0  0  0  0
  9 10  2  0  0  0  0
  9 16  1  0  0  0  0
 10 11  1  0  0  0  0
 11 12  1  0  0  0  0
 11 13  2  0  0  0  0
 13 14  1  0  0  0  0
 13 15  1  0  0  0  0
 15 16  2  0  0  0  0
 16 17  1  0  0  0  0
 17 19  1  0  0  0  0
 17 18  1  0  0  0  0
 20 19  1  6  0  0  0
 20 22  1  0  0  0  0
 20 21  1  0  0  0  0
 22 24  1  0  0  0  0
 22 23  1  6  0  0  0
 24 26  1  1  0  0  0
 24 25  1  0  0  0  0
 26 27  1  0  0  0  0
 27 28  1  0  0  0  0
 28 30  1  0  0  0  0
 28 29  2  0  0  0  0
 28 31  1  0  0  0  0
M  CHG  2  30  -1  31  -1
M  END
>  <CHROM.1>
-73.61993865,-20.50354914,85.19705252,-48.81917752,56.34060384,-54.33214101
169.93162477,-50.76964354,-66.96240563,-55.11921929,-7.82637025,-5.60386118
1.81291835,-2.13200498,-0.23914666,1.78276201

>  <Name>
1fmn_cryst

>  <RI>
0

>  <Rbt.Current_Directory>
/home/itssahil/PROJECTS/Mol_Feturizer/New_Systems/rnas/1fmn

>  <Rbt.Executable>
rbdock ($Id: //depot/dev/client3/rdock/2013.1/src/exe/rbdock.cxx#4 $)

>  <Rbt.Library>
libRbt.so (2013.1, Build901 2013/11/27)

>  <Rbt.Parameter_File>
/export/apps/rDock/src/rDock_2013.1_src/data/scripts/dock_solv.prm

>  <Rbt.Receptor>
prm/pocket_docking_3.prm

>  <SCORE>
-50.1025

>  <SCORE.INTER>
-43.7829

>  <SCORE.INTER.CONST>
1

>  <SCORE.INTER.POLAR>
-2.15951

>  <SCORE.INTER.ROT>
7

>  <SCORE.INTER.SOLV>
17.9393

>  <SCORE.INTER.VDW>
-36.2367

>  <SCORE.INTER.norm>
-1.41235

>  <SCORE.INTRA>
-6.32451

>  <SCORE.INTRA.DIHEDRAL>
-5.78649

>  <SCORE.INTRA.DIHEDRAL.0>
15.5708

>  <SCORE.INTRA.POLAR>
-0.749715

>  <SCORE.INTRA.POLAR.0>
-0.0677885

>  <SCORE.INTRA.REPUL>
0

>  <SCORE.INTRA.REPUL.0>
0

>  <SCORE.INTRA.SOLV>
-1.21208

>  <SCORE.INTRA.SOLV.lig_0>
-87.6316

>  <SCORE.INTRA.VDW>
-0.276195

>  <SCORE.INTRA.VDW.0>
-2.87309

>  <SCORE.INTRA.norm>
-0.204016

>  <SCORE.RESTR>
0.00499604

>  <SCORE.RESTR.CAVITY>
0.00499604

>  <SCORE.RESTR.norm>
0.000161163

>  <SCORE.SYSTEM>
0

>  <SCORE.SYSTEM.CONST>
0

>  <SCORE.SYSTEM.DIHEDRAL>
0

>  <SCORE.SYSTEM.SOLV>
0

>  <SCORE.SYSTEM.norm>
0

>  <SCORE.heavy>
31

>  <SCORE.norm>
-1.61621

>  <SYMMETRIC_BONDS>
33 34 3

>  <RMSD>
4.875

$$$$
1fmn_cryst
 OpenBabel11021811393D
libRbt.so/2013.1/901 2013/11/27
 31 33  0  0  0  0  0  0  0  0999 V2000
   -7.3411   -5.1175   -2.1416 N   0  0  0  0  0  0  0  0  0  0  0  0
   -7.4700   -4.5880   -3.4043 C   0  0  0  0  0  0  0  0  0  0  0  0
   -6.5489   -4.6163   -4.2212 O   0  0  0  0  0  0  0  0  0  0  0  0
   -8.7268   -4.0042   -3.7031 N   0  0  0  0  0  0  0  0  0  0  0  0
   -9.8418   -3.9140   -2.8413 C   0  0  0  0  0  0  0  0  0  0  0  0
  -10.8852   -3.3766   -3.2336 O   0  0  0  0  0  0  0  0  0  0  0  0
   -9.6242   -4.4995   -1.5165 C   0  0  0  0  0  0  0  0  0  0  0  0
  -10.6612   -4.4527   -0.6184 N   0  0  0  0  0  0  0  0  0  0  0  0
  -10.4000   -4.8327    0.6661 C   0  0  0  0  0  0  0  0  0  0  0  0
  -11.3818   -4.6154    1.6165 C   0  0  0  0  0  0  0  0  0  0  0  0
  -11.1922   -4.9674    2.9094 C   0  0  0  0  0  0  0  0  0  0  0  0
  -12.2865   -4.7136    3.8965 C   0  0  0  0  0  0  0  0  0  0  0  0
  -10.0236   -5.5440    3.3006 C   0  0  0  0  0  0  0  0  0  0  0  0
   -9.8201   -5.9232    4.7313 C   0  0  0  0  0  0  0  0  0  0  0  0
   -9.0323   -5.7772    2.4029 C   0  0  0  0  0  0  0  0  0  0  0  0
   -9.1773   -5.4338    1.0588 C   0  0  0  0  0  0  0  0  0  0  0  0
   -8.1905   -5.6509    0.0744 N   0  0  0  0  0  0  0  0  0  0  0  0
   -8.3449   -5.0966   -1.2128 C   0  0  0  0  0  0  0  0  0  0  0  0
   -7.3232   -6.8799    0.1993 C   0  0  0  0  0  0  0  0  0  0  0  0
   -5.7962   -6.6325    0.3922 C   0  0  1  0  0  0  0  0  0  0  0  0
   -5.2500   -6.0171   -0.7658 O   0  0  0  0  0  0  0  0  0  0  0  0
   -5.4639   -5.8448    1.6818 C   0  0  1  0  0  0  0  0  0  0  0  0
   -6.1825   -4.6149    1.7078 O   0  0  0  0  0  0  0  0  0  0  0  0
   -5.6477   -6.5912    3.0261 C   0  0  1  0  0  0  0  0  0  0  0  0
   -5.0799   -7.8902    2.9000 O   0  0  0  0  0  0  0  0  0  0  0  0
   -4.9751   -5.8675    4.2141 C   0  0  0  0  0  0  0  0  0  0  0  0
   -3.6200   -5.5268    3.9462 O   0  0  0  0  0  0  0  0  0  0  0  0
   -2.4566   -6.6023    3.9155 P   0  0  0  0  0  0  0  0  0  0  0  0
   -2.4556   -7.4155    5.1527 O   0  0  0  0  0  0  0  0  0  0  0  0
   -2.4242   -7.2981    2.6109 O   0  5  0  0  0  0  0  0  0  0  0  0
   -1.1298   -5.7248    3.9830 O   0  5  0  0  0  0  0  0  0  0  0  0
  1 18  1  0  0  0  0
  1  2  1  0  0  0  0
  2  4  1  0  0  0  0
  2  3  2  0  0  0  0
  4  5  1  0  0  0  0
  5  7  1  0  0  0  0
  5  6  2  0  0  0  0
  7 18  2  0  0  0  0
  7  8  1  0  0  0  0
  8  9  1  0  0  0  0
  9 10  2  0  0  0  0
  9 16  1  0  0  0  0
 10 11  1  0  0  0  0
 11 12  1  0  0  0  0
 11 13  2  0  0  0  0
 13 14  1  0  0  0  0
 13 15  1  0  0  0  0
 15 16  2  0  0  0  0
 16 17  1  0  0  0  0
 17 19  1  0  0  0  0
 17 18  1  0  0  0  0
 20 19  1  6  0  0  0
 20 22  1  0  0  0  0
 20 21  1  0  0  0  0
 22 24  1  0  0  0  0
 22 23  1  1  0  0  0
 24 26  1  1  0  0  0
 24 25  1  0  0  0  0
 26 27  1  0  0  0  0
 27 28  1  0  0  0  0
 28 30  1  0  0  0  0
 28 29  2  0  0  0  0
 28 31  1  0  0  0  0
M  CHG  2  30  -1  31  -1
M  END
>  <CHROM.1>
-117.55657281,-65.25558558,-55.25145412,-84.00764334,45.24929231,-59.50119073
-50.53054070,-61.95988218,-73.59700460,-52.24222299,-7.03553612,-5.55574134
1.13325280,-2.47484340,-0.17981535,1.74654780

>  <Name>
1fmn_cryst

>  <RI>
0

>  <Rbt.Current_Directory>
/home/itssahil/PROJECTS/Mol_Feturizer/New_Systems/rnas/1fmn

>  <Rbt.Executable>
rbdock ($Id: //depot/dev/client3/rdock/2013.1/src/exe/rbdock.cxx#4 $)

>  <Rbt.Library>
libRbt.so (2013.1, Build901 2013/11/27)

>  <Rbt.Parameter_File>
/export/apps/rDock/src/rDock_2013.1_src/data/scripts/dock_solv.prm

>  <Rbt.Receptor>
prm/pocket_docking_6.prm

>  <SCORE>
-49.6416

>  <SCORE.INTER>
-43.6316

>  <SCORE.INTER.CONST>
1

>  <SCORE.INTER.POLAR>
-2.06018

>  <SCORE.INTER.ROT>
7

>  <SCORE.INTER.SOLV>
16.3056

>  <SCORE.INTER.VDW>
-35.9223

>  <SCORE.INTER.norm>
-1.40747

>  <SCORE.INTRA>
-6.26879

>  <SCORE.INTRA.DIHEDRAL>
-8.04443

>  <SCORE.INTRA.DIHEDRAL.0>
15.5708

>  <SCORE.INTRA.POLAR>
-0.655442

>  <SCORE.INTRA.POLAR.0>
-0.0677885

>  <SCORE.INTRA.REPUL>
0

>  <SCORE.INTRA.REPUL.0>
0

>  <SCORE.INTRA.SOLV>
2.61666

>  <SCORE.INTRA.SOLV.lig_0>
-87.6316

>  <SCORE.INTRA.VDW>
-1.3264

>  <SCORE.INTRA.VDW.0>
-2.87309

>  <SCORE.INTRA.norm>
-0.202219

>  <SCORE.RESTR>
0.258811

>  <SCORE.RESTR.CAVITY>
0.258811

>  <SCORE.RESTR.norm>
0.00834874

>  <SCORE.SYSTEM>
0

>  <SCORE.SYSTEM.CONST>
0

>  <SCORE.SYSTEM.DIHEDRAL>
0

>  <SCORE.SYSTEM.SOLV>
0

>  <SCORE.SYSTEM.norm>
0

>  <SCORE.heavy>
31

>  <SCORE.norm>
-1.60134

>  <SYMMETRIC_BONDS>
33 34 3

>  <RMSD>
4.899

$$$$
1fmn_cryst
 OpenBabel11021811393D
libRbt.so/2013.1/901 2013/11/27
 31 33  0  0  0  0  0  0  0  0999 V2000
   -7.3278   -5.5571   -1.8962 N   0  0  0  0  0  0  0  0  0  0  0  0
   -7.2480   -5.0203   -3.1599 C   0  0  0  0  0  0  0  0  0  0  0  0
   -6.2911   -5.2401   -3.9032 O   0  0  0  0  0  0  0  0  0  0  0  0
   -8.3331   -4.1954   -3.5493 N   0  0  0  0  0  0  0  0  0  0  0  0
   -9.4702   -3.8754   -2.7755 C   0  0  0  0  0  0  0  0  0  0  0  0
  -10.3491   -3.1398   -3.2422 O   0  0  0  0  0  0  0  0  0  0  0  0
   -9.4796   -4.4847   -1.4436 C   0  0  0  0  0  0  0  0  0  0  0  0
  -10.5522   -4.2228   -0.6281 N   0  0  0  0  0  0  0  0  0  0  0  0
  -10.4742   -4.6399    0.6690 C   0  0  0  0  0  0  0  0  0  0  0  0
  -11.4623   -4.2219    1.5427 C   0  0  0  0  0  0  0  0  0  0  0  0
  -11.4492   -4.5972    2.8428 C   0  0  0  0  0  0  0  0  0  0  0  0
  -12.5427   -4.1204    3.7447 C   0  0  0  0  0  0  0  0  0  0  0  0
  -10.4559   -5.3965    3.3177 C   0  0  0  0  0  0  0  0  0  0  0  0
  -10.4455   -5.8003    4.7561 C   0  0  0  0  0  0  0  0  0  0  0  0
   -9.4659   -5.8317    2.4971 C   0  0  0  0  0  0  0  0  0  0  0  0
   -9.4332   -5.4743    1.1493 C   0  0  0  0  0  0  0  0  0  0  0  0
   -8.4375   -5.8933    0.2421 N   0  0  0  0  0  0  0  0  0  0  0  0
   -8.3755   -5.3271   -1.0477 C   0  0  0  0  0  0  0  0  0  0  0  0
   -7.8499   -7.2720    0.4218 C   0  0  0  0  0  0  0  0  0  0  0  0
   -6.4953   -7.3522    1.1892 C   0  0  1  0  0  0  0  0  0  0  0  0
   -6.1567   -8.7081    1.4438 O   0  0  0  0  0  0  0  0  0  0  0  0
   -5.3489   -6.5881    0.4850 C   0  0  1  0  0  0  0  0  0  0  0  0
   -5.3454   -5.2219    0.8890 O   0  0  0  0  0  0  0  0  0  0  0  0
   -3.9249   -7.1813    0.6197 C   0  0  1  0  0  0  0  0  0  0  0  0
   -3.1110   -6.6346   -0.4121 O   0  0  0  0  0  0  0  0  0  0  0  0
   -3.2705   -6.8734    1.9852 C   0  0  0  0  0  0  0  0  0  0  0  0
   -3.6189   -7.8268    2.9821 O   0  0  0  0  0  0  0  0  0  0  0  0
   -3.0653   -7.7562    4.4652 P   0  0  0  0  0  0  0  0  0  0  0  0
   -1.5878   -7.8501    4.4830 O   0  0  0  0  0  0  0  0  0  0  0  0
   -3.7138   -6.6568    5.2120 O   0  5  0  0  0  0  0  0  0  0  0  0
   -3.5847   -9.1082    5.1265 O   0  5  0  0  0  0  0  0  0  0  0  0
  1 18  1  0  0  0  0
  1  2  1  0  0  0  0
  2  4  1  0  0  0  0
  2  3  2  0  0  0  0
  4  5  1  0  0  0  0
  5  7  1  0  0  0  0
  5  6  2  0  0  0  0
  7 18  2  0  0  0  0
  7  8  1  0  0  0  0
  8  9  1  0  0  0  0
  9 10  2  0  0  0  0
  9 16  1  0  0  0  0
 10 11  1  0  0  0  0
 11 12  1  0  0  0  0
 11 13  2  0  0  0  0
 13 14  1  0  0  0  0
 13 15  1  0  0  0  0
 15 16  2  0  0  0  0
 16 17  1  0  0  0  0
 17 19  1  0  0  0  0
 17 18  1  0  0  0  0
 20 19  1  6  0  0  0
 20 22  1  0  0  0  0
 20 21  1  0  0  0  0
 22 24  1  0  0  0  0
 22 23  1  1  0  0  0
 24 26  1  1  0  0  0
 24 25  1  0  0  0  0
 26 27  1  0  0  0  0
 27 28  1  0  0  0  0
 28 30  1  0  0  0  0
 28 29  2  0  0  0  0
 28 31  1  0  0  0  0
M  CHG  2  30  -1  31  -1
M  END
>  <CHROM.1>
-97.52861207,171.99641192,87.06083950,57.09109442,161.07991777,-179.22316979
86.18866018,-75.91190911,179.05100977,-60.54680017,-7.05136686,-6.00257945
1.07198099,-2.52442178,-0.32779654,1.79130370

>  <Name>
1fmn_cryst

>  <RI>
0

>  <Rbt.Current_Directory>
/home/itssahil/PROJECTS/Mol_Feturizer/New_Systems/rnas/1fmn

>  <Rbt.Executable>
rbdock ($Id: //depot/dev/client3/rdock/2013.1/src/exe/rbdock.cxx#4 $)

>  <Rbt.Library>
libRbt.so (2013.1, Build901 2013/11/27)

>  <Rbt.Parameter_File>
/export/apps/rDock/src/rDock_2013.1_src/data/scripts/dock_solv.prm

>  <Rbt.Receptor>
prm/pocket_docking_8.prm

>  <SCORE>
-59.2296

>  <SCORE.INTER>
-54.1659

>  <SCORE.INTER.CONST>
1

>  <SCORE.INTER.POLAR>
-3.86129

>  <SCORE.INTER.ROT>
7

>  <SCORE.INTER.SOLV>
19.3348

>  <SCORE.INTER.VDW>
-37.9512

>  <SCORE.INTER.norm>
-1.74729

>  <SCORE.INTRA>
-5.0637

>  <SCORE.INTRA.DIHEDRAL>
-5.75177

>  <SCORE.INTRA.DIHEDRAL.0>
15.5708

>  <SCORE.INTRA.POLAR>
0.0677885

>  <SCORE.INTRA.POLAR.0>
-0.0677885

>  <SCORE.INTRA.REPUL>
0

>  <SCORE.INTRA.REPUL.0>
0

>  <SCORE.INTRA.SOLV>
-4.54653

>  <SCORE.INTRA.SOLV.lig_0>
-87.6316

>  <SCORE.INTRA.VDW>
-0.145034

>  <SCORE.INTRA.VDW.0>
-2.87309

>  <SCORE.INTRA.norm>
-0.163345

>  <SCORE.RESTR>
0

>  <SCORE.RESTR.CAVITY>
0

>  <SCORE.RESTR.norm>
0

>  <SCORE.SYSTEM>
0

>  <SCORE.SYSTEM.CONST>
0

>  <SCORE.SYSTEM.DIHEDRAL>
0

>  <SCORE.SYSTEM.SOLV>
0

>  <SCORE.SYSTEM.norm>
0

>  <SCORE.heavy>
31

>  <SCORE.norm>
-1.91063

>  <SYMMETRIC_BONDS>
33 34 3

>  <RMSD>
4.908

$$$$
1fmn_cryst
 OpenBabel11021811393D
libRbt.so/2013.1/901 2013/11/27
 31 33  0  0  0  0  0  0  0  0999 V2000
   -7.2690   -5.6569   -1.7704 N   0  0  0  0  0  0  0  0  0  0  0  0
   -7.2488   -5.1695   -3.0563 C   0  0  0  0  0  0  0  0  0  0  0  0
   -6.2864   -5.3425   -3.8049 O   0  0  0  0  0  0  0  0  0  0  0  0
   -8.4022   -4.4524   -3.4623 N   0  0  0  0  0  0  0  0  0  0  0  0
   -9.5520   -4.1928   -2.6846 C   0  0  0  0  0  0  0  0  0  0  0  0
  -10.4936   -3.5513   -3.1674 O   0  0  0  0  0  0  0  0  0  0  0  0
   -9.4952   -4.7437   -1.3287 C   0  0  0  0  0  0  0  0  0  0  0  0
  -10.5755   -4.5351   -0.5079 N   0  0  0  0  0  0  0  0  0  0  0  0
  -10.4478   -4.8891    0.8039 C   0  0  0  0  0  0  0  0  0  0  0  0
  -11.4558   -4.5157    1.6750 C   0  0  0  0  0  0  0  0  0  0  0  0
  -11.3962   -4.8331    2.9892 C   0  0  0  0  0  0  0  0  0  0  0  0
  -12.5137   -4.4084    3.8877 C   0  0  0  0  0  0  0  0  0  0  0  0
  -10.3352   -5.5285    3.4810 C   0  0  0  0  0  0  0  0  0  0  0  0
  -10.2742   -5.8687    4.9345 C   0  0  0  0  0  0  0  0  0  0  0  0
   -9.3232   -5.9166    2.6636 C   0  0  0  0  0  0  0  0  0  0  0  0
   -9.3364   -5.6154    1.3018 C   0  0  0  0  0  0  0  0  0  0  0  0
   -8.3211   -5.9906    0.3972 N   0  0  0  0  0  0  0  0  0  0  0  0
   -8.3215   -5.4765   -0.9158 C   0  0  0  0  0  0  0  0  0  0  0  0
   -7.6210   -7.3084    0.6244 C   0  0  0  0  0  0  0  0  0  0  0  0
   -6.0846   -7.2406    0.8797 C   0  0  1  0  0  0  0  0  0  0  0  0
   -5.4801   -6.3176   -0.0150 O   0  0  0  0  0  0  0  0  0  0  0  0
   -5.7237   -6.9433    2.3547 C   0  0  1  0  0  0  0  0  0  0  0  0
   -6.4874   -5.8417    2.8371 O   0  0  0  0  0  0  0  0  0  0  0  0
   -5.8162   -8.1253    3.3508 C   0  0  1  0  0  0  0  0  0  0  0  0
   -5.5230   -9.3284    2.6489 O   0  0  0  0  0  0  0  0  0  0  0  0
   -4.8364   -7.9908    4.5381 C   0  0  0  0  0  0  0  0  0  0  0  0
   -5.3804   -7.2263    5.6076 O   0  0  0  0  0  0  0  0  0  0  0  0
   -6.3335   -7.8512    6.7087 P   0  0  0  0  0  0  0  0  0  0  0  0
   -7.7255   -7.9427    6.2126 O   0  0  0  0  0  0  0  0  0  0  0  0
   -5.7163   -9.0522    7.3115 O   0  5  0  0  0  0  0  0  0  0  0  0
   -6.3627   -6.7455    7.8538 O   0  5  0  0  0  0  0  0  0  0  0  0
  1 18  1  0  0  0  0
  1  2  1  0  0  0  0
  2  4  1  0  0  0  0
  2  3  2  0  0  0  0
  4  5  1  0  0  0  0
  5  7  1  0  0  0  0
  5  6  2  0  0  0  0
  7 18  2  0  0  0  0
  7  8  1  0  0  0  0
  8  9  1  0  0  0  0
  9 10  2  0  0  0  0
  9 16  1  0  0  0  0
 10 11  1  0  0  0  0
 11 12  1  0  0  0  0
 11 13  2  0  0  0  0
 13 14  1  0  0  0  0
 13 15  1  0  0  0  0
 15 16  2  0  0  0  0
 16 17  1  0  0  0  0
 17 19  1  0  0  0  0
 17 18  1  0  0  0  0
 20 19  1  1  0  0  0
 20 22  1  0  0  0  0
 20 21  1  0  0  0  0
 22 24  1  0  0  0  0
 22 23  1  1  0  0  0
 24 26  1  1  0  0  0
 24 25  1  0  0  0  0
 26 27  1  0  0  0  0
 27 28  1  0  0  0  0
 28 30  1  0  0  0  0
 28 29  2  0  0  0  0
 28 31  1  0  0  0  0
M  CHG  2  30  -1  31  -1
M  END
>  <CHROM.1>
-119.06324774,-42.76843026,-48.09381631,71.79805244,30.72948291,-8.45828946
86.44629848,-175.91724565,83.48917458,-81.32253489,-7.90704450,-6.20256201
1.95875842,-1.88935403,-0.44196031,1.78964542

>  <Name>
1fmn_cryst

>  <RI>
0

>  <Rbt.Current_Directory>
/home/itssahil/PROJECTS/Mol_Feturizer/New_Systems/rnas/1fmn

>  <Rbt.Executable>
rbdock ($Id: //depot/dev/client3/rdock/2013.1/src/exe/rbdock.cxx#4 $)

>  <Rbt.Library>
libRbt.so (2013.1, Build901 2013/11/27)

>  <Rbt.Parameter_File>
/export/apps/rDock/src/rDock_2013.1_src/data/scripts/dock_solv.prm

>  <Rbt.Receptor>
prm/pocket_docking_5.prm

>  <SCORE>
-46.7311

>  <SCORE.INTER>
-44.9051

>  <SCORE.INTER.CONST>
1

>  <SCORE.INTER.POLAR>
-1.81614

>  <SCORE.INTER.ROT>
7

>  <SCORE.INTER.SOLV>
26.0499

>  <SCORE.INTER.VDW>
-40.8329

>  <SCORE.INTER.norm>
-1.44855

>  <SCORE.INTRA>
-1.82606

>  <SCORE.INTRA.DIHEDRAL>
2.77219

>  <SCORE.INTRA.DIHEDRAL.0>
15.5708

>  <SCORE.INTRA.POLAR>
-1.19582

>  <SCORE.INTRA.POLAR.0>
-0.0677885

>  <SCORE.INTRA.REPUL>
0

>  <SCORE.INTRA.REPUL.0>
0

>  <SCORE.INTRA.SOLV>
-0.131523

>  <SCORE.INTRA.SOLV.lig_0>
-87.6316

>  <SCORE.INTRA.VDW>
0.919399

>  <SCORE.INTRA.VDW.0>
-2.87309

>  <SCORE.INTRA.norm>
-0.0589052

>  <SCORE.RESTR>
0

>  <SCORE.RESTR.CAVITY>
0

>  <SCORE.RESTR.norm>
0

>  <SCORE.SYSTEM>
0

>  <SCORE.SYSTEM.CONST>
0

>  <SCORE.SYSTEM.DIHEDRAL>
0

>  <SCORE.SYSTEM.SOLV>
0

>  <SCORE.SYSTEM.norm>
0

>  <SCORE.heavy>
31

>  <SCORE.norm>
-1.50746

>  <SYMMETRIC_BONDS>
33 34 3

>  <RMSD>
4.911

$$$$
1fmn_cryst
 OpenBabel11021811393D
libRbt.so/2013.1/901 2013/11/27
 31 33  0  0  0  0  0  0  0  0999 V2000
   -7.4672   -4.6969   -2.3272 N   0  0  0  0  0  0  0  0  0  0  0  0
   -7.6539   -4.1921   -3.5929 C   0  0  0  0  0  0  0  0  0  0  0  0
   -6.7357   -4.1249   -4.4108 O   0  0  0  0  0  0  0  0  0  0  0  0
   -8.9669   -3.7504   -3.8934 N   0  0  0  0  0  0  0  0  0  0  0  0
  -10.0845   -3.7770   -3.0306 C   0  0  0  0  0  0  0  0  0  0  0  0
  -11.1805   -3.3587   -3.4247 O   0  0  0  0  0  0  0  0  0  0  0  0
   -9.8035   -4.3274   -1.7027 C   0  0  0  0  0  0  0  0  0  0  0  0
  -10.8389   -4.3884   -0.8035 N   0  0  0  0  0  0  0  0  0  0  0  0
  -10.5370   -4.7301    0.4828 C   0  0  0  0  0  0  0  0  0  0  0  0
  -11.5359   -4.6152    1.4333 C   0  0  0  0  0  0  0  0  0  0  0  0
  -11.3083   -4.9369    2.7279 C   0  0  0  0  0  0  0  0  0  0  0  0
  -12.4231   -4.7978    3.7150 C   0  0  0  0  0  0  0  0  0  0  0  0
  -10.0836   -5.3804    3.1209 C   0  0  0  0  0  0  0  0  0  0  0  0
   -9.8390   -5.7267    4.5535 C   0  0  0  0  0  0  0  0  0  0  0  0
   -9.0734   -5.5097    2.2233 C   0  0  0  0  0  0  0  0  0  0  0  0
   -9.2559   -5.1922    0.8774 C   0  0  0  0  0  0  0  0  0  0  0  0
   -8.2520   -5.3064   -0.1071 N   0  0  0  0  0  0  0  0  0  0  0  0
   -8.4666   -4.7798   -1.3973 C   0  0  0  0  0  0  0  0  0  0  0  0
   -7.2559   -6.4329    0.0239 C   0  0  0  0  0  0  0  0  0  0  0  0
   -5.7505   -6.0404   -0.0747 C   0  0  1  0  0  0  0  0  0  0  0  0
   -5.4710   -4.9510    0.7931 O   0  0  0  0  0  0  0  0  0  0  0  0
   -4.7924   -7.2325    0.1600 C   0  0  1  0  0  0  0  0  0  0  0  0
   -3.4804   -6.9071   -0.2900 O   0  0  0  0  0  0  0  0  0  0  0  0
   -4.7294   -7.8088    1.5959 C   0  0  1  0  0  0  0  0  0  0  0  0
   -3.8645   -8.9392    1.5888 O   0  0  0  0  0  0  0  0  0  0  0  0
   -4.2065   -6.7889    2.6322 C   0  0  0  0  0  0  0  0  0  0  0  0
   -4.1938   -7.3151    3.9540 O   0  0  0  0  0  0  0  0  0  0  0  0
   -3.8665   -6.4281    5.2258 P   0  0  0  0  0  0  0  0  0  0  0  0
   -4.6307   -5.1604    5.1970 O   0  0  0  0  0  0  0  0  0  0  0  0
   -3.9012   -7.2480    6.4560 O   0  5  0  0  0  0  0  0  0  0  0  0
   -2.3446   -6.0114    5.0136 O   0  5  0  0  0  0  0  0  0  0  0  0
  1 18  1  0  0  0  0
  1  2  1  0  0  0  0
  2  4  1  0  0  0  0
  2  3  2  0  0  0  0
  4  5  1  0  0  0  0
  5  7  1  0  0  0  0
  5  6  2  0  0  0  0
  7 18  2  0  0  0  0
  7  8  1  0  0  0  0
  8  9  1  0  0  0  0
  9 10  2  0  0  0  0
  9 16  1  0  0  0  0
 10 11  1  0  0  0  0
 11 12  1  0  0  0  0
 11 13  2  0  0  0  0
 13 14  1  0  0  0  0
 13 15  1  0  0  0  0
 15 16  2  0  0  0  0
 16 17  1  0  0  0  0
 17 19  1  0  0  0  0
 17 18  1  0  0  0  0
 20 19  1  1  0  0  0
 20 22  1  0  0  0  0
 20 21  1  0  0  0  0
 22 24  1  0  0  0  0
 22 23  1  1  0  0  0
 24 26  1  1  0  0  0
 24 25  1  0  0  0  0
 26 27  1  0  0  0  0
 27 28  1  0  0  0  0
 28 30  1  0  0  0  0
 28 29  2  0  0  0  0
 28 31  1  0  0  0  0
M  CHG  2  30  -1  31  -1
M  END
>  <CHROM.1>
-129.43701773,49.85248137,164.37421515,-58.89741760,176.45865676,-175.70844712
178.09527853,-55.80446379,-172.61739442,47.36640930,-7.18938436,-5.58761395
1.08270261,-2.32872933,-0.27745838,1.71778344

>  <Name>
1fmn_cryst

>  <RI>
0

>  <Rbt.Current_Directory>
/home/itssahil/PROJECTS/Mol_Feturizer/New_Systems/rnas/1fmn

>  <Rbt.Executable>
rbdock ($Id: //depot/dev/client3/rdock/2013.1/src/exe/rbdock.cxx#4 $)

>  <Rbt.Library>
libRbt.so (2013.1, Build901 2013/11/27)

>  <Rbt.Parameter_File>
/export/apps/rDock/src/rDock_2013.1_src/data/scripts/dock_solv.prm

>  <Rbt.Receptor>
prm/pocket_docking_4.prm

>  <SCORE>
-52.4859

>  <SCORE.INTER>
-45.7367

>  <SCORE.INTER.CONST>
1

>  <SCORE.INTER.POLAR>
-2.55405

>  <SCORE.INTER.ROT>
7

>  <SCORE.INTER.SOLV>
19.8413

>  <SCORE.INTER.VDW>
-36.858

>  <SCORE.INTER.norm>
-1.47538

>  <SCORE.INTRA>
-6.74927

>  <SCORE.INTRA.DIHEDRAL>
-11.5525

>  <SCORE.INTRA.DIHEDRAL.0>
15.5708

>  <SCORE.INTRA.POLAR>
0.0677885

>  <SCORE.INTRA.POLAR.0>
-0.0677885

>  <SCORE.INTRA.REPUL>
0

>  <SCORE.INTRA.REPUL.0>
0

>  <SCORE.INTRA.SOLV>
-4.32835

>  <SCORE.INTRA.SOLV.lig_0>
-87.6316

>  <SCORE.INTRA.VDW>
0.960678

>  <SCORE.INTRA.VDW.0>
-2.87309

>  <SCORE.INTRA.norm>
-0.217718

>  <SCORE.RESTR>
0

>  <SCORE.RESTR.CAVITY>
0

>  <SCORE.RESTR.norm>
0

>  <SCORE.SYSTEM>
0

>  <SCORE.SYSTEM.CONST>
0

>  <SCORE.SYSTEM.DIHEDRAL>
0

>  <SCORE.SYSTEM.SOLV>
0

>  <SCORE.SYSTEM.norm>
0

>  <SCORE.heavy>
31

>  <SCORE.norm>
-1.69309

>  <SYMMETRIC_BONDS>
33 34 3

>  <RMSD>
4.913

$$$$
1fmn_cryst
 OpenBabel11021811393D
libRbt.so/2013.1/901 2013/11/27
 31 33  0  0  0  0  0  0  0  0999 V2000
   -7.6000   -6.2568    0.9367 N   0  0  0  0  0  0  0  0  0  0  0  0
   -6.6464   -6.5836    0.0011 C   0  0  0  0  0  0  0  0  0  0  0  0
   -5.6935   -7.3163    0.2688 O   0  0  0  0  0  0  0  0  0  0  0  0
   -6.8275   -6.0202   -1.2870 N   0  0  0  0  0  0  0  0  0  0  0  0
   -7.8763   -5.1673   -1.6954 C   0  0  0  0  0  0  0  0  0  0  0  0
   -7.9142   -4.7464   -2.8584 O   0  0  0  0  0  0  0  0  0  0  0  0
   -8.8488   -4.8668   -0.6423 C   0  0  0  0  0  0  0  0  0  0  0  0
   -9.9006   -4.0436   -0.9590 N   0  0  0  0  0  0  0  0  0  0  0  0
  -10.7002   -3.6211    0.0632 C   0  0  0  0  0  0  0  0  0  0  0  0
  -11.6452   -2.6496   -0.2150 C   0  0  0  0  0  0  0  0  0  0  0  0
  -12.4725   -2.1838    0.7494 C   0  0  0  0  0  0  0  0  0  0  0  0
  -13.4787   -1.1356    0.3956 C   0  0  0  0  0  0  0  0  0  0  0  0
  -12.3877   -2.6650    2.0192 C   0  0  0  0  0  0  0  0  0  0  0  0
  -13.3003   -2.1402    3.0793 C   0  0  0  0  0  0  0  0  0  0  0  0
  -11.4763   -3.6191    2.3383 C   0  0  0  0  0  0  0  0  0  0  0  0
  -10.6009   -4.1330    1.3817 C   0  0  0  0  0  0  0  0  0  0  0  0
   -9.6340   -5.1260    1.6443 N   0  0  0  0  0  0  0  0  0  0  0  0
   -8.6659   -5.4427    0.6693 C   0  0  0  0  0  0  0  0  0  0  0  0
   -9.9711   -6.1932    2.6571 C   0  0  0  0  0  0  0  0  0  0  0  0
  -10.2648   -5.7027    4.1074 C   0  0  1  0  0  0  0  0  0  0  0  0
  -11.6667   -5.6216    4.3220 O   0  0  0  0  0  0  0  0  0  0  0  0
   -9.5576   -6.5488    5.1927 C   0  0  1  0  0  0  0  0  0  0  0  0
  -10.4842   -7.4417    5.8039 O   0  0  0  0  0  0  0  0  0  0  0  0
   -8.2869   -7.3215    4.7614 C   0  0  1  0  0  0  0  0  0  0  0  0
   -7.4883   -6.4601    3.9576 O   0  0  0  0  0  0  0  0  0  0  0  0
   -7.4418   -7.8085    5.9599 C   0  0  0  0  0  0  0  0  0  0  0  0
   -6.3685   -8.6526    5.5608 O   0  0  0  0  0  0  0  0  0  0  0  0
   -5.3612   -9.3046    6.5960 P   0  0  0  0  0  0  0  0  0  0  0  0
   -6.0848  -10.1302    7.5894 O   0  0  0  0  0  0  0  0  0  0  0  0
   -4.2021   -9.8962    5.8935 O   0  5  0  0  0  0  0  0  0  0  0  0
   -4.7972   -8.0580    7.4100 O   0  5  0  0  0  0  0  0  0  0  0  0
  1 18  1  0  0  0  0
  1  2  1  0  0  0  0
  2  4  1  0  0  0  0
  2  3  2  0  0  0  0
  4  5  1  0  0  0  0
  5  7  1  0  0  0  0
  5  6  2  0  0  0  0
  7 18  2  0  0  0  0
  7  8  1  0  0  0  0
  8  9  1  0  0  0  0
  9 10  2  0  0  0  0
  9 16  1  0  0  0  0
 10 11  1  0  0  0  0
 11 12  1  0  0  0  0
 11 13  2  0  0  0  0
 13 14  1  0  0  0  0
 13 15  1  0  0  0  0
 15 16  2  0  0  0  0
 16 17  1  0  0  0  0
 17 19  1  0  0  0  0
 17 18  1  0  0  0  0
 20 19  1  6  0  0  0
 20 22  1  0  0  0  0
 20 21  1  0  0  0  0
 22 24  1  0  0  0  0
 22 23  1  6  0  0  0
 24 26  1  1  0  0  0
 24 25  1  0  0  0  0
 26 27  1  0  0  0  0
 27 28  1  0  0  0  0
 28 30  1  0  0  0  0
 28 29  2  0  0  0  0
 28 31  1  0  0  0  0
M  CHG  2  30  -1  31  -1
M  END
>  <CHROM.1>
-60.80817231,98.78917266,-102.58343320,-31.25216469,43.52502700,-43.67734287
172.85968399,170.95679681,-179.12863838,57.77731045,-8.73051862,-5.95230342
2.72121947,-2.25696525,-0.57017590,1.90435676

>  <Name>
1fmn_cryst

>  <RI>
0

>  <Rbt.Current_Directory>
/home/itssahil/PROJECTS/Mol_Feturizer/New_Systems/rnas/1fmn

>  <Rbt.Executable>
rbdock ($Id: //depot/dev/client3/rdock/2013.1/src/exe/rbdock.cxx#4 $)

>  <Rbt.Library>
libRbt.so (2013.1, Build901 2013/11/27)

>  <Rbt.Parameter_File>
/export/apps/rDock/src/rDock_2013.1_src/data/scripts/dock_solv.prm

>  <Rbt.Receptor>
prm/pocket_docking_8.prm

>  <SCORE>
-25.6734

>  <SCORE.INTER>
-25.5564

>  <SCORE.INTER.CONST>
1

>  <SCORE.INTER.POLAR>
-1.72035

>  <SCORE.INTER.ROT>
7

>  <SCORE.INTER.SOLV>
26.0751

>  <SCORE.INTER.VDW>
-28.2615

>  <SCORE.INTER.norm>
-0.824401

>  <SCORE.INTRA>
-0.116972

>  <SCORE.INTRA.DIHEDRAL>
-0.145365

>  <SCORE.INTRA.DIHEDRAL.0>
15.5708

>  <SCORE.INTRA.POLAR>
-0.859549

>  <SCORE.INTRA.POLAR.0>
-0.0677885

>  <SCORE.INTRA.REPUL>
0

>  <SCORE.INTRA.REPUL.0>
0

>  <SCORE.INTRA.SOLV>
-3.44482

>  <SCORE.INTRA.SOLV.lig_0>
-87.6316

>  <SCORE.INTRA.VDW>
4.60059

>  <SCORE.INTRA.VDW.0>
-2.87309

>  <SCORE.INTRA.norm>
-0.00377328

>  <SCORE.RESTR>
0

>  <SCORE.RESTR.CAVITY>
0

>  <SCORE.RESTR.norm>
0

>  <SCORE.SYSTEM>
0

>  <SCORE.SYSTEM.CONST>
0

>  <SCORE.SYSTEM.DIHEDRAL>
0

>  <SCORE.SYSTEM.SOLV>
0

>  <SCORE.SYSTEM.norm>
0

>  <SCORE.heavy>
31

>  <SCORE.norm>
-0.828175

>  <SYMMETRIC_BONDS>
33 34 3

>  <RMSD>
4.919

$$$$
1fmn_cryst
 OpenBabel11021811393D
libRbt.so/2013.1/901 2013/11/27
 31 33  0  0  0  0  0  0  0  0999 V2000
   -7.9949   -4.5948   -2.3527 N   0  0  0  0  0  0  0  0  0  0  0  0
   -8.3056   -4.0806   -3.5899 C   0  0  0  0  0  0  0  0  0  0  0  0
   -7.4647   -3.9771   -4.4837 O   0  0  0  0  0  0  0  0  0  0  0  0
   -9.6516   -3.6734   -3.7684 N   0  0  0  0  0  0  0  0  0  0  0  0
  -10.6883   -3.7426   -2.8120 C   0  0  0  0  0  0  0  0  0  0  0  0
  -11.8257   -3.3515   -3.1030 O   0  0  0  0  0  0  0  0  0  0  0  0
  -10.2769   -4.3004   -1.5217 C   0  0  0  0  0  0  0  0  0  0  0  0
  -11.2275   -4.4020   -0.5366 N   0  0  0  0  0  0  0  0  0  0  0  0
  -10.8048   -4.7500    0.7135 C   0  0  0  0  0  0  0  0  0  0  0  0
  -11.7195   -4.6754    1.7489 C   0  0  0  0  0  0  0  0  0  0  0  0
  -11.3705   -5.0057    3.0140 C   0  0  0  0  0  0  0  0  0  0  0  0
  -12.3981   -4.9106    4.0964 C   0  0  0  0  0  0  0  0  0  0  0  0
  -10.1043   -5.4183    3.2924 C   0  0  0  0  0  0  0  0  0  0  0  0
   -9.7257   -5.7743    4.6931 C   0  0  0  0  0  0  0  0  0  0  0  0
   -9.1734   -5.5076    2.3083 C   0  0  0  0  0  0  0  0  0  0  0  0
   -9.4817   -5.1795    0.9881 C   0  0  0  0  0  0  0  0  0  0  0  0
   -8.5651   -5.2530   -0.0816 N   0  0  0  0  0  0  0  0  0  0  0  0
   -8.9064   -4.7176   -1.3405 C   0  0  0  0  0  0  0  0  0  0  0  0
   -7.5305   -6.3518   -0.0542 C   0  0  0  0  0  0  0  0  0  0  0  0
   -6.0399   -5.8976   -0.0083 C   0  0  1  0  0  0  0  0  0  0  0  0
   -5.8989   -4.7665    0.8395 O   0  0  0  0  0  0  0  0  0  0  0  0
   -5.0663   -7.0375    0.3748 C   0  0  1  0  0  0  0  0  0  0  0  0
   -3.8069   -6.8459   -0.2630 O   0  0  0  0  0  0  0  0  0  0  0  0
   -4.8570   -7.3021    1.8861 C   0  0  1  0  0  0  0  0  0  0  0  0
   -4.3023   -8.6037    2.0418 O   0  0  0  0  0  0  0  0  0  0  0  0
   -3.9129   -6.2762    2.5525 C   0  0  0  0  0  0  0  0  0  0  0  0
   -3.6177   -6.6075    3.9042 O   0  0  0  0  0  0  0  0  0  0  0  0
   -2.6409   -5.7428    4.8041 P   0  0  0  0  0  0  0  0  0  0  0  0
   -2.5803   -6.2778    6.1833 O   0  0  0  0  0  0  0  0  0  0  0  0
   -1.3727   -5.4780    4.0910 O   0  5  0  0  0  0  0  0  0  0  0  0
   -3.3828   -4.3394    4.9252 O   0  5  0  0  0  0  0  0  0  0  0  0
  1 18  1  0  0  0  0
  1  2  1  0  0  0  0
  2  4  1  0  0  0  0
  2  3  2  0  0  0  0
  4  5  1  0  0  0  0
  5  7  1  0  0  0  0
  5  6  2  0  0  0  0
  7 18  2  0  0  0  0
  7  8  1  0  0  0  0
  8  9  1  0  0  0  0
  9 10  2  0  0  0  0
  9 16  1  0  0  0  0
 10 11  1  0  0  0  0
 11 12  1  0  0  0  0
 11 13  2  0  0  0  0
 13 14  1  0  0  0  0
 13 15  1  0  0  0  0
 15 16  2  0  0  0  0
 16 17  1  0  0  0  0
 17 19  1  0  0  0  0
 17 18  1  0  0  0  0
 20 19  1  1  0  0  0
 20 22  1  0  0  0  0
 20 21  1  0  0  0  0
 22 24  1  0  0  0  0
 22 23  1  1  0  0  0
 24 26  1  6  0  0  0
 24 25  1  0  0  0  0
 26 27  1  0  0  0  0
 27 28  1  0  0  0  0
 28 30  1  0  0  0  0
 28 29  2  0  0  0  0
 28 31  1  0  0  0  0
M  CHG  2  30  -1  31  -1
M  END
>  <CHROM.1>
-118.32703461,39.02078614,148.45292850,57.19302347,161.64386307,-71.60587649
-173.89167339,59.38176040,178.24736999,176.82729058,-7.21030535,-5.36153804
1.11590131,-2.47995574,-0.17266482,1.68821477

>  <Name>
1fmn_cryst

>  <RI>
0

>  <Rbt.Current_Directory>
/home/itssahil/PROJECTS/Mol_Feturizer/New_Systems/rnas/1fmn

>  <Rbt.Executable>
rbdock ($Id: //depot/dev/client3/rdock/2013.1/src/exe/rbdock.cxx#4 $)

>  <Rbt.Library>
libRbt.so (2013.1, Build901 2013/11/27)

>  <Rbt.Parameter_File>
/export/apps/rDock/src/rDock_2013.1_src/data/scripts/dock_solv.prm

>  <Rbt.Receptor>
prm/pocket_docking_6.prm

>  <SCORE>
-43.766

>  <SCORE.INTER>
-39.0475

>  <SCORE.INTER.CONST>
1

>  <SCORE.INTER.POLAR>
-1.94259

>  <SCORE.INTER.ROT>
7

>  <SCORE.INTER.SOLV>
17.6039

>  <SCORE.INTER.VDW>
-33.691

>  <SCORE.INTER.norm>
-1.2596

>  <SCORE.INTRA>
-4.71848

>  <SCORE.INTRA.DIHEDRAL>
-6.77415

>  <SCORE.INTRA.DIHEDRAL.0>
15.5708

>  <SCORE.INTRA.POLAR>
0.0677885

>  <SCORE.INTRA.POLAR.0>
-0.0677885

>  <SCORE.INTRA.REPUL>
0

>  <SCORE.INTRA.REPUL.0>
0

>  <SCORE.INTRA.SOLV>
-4.54565

>  <SCORE.INTRA.SOLV.lig_0>
-87.6316

>  <SCORE.INTRA.VDW>
0.710938

>  <SCORE.INTRA.VDW.0>
-2.87309

>  <SCORE.INTRA.norm>
-0.152209

>  <SCORE.RESTR>
0

>  <SCORE.RESTR.CAVITY>
0

>  <SCORE.RESTR.norm>
0

>  <SCORE.SYSTEM>
0

>  <SCORE.SYSTEM.CONST>
0

>  <SCORE.SYSTEM.DIHEDRAL>
0

>  <SCORE.SYSTEM.SOLV>
0

>  <SCORE.SYSTEM.norm>
0

>  <SCORE.heavy>
31

>  <SCORE.norm>
-1.41181

>  <SYMMETRIC_BONDS>
33 34 3

>  <RMSD>
4.922

$$$$
1fmn_cryst
 OpenBabel11021811393D
libRbt.so/2013.1/901 2013/11/27
 31 33  0  0  0  0  0  0  0  0999 V2000
   -7.6669   -4.6924   -2.3025 N   0  0  0  0  0  0  0  0  0  0  0  0
   -7.8524   -4.1320   -3.5447 C   0  0  0  0  0  0  0  0  0  0  0  0
   -6.9533   -4.0962   -4.3854 O   0  0  0  0  0  0  0  0  0  0  0  0
   -9.1406   -3.5950   -3.7929 N   0  0  0  0  0  0  0  0  0  0  0  0
  -10.2347   -3.5789   -2.9003 C   0  0  0  0  0  0  0  0  0  0  0  0
  -11.3103   -3.0761   -3.2491 O   0  0  0  0  0  0  0  0  0  0  0  0
   -9.9565   -4.1931   -1.6001 C   0  0  0  0  0  0  0  0  0  0  0  0
  -10.9699   -4.2180   -0.6746 N   0  0  0  0  0  0  0  0  0  0  0  0
  -10.6580   -4.6239    0.5905 C   0  0  0  0  0  0  0  0  0  0  0  0
  -11.6221   -4.4776    1.5721 C   0  0  0  0  0  0  0  0  0  0  0  0
  -11.3828   -4.8591    2.8483 C   0  0  0  0  0  0  0  0  0  0  0  0
  -12.4599   -4.6823    3.8706 C   0  0  0  0  0  0  0  0  0  0  0  0
  -10.1804   -5.3955    3.1914 C   0  0  0  0  0  0  0  0  0  0  0  0
   -9.9223   -5.8075    4.6041 C   0  0  0  0  0  0  0  0  0  0  0  0
   -9.2048   -5.5587    2.2618 C   0  0  0  0  0  0  0  0  0  0  0  0
   -9.4006   -5.1826    0.9330 C   0  0  0  0  0  0  0  0  0  0  0  0
   -8.4324   -5.3274   -0.0827 N   0  0  0  0  0  0  0  0  0  0  0  0
   -8.6451   -4.7426   -1.3479 C   0  0  0  0  0  0  0  0  0  0  0  0
   -7.5103   -6.5206   -0.0179 C   0  0  0  0  0  0  0  0  0  0  0  0
   -6.1216   -6.2863    0.6505 C   0  0  1  0  0  0  0  0  0  0  0  0
   -5.5720   -5.0503    0.2167 O   0  0  0  0  0  0  0  0  0  0  0  0
   -6.1605   -6.3967    2.1934 C   0  0  1  0  0  0  0  0  0  0  0  0
   -6.2960   -7.7591    2.5873 O   0  0  0  0  0  0  0  0  0  0  0  0
   -4.9973   -5.7357    2.9729 C   0  0  1  0  0  0  0  0  0  0  0  0
   -5.0856   -4.3255    2.8015 O   0  0  0  0  0  0  0  0  0  0  0  0
   -5.0261   -6.0558    4.4843 C   0  0  0  0  0  0  0  0  0  0  0  0
   -3.9185   -5.4955    5.1797 O   0  0  0  0  0  0  0  0  0  0  0  0
   -3.5760   -5.8633    6.6826 P   0  0  0  0  0  0  0  0  0  0  0  0
   -3.3066   -7.3122    6.8240 O   0  0  0  0  0  0  0  0  0  0  0  0
   -2.6013   -4.9037    7.2449 O   0  5  0  0  0  0  0  0  0  0  0  0
   -4.9448   -5.6085    7.4547 O   0  5  0  0  0  0  0  0  0  0  0  0
  1 18  1  0  0  0  0
  1  2  1  0  0  0  0
  2  4  1  0  0  0  0
  2  3  2  0  0  0  0
  4  5  1  0  0  0  0
  5  7  1  0  0  0  0
  5  6  2  0  0  0  0
  7 18  2  0  0  0  0
  7  8  1  0  0  0  0
  8  9  1  0  0  0  0
  9 10  2  0  0  0  0
  9 16  1  0  0  0  0
 10 11  1  0  0  0  0
 11 12  1  0  0  0  0
 11 13  2  0  0  0  0
 13 14  1  0  0  0  0
 13 15  1  0  0  0  0
 15 16  2  0  0  0  0
 16 17  1  0  0  0  0
 17 19  1  0  0  0  0
 17 18  1  0  0  0  0
 20 19  1  1  0  0  0
 20 22  1  0  0  0  0
 20 21  1  0  0  0  0
 22 24  1  0  0  0  0
 22 23  1  6  0  0  0
 24 26  1  1  0  0  0
 24 25  1  0  0  0  0
 26 27  1  0  0  0  0
 27 28  1  0  0  0  0
 28 30  1  0  0  0  0
 28 29  2  0  0  0  0
 28 31  1  0  0  0  0
M  CHG  2  30  -1  31  -1
M  END
>  <CHROM.1>
-95.72340872,-42.77578630,73.38697660,49.81950994,66.89014833,-166.52241364
177.24009691,-63.18381659,-169.77896352,60.24915288,-7.47863518,-5.18799622
1.74749116,-2.16561588,-0.09996867,1.71947408

>  <Name>
1fmn_cryst

>  <RI>
0

>  <Rbt.Current_Directory>
/home/itssahil/PROJECTS/Mol_Feturizer/New_Systems/rnas/1fmn

>  <Rbt.Executable>
rbdock ($Id: //depot/dev/client3/rdock/2013.1/src/exe/rbdock.cxx#4 $)

>  <Rbt.Library>
libRbt.so (2013.1, Build901 2013/11/27)

>  <Rbt.Parameter_File>
/export/apps/rDock/src/rDock_2013.1_src/data/scripts/dock_solv.prm

>  <Rbt.Receptor>
prm/pocket_docking_6.prm

>  <SCORE>
-50.2258

>  <SCORE.INTER>
-43.255

>  <SCORE.INTER.CONST>
1

>  <SCORE.INTER.POLAR>
-1.98776

>  <SCORE.INTER.ROT>
7

>  <SCORE.INTER.SOLV>
19.3921

>  <SCORE.INTER.VDW>
-36.9415

>  <SCORE.INTER.norm>
-1.39532

>  <SCORE.INTRA>
-6.97075

>  <SCORE.INTRA.DIHEDRAL>
-9.18504

>  <SCORE.INTRA.DIHEDRAL.0>
15.5708

>  <SCORE.INTRA.POLAR>
-0.250041

>  <SCORE.INTRA.POLAR.0>
-0.0677885

>  <SCORE.INTRA.REPUL>
0

>  <SCORE.INTRA.REPUL.0>
0

>  <SCORE.INTRA.SOLV>
-3.74615

>  <SCORE.INTRA.SOLV.lig_0>
-87.6316

>  <SCORE.INTRA.VDW>
0.344985

>  <SCORE.INTRA.VDW.0>
-2.87309

>  <SCORE.INTRA.norm>
-0.224863

>  <SCORE.RESTR>
0

>  <SCORE.RESTR.CAVITY>
0

>  <SCORE.RESTR.norm>
0

>  <SCORE.SYSTEM>
0

>  <SCORE.SYSTEM.CONST>
0

>  <SCORE.SYSTEM.DIHEDRAL>
0

>  <SCORE.SYSTEM.SOLV>
0

>  <SCORE.SYSTEM.norm>
0

>  <SCORE.heavy>
31

>  <SCORE.norm>
-1.62019

>  <SYMMETRIC_BONDS>
33 34 3

>  <RMSD>
4.924

$$$$
1fmn_cryst
 OpenBabel11021811393D
libRbt.so/2013.1/901 2013/11/27
 31 33  0  0  0  0  0  0  0  0999 V2000
   -7.3334   -5.5718   -1.8720 N   0  0  0  0  0  0  0  0  0  0  0  0
   -7.3355   -5.0960   -3.1624 C   0  0  0  0  0  0  0  0  0  0  0  0
   -6.3789   -5.2604   -3.9203 O   0  0  0  0  0  0  0  0  0  0  0  0
   -8.5048   -4.4013   -3.5617 N   0  0  0  0  0  0  0  0  0  0  0  0
   -9.6499   -4.1531   -2.7734 C   0  0  0  0  0  0  0  0  0  0  0  0
  -10.6071   -3.5313   -3.2512 O   0  0  0  0  0  0  0  0  0  0  0  0
   -9.5690   -4.6906   -1.4133 C   0  0  0  0  0  0  0  0  0  0  0  0
  -10.6432   -4.4918   -0.5821 N   0  0  0  0  0  0  0  0  0  0  0  0
  -10.4950   -4.8316    0.7313 C   0  0  0  0  0  0  0  0  0  0  0  0
  -11.4992   -4.4665    1.6104 C   0  0  0  0  0  0  0  0  0  0  0  0
  -11.4196   -4.7707    2.9266 C   0  0  0  0  0  0  0  0  0  0  0  0
  -12.5337   -4.3559    3.8339 C   0  0  0  0  0  0  0  0  0  0  0  0
  -10.3421   -5.4445    3.4125 C   0  0  0  0  0  0  0  0  0  0  0  0
  -10.2592   -5.7702    4.8682 C   0  0  0  0  0  0  0  0  0  0  0  0
   -9.3332   -5.8237    2.5873 C   0  0  0  0  0  0  0  0  0  0  0  0
   -9.3666   -5.5353    1.2230 C   0  0  0  0  0  0  0  0  0  0  0  0
   -8.3555   -5.9024    0.3103 N   0  0  0  0  0  0  0  0  0  0  0  0
   -8.3789   -5.4005   -1.0071 C   0  0  0  0  0  0  0  0  0  0  0  0
   -7.6316   -7.2066    0.5414 C   0  0  0  0  0  0  0  0  0  0  0  0
   -6.1923   -7.1039    1.1314 C   0  0  1  0  0  0  0  0  0  0  0  0
   -5.3226   -6.4840    0.1948 O   0  0  0  0  0  0  0  0  0  0  0  0
   -6.1477   -6.4114    2.5144 C   0  0  1  0  0  0  0  0  0  0  0  0
   -6.4359   -7.3507    3.5460 O   0  0  0  0  0  0  0  0  0  0  0  0
   -4.8607   -5.6240    2.8627 C   0  0  1  0  0  0  0  0  0  0  0  0
   -5.0409   -4.2695    2.4642 O   0  0  0  0  0  0  0  0  0  0  0  0
   -4.5227   -5.6582    4.3701 C   0  0  0  0  0  0  0  0  0  0  0  0
   -3.3297   -4.9460    4.6759 O   0  0  0  0  0  0  0  0  0  0  0  0
   -1.9046   -5.3965    4.1493 P   0  0  0  0  0  0  0  0  0  0  0  0
   -1.6042   -6.7867    4.5605 O   0  0  0  0  0  0  0  0  0  0  0  0
   -1.7329   -5.0258    2.7280 O   0  5  0  0  0  0  0  0  0  0  0  0
   -0.8925   -4.4825    4.9711 O   0  5  0  0  0  0  0  0  0  0  0  0
  1 18  1  0  0  0  0
  1  2  1  0  0  0  0
  2  4  1  0  0  0  0
  2  3  2  0  0  0  0
  4  5  1  0  0  0  0
  5  7  1  0  0  0  0
  5  6  2  0  0  0  0
  7 18  2  0  0  0  0
  7  8  1  0  0  0  0
  8  9  1  0  0  0  0
  9 10  2  0  0  0  0
  9 16  1  0  0  0  0
 10 11  1  0  0  0  0
 11 12  1  0  0  0  0
 11 13  2  0  0  0  0
 13 14  1  0  0  0  0
 13 15  1  0  0  0  0
 15 16  2  0  0  0  0
 16 17  1  0  0  0  0
 17 19  1  0  0  0  0
 17 18  1  0  0  0  0
 20 19  1  6  0  0  0
 20 22  1  0  0  0  0
 20 21  1  0  0  0  0
 22 24  1  0  0  0  0
 22 23  1  1  0  0  0
 24 26  1  1  0  0  0
 24 25  1  0  0  0  0
 26 27  1  0  0  0  0
 27 28  1  0  0  0  0
 28 30  1  0  0  0  0
 28 29  2  0  0  0  0
 28 31  1  0  0  0  0
M  CHG  2  30  -1  31  -1
M  END
>  <CHROM.1>
-103.99321608,-66.36454930,83.83108467,-67.64515540,91.97512655,-61.38156465
179.25827255,-173.27892458,-65.08618513,-56.54527040,-6.96820810,-5.37079464
1.40430084,-2.55604065,-0.05935932,1.64421473

>  <Name>
1fmn_cryst

>  <RI>
0

>  <Rbt.Current_Directory>
/home/itssahil/PROJECTS/Mol_Feturizer/New_Systems/rnas/1fmn

>  <Rbt.Executable>
rbdock ($Id: //depot/dev/client3/rdock/2013.1/src/exe/rbdock.cxx#4 $)

>  <Rbt.Library>
libRbt.so (2013.1, Build901 2013/11/27)

>  <Rbt.Parameter_File>
/export/apps/rDock/src/rDock_2013.1_src/data/scripts/dock_solv.prm

>  <Rbt.Receptor>
prm/pocket_docking_5.prm

>  <SCORE>
-51.2634

>  <SCORE.INTER>
-47.0263

>  <SCORE.INTER.CONST>
1

>  <SCORE.INTER.POLAR>
-2.1391

>  <SCORE.INTER.ROT>
7

>  <SCORE.INTER.SOLV>
15.5688

>  <SCORE.INTER.VDW>
-37.6768

>  <SCORE.INTER.norm>
-1.51698

>  <SCORE.INTRA>
-4.23712

>  <SCORE.INTRA.DIHEDRAL>
-7.28252

>  <SCORE.INTRA.DIHEDRAL.0>
15.5708

>  <SCORE.INTRA.POLAR>
-0.100607

>  <SCORE.INTRA.POLAR.0>
-0.0677885

>  <SCORE.INTRA.REPUL>
0

>  <SCORE.INTRA.REPUL.0>
0

>  <SCORE.INTRA.SOLV>
-0.778599

>  <SCORE.INTRA.SOLV.lig_0>
-87.6316

>  <SCORE.INTRA.VDW>
0.135506

>  <SCORE.INTRA.VDW.0>
-2.87309

>  <SCORE.INTRA.norm>
-0.136681

>  <SCORE.RESTR>
0

>  <SCORE.RESTR.CAVITY>
0

>  <SCORE.RESTR.norm>
0

>  <SCORE.SYSTEM>
0

>  <SCORE.SYSTEM.CONST>
0

>  <SCORE.SYSTEM.DIHEDRAL>
0

>  <SCORE.SYSTEM.SOLV>
0

>  <SCORE.SYSTEM.norm>
0

>  <SCORE.heavy>
31

>  <SCORE.norm>
-1.65366

>  <SYMMETRIC_BONDS>
33 34 3

>  <RMSD>
4.934

$$$$
1fmn_cryst
 OpenBabel11021811393D
libRbt.so/2013.1/901 2013/11/27
 31 33  0  0  0  0  0  0  0  0999 V2000
   -7.4398   -4.9209   -2.0604 N   0  0  0  0  0  0  0  0  0  0  0  0
   -7.5572   -4.4072   -3.3308 C   0  0  0  0  0  0  0  0  0  0  0  0
   -6.6166   -4.4103   -4.1257 O   0  0  0  0  0  0  0  0  0  0  0  0
   -8.8261   -3.8704   -3.6643 N   0  0  0  0  0  0  0  0  0  0  0  0
   -9.9636   -3.8118   -2.8296 C   0  0  0  0  0  0  0  0  0  0  0  0
  -11.0155   -3.3147   -3.2512 O   0  0  0  0  0  0  0  0  0  0  0  0
   -9.7571   -4.3778   -1.4946 C   0  0  0  0  0  0  0  0  0  0  0  0
  -10.8160   -4.3596   -0.6213 N   0  0  0  0  0  0  0  0  0  0  0  0
  -10.5721   -4.7190    0.6725 C   0  0  0  0  0  0  0  0  0  0  0  0
  -11.5830   -4.5279    1.5977 C   0  0  0  0  0  0  0  0  0  0  0  0
  -11.4119   -4.8619    2.8979 C   0  0  0  0  0  0  0  0  0  0  0  0
  -12.5374   -4.6379    3.8568 C   0  0  0  0  0  0  0  0  0  0  0  0
  -10.2334   -5.3937    3.3216 C   0  0  0  0  0  0  0  0  0  0  0  0
  -10.0507   -5.7531    4.7602 C   0  0  0  0  0  0  0  0  0  0  0  0
   -9.2138   -5.5998    2.4495 C   0  0  0  0  0  0  0  0  0  0  0  0
   -9.3389   -5.2735    1.0992 C   0  0  0  0  0  0  0  0  0  0  0  0
   -8.3222   -5.4644    0.1401 N   0  0  0  0  0  0  0  0  0  0  0  0
   -8.4653   -4.9270   -1.1555 C   0  0  0  0  0  0  0  0  0  0  0  0
   -7.4157   -6.6611    0.2969 C   0  0  0  0  0  0  0  0  0  0  0  0
   -5.8851   -6.3688    0.3408 C   0  0  1  0  0  0  0  0  0  0  0  0
   -5.6552   -5.0209    0.7258 O   0  0  0  0  0  0  0  0  0  0  0  0
   -5.0980   -7.3683    1.2214 C   0  0  1  0  0  0  0  0  0  0  0  0
   -5.0571   -8.6488    0.5984 O   0  0  0  0  0  0  0  0  0  0  0  0
   -3.6725   -6.9477    1.6561 C   0  0  1  0  0  0  0  0  0  0  0  0
   -3.7857   -5.9129    2.6268 O   0  0  0  0  0  0  0  0  0  0  0  0
   -2.8594   -8.1128    2.2636 C   0  0  0  0  0  0  0  0  0  0  0  0
   -1.5370   -7.7259    2.6179 O   0  0  0  0  0  0  0  0  0  0  0  0
   -0.4501   -8.7597    3.1289 P   0  0  0  0  0  0  0  0  0  0  0  0
   -0.8381   -9.3304    4.4388 O   0  0  0  0  0  0  0  0  0  0  0  0
   -0.0576   -9.6831    2.0426 O   0  5  0  0  0  0  0  0  0  0  0  0
    0.8251   -7.8525    3.4220 O   0  5  0  0  0  0  0  0  0  0  0  0
  1 18  1  0  0  0  0
  1  2  1  0  0  0  0
  2  4  1  0  0  0  0
  2  3  2  0  0  0  0
  4  5  1  0  0  0  0
  5  7  1  0  0  0  0
  5  6  2  0  0  0  0
  7 18  2  0  0  0  0
  7  8  1  0  0  0  0
  8  9  1  0  0  0  0
  9 10  2  0  0  0  0
  9 16  1  0  0  0  0
 10 11  1  0  0  0  0
 11 12  1  0  0  0  0
 11 13  2  0  0  0  0
 13 14  1  0  0  0  0
 13 15  1  0  0  0  0
 15 16  2  0  0  0  0
 16 17  1  0  0  0  0
 17 19  1  0  0  0  0
 17 18  1  0  0  0  0
 20 19  1  1  0  0  0
 20 22  1  0  0  0  0
 20 21  1  0  0  0  0
 22 24  1  0  0  0  0
 22 23  1  6  0  0  0
 24 26  1  1  0  0  0
 24 25  1  0  0  0  0
 26 27  1  0  0  0  0
 27 28  1  0  0  0  0
 28 30  1  0  0  0  0
 28 29  2  0  0  0  0
 28 31  1  0  0  0  0
M  CHG  2  30  -1  31  -1
M  END
>  <CHROM.1>
-125.08385151,22.02550168,70.39586606,-153.72487708,71.76023233,-165.64163177
178.02413077,-54.86370377,-173.88259223,-65.88323077,-6.49682554,-6.07660043
0.88144526,2.72702533,0.31963133,-1.30790789

>  <Name>
1fmn_cryst

>  <RI>
0

>  <Rbt.Current_Directory>
/home/itssahil/PROJECTS/Mol_Feturizer/New_Systems/rnas/1fmn

>  <Rbt.Executable>
rbdock ($Id: //depot/dev/client3/rdock/2013.1/src/exe/rbdock.cxx#4 $)

>  <Rbt.Library>
libRbt.so (2013.1, Build901 2013/11/27)

>  <Rbt.Parameter_File>
/export/apps/rDock/src/rDock_2013.1_src/data/scripts/dock_solv.prm

>  <Rbt.Receptor>
prm/pocket_docking_7.prm

>  <SCORE>
-40.7825

>  <SCORE.INTER>
-36.9955

>  <SCORE.INTER.CONST>
1

>  <SCORE.INTER.POLAR>
-0.477878

>  <SCORE.INTER.ROT>
7

>  <SCORE.INTER.SOLV>
16.0912

>  <SCORE.INTER.VDW>
-36.7012

>  <SCORE.INTER.norm>
-1.1934

>  <SCORE.INTRA>
-3.78692

>  <SCORE.INTRA.DIHEDRAL>
-4.80193

>  <SCORE.INTRA.DIHEDRAL.0>
15.5708

>  <SCORE.INTRA.POLAR>
-0.15233

>  <SCORE.INTRA.POLAR.0>
-0.0677885

>  <SCORE.INTRA.REPUL>
0

>  <SCORE.INTRA.REPUL.0>
0

>  <SCORE.INTRA.SOLV>
-4.39162

>  <SCORE.INTRA.SOLV.lig_0>
-87.6316

>  <SCORE.INTRA.VDW>
1.32777

>  <SCORE.INTRA.VDW.0>
-2.87309

>  <SCORE.INTRA.norm>
-0.122159

>  <SCORE.RESTR>
0

>  <SCORE.RESTR.CAVITY>
0

>  <SCORE.RESTR.norm>
0

>  <SCORE.SYSTEM>
0

>  <SCORE.SYSTEM.CONST>
0

>  <SCORE.SYSTEM.DIHEDRAL>
0

>  <SCORE.SYSTEM.SOLV>
0

>  <SCORE.SYSTEM.norm>
0

>  <SCORE.heavy>
31

>  <SCORE.norm>
-1.31556

>  <SYMMETRIC_BONDS>
33 34 3

>  <RMSD>
4.936

$$$$
1fmn_cryst
 OpenBabel11021811393D
libRbt.so/2013.1/901 2013/11/27
 31 33  0  0  0  0  0  0  0  0999 V2000
   -7.8908   -4.7218   -2.2015 N   0  0  0  0  0  0  0  0  0  0  0  0
   -8.1146   -4.2148   -3.4602 C   0  0  0  0  0  0  0  0  0  0  0  0
   -7.2255   -4.1629   -4.3106 O   0  0  0  0  0  0  0  0  0  0  0  0
   -9.4304   -3.7522   -3.7139 N   0  0  0  0  0  0  0  0  0  0  0  0
  -10.5166   -3.7603   -2.8115 C   0  0  0  0  0  0  0  0  0  0  0  0
  -11.6191   -3.3247   -3.1666 O   0  0  0  0  0  0  0  0  0  0  0  0
  -10.1970   -4.3144   -1.4940 C   0  0  0  0  0  0  0  0  0  0  0  0
  -11.2002   -4.3582   -0.5581 N   0  0  0  0  0  0  0  0  0  0  0  0
  -10.8578   -4.7038    0.7170 C   0  0  0  0  0  0  0  0  0  0  0  0
  -11.8200   -4.5724    1.7025 C   0  0  0  0  0  0  0  0  0  0  0  0
  -11.5512   -4.8969    2.9886 C   0  0  0  0  0  0  0  0  0  0  0  0
  -12.6275   -4.7393    4.0148 C   0  0  0  0  0  0  0  0  0  0  0  0
  -10.3205   -5.3598    3.3379 C   0  0  0  0  0  0  0  0  0  0  0  0
  -10.0303   -5.7091    4.7612 C   0  0  0  0  0  0  0  0  0  0  0  0
   -9.3455   -5.5059    2.4047 C   0  0  0  0  0  0  0  0  0  0  0  0
   -9.5710   -5.1863    1.0658 C   0  0  0  0  0  0  0  0  0  0  0  0
   -8.6050   -5.3172    0.0462 N   0  0  0  0  0  0  0  0  0  0  0  0
   -8.8574   -4.7881   -1.2361 C   0  0  0  0  0  0  0  0  0  0  0  0
   -7.6231   -6.4596    0.1426 C   0  0  0  0  0  0  0  0  0  0  0  0
   -6.2786   -6.1566    0.8710 C   0  0  1  0  0  0  0  0  0  0  0  0
   -5.5541   -5.1586    0.1659 O   0  0  0  0  0  0  0  0  0  0  0  0
   -6.4614   -5.7973    2.3648 C   0  0  1  0  0  0  0  0  0  0  0  0
   -6.7080   -6.9742    3.1288 O   0  0  0  0  0  0  0  0  0  0  0  0
   -5.3370   -4.9644    3.0280 C   0  0  1  0  0  0  0  0  0  0  0  0
   -5.9392   -3.9725    3.8523 O   0  0  0  0  0  0  0  0  0  0  0  0
   -4.3844   -5.8192    3.8937 C   0  0  0  0  0  0  0  0  0  0  0  0
   -3.5620   -6.6771    3.1116 O   0  0  0  0  0  0  0  0  0  0  0  0
   -2.4441   -7.6040    3.7460 P   0  0  0  0  0  0  0  0  0  0  0  0
   -1.6324   -8.2513    2.6904 O   0  0  0  0  0  0  0  0  0  0  0  0
   -1.7465   -6.9018    4.8447 O   0  5  0  0  0  0  0  0  0  0  0  0
   -3.2718   -8.7812    4.4271 O   0  5  0  0  0  0  0  0  0  0  0  0
  1 18  1  0  0  0  0
  1  2  1  0  0  0  0
  2  4  1  0  0  0  0
  2  3  2  0  0  0  0
  4  5  1  0  0  0  0
  5  7  1  0  0  0  0
  5  6  2  0  0  0  0
  7 18  2  0  0  0  0
  7  8  1  0  0  0  0
  8  9  1  0  0  0  0
  9 10  2  0  0  0  0
  9 16  1  0  0  0  0
 10 11  1  0  0  0  0
 11 12  1  0  0  0  0
 11 13  2  0  0  0  0
 13 14  1  0  0  0  0
 13 15  1  0  0  0  0
 15 16  2  0  0  0  0
 16 17  1  0  0  0  0
 17 19  1  0  0  0  0
 17 18  1  0  0  0  0
 20 19  1  6  0  0  0
 20 22  1  0  0  0  0
 20 21  1  0  0  0  0
 22 24  1  0  0  0  0
 22 23  1  1  0  0  0
 24 26  1  1  0  0  0
 24 25  1  0  0  0  0
 26 27  1  0  0  0  0
 27 28  1  0  0  0  0
 28 30  1  0  0  0  0
 28 29  2  0  0  0  0
 28 31  1  0  0  0  0
M  CHG  2  30  -1  31  -1
M  END
>  <CHROM.1>
-91.91321547,-62.80071110,76.86487572,61.48662495,137.92338416,-169.50828999
70.14365246,-176.85071531,176.72336936,-172.68233700,-7.40652976,-5.50483159
1.26156381,-2.49880628,-0.24831996,1.77793709

>  <Name>
1fmn_cryst

>  <RI>
0

>  <Rbt.Current_Directory>
/home/itssahil/PROJECTS/Mol_Feturizer/New_Systems/rnas/1fmn

>  <Rbt.Executable>
rbdock ($Id: //depot/dev/client3/rdock/2013.1/src/exe/rbdock.cxx#4 $)

>  <Rbt.Library>
libRbt.so (2013.1, Build901 2013/11/27)

>  <Rbt.Parameter_File>
/export/apps/rDock/src/rDock_2013.1_src/data/scripts/dock_solv.prm

>  <Rbt.Receptor>
prm/pocket_docking_5.prm

>  <SCORE>
-54.6381

>  <SCORE.INTER>
-50.3297

>  <SCORE.INTER.CONST>
1

>  <SCORE.INTER.POLAR>
-3.54743

>  <SCORE.INTER.ROT>
7

>  <SCORE.INTER.SOLV>
17.6894

>  <SCORE.INTER.VDW>
-35.8915

>  <SCORE.INTER.norm>
-1.62354

>  <SCORE.INTRA>
-4.30847

>  <SCORE.INTRA.DIHEDRAL>
-6.41811

>  <SCORE.INTRA.DIHEDRAL.0>
15.5708

>  <SCORE.INTRA.POLAR>
0.0677885

>  <SCORE.INTRA.POLAR.0>
-0.0677885

>  <SCORE.INTRA.REPUL>
0

>  <SCORE.INTRA.REPUL.0>
0

>  <SCORE.INTRA.SOLV>
-3.50643

>  <SCORE.INTRA.SOLV.lig_0>
-87.6316

>  <SCORE.INTRA.VDW>
0.42332

>  <SCORE.INTRA.VDW.0>
-2.87309

>  <SCORE.INTRA.norm>
-0.138983

>  <SCORE.RESTR>
0

>  <SCORE.RESTR.CAVITY>
0

>  <SCORE.RESTR.norm>
0

>  <SCORE.SYSTEM>
0

>  <SCORE.SYSTEM.CONST>
0

>  <SCORE.SYSTEM.DIHEDRAL>
0

>  <SCORE.SYSTEM.SOLV>
0

>  <SCORE.SYSTEM.norm>
0

>  <SCORE.heavy>
31

>  <SCORE.norm>
-1.76252

>  <SYMMETRIC_BONDS>
33 34 3

>  <RMSD>
4.937

$$$$
1fmn_cryst
 OpenBabel11021811393D
libRbt.so/2013.1/901 2013/11/27
 31 33  0  0  0  0  0  0  0  0999 V2000
   -7.7363   -5.0126   -2.0833 N   0  0  0  0  0  0  0  0  0  0  0  0
   -7.8770   -4.4769   -3.3422 C   0  0  0  0  0  0  0  0  0  0  0  0
   -6.9691   -4.5158   -4.1733 O   0  0  0  0  0  0  0  0  0  0  0  0
   -9.1296   -3.8739   -3.6195 N   0  0  0  0  0  0  0  0  0  0  0  0
  -10.2297   -3.7706   -2.7402 C   0  0  0  0  0  0  0  0  0  0  0  0
  -11.2710   -3.2167   -3.1146 O   0  0  0  0  0  0  0  0  0  0  0  0
  -10.0001   -4.3637   -1.4208 C   0  0  0  0  0  0  0  0  0  0  0  0
  -11.0223   -4.3050   -0.5066 N   0  0  0  0  0  0  0  0  0  0  0  0
  -10.7468   -4.6931    0.7725 C   0  0  0  0  0  0  0  0  0  0  0  0
  -11.7104   -4.4648    1.7387 C   0  0  0  0  0  0  0  0  0  0  0  0
  -11.5060   -4.8240    3.0274 C   0  0  0  0  0  0  0  0  0  0  0  0
  -12.5811   -4.5577    4.0322 C   0  0  0  0  0  0  0  0  0  0  0  0
  -10.3400   -5.4188    3.3985 C   0  0  0  0  0  0  0  0  0  0  0  0
  -10.1199   -5.8059    4.8246 C   0  0  0  0  0  0  0  0  0  0  0  0
   -9.3663   -5.6633    2.4847 C   0  0  0  0  0  0  0  0  0  0  0  0
   -9.5271   -5.3132    1.1442 C   0  0  0  0  0  0  0  0  0  0  0  0
   -8.5589   -5.5412    0.1439 N   0  0  0  0  0  0  0  0  0  0  0  0
   -8.7251   -4.9803   -1.1390 C   0  0  0  0  0  0  0  0  0  0  0  0
   -7.7077   -6.7831    0.2513 C   0  0  0  0  0  0  0  0  0  0  0  0
   -6.7076   -6.8353    1.4460 C   0  0  1  0  0  0  0  0  0  0  0  0
   -6.6494   -8.1510    1.9783 O   0  0  0  0  0  0  0  0  0  0  0  0
   -5.3045   -6.2879    1.0915 C   0  0  1  0  0  0  0  0  0  0  0  0
   -4.8788   -5.3482    2.0740 O   0  0  0  0  0  0  0  0  0  0  0  0
   -4.1879   -7.3312    0.8411 C   0  0  1  0  0  0  0  0  0  0  0  0
   -3.3183   -6.8257   -0.1660 O   0  0  0  0  0  0  0  0  0  0  0  0
   -3.3569   -7.6400    2.1067 C   0  0  0  0  0  0  0  0  0  0  0  0
   -4.1201   -8.2984    3.1107 O   0  0  0  0  0  0  0  0  0  0  0  0
   -3.5381   -8.6356    4.5455 P   0  0  0  0  0  0  0  0  0  0  0  0
   -3.4504   -7.4161    5.3805 O   0  0  0  0  0  0  0  0  0  0  0  0
   -4.1993   -9.8328    5.1082 O   0  5  0  0  0  0  0  0  0  0  0  0
   -2.0314   -9.0582    4.2517 O   0  5  0  0  0  0  0  0  0  0  0  0
  1 18  1  0  0  0  0
  1  2  1  0  0  0  0
  2  4  1  0  0  0  0
  2  3  2  0  0  0  0
  4  5  1  0  0  0  0
  5  7  1  0  0  0  0
  5  6  2  0  0  0  0
  7 18  2  0  0  0  0
  7  8  1  0  0  0  0
  8  9  1  0  0  0  0
  9 10  2  0  0  0  0
  9 16  1  0  0  0  0
 10 11  1  0  0  0  0
 11 12  1  0  0  0  0
 11 13  2  0  0  0  0
 13 14  1  0  0  0  0
 13 15  1  0  0  0  0
 15 16  2  0  0  0  0
 16 17  1  0  0  0  0
 17 19  1  0  0  0  0
 17 18  1  0  0  0  0
 20 19  1  6  0  0  0
 20 22  1  0  0  0  0
 20 21  1  0  0  0  0
 22 24  1  0  0  0  0
 22 23  1  1  0  0  0
 24 26  1  1  0  0  0
 24 25  1  0  0  0  0
 26 27  1  0  0  0  0
 27 28  1  0  0  0  0
 28 30  1  0  0  0  0
 28 29  2  0  0  0  0
 28 31  1  0  0  0  0
M  CHG  2  30  -1  31  -1
M  END
>  <CHROM.1>
-67.23701950,141.56539593,130.64969897,176.45521834,145.68947422,-57.18968418
66.58666917,-83.75072349,-175.52089889,74.66115179,-7.32770975,-6.08351942
1.19469092,-2.44142211,-0.35500698,1.86350426

>  <Name>
1fmn_cryst

>  <RI>
0

>  <Rbt.Current_Directory>
/home/itssahil/PROJECTS/Mol_Feturizer/New_Systems/rnas/1fmn

>  <Rbt.Executable>
rbdock ($Id: //depot/dev/client3/rdock/2013.1/src/exe/rbdock.cxx#4 $)

>  <Rbt.Library>
libRbt.so (2013.1, Build901 2013/11/27)

>  <Rbt.Parameter_File>
/export/apps/rDock/src/rDock_2013.1_src/data/scripts/dock_solv.prm

>  <Rbt.Receptor>
prm/pocket_docking_2.prm

>  <SCORE>
-44.6373

>  <SCORE.INTER>
-41.4081

>  <SCORE.INTER.CONST>
1

>  <SCORE.INTER.POLAR>
-1.45491

>  <SCORE.INTER.ROT>
7

>  <SCORE.INTER.SOLV>
17.6672

>  <SCORE.INTER.VDW>
-36.9114

>  <SCORE.INTER.norm>
-1.33574

>  <SCORE.INTRA>
-3.65384

>  <SCORE.INTRA.DIHEDRAL>
1.46095

>  <SCORE.INTRA.DIHEDRAL.0>
15.5708

>  <SCORE.INTRA.POLAR>
-0.858274

>  <SCORE.INTRA.POLAR.0>
-0.0677885

>  <SCORE.INTRA.REPUL>
0

>  <SCORE.INTRA.REPUL.0>
0

>  <SCORE.INTRA.SOLV>
-4.09013

>  <SCORE.INTRA.SOLV.lig_0>
-87.6316

>  <SCORE.INTRA.VDW>
0.578885

>  <SCORE.INTRA.VDW.0>
-2.87309

>  <SCORE.INTRA.norm>
-0.117866

>  <SCORE.RESTR>
0.424574

>  <SCORE.RESTR.CAVITY>
0.424574

>  <SCORE.RESTR.norm>
0.0136959

>  <SCORE.SYSTEM>
0

>  <SCORE.SYSTEM.CONST>
0

>  <SCORE.SYSTEM.DIHEDRAL>
0

>  <SCORE.SYSTEM.SOLV>
0

>  <SCORE.SYSTEM.norm>
0

>  <SCORE.heavy>
31

>  <SCORE.norm>
-1.43991

>  <SYMMETRIC_BONDS>
33 34 3

>  <RMSD>
4.938

$$$$
1fmn_cryst
 OpenBabel11021811393D
libRbt.so/2013.1/901 2013/11/27
 31 33  0  0  0  0  0  0  0  0999 V2000
   -7.9057   -4.7628   -2.2586 N   0  0  0  0  0  0  0  0  0  0  0  0
   -8.0879   -4.1798   -3.4908 C   0  0  0  0  0  0  0  0  0  0  0  0
   -7.2050   -4.1786   -4.3493 O   0  0  0  0  0  0  0  0  0  0  0  0
   -9.3527   -3.5773   -3.7072 N   0  0  0  0  0  0  0  0  0  0  0  0
  -10.4268   -3.5176   -2.7924 C   0  0  0  0  0  0  0  0  0  0  0  0
  -11.4830   -2.9586   -3.1139 O   0  0  0  0  0  0  0  0  0  0  0  0
  -10.1535   -4.1596   -1.5046 C   0  0  0  0  0  0  0  0  0  0  0  0
  -11.1483   -4.1452   -0.5590 N   0  0  0  0  0  0  0  0  0  0  0  0
  -10.8319   -4.5803    0.6953 C   0  0  0  0  0  0  0  0  0  0  0  0
  -11.7680   -4.3981    1.6977 C   0  0  0  0  0  0  0  0  0  0  0  0
  -11.5225   -4.8053    2.9647 C   0  0  0  0  0  0  0  0  0  0  0  0
  -12.5691   -4.5875    4.0105 C   0  0  0  0  0  0  0  0  0  0  0  0
  -10.3415   -5.4040    3.2777 C   0  0  0  0  0  0  0  0  0  0  0  0
  -10.0761   -5.8443    4.6805 C   0  0  0  0  0  0  0  0  0  0  0  0
   -9.3937   -5.6044    2.3267 C   0  0  0  0  0  0  0  0  0  0  0  0
   -9.5971   -5.2040    1.0062 C   0  0  0  0  0  0  0  0  0  0  0  0
   -8.6575   -5.3846   -0.0304 N   0  0  0  0  0  0  0  0  0  0  0  0
   -8.8661   -4.7757   -1.2849 C   0  0  0  0  0  0  0  0  0  0  0  0
   -7.7943   -6.6224    0.0032 C   0  0  0  0  0  0  0  0  0  0  0  0
   -6.2533   -6.3903    0.0441 C   0  0  1  0  0  0  0  0  0  0  0  0
   -5.9321   -5.1339   -0.5356 O   0  0  0  0  0  0  0  0  0  0  0  0
   -5.6496   -6.5498    1.4598 C   0  0  1  0  0  0  0  0  0  0  0  0
   -6.1725   -5.5541    2.3343 O   0  0  0  0  0  0  0  0  0  0  0  0
   -5.7687   -7.9458    2.1194 C   0  0  1  0  0  0  0  0  0  0  0  0
   -5.2037   -8.9092    1.2371 O   0  0  0  0  0  0  0  0  0  0  0  0
   -5.0436   -8.0327    3.4811 C   0  0  0  0  0  0  0  0  0  0  0  0
   -5.1569   -9.3201    4.0759 O   0  0  0  0  0  0  0  0  0  0  0  0
   -4.5773   -9.6537    5.5126 P   0  0  0  0  0  0  0  0  0  0  0  0
   -5.4102   -9.0431    6.5735 O   0  0  0  0  0  0  0  0  0  0  0  0
   -4.2380  -11.0893    5.6173 O   0  5  0  0  0  0  0  0  0  0  0  0
   -3.1937   -8.8671    5.5533 O   0  5  0  0  0  0  0  0  0  0  0  0
  1 18  1  0  0  0  0
  1  2  1  0  0  0  0
  2  4  1  0  0  0  0
  2  3  2  0  0  0  0
  4  5  1  0  0  0  0
  5  7  1  0  0  0  0
  5  6  2  0  0  0  0
  7 18  2  0  0  0  0
  7  8  1  0  0  0  0
  8  9  1  0  0  0  0
  9 10  2  0  0  0  0
  9 16  1  0  0  0  0
 10 11  1  0  0  0  0
 11 12  1  0  0  0  0
 11 13  2  0  0  0  0
 13 14  1  0  0  0  0
 13 15  1  0  0  0  0
 15 16  2  0  0  0  0
 16 17  1  0  0  0  0
 17 19  1  0  0  0  0
 17 18  1  0  0  0  0
 20 19  1  1  0  0  0
 20 22  1  0  0  0  0
 20 21  1  0  0  0  0
 22 24  1  0  0  0  0
 22 23  1  1  0  0  0
 24 26  1  1  0  0  0
 24 25  1  0  0  0  0
 26 27  1  0  0  0  0
 27 28  1  0  0  0  0
 28 30  1  0  0  0  0
 28 29  2  0  0  0  0
 28 31  1  0  0  0  0
M  CHG  2  30  -1  31  -1
M  END
>  <CHROM.1>
-121.35090136,-25.71042117,-63.89894157,68.91156065,54.99399396,-174.12797434
-179.85474870,-91.07742745,-176.32054934,73.60414217,-7.79359111,-6.19324193
1.35667395,-2.18308983,-0.45452262,1.92930565

>  <Name>
1fmn_cryst

>  <RI>
0

>  <Rbt.Current_Directory>
/home/itssahil/PROJECTS/Mol_Feturizer/New_Systems/rnas/1fmn

>  <Rbt.Executable>
rbdock ($Id: //depot/dev/client3/rdock/2013.1/src/exe/rbdock.cxx#4 $)

>  <Rbt.Library>
libRbt.so (2013.1, Build901 2013/11/27)

>  <Rbt.Parameter_File>
/export/apps/rDock/src/rDock_2013.1_src/data/scripts/dock_solv.prm

>  <Rbt.Receptor>
prm/pocket_docking_4.prm

>  <SCORE>
-49.9126

>  <SCORE.INTER>
-44.7863

>  <SCORE.INTER.CONST>
1

>  <SCORE.INTER.POLAR>
-1.75113

>  <SCORE.INTER.ROT>
7

>  <SCORE.INTER.SOLV>
22.3548

>  <SCORE.INTER.VDW>
-39.7387

>  <SCORE.INTER.norm>
-1.44472

>  <SCORE.INTRA>
-5.12633

>  <SCORE.INTRA.DIHEDRAL>
-4.83864

>  <SCORE.INTRA.DIHEDRAL.0>
15.5708

>  <SCORE.INTRA.POLAR>
-0.413273

>  <SCORE.INTRA.POLAR.0>
-0.0677885

>  <SCORE.INTRA.REPUL>
0.00502217

>  <SCORE.INTRA.REPUL.0>
0

>  <SCORE.INTRA.SOLV>
-3.21247

>  <SCORE.INTRA.SOLV.lig_0>
-87.6316

>  <SCORE.INTRA.VDW>
0.279239

>  <SCORE.INTRA.VDW.0>
-2.87309

>  <SCORE.INTRA.norm>
-0.165366

>  <SCORE.RESTR>
0

>  <SCORE.RESTR.CAVITY>
0

>  <SCORE.RESTR.norm>
0

>  <SCORE.SYSTEM>
0

>  <SCORE.SYSTEM.CONST>
0

>  <SCORE.SYSTEM.DIHEDRAL>
0

>  <SCORE.SYSTEM.SOLV>
0

>  <SCORE.SYSTEM.norm>
0

>  <SCORE.heavy>
31

>  <SCORE.norm>
-1.61009

>  <SYMMETRIC_BONDS>
33 34 3

>  <RMSD>
4.946

$$$$
1fmn_cryst
 OpenBabel11021811393D
libRbt.so/2013.1/901 2013/11/27
 31 33  0  0  0  0  0  0  0  0999 V2000
   -7.6630   -5.0249   -2.0795 N   0  0  0  0  0  0  0  0  0  0  0  0
   -7.7600   -4.4812   -3.3391 C   0  0  0  0  0  0  0  0  0  0  0  0
   -6.8323   -4.5365   -4.1471 O   0  0  0  0  0  0  0  0  0  0  0  0
   -8.9919   -3.8502   -3.6455 N   0  0  0  0  0  0  0  0  0  0  0  0
  -10.1116   -3.7266   -2.7939 C   0  0  0  0  0  0  0  0  0  0  0  0
  -11.1309   -3.1488   -3.1921 O   0  0  0  0  0  0  0  0  0  0  0  0
   -9.9285   -4.3298   -1.4719 C   0  0  0  0  0  0  0  0  0  0  0  0
  -10.9722   -4.2526   -0.5836 N   0  0  0  0  0  0  0  0  0  0  0  0
  -10.7378   -4.6517    0.7003 C   0  0  0  0  0  0  0  0  0  0  0  0
  -11.7207   -4.4065    1.6427 C   0  0  0  0  0  0  0  0  0  0  0  0
  -11.5570   -4.7752    2.9345 C   0  0  0  0  0  0  0  0  0  0  0  0
  -12.6514   -4.4897    3.9128 C   0  0  0  0  0  0  0  0  0  0  0  0
  -10.4139   -5.3965    3.3324 C   0  0  0  0  0  0  0  0  0  0  0  0
  -10.2386   -5.7939    4.7619 C   0  0  0  0  0  0  0  0  0  0  0  0
   -9.4227   -5.6583    2.4426 C   0  0  0  0  0  0  0  0  0  0  0  0
   -9.5417   -5.2996    1.1000 C   0  0  0  0  0  0  0  0  0  0  0  0
   -8.5534   -5.5444    0.1236 N   0  0  0  0  0  0  0  0  0  0  0  0
   -8.6747   -4.9749   -1.1605 C   0  0  0  0  0  0  0  0  0  0  0  0
   -7.7322   -6.8049    0.2470 C   0  0  0  0  0  0  0  0  0  0  0  0
   -6.5482   -6.7629    1.2603 C   0  0  1  0  0  0  0  0  0  0  0  0
   -6.2642   -8.0711    1.7355 O   0  0  0  0  0  0  0  0  0  0  0  0
   -5.2888   -6.0612    0.6984 C   0  0  1  0  0  0  0  0  0  0  0  0
   -5.6524   -5.1415   -0.3269 O   0  0  0  0  0  0  0  0  0  0  0  0
   -4.3572   -5.3677    1.7226 C   0  0  1  0  0  0  0  0  0  0  0  0
   -4.9780   -4.1600    2.1489 O   0  0  0  0  0  0  0  0  0  0  0  0
   -4.0675   -6.2428    2.9628 C   0  0  0  0  0  0  0  0  0  0  0  0
   -3.1587   -5.6229    3.8650 O   0  0  0  0  0  0  0  0  0  0  0  0
   -2.5951   -6.3565    5.1516 P   0  0  0  0  0  0  0  0  0  0  0  0
   -1.6926   -5.4653    5.9155 O   0  0  0  0  0  0  0  0  0  0  0  0
   -3.6826   -7.0507    5.8743 O   0  5  0  0  0  0  0  0  0  0  0  0
   -1.6594   -7.4984    4.5554 O   0  5  0  0  0  0  0  0  0  0  0  0
  1 18  1  0  0  0  0
  1  2  1  0  0  0  0
  2  4  1  0  0  0  0
  2  3  2  0  0  0  0
  4  5  1  0  0  0  0
  5  7  1  0  0  0  0
  5  6  2  0  0  0  0
  7 18  2  0  0  0  0
  7  8  1  0  0  0  0
  8  9  1  0  0  0  0
  9 10  2  0  0  0  0
  9 16  1  0  0  0  0
 10 11  1  0  0  0  0
 11 12  1  0  0  0  0
 11 13  2  0  0  0  0
 13 14  1  0  0  0  0
 13 15  1  0  0  0  0
 15 16  2  0  0  0  0
 16 17  1  0  0  0  0
 17 19  1  0  0  0  0
 17 18  1  0  0  0  0
 20 19  1  6  0  0  0
 20 22  1  0  0  0  0
 20 21  1  0  0  0  0
 22 24  1  0  0  0  0
 22 23  1  6  0  0  0
 24 26  1  1  0  0  0
 24 25  1  0  0  0  0
 26 27  1  0  0  0  0
 27 28  1  0  0  0  0
 28 30  1  0  0  0  0
 28 29  2  0  0  0  0
 28 31  1  0  0  0  0
M  CHG  2  30  -1  31  -1
M  END
>  <CHROM.1>
-80.47524617,153.40751775,25.07103934,60.43864179,-74.79370399,74.47082058
177.08708714,-176.77516459,-174.51209430,-178.94784710,-7.21786076,-5.38356683
1.31577479,-2.43599556,-0.14397086,1.73951861

>  <Name>
1fmn_cryst

>  <RI>
0

>  <Rbt.Current_Directory>
/home/itssahil/PROJECTS/Mol_Feturizer/New_Systems/rnas/1fmn

>  <Rbt.Executable>
rbdock ($Id: //depot/dev/client3/rdock/2013.1/src/exe/rbdock.cxx#4 $)

>  <Rbt.Library>
libRbt.so (2013.1, Build901 2013/11/27)

>  <Rbt.Parameter_File>
/export/apps/rDock/src/rDock_2013.1_src/data/scripts/dock_solv.prm

>  <Rbt.Receptor>
prm/pocket_docking_3.prm

>  <SCORE>
-49.6171

>  <SCORE.INTER>
-44.3307

>  <SCORE.INTER.CONST>
1

>  <SCORE.INTER.POLAR>
-1.71008

>  <SCORE.INTER.ROT>
7

>  <SCORE.INTER.SOLV>
16.8273

>  <SCORE.INTER.VDW>
-37.7292

>  <SCORE.INTER.norm>
-1.43002

>  <SCORE.INTRA>
-5.35461

>  <SCORE.INTRA.DIHEDRAL>
-5.74515

>  <SCORE.INTRA.DIHEDRAL.0>
15.5708

>  <SCORE.INTRA.POLAR>
-0.52127

>  <SCORE.INTRA.POLAR.0>
-0.0677885

>  <SCORE.INTRA.REPUL>
0.0245774

>  <SCORE.INTRA.REPUL.0>
0

>  <SCORE.INTRA.SOLV>
-3.56955

>  <SCORE.INTRA.SOLV.lig_0>
-87.6316

>  <SCORE.INTRA.VDW>
0.952173

>  <SCORE.INTRA.VDW.0>
-2.87309

>  <SCORE.INTRA.norm>
-0.172729

>  <SCORE.RESTR>
0.0681588

>  <SCORE.RESTR.CAVITY>
0.0681588

>  <SCORE.RESTR.norm>
0.00219867

>  <SCORE.SYSTEM>
0

>  <SCORE.SYSTEM.CONST>
0

>  <SCORE.SYSTEM.DIHEDRAL>
0

>  <SCORE.SYSTEM.SOLV>
0

>  <SCORE.SYSTEM.norm>
0

>  <SCORE.heavy>
31

>  <SCORE.norm>
-1.60055

>  <SYMMETRIC_BONDS>
33 34 3

>  <RMSD>
4.949

$$$$
1fmn_cryst
 OpenBabel11021811393D
libRbt.so/2013.1/901 2013/11/27
 31 33  0  0  0  0  0  0  0  0999 V2000
   -7.2028   -5.6034   -1.9028 N   0  0  0  0  0  0  0  0  0  0  0  0
   -7.1896   -5.1290   -3.1936 C   0  0  0  0  0  0  0  0  0  0  0  0
   -6.2214   -5.2884   -3.9377 O   0  0  0  0  0  0  0  0  0  0  0  0
   -8.3574   -4.4419   -3.6103 N   0  0  0  0  0  0  0  0  0  0  0  0
   -9.5150   -4.2000   -2.8385 C   0  0  0  0  0  0  0  0  0  0  0  0
  -10.4691   -3.5845   -3.3305 O   0  0  0  0  0  0  0  0  0  0  0  0
   -9.4500   -4.7354   -1.4768 C   0  0  0  0  0  0  0  0  0  0  0  0
  -10.5370   -4.5423   -0.6611 N   0  0  0  0  0  0  0  0  0  0  0  0
  -10.4054   -4.8798    0.6547 C   0  0  0  0  0  0  0  0  0  0  0  0
  -11.4241   -4.5199    1.5191 C   0  0  0  0  0  0  0  0  0  0  0  0
  -11.3613   -4.8222    2.8366 C   0  0  0  0  0  0  0  0  0  0  0  0
  -12.4906   -4.4132    3.7276 C   0  0  0  0  0  0  0  0  0  0  0  0
  -10.2867   -5.4888    3.3385 C   0  0  0  0  0  0  0  0  0  0  0  0
  -10.2224   -5.8124    4.7957 C   0  0  0  0  0  0  0  0  0  0  0  0
   -9.2639   -5.8627    2.5281 C   0  0  0  0  0  0  0  0  0  0  0  0
   -9.2797   -5.5760    1.1631 C   0  0  0  0  0  0  0  0  0  0  0  0
   -8.2536   -5.9379    0.2652 N   0  0  0  0  0  0  0  0  0  0  0  0
   -8.2615   -5.4376   -1.0530 C   0  0  0  0  0  0  0  0  0  0  0  0
   -7.5251   -7.2373    0.5081 C   0  0  0  0  0  0  0  0  0  0  0  0
   -6.2385   -7.1559    1.3846 C   0  0  1  0  0  0  0  0  0  0  0  0
   -6.3980   -7.9356    2.5613 O   0  0  0  0  0  0  0  0  0  0  0  0
   -4.9495   -7.5245    0.6121 C   0  0  1  0  0  0  0  0  0  0  0  0
   -4.6750   -6.5452   -0.3854 O   0  0  0  0  0  0  0  0  0  0  0  0
   -3.6781   -7.7885    1.4557 C   0  0  1  0  0  0  0  0  0  0  0  0
   -3.5579   -9.1919    1.6602 O   0  0  0  0  0  0  0  0  0  0  0  0
   -2.3883   -7.2721    0.7795 C   0  0  0  0  0  0  0  0  0  0  0  0
   -1.2400   -7.4350    1.6035 O   0  0  0  0  0  0  0  0  0  0  0  0
   -1.0473   -6.6530    2.9682 P   0  0  0  0  0  0  0  0  0  0  0  0
    0.1542   -7.1334    3.6877 O   0  0  0  0  0  0  0  0  0  0  0  0
   -1.2155   -5.1981    2.7636 O   0  5  0  0  0  0  0  0  0  0  0  0
   -2.2866   -7.1228    3.8505 O   0  5  0  0  0  0  0  0  0  0  0  0
  1 18  1  0  0  0  0
  1  2  1  0  0  0  0
  2  4  1  0  0  0  0
  2  3  2  0  0  0  0
  4  5  1  0  0  0  0
  5  7  1  0  0  0  0
  5  6  2  0  0  0  0
  7 18  2  0  0  0  0
  7  8  1  0  0  0  0
  8  9  1  0  0  0  0
  9 10  2  0  0  0  0
  9 16  1  0  0  0  0
 10 11  1  0  0  0  0
 11 12  1  0  0  0  0
 11 13  2  0  0  0  0
 13 14  1  0  0  0  0
 13 15  1  0  0  0  0
 15 16  2  0  0  0  0
 16 17  1  0  0  0  0
 17 19  1  0  0  0  0
 17 18  1  0  0  0  0
 20 19  1  6  0  0  0
 20 22  1  0  0  0  0
 20 21  1  0  0  0  0
 22 24  1  0  0  0  0
 22 23  1  6  0  0  0
 24 26  1  6  0  0  0
 24 25  1  0  0  0  0
 26 27  1  0  0  0  0
 27 28  1  0  0  0  0
 28 30  1  0  0  0  0
 28 29  2  0  0  0  0
 28 31  1  0  0  0  0
M  CHG  2  30  -1  31  -1
M  END
>  <CHROM.1>
-91.49384366,118.29067448,67.10591009,-176.83808484,96.14906668,-161.72355452
175.86608969,-54.66696806,-65.94940428,173.35397437,-6.53423806,-6.03052826
0.82980498,-2.81720835,-0.22480709,1.73888439

>  <Name>
1fmn_cryst

>  <RI>
0

>  <Rbt.Current_Directory>
/home/itssahil/PROJECTS/Mol_Feturizer/New_Systems/rnas/1fmn

>  <Rbt.Executable>
rbdock ($Id: //depot/dev/client3/rdock/2013.1/src/exe/rbdock.cxx#4 $)

>  <Rbt.Library>
libRbt.so (2013.1, Build901 2013/11/27)

>  <Rbt.Parameter_File>
/export/apps/rDock/src/rDock_2013.1_src/data/scripts/dock_solv.prm

>  <Rbt.Receptor>
prm/pocket_docking_4.prm

>  <SCORE>
-47.2651

>  <SCORE.INTER>
-43.912

>  <SCORE.INTER.CONST>
1

>  <SCORE.INTER.POLAR>
-1.69388

>  <SCORE.INTER.ROT>
7

>  <SCORE.INTER.SOLV>
16.1761

>  <SCORE.INTER.VDW>
-37.2871

>  <SCORE.INTER.norm>
-1.41652

>  <SCORE.INTRA>
-3.35311

>  <SCORE.INTRA.DIHEDRAL>
-2.44142

>  <SCORE.INTRA.DIHEDRAL.0>
15.5708

>  <SCORE.INTRA.POLAR>
-0.932211

>  <SCORE.INTRA.POLAR.0>
-0.0677885

>  <SCORE.INTRA.REPUL>
0

>  <SCORE.INTRA.REPUL.0>
0

>  <SCORE.INTRA.SOLV>
-0.471174

>  <SCORE.INTRA.SOLV.lig_0>
-87.6316

>  <SCORE.INTRA.VDW>
1.2727

>  <SCORE.INTRA.VDW.0>
-2.87309

>  <SCORE.INTRA.norm>
-0.108165

>  <SCORE.RESTR>
0

>  <SCORE.RESTR.CAVITY>
0

>  <SCORE.RESTR.norm>
0

>  <SCORE.SYSTEM>
0

>  <SCORE.SYSTEM.CONST>
0

>  <SCORE.SYSTEM.DIHEDRAL>
0

>  <SCORE.SYSTEM.SOLV>
0

>  <SCORE.SYSTEM.norm>
0

>  <SCORE.heavy>
31

>  <SCORE.norm>
-1.52468

>  <SYMMETRIC_BONDS>
33 34 3

>  <RMSD>
4.971

$$$$
1fmn_cryst
 OpenBabel11021811393D
libRbt.so/2013.1/901 2013/11/27
 31 33  0  0  0  0  0  0  0  0999 V2000
   -7.1860   -5.6239   -1.9221 N   0  0  0  0  0  0  0  0  0  0  0  0
   -7.2029   -5.1677   -3.2194 C   0  0  0  0  0  0  0  0  0  0  0  0
   -6.2379   -5.3046   -3.9721 O   0  0  0  0  0  0  0  0  0  0  0  0
   -8.3979   -4.5267   -3.6324 N   0  0  0  0  0  0  0  0  0  0  0  0
   -9.5547   -4.3134   -2.8510 C   0  0  0  0  0  0  0  0  0  0  0  0
  -10.5346   -3.7378   -3.3408 O   0  0  0  0  0  0  0  0  0  0  0  0
   -9.4569   -4.8269   -1.4829 C   0  0  0  0  0  0  0  0  0  0  0  0
  -10.5410   -4.6593   -0.6578 N   0  0  0  0  0  0  0  0  0  0  0  0
  -10.3837   -4.9733    0.6610 C   0  0  0  0  0  0  0  0  0  0  0  0
  -11.4048   -4.6360    1.5317 C   0  0  0  0  0  0  0  0  0  0  0  0
  -11.3175   -4.9173    2.8526 C   0  0  0  0  0  0  0  0  0  0  0  0
  -12.4505   -4.5343    3.7504 C   0  0  0  0  0  0  0  0  0  0  0  0
  -10.2154   -5.5398    3.3515 C   0  0  0  0  0  0  0  0  0  0  0  0
  -10.1244   -5.8403    4.8122 C   0  0  0  0  0  0  0  0  0  0  0  0
   -9.1892   -5.8902    2.5348 C   0  0  0  0  0  0  0  0  0  0  0  0
   -9.2295   -5.6236    1.1663 C   0  0  0  0  0  0  0  0  0  0  0  0
   -8.2014   -5.9631    0.2621 N   0  0  0  0  0  0  0  0  0  0  0  0
   -8.2405   -5.4822   -1.0628 C   0  0  0  0  0  0  0  0  0  0  0  0
   -7.4263   -7.2334    0.5147 C   0  0  0  0  0  0  0  0  0  0  0  0
   -6.2014   -7.1178    1.4720 C   0  0  1  0  0  0  0  0  0  0  0  0
   -5.6556   -8.4045    1.7258 O   0  0  0  0  0  0  0  0  0  0  0  0
   -5.1300   -6.1187    0.9742 C   0  0  1  0  0  0  0  0  0  0  0  0
   -5.6854   -4.8109    0.8701 O   0  0  0  0  0  0  0  0  0  0  0  0
   -3.8001   -6.0652    1.7655 C   0  0  1  0  0  0  0  0  0  0  0  0
   -2.8201   -5.4263    0.9546 O   0  0  0  0  0  0  0  0  0  0  0  0
   -3.9226   -5.2934    3.0985 C   0  0  0  0  0  0  0  0  0  0  0  0
   -3.0153   -5.7676    4.0864 O   0  0  0  0  0  0  0  0  0  0  0  0
   -3.1293   -5.3689    5.6159 P   0  0  0  0  0  0  0  0  0  0  0  0
   -4.5434   -5.1681    6.0059 O   0  0  0  0  0  0  0  0  0  0  0  0
   -2.2835   -6.2507    6.4490 O   0  5  0  0  0  0  0  0  0  0  0  0
   -2.4620   -3.9247    5.6800 O   0  5  0  0  0  0  0  0  0  0  0  0
  1 18  1  0  0  0  0
  1  2  1  0  0  0  0
  2  4  1  0  0  0  0
  2  3  2  0  0  0  0
  4  5  1  0  0  0  0
  5  7  1  0  0  0  0
  5  6  2  0  0  0  0
  7 18  2  0  0  0  0
  7  8  1  0  0  0  0
  8  9  1  0  0  0  0
  9 10  2  0  0  0  0
  9 16  1  0  0  0  0
 10 11  1  0  0  0  0
 11 12  1  0  0  0  0
 11 13  2  0  0  0  0
 13 14  1  0  0  0  0
 13 15  1  0  0  0  0
 15 16  2  0  0  0  0
 16 17  1  0  0  0  0
 17 19  1  0  0  0  0
 17 18  1  0  0  0  0
 20 19  1  6  0  0  0
 20 22  1  0  0  0  0
 20 21  1  0  0  0  0
 22 24  1  0  0  0  0
 22 23  1  1  0  0  0
 24 26  1  1  0  0  0
 24 25  1  0  0  0  0
 26 27  1  0  0  0  0
 27 28  1  0  0  0  0
 28 30  1  0  0  0  0
 28 29  2  0  0  0  0
 28 31  1  0  0  0  0
M  CHG  2  30  -1  31  -1
M  END
>  <CHROM.1>
-86.57656498,173.98658690,60.86642636,-66.06318719,162.51008188,-47.70251450
150.69882906,51.06108866,-166.97643497,32.29164457,-6.97670616,-5.43828668
1.45087577,-2.36158952,-0.08451488,1.59590781

>  <Name>
1fmn_cryst

>  <RI>
0

>  <Rbt.Current_Directory>
/home/itssahil/PROJECTS/Mol_Feturizer/New_Systems/rnas/1fmn

>  <Rbt.Executable>
rbdock ($Id: //depot/dev/client3/rdock/2013.1/src/exe/rbdock.cxx#4 $)

>  <Rbt.Library>
libRbt.so (2013.1, Build901 2013/11/27)

>  <Rbt.Parameter_File>
/export/apps/rDock/src/rDock_2013.1_src/data/scripts/dock_solv.prm

>  <Rbt.Receptor>
prm/pocket_docking_4.prm

>  <SCORE>
-46.7402

>  <SCORE.INTER>
-39.4551

>  <SCORE.INTER.CONST>
1

>  <SCORE.INTER.POLAR>
-1.20227

>  <SCORE.INTER.ROT>
7

>  <SCORE.INTER.SOLV>
19.458

>  <SCORE.INTER.VDW>
-37.0485

>  <SCORE.INTER.norm>
-1.27275

>  <SCORE.INTRA>
-7.29499

>  <SCORE.INTRA.DIHEDRAL>
-6.54199

>  <SCORE.INTRA.DIHEDRAL.0>
15.5708

>  <SCORE.INTRA.POLAR>
-0.769131

>  <SCORE.INTRA.POLAR.0>
-0.0677885

>  <SCORE.INTRA.REPUL>
0

>  <SCORE.INTRA.REPUL.0>
0

>  <SCORE.INTRA.SOLV>
-4.40788

>  <SCORE.INTRA.SOLV.lig_0>
-87.6316

>  <SCORE.INTRA.VDW>
0.794994

>  <SCORE.INTRA.VDW.0>
-2.87309

>  <SCORE.INTRA.norm>
-0.235322

>  <SCORE.RESTR>
0.00992003

>  <SCORE.RESTR.CAVITY>
0.00992003

>  <SCORE.RESTR.norm>
0.000320001

>  <SCORE.SYSTEM>
0

>  <SCORE.SYSTEM.CONST>
0

>  <SCORE.SYSTEM.DIHEDRAL>
0

>  <SCORE.SYSTEM.SOLV>
0

>  <SCORE.SYSTEM.norm>
0

>  <SCORE.heavy>
31

>  <SCORE.norm>
-1.50775

>  <SYMMETRIC_BONDS>
33 34 3

>  <RMSD>
4.976

$$$$
1fmn_cryst
 OpenBabel11021811393D
libRbt.so/2013.1/901 2013/11/27
 31 33  0  0  0  0  0  0  0  0999 V2000
   -7.3913   -4.9531   -2.1343 N   0  0  0  0  0  0  0  0  0  0  0  0
   -7.5285   -4.4780   -3.4177 C   0  0  0  0  0  0  0  0  0  0  0  0
   -6.5866   -4.4586   -4.2107 O   0  0  0  0  0  0  0  0  0  0  0  0
   -8.8196   -4.0083   -3.7668 N   0  0  0  0  0  0  0  0  0  0  0  0
   -9.9609   -3.9804   -2.9356 C   0  0  0  0  0  0  0  0  0  0  0  0
  -11.0332   -3.5428   -3.3715 O   0  0  0  0  0  0  0  0  0  0  0  0
   -9.7324   -4.5020   -1.5862 C   0  0  0  0  0  0  0  0  0  0  0  0
  -10.7934   -4.5097   -0.7153 N   0  0  0  0  0  0  0  0  0  0  0  0
  -10.5369   -4.8244    0.5877 C   0  0  0  0  0  0  0  0  0  0  0  0
  -11.5580   -4.6560    1.5061 C   0  0  0  0  0  0  0  0  0  0  0  0
  -11.3753   -4.9484    2.8147 C   0  0  0  0  0  0  0  0  0  0  0  0
  -12.5124   -4.7516    3.7658 C   0  0  0  0  0  0  0  0  0  0  0  0
  -10.1750   -5.4149    3.2538 C   0  0  0  0  0  0  0  0  0  0  0  0
   -9.9800   -5.7286    4.7015 C   0  0  0  0  0  0  0  0  0  0  0  0
   -9.1447   -5.5966    2.3888 C   0  0  0  0  0  0  0  0  0  0  0  0
   -9.2809   -5.3109    1.0304 C   0  0  0  0  0  0  0  0  0  0  0  0
   -8.2539   -5.4798    0.0781 N   0  0  0  0  0  0  0  0  0  0  0  0
   -8.4178   -4.9828   -1.2311 C   0  0  0  0  0  0  0  0  0  0  0  0
   -7.2943   -6.6295    0.2670 C   0  0  0  0  0  0  0  0  0  0  0  0
   -6.0824   -6.3711    1.2128 C   0  0  1  0  0  0  0  0  0  0  0  0
   -6.3313   -6.9351    2.4925 O   0  0  0  0  0  0  0  0  0  0  0  0
   -4.7339   -6.8447    0.6200 C   0  0  1  0  0  0  0  0  0  0  0  0
   -3.6777   -5.9928    1.0539 O   0  0  0  0  0  0  0  0  0  0  0  0
   -4.3468   -8.3256    0.8545 C   0  0  1  0  0  0  0  0  0  0  0  0
   -3.2428   -8.6401    0.0130 O   0  0  0  0  0  0  0  0  0  0  0  0
   -3.9554   -8.6214    2.3198 C   0  0  0  0  0  0  0  0  0  0  0  0
   -3.6644   -9.9969    2.5374 O   0  0  0  0  0  0  0  0  0  0  0  0
   -3.1109  -10.5473    3.9166 P   0  0  0  0  0  0  0  0  0  0  0  0
   -3.0995  -12.0278    3.9285 O   0  0  0  0  0  0  0  0  0  0  0  0
   -1.8808   -9.8266    4.3095 O   0  5  0  0  0  0  0  0  0  0  0  0
   -4.2285  -10.1228    4.9680 O   0  5  0  0  0  0  0  0  0  0  0  0
  1 18  1  0  0  0  0
  1  2  1  0  0  0  0
  2  4  1  0  0  0  0
  2  3  2  0  0  0  0
  4  5  1  0  0  0  0
  5  7  1  0  0  0  0
  5  6  2  0  0  0  0
  7 18  2  0  0  0  0
  7  8  1  0  0  0  0
  8  9  1  0  0  0  0
  9 10  2  0  0  0  0
  9 16  1  0  0  0  0
 10 11  1  0  0  0  0
 11 12  1  0  0  0  0
 11 13  2  0  0  0  0
 13 14  1  0  0  0  0
 13 15  1  0  0  0  0
 15 16  2  0  0  0  0
 16 17  1  0  0  0  0
 17 19  1  0  0  0  0
 17 18  1  0  0  0  0
 20 19  1  6  0  0  0
 20 22  1  0  0  0  0
 20 21  1  0  0  0  0
 22 24  1  0  0  0  0
 22 23  1  1  0  0  0
 24 26  1  1  0  0  0
 24 25  1  0  0  0  0
 26 27  1  0  0  0  0
 27 28  1  0  0  0  0
 28 30  1  0  0  0  0
 28 29  2  0  0  0  0
 28 31  1  0  0  0  0
M  CHG  2  30  -1  31  -1
M  END
>  <CHROM.1>
-84.79269532,100.33042076,147.08754279,60.20437583,167.87682820,-74.37902544
177.15449292,-176.52073033,174.31439437,171.16814231,-7.05305146,-6.61785694
0.97328085,-2.45412935,-0.47229064,1.96373570

>  <Name>
1fmn_cryst

>  <RI>
0

>  <Rbt.Current_Directory>
/home/itssahil/PROJECTS/Mol_Feturizer/New_Systems/rnas/1fmn

>  <Rbt.Executable>
rbdock ($Id: //depot/dev/client3/rdock/2013.1/src/exe/rbdock.cxx#4 $)

>  <Rbt.Library>
libRbt.so (2013.1, Build901 2013/11/27)

>  <Rbt.Parameter_File>
/export/apps/rDock/src/rDock_2013.1_src/data/scripts/dock_solv.prm

>  <Rbt.Receptor>
prm/pocket_docking_7.prm

>  <SCORE>
-41.6658

>  <SCORE.INTER>
-37.9559

>  <SCORE.INTER.CONST>
1

>  <SCORE.INTER.POLAR>
-0.752615

>  <SCORE.INTER.ROT>
7

>  <SCORE.INTER.SOLV>
20.3349

>  <SCORE.INTER.VDW>
-37.8402

>  <SCORE.INTER.norm>
-1.22438

>  <SCORE.INTRA>
-3.70987

>  <SCORE.INTRA.DIHEDRAL>
-4.51674

>  <SCORE.INTRA.DIHEDRAL.0>
15.5708

>  <SCORE.INTRA.POLAR>
0.0677885

>  <SCORE.INTRA.POLAR.0>
-0.0677885

>  <SCORE.INTRA.REPUL>
0

>  <SCORE.INTRA.REPUL.0>
0

>  <SCORE.INTRA.SOLV>
-5.07646

>  <SCORE.INTRA.SOLV.lig_0>
-87.6316

>  <SCORE.INTRA.VDW>
0.856248

>  <SCORE.INTRA.VDW.0>
-2.87309

>  <SCORE.INTRA.norm>
-0.119673

>  <SCORE.RESTR>
0

>  <SCORE.RESTR.CAVITY>
0

>  <SCORE.RESTR.norm>
0

>  <SCORE.SYSTEM>
0

>  <SCORE.SYSTEM.CONST>
0

>  <SCORE.SYSTEM.DIHEDRAL>
0

>  <SCORE.SYSTEM.SOLV>
0

>  <SCORE.SYSTEM.norm>
0

>  <SCORE.heavy>
31

>  <SCORE.norm>
-1.34406

>  <SYMMETRIC_BONDS>
33 34 3

>  <RMSD>
4.986

$$$$
1fmn_cryst
 OpenBabel11021811393D
libRbt.so/2013.1/901 2013/11/27
 31 33  0  0  0  0  0  0  0  0999 V2000
   -7.3183   -5.5756   -1.8854 N   0  0  0  0  0  0  0  0  0  0  0  0
   -7.2713   -5.0369   -3.1500 C   0  0  0  0  0  0  0  0  0  0  0  0
   -6.3213   -5.2337   -3.9085 O   0  0  0  0  0  0  0  0  0  0  0  0
   -8.3818   -4.2380   -3.5218 N   0  0  0  0  0  0  0  0  0  0  0  0
   -9.5138   -3.9454   -2.7299 C   0  0  0  0  0  0  0  0  0  0  0  0
  -10.4173   -3.2309   -3.1823 O   0  0  0  0  0  0  0  0  0  0  0  0
   -9.4875   -4.5548   -1.3984 C   0  0  0  0  0  0  0  0  0  0  0  0
  -10.5530   -4.3187   -0.5658 N   0  0  0  0  0  0  0  0  0  0  0  0
  -10.4445   -4.7340    0.7297 C   0  0  0  0  0  0  0  0  0  0  0  0
  -11.4284   -4.3398    1.6191 C   0  0  0  0  0  0  0  0  0  0  0  0
  -11.3858   -4.7148    2.9187 C   0  0  0  0  0  0  0  0  0  0  0  0
  -12.4759   -4.2643    3.8380 C   0  0  0  0  0  0  0  0  0  0  0  0
  -10.3663   -5.4902    3.3774 C   0  0  0  0  0  0  0  0  0  0  0  0
  -10.3235   -5.8938    4.8152 C   0  0  0  0  0  0  0  0  0  0  0  0
   -9.3793   -5.9015    2.5410 C   0  0  0  0  0  0  0  0  0  0  0  0
   -9.3765   -5.5434    1.1930 C   0  0  0  0  0  0  0  0  0  0  0  0
   -8.3856   -5.9384    0.2700 N   0  0  0  0  0  0  0  0  0  0  0  0
   -8.3576   -5.3707   -1.0204 C   0  0  0  0  0  0  0  0  0  0  0  0
   -7.7625   -7.3027    0.4396 C   0  0  0  0  0  0  0  0  0  0  0  0
   -6.3932   -7.3504    1.1832 C   0  0  1  0  0  0  0  0  0  0  0  0
   -6.0239   -8.6973    1.4427 O   0  0  0  0  0  0  0  0  0  0  0  0
   -5.2745   -6.5704    0.4523 C   0  0  1  0  0  0  0  0  0  0  0  0
   -5.1172   -5.2771    1.0286 O   0  0  0  0  0  0  0  0  0  0  0  0
   -3.8962   -7.2665    0.3352 C   0  0  1  0  0  0  0  0  0  0  0  0
   -3.0928   -6.5223   -0.5740 O   0  0  0  0  0  0  0  0  0  0  0  0
   -3.1548   -7.3665    1.6872 C   0  0  0  0  0  0  0  0  0  0  0  0
   -2.9570   -6.0949    2.2939 O   0  0  0  0  0  0  0  0  0  0  0  0
   -2.1747   -5.9099    3.6595 P   0  0  0  0  0  0  0  0  0  0  0  0
   -2.1264   -7.1809    4.4174 O   0  0  0  0  0  0  0  0  0  0  0  0
   -0.9146   -5.1671    3.4419 O   0  5  0  0  0  0  0  0  0  0  0  0
   -3.1170   -4.9459    4.5066 O   0  5  0  0  0  0  0  0  0  0  0  0
  1 18  1  0  0  0  0
  1  2  1  0  0  0  0
  2  4  1  0  0  0  0
  2  3  2  0  0  0  0
  4  5  1  0  0  0  0
  5  7  1  0  0  0  0
  5  6  2  0  0  0  0
  7 18  2  0  0  0  0
  7  8  1  0  0  0  0
  8  9  1  0  0  0  0
  9 10  2  0  0  0  0
  9 16  1  0  0  0  0
 10 11  1  0  0  0  0
 11 12  1  0  0  0  0
 11 13  2  0  0  0  0
 13 14  1  0  0  0  0
 13 15  1  0  0  0  0
 15 16  2  0  0  0  0
 16 17  1  0  0  0  0
 17 19  1  0  0  0  0
 17 18  1  0  0  0  0
 20 19  1  6  0  0  0
 20 22  1  0  0  0  0
 20 21  1  0  0  0  0
 22 24  1  0  0  0  0
 22 23  1  1  0  0  0
 24 26  1  1  0  0  0
 24 25  1  0  0  0  0
 26 27  1  0  0  0  0
 27 28  1  0  0  0  0
 28 30  1  0  0  0  0
 28 29  2  0  0  0  0
 28 31  1  0  0  0  0
M  CHG  2  30  -1  31  -1
M  END
>  <CHROM.1>
-97.63811620,171.48193688,98.37447851,54.16218870,168.99033345,-176.29318515
-57.33909916,-178.06910131,-177.63496947,-20.24340428,-6.83244435,-5.64819306
0.91412367,-2.74388635,-0.18196735,1.67032466

>  <Name>
1fmn_cryst

>  <RI>
0

>  <Rbt.Current_Directory>
/home/itssahil/PROJECTS/Mol_Feturizer/New_Systems/rnas/1fmn

>  <Rbt.Executable>
rbdock ($Id: //depot/dev/client3/rdock/2013.1/src/exe/rbdock.cxx#4 $)

>  <Rbt.Library>
libRbt.so (2013.1, Build901 2013/11/27)

>  <Rbt.Parameter_File>
/export/apps/rDock/src/rDock_2013.1_src/data/scripts/dock_solv.prm

>  <Rbt.Receptor>
prm/pocket_docking_4.prm

>  <SCORE>
-55.3601

>  <SCORE.INTER>
-51.2022

>  <SCORE.INTER.CONST>
1

>  <SCORE.INTER.POLAR>
-3.14383

>  <SCORE.INTER.ROT>
7

>  <SCORE.INTER.SOLV>
18.879

>  <SCORE.INTER.VDW>
-38.215

>  <SCORE.INTER.norm>
-1.65168

>  <SCORE.INTRA>
-4.15798

>  <SCORE.INTRA.DIHEDRAL>
-6.10053

>  <SCORE.INTRA.DIHEDRAL.0>
15.5708

>  <SCORE.INTRA.POLAR>
0.0628163

>  <SCORE.INTRA.POLAR.0>
-0.0677885

>  <SCORE.INTRA.REPUL>
0

>  <SCORE.INTRA.REPUL.0>
0

>  <SCORE.INTRA.SOLV>
-3.9156

>  <SCORE.INTRA.SOLV.lig_0>
-87.6316

>  <SCORE.INTRA.VDW>
0.636505

>  <SCORE.INTRA.VDW.0>
-2.87309

>  <SCORE.INTRA.norm>
-0.134129

>  <SCORE.RESTR>
0

>  <SCORE.RESTR.CAVITY>
0

>  <SCORE.RESTR.norm>
0

>  <SCORE.SYSTEM>
0

>  <SCORE.SYSTEM.CONST>
0

>  <SCORE.SYSTEM.DIHEDRAL>
0

>  <SCORE.SYSTEM.SOLV>
0

>  <SCORE.SYSTEM.norm>
0

>  <SCORE.heavy>
31

>  <SCORE.norm>
-1.78581

>  <SYMMETRIC_BONDS>
33 34 3

>  <RMSD>
4.997

$$$$
1fmn_cryst
 OpenBabel11021811393D
libRbt.so/2013.1/901 2013/11/27
 31 33  0  0  0  0  0  0  0  0999 V2000
   -7.9332   -4.7248   -2.2444 N   0  0  0  0  0  0  0  0  0  0  0  0
   -8.1549   -4.2061   -3.4987 C   0  0  0  0  0  0  0  0  0  0  0  0
   -7.2712   -4.1698   -4.3556 O   0  0  0  0  0  0  0  0  0  0  0  0
   -9.4616   -3.7123   -3.7400 N   0  0  0  0  0  0  0  0  0  0  0  0
  -10.5409   -3.7006   -2.8294 C   0  0  0  0  0  0  0  0  0  0  0  0
  -11.6359   -3.2381   -3.1737 O   0  0  0  0  0  0  0  0  0  0  0  0
  -10.2241   -4.2689   -1.5172 C   0  0  0  0  0  0  0  0  0  0  0  0
  -11.2210   -4.2950   -0.5739 N   0  0  0  0  0  0  0  0  0  0  0  0
  -10.8770   -4.6552    0.6967 C   0  0  0  0  0  0  0  0  0  0  0  0
  -11.8286   -4.5072    1.6902 C   0  0  0  0  0  0  0  0  0  0  0  0
  -11.5576   -4.8447    2.9724 C   0  0  0  0  0  0  0  0  0  0  0  0
  -12.6222   -4.6682    4.0077 C   0  0  0  0  0  0  0  0  0  0  0  0
  -10.3351   -5.3374    3.3099 C   0  0  0  0  0  0  0  0  0  0  0  0
  -10.0422   -5.7009    4.7291 C   0  0  0  0  0  0  0  0  0  0  0  0
   -9.3707   -5.5005    2.3686 C   0  0  0  0  0  0  0  0  0  0  0  0
   -9.5989   -5.1686    1.0332 C   0  0  0  0  0  0  0  0  0  0  0  0
   -8.6439   -5.3160    0.0055 N   0  0  0  0  0  0  0  0  0  0  0  0
   -8.8938   -4.7743   -1.2721 C   0  0  0  0  0  0  0  0  0  0  0  0
   -7.6876   -6.4809    0.0884 C   0  0  0  0  0  0  0  0  0  0  0  0
   -6.2296   -6.1490    0.5293 C   0  0  1  0  0  0  0  0  0  0  0  0
   -5.6484   -5.2127   -0.3671 O   0  0  0  0  0  0  0  0  0  0  0  0
   -6.1280   -5.6856    2.0020 C   0  0  1  0  0  0  0  0  0  0  0  0
   -6.4442   -6.7614    2.8807 O   0  0  0  0  0  0  0  0  0  0  0  0
   -4.7983   -5.0224    2.4379 C   0  0  1  0  0  0  0  0  0  0  0  0
   -5.0867   -4.0543    3.4407 O   0  0  0  0  0  0  0  0  0  0  0  0
   -3.7768   -6.0347    3.0030 C   0  0  0  0  0  0  0  0  0  0  0  0
   -2.6036   -5.4025    3.5008 O   0  0  0  0  0  0  0  0  0  0  0  0
   -1.4660   -6.1926    4.2708 P   0  0  0  0  0  0  0  0  0  0  0  0
   -0.2171   -5.3995    4.3275 O   0  0  0  0  0  0  0  0  0  0  0  0
   -1.9925   -6.7747    5.5242 O   0  5  0  0  0  0  0  0  0  0  0  0
   -1.1451   -7.4221    3.3115 O   0  5  0  0  0  0  0  0  0  0  0  0
  1 18  1  0  0  0  0
  1  2  1  0  0  0  0
  2  4  1  0  0  0  0
  2  3  2  0  0  0  0
  4  5  1  0  0  0  0
  5  7  1  0  0  0  0
  5  6  2  0  0  0  0
  7 18  2  0  0  0  0
  7  8  1  0  0  0  0
  8  9  1  0  0  0  0
  9 10  2  0  0  0  0
  9 16  1  0  0  0  0
 10 11  1  0  0  0  0
 11 12  1  0  0  0  0
 11 13  2  0  0  0  0
 13 14  1  0  0  0  0
 13 15  1  0  0  0  0
 15 16  2  0  0  0  0
 16 17  1  0  0  0  0
 17 19  1  0  0  0  0
 17 18  1  0  0  0  0
 20 19  1  6  0  0  0
 20 22  1  0  0  0  0
 20 21  1  0  0  0  0
 22 24  1  0  0  0  0
 22 23  1  1  0  0  0
 24 26  1  1  0  0  0
 24 25  1  0  0  0  0
 26 27  1  0  0  0  0
 27 28  1  0  0  0  0
 28 30  1  0  0  0  0
 28 29  2  0  0  0  0
 28 31  1  0  0  0  0
M  CHG  2  30  -1  31  -1
M  END
>  <CHROM.1>
-104.38177493,-58.70072316,67.45565358,74.29459421,148.07249657,-61.20161105
-175.17858353,179.74614651,173.42541149,163.64635115,-7.12357057,-5.19845127
1.22624440,-2.57250540,-0.10805106,1.74546254

>  <Name>
1fmn_cryst

>  <RI>
0

>  <Rbt.Current_Directory>
/home/itssahil/PROJECTS/Mol_Feturizer/New_Systems/rnas/1fmn

>  <Rbt.Executable>
rbdock ($Id: //depot/dev/client3/rdock/2013.1/src/exe/rbdock.cxx#4 $)

>  <Rbt.Library>
libRbt.so (2013.1, Build901 2013/11/27)

>  <Rbt.Parameter_File>
/export/apps/rDock/src/rDock_2013.1_src/data/scripts/dock_solv.prm

>  <Rbt.Receptor>
prm/pocket_docking_4.prm

>  <SCORE>
-50.1509

>  <SCORE.INTER>
-43.3137

>  <SCORE.INTER.CONST>
1

>  <SCORE.INTER.POLAR>
-2.21728

>  <SCORE.INTER.ROT>
7

>  <SCORE.INTER.SOLV>
16.4039

>  <SCORE.INTER.VDW>
-35.2195

>  <SCORE.INTER.norm>
-1.39722

>  <SCORE.INTRA>
-6.83766

>  <SCORE.INTRA.DIHEDRAL>
-8.23741

>  <SCORE.INTRA.DIHEDRAL.0>
15.5708

>  <SCORE.INTRA.POLAR>
-0.281419

>  <SCORE.INTRA.POLAR.0>
-0.0677885

>  <SCORE.INTRA.REPUL>
0

>  <SCORE.INTRA.REPUL.0>
0

>  <SCORE.INTRA.SOLV>
-3.84873

>  <SCORE.INTRA.SOLV.lig_0>
-87.6316

>  <SCORE.INTRA.VDW>
0.162238

>  <SCORE.INTRA.VDW.0>
-2.87309

>  <SCORE.INTRA.norm>
-0.22057

>  <SCORE.RESTR>
0.000515915

>  <SCORE.RESTR.CAVITY>
0.000515915

>  <SCORE.RESTR.norm>
1.66424e-05

>  <SCORE.SYSTEM>
0

>  <SCORE.SYSTEM.CONST>
0

>  <SCORE.SYSTEM.DIHEDRAL>
0

>  <SCORE.SYSTEM.SOLV>
0

>  <SCORE.SYSTEM.norm>
0

>  <SCORE.heavy>
31

>  <SCORE.norm>
-1.61777

>  <SYMMETRIC_BONDS>
33 34 3

>  <RMSD>
4.999

$$$$
1fmn_cryst
 OpenBabel11021811393D
libRbt.so/2013.1/901 2013/11/27
 31 33  0  0  0  0  0  0  0  0999 V2000
   -7.4608   -5.4544   -1.9321 N   0  0  0  0  0  0  0  0  0  0  0  0
   -7.4926   -4.9449   -3.2092 C   0  0  0  0  0  0  0  0  0  0  0  0
   -6.5501   -5.0811   -3.9900 O   0  0  0  0  0  0  0  0  0  0  0  0
   -8.6753   -4.2500   -3.5668 N   0  0  0  0  0  0  0  0  0  0  0  0
   -9.8063   -4.0326   -2.7496 C   0  0  0  0  0  0  0  0  0  0  0  0
  -10.7779   -3.4066   -3.1918 O   0  0  0  0  0  0  0  0  0  0  0  0
   -9.6938   -4.6048   -1.4061 C   0  0  0  0  0  0  0  0  0  0  0  0
  -10.7527   -4.4371   -0.5488 N   0  0  0  0  0  0  0  0  0  0  0  0
  -10.5755   -4.8100    0.7520 C   0  0  0  0  0  0  0  0  0  0  0  0
  -11.5647   -4.4767    1.6601 C   0  0  0  0  0  0  0  0  0  0  0  0
  -11.4564   -4.8148    2.9660 C   0  0  0  0  0  0  0  0  0  0  0  0
  -12.5553   -4.4334    3.9059 C   0  0  0  0  0  0  0  0  0  0  0  0
  -10.3639   -5.4917    3.4125 C   0  0  0  0  0  0  0  0  0  0  0  0
  -10.2493   -5.8549    4.8572 C   0  0  0  0  0  0  0  0  0  0  0  0
   -9.3687   -5.8405    2.5577 C   0  0  0  0  0  0  0  0  0  0  0  0
   -9.4318   -5.5166    1.2024 C   0  0  0  0  0  0  0  0  0  0  0  0
   -8.4363   -5.8509    0.2605 N   0  0  0  0  0  0  0  0  0  0  0  0
   -8.4901   -5.3149   -1.0425 C   0  0  0  0  0  0  0  0  0  0  0  0
   -7.6974   -7.1545    0.4427 C   0  0  0  0  0  0  0  0  0  0  0  0
   -6.4171   -7.1058    1.3308 C   0  0  1  0  0  0  0  0  0  0  0  0
   -6.5260   -8.0374    2.3977 O   0  0  0  0  0  0  0  0  0  0  0  0
   -5.1088   -7.2924    0.5261 C   0  0  1  0  0  0  0  0  0  0  0  0
   -4.9766   -6.2604   -0.4470 O   0  0  0  0  0  0  0  0  0  0  0  0
   -3.7977   -7.4207    1.3400 C   0  0  1  0  0  0  0  0  0  0  0  0
   -2.7111   -7.5305    0.4271 O   0  0  0  0  0  0  0  0  0  0  0  0
   -3.5454   -6.2131    2.2705 C   0  0  0  0  0  0  0  0  0  0  0  0
   -2.3317   -6.3355    3.0026 O   0  0  0  0  0  0  0  0  0  0  0  0
   -1.8726   -5.2714    4.0834 P   0  0  0  0  0  0  0  0  0  0  0  0
   -1.5645   -3.9706    3.4469 O   0  0  0  0  0  0  0  0  0  0  0  0
   -2.7788   -5.2908    5.2519 O   0  5  0  0  0  0  0  0  0  0  0  0
   -0.4747   -5.8344    4.5971 O   0  5  0  0  0  0  0  0  0  0  0  0
  1 18  1  0  0  0  0
  1  2  1  0  0  0  0
  2  4  1  0  0  0  0
  2  3  2  0  0  0  0
  4  5  1  0  0  0  0
  5  7  1  0  0  0  0
  5  6  2  0  0  0  0
  7 18  2  0  0  0  0
  7  8  1  0  0  0  0
  8  9  1  0  0  0  0
  9 10  2  0  0  0  0
  9 16  1  0  0  0  0
 10 11  1  0  0  0  0
 11 12  1  0  0  0  0
 11 13  2  0  0  0  0
 13 14  1  0  0  0  0
 13 15  1  0  0  0  0
 15 16  2  0  0  0  0
 16 17  1  0  0  0  0
 17 19  1  0  0  0  0
 17 18  1  0  0  0  0
 20 19  1  6  0  0  0
 20 22  1  0  0  0  0
 20 21  1  0  0  0  0
 22 24  1  0  0  0  0
 22 23  1  6  0  0  0
 24 26  1  6  0  0  0
 24 25  1  0  0  0  0
 26 27  1  0  0  0  0
 27 28  1  0  0  0  0
 28 30  1  0  0  0  0
 28 29  2  0  0  0  0
 28 31  1  0  0  0  0
M  CHG  2  30  -1  31  -1
M  END
>  <CHROM.1>
-88.79304046,123.68529217,60.31335514,-60.48077529,-177.72886968,57.40883551
-179.39680520,-174.69651942,-176.74287474,-66.59179242,-6.82484299,-5.56949688
1.07715320,-2.68998580,-0.12699695,1.62616719

>  <Name>
1fmn_cryst

>  <RI>
0

>  <Rbt.Current_Directory>
/home/itssahil/PROJECTS/Mol_Feturizer/New_Systems/rnas/1fmn

>  <Rbt.Executable>
rbdock ($Id: //depot/dev/client3/rdock/2013.1/src/exe/rbdock.cxx#4 $)

>  <Rbt.Library>
libRbt.so (2013.1, Build901 2013/11/27)

>  <Rbt.Parameter_File>
/export/apps/rDock/src/rDock_2013.1_src/data/scripts/dock_solv.prm

>  <Rbt.Receptor>
prm/pocket_docking_6.prm

>  <SCORE>
-47.2542

>  <SCORE.INTER>
-37.9874

>  <SCORE.INTER.CONST>
1

>  <SCORE.INTER.POLAR>
-0.563976

>  <SCORE.INTER.ROT>
7

>  <SCORE.INTER.SOLV>
16.3139

>  <SCORE.INTER.VDW>
-37.1496

>  <SCORE.INTER.norm>
-1.2254

>  <SCORE.INTRA>
-9.26676

>  <SCORE.INTRA.DIHEDRAL>
-7.60345

>  <SCORE.INTRA.DIHEDRAL.0>
15.5708

>  <SCORE.INTRA.POLAR>
-0.932211

>  <SCORE.INTRA.POLAR.0>
-0.0677885

>  <SCORE.INTRA.REPUL>
0

>  <SCORE.INTRA.REPUL.0>
0

>  <SCORE.INTRA.SOLV>
-4.50054

>  <SCORE.INTRA.SOLV.lig_0>
-87.6316

>  <SCORE.INTRA.VDW>
-0.0452486

>  <SCORE.INTRA.VDW.0>
-2.87309

>  <SCORE.INTRA.norm>
-0.298928

>  <SCORE.RESTR>
0

>  <SCORE.RESTR.CAVITY>
0

>  <SCORE.RESTR.norm>
0

>  <SCORE.SYSTEM>
0

>  <SCORE.SYSTEM.CONST>
0

>  <SCORE.SYSTEM.DIHEDRAL>
0

>  <SCORE.SYSTEM.SOLV>
0

>  <SCORE.SYSTEM.norm>
0

>  <SCORE.heavy>
31

>  <SCORE.norm>
-1.52433

>  <SYMMETRIC_BONDS>
33 34 3

>  <RMSD>
5.000

$$$$
1fmn_cryst
 OpenBabel11021811393D
libRbt.so/2013.1/901 2013/11/27
 31 33  0  0  0  0  0  0  0  0999 V2000
   -7.2485   -5.6397   -1.8636 N   0  0  0  0  0  0  0  0  0  0  0  0
   -7.2395   -5.1685   -3.1556 C   0  0  0  0  0  0  0  0  0  0  0  0
   -6.2776   -5.3383   -3.9056 O   0  0  0  0  0  0  0  0  0  0  0  0
   -8.4038   -4.4720   -3.5663 N   0  0  0  0  0  0  0  0  0  0  0  0
   -9.5541   -4.2179   -2.7876 C   0  0  0  0  0  0  0  0  0  0  0  0
  -10.5059   -3.5950   -3.2748 O   0  0  0  0  0  0  0  0  0  0  0  0
   -9.4850   -4.7507   -1.4250 C   0  0  0  0  0  0  0  0  0  0  0  0
  -10.5649   -4.5460   -0.6027 N   0  0  0  0  0  0  0  0  0  0  0  0
  -10.4277   -4.8815    0.7130 C   0  0  0  0  0  0  0  0  0  0  0  0
  -11.4374   -4.5105    1.5831 C   0  0  0  0  0  0  0  0  0  0  0  0
  -11.3687   -4.8103    2.9010 C   0  0  0  0  0  0  0  0  0  0  0  0
  -12.4885   -4.3891    3.7983 C   0  0  0  0  0  0  0  0  0  0  0  0
  -10.2968   -5.4853    3.3974 C   0  0  0  0  0  0  0  0  0  0  0  0
  -10.2259   -5.8061    4.8549 C   0  0  0  0  0  0  0  0  0  0  0  0
   -9.2827   -5.8703    2.5812 C   0  0  0  0  0  0  0  0  0  0  0  0
   -9.3050   -5.5866    1.2157 C   0  0  0  0  0  0  0  0  0  0  0  0
   -8.2881   -5.9597    0.3120 N   0  0  0  0  0  0  0  0  0  0  0  0
   -8.3001   -5.4625   -1.0073 C   0  0  0  0  0  0  0  0  0  0  0  0
   -7.5696   -7.2651    0.5532 C   0  0  0  0  0  0  0  0  0  0  0  0
   -6.1898   -7.1728    1.2728 C   0  0  1  0  0  0  0  0  0  0  0  0
   -5.8785   -8.4113    1.8950 O   0  0  0  0  0  0  0  0  0  0  0  0
   -5.0505   -6.6835    0.3473 C   0  0  1  0  0  0  0  0  0  0  0  0
   -4.8098   -5.2945    0.5529 O   0  0  0  0  0  0  0  0  0  0  0  0
   -3.7147   -7.4646    0.4070 C   0  0  1  0  0  0  0  0  0  0  0  0
   -2.7961   -6.8532   -0.4920 O   0  0  0  0  0  0  0  0  0  0  0  0
   -3.0901   -7.4829    1.8203 C   0  0  0  0  0  0  0  0  0  0  0  0
   -2.5578   -6.2180    2.1956 O   0  0  0  0  0  0  0  0  0  0  0  0
   -1.8255   -5.9736    3.5795 P   0  0  0  0  0  0  0  0  0  0  0  0
   -2.7293   -6.2670    4.7149 O   0  0  0  0  0  0  0  0  0  0  0  0
   -0.4782   -6.5833    3.5713 O   0  5  0  0  0  0  0  0  0  0  0  0
   -1.5989   -4.3980    3.6133 O   0  5  0  0  0  0  0  0  0  0  0  0
  1 18  1  0  0  0  0
  1  2  1  0  0  0  0
  2  4  1  0  0  0  0
  2  3  2  0  0  0  0
  4  5  1  0  0  0  0
  5  7  1  0  0  0  0
  5  6  2  0  0  0  0
  7 18  2  0  0  0  0
  7  8  1  0  0  0  0
  8  9  1  0  0  0  0
  9 10  2  0  0  0  0
  9 16  1  0  0  0  0
 10 11  1  0  0  0  0
 11 12  1  0  0  0  0
 11 13  2  0  0  0  0
 13 14  1  0  0  0  0
 13 15  1  0  0  0  0
 15 16  2  0  0  0  0
 16 17  1  0  0  0  0
 17 19  1  0  0  0  0
 17 18  1  0  0  0  0
 20 19  1  6  0  0  0
 20 22  1  0  0  0  0
 20 21  1  0  0  0  0
 22 24  1  0  0  0  0
 22 23  1  1  0  0  0
 24 26  1  1  0  0  0
 24 25  1  0  0  0  0
 26 27  1  0  0  0  0
 27 28  1  0  0  0  0
 28 30  1  0  0  0  0
 28 29  2  0  0  0  0
 28 31  1  0  0  0  0
M  CHG  2  30  -1  31  -1
M  END
>  <CHROM.1>
-98.59856254,157.17899281,99.16656782,-70.61377595,-179.06428968,-56.55962552
-71.89542362,-78.47176514,-178.29745920,-59.80755632,-6.68720115,-5.72793475
0.89727438,-2.77851289,-0.16702602,1.65410877

>  <Name>
1fmn_cryst

>  <RI>
0

>  <Rbt.Current_Directory>
/home/itssahil/PROJECTS/Mol_Feturizer/New_Systems/rnas/1fmn

>  <Rbt.Executable>
rbdock ($Id: //depot/dev/client3/rdock/2013.1/src/exe/rbdock.cxx#4 $)

>  <Rbt.Library>
libRbt.so (2013.1, Build901 2013/11/27)

>  <Rbt.Parameter_File>
/export/apps/rDock/src/rDock_2013.1_src/data/scripts/dock_solv.prm

>  <Rbt.Receptor>
prm/pocket_docking_4.prm

>  <SCORE>
-49.2367

>  <SCORE.INTER>
-45.0836

>  <SCORE.INTER.CONST>
1

>  <SCORE.INTER.POLAR>
-1.78306

>  <SCORE.INTER.ROT>
7

>  <SCORE.INTER.SOLV>
18.0178

>  <SCORE.INTER.VDW>
-38.3848

>  <SCORE.INTER.norm>
-1.45431

>  <SCORE.INTRA>
-4.15312

>  <SCORE.INTRA.DIHEDRAL>
-4.70305

>  <SCORE.INTRA.DIHEDRAL.0>
15.5708

>  <SCORE.INTRA.POLAR>
0.0677885

>  <SCORE.INTRA.POLAR.0>
-0.0677885

>  <SCORE.INTRA.REPUL>
0.00972547

>  <SCORE.INTRA.REPUL.0>
0

>  <SCORE.INTRA.SOLV>
-4.2022

>  <SCORE.INTRA.SOLV.lig_0>
-87.6316

>  <SCORE.INTRA.VDW>
0.020391

>  <SCORE.INTRA.VDW.0>
-2.87309

>  <SCORE.INTRA.norm>
-0.133972

>  <SCORE.RESTR>
0

>  <SCORE.RESTR.CAVITY>
0

>  <SCORE.RESTR.norm>
0

>  <SCORE.SYSTEM>
0

>  <SCORE.SYSTEM.CONST>
0

>  <SCORE.SYSTEM.DIHEDRAL>
0

>  <SCORE.SYSTEM.SOLV>
0

>  <SCORE.SYSTEM.norm>
0

>  <SCORE.heavy>
31

>  <SCORE.norm>
-1.58828

>  <SYMMETRIC_BONDS>
33 34 3

>  <RMSD>
5.006

$$$$
1fmn_cryst
 OpenBabel11021811393D
libRbt.so/2013.1/901 2013/11/27
 31 33  0  0  0  0  0  0  0  0999 V2000
   -7.4236   -5.4297   -1.9244 N   0  0  0  0  0  0  0  0  0  0  0  0
   -7.4438   -4.9319   -3.2063 C   0  0  0  0  0  0  0  0  0  0  0  0
   -6.4857   -5.0562   -3.9699 O   0  0  0  0  0  0  0  0  0  0  0  0
   -8.6337   -4.2637   -3.5898 N   0  0  0  0  0  0  0  0  0  0  0  0
   -9.7824   -4.0617   -2.7937 C   0  0  0  0  0  0  0  0  0  0  0  0
  -10.7585   -3.4589   -3.2576 O   0  0  0  0  0  0  0  0  0  0  0  0
   -9.6814   -4.6200   -1.4434 C   0  0  0  0  0  0  0  0  0  0  0  0
  -10.7577   -4.4660   -0.6055 N   0  0  0  0  0  0  0  0  0  0  0  0
  -10.5953   -4.8242    0.7014 C   0  0  0  0  0  0  0  0  0  0  0  0
  -11.6061   -4.5027    1.5898 C   0  0  0  0  0  0  0  0  0  0  0  0
  -11.5132   -4.8274    2.9003 C   0  0  0  0  0  0  0  0  0  0  0  0
  -12.6352   -4.4598    3.8182 C   0  0  0  0  0  0  0  0  0  0  0  0
  -10.4154   -5.4787    3.3710 C   0  0  0  0  0  0  0  0  0  0  0  0
  -10.3181   -5.8271    4.8206 C   0  0  0  0  0  0  0  0  0  0  0  0
   -9.3992   -5.8150    2.5361 C   0  0  0  0  0  0  0  0  0  0  0  0
   -9.4457   -5.5041    1.1772 C   0  0  0  0  0  0  0  0  0  0  0  0
   -8.4280   -5.8267    0.2551 N   0  0  0  0  0  0  0  0  0  0  0  0
   -8.4703   -5.3030   -1.0534 C   0  0  0  0  0  0  0  0  0  0  0  0
   -7.6668   -7.1138    0.4612 C   0  0  0  0  0  0  0  0  0  0  0  0
   -6.2250   -6.9800    1.0386 C   0  0  1  0  0  0  0  0  0  0  0  0
   -5.4253   -6.1815    0.1780 O   0  0  0  0  0  0  0  0  0  0  0  0
   -6.1975   -6.4694    2.4990 C   0  0  1  0  0  0  0  0  0  0  0  0
   -6.4632   -7.5396    3.4010 O   0  0  0  0  0  0  0  0  0  0  0  0
   -4.9300   -5.7025    2.9496 C   0  0  1  0  0  0  0  0  0  0  0  0
   -5.1835   -5.1262    4.2261 O   0  0  0  0  0  0  0  0  0  0  0  0
   -3.6821   -6.6082    3.0517 C   0  0  0  0  0  0  0  0  0  0  0  0
   -3.0881   -6.8598    1.7836 O   0  0  0  0  0  0  0  0  0  0  0  0
   -1.8358   -7.8131    1.5986 P   0  0  0  0  0  0  0  0  0  0  0  0
   -0.7517   -7.4503    2.5396 O   0  0  0  0  0  0  0  0  0  0  0  0
   -2.2634   -9.2267    1.5223 O   0  5  0  0  0  0  0  0  0  0  0  0
   -1.2861   -7.4375    0.1524 O   0  5  0  0  0  0  0  0  0  0  0  0
  1 18  1  0  0  0  0
  1  2  1  0  0  0  0
  2  4  1  0  0  0  0
  2  3  2  0  0  0  0
  4  5  1  0  0  0  0
  5  7  1  0  0  0  0
  5  6  2  0  0  0  0
  7 18  2  0  0  0  0
  7  8  1  0  0  0  0
  8  9  1  0  0  0  0
  9 10  2  0  0  0  0
  9 16  1  0  0  0  0
 10 11  1  0  0  0  0
 11 12  1  0  0  0  0
 11 13  2  0  0  0  0
 13 14  1  0  0  0  0
 13 15  1  0  0  0  0
 15 16  2  0  0  0  0
 16 17  1  0  0  0  0
 17 19  1  0  0  0  0
 17 18  1  0  0  0  0
 20 19  1  6  0  0  0
 20 22  1  0  0  0  0
 20 21  1  0  0  0  0
 22 24  1  0  0  0  0
 22 23  1  1  0  0  0
 24 26  1  1  0  0  0
 24 25  1  0  0  0  0
 26 27  1  0  0  0  0
 27 28  1  0  0  0  0
 28 30  1  0  0  0  0
 28 29  2  0  0  0  0
 28 31  1  0  0  0  0
M  CHG  2  30  -1  31  -1
M  END
>  <CHROM.1>
-104.42260054,-59.17765339,80.72401140,-171.77729077,170.30484709,-63.68812782
79.56693085,-174.62133224,-177.09718706,-50.77580493,-6.99903875,-5.90325859
0.84768212,-2.87250314,-0.29851434,1.74691270

>  <Name>
1fmn_cryst

>  <RI>
0

>  <Rbt.Current_Directory>
/home/itssahil/PROJECTS/Mol_Feturizer/New_Systems/rnas/1fmn

>  <Rbt.Executable>
rbdock ($Id: //depot/dev/client3/rdock/2013.1/src/exe/rbdock.cxx#4 $)

>  <Rbt.Library>
libRbt.so (2013.1, Build901 2013/11/27)

>  <Rbt.Parameter_File>
/export/apps/rDock/src/rDock_2013.1_src/data/scripts/dock_solv.prm

>  <Rbt.Receptor>
prm/pocket_docking_6.prm

>  <SCORE>
-53.0573

>  <SCORE.INTER>
-40.3099

>  <SCORE.INTER.CONST>
1

>  <SCORE.INTER.POLAR>
-0.899823

>  <SCORE.INTER.ROT>
7

>  <SCORE.INTER.SOLV>
16.0772

>  <SCORE.INTER.VDW>
-37.4996

>  <SCORE.INTER.norm>
-1.30032

>  <SCORE.INTRA>
-12.7475

>  <SCORE.INTRA.DIHEDRAL>
-8.81762

>  <SCORE.INTRA.DIHEDRAL.0>
15.5708

>  <SCORE.INTRA.POLAR>
-1.64908

>  <SCORE.INTRA.POLAR.0>
-0.0677885

>  <SCORE.INTRA.REPUL>
0

>  <SCORE.INTRA.REPUL.0>
0

>  <SCORE.INTRA.SOLV>
-3.68583

>  <SCORE.INTRA.SOLV.lig_0>
-87.6316

>  <SCORE.INTRA.VDW>
-0.888853

>  <SCORE.INTRA.VDW.0>
-2.87309

>  <SCORE.INTRA.norm>
-0.411208

>  <SCORE.RESTR>
0

>  <SCORE.RESTR.CAVITY>
0

>  <SCORE.RESTR.norm>
0

>  <SCORE.SYSTEM>
0

>  <SCORE.SYSTEM.CONST>
0

>  <SCORE.SYSTEM.DIHEDRAL>
0

>  <SCORE.SYSTEM.SOLV>
0

>  <SCORE.SYSTEM.norm>
0

>  <SCORE.heavy>
31

>  <SCORE.norm>
-1.71153

>  <SYMMETRIC_BONDS>
33 34 3

>  <RMSD>
5.059

$$$$
1fmn_cryst
 OpenBabel11021811393D
libRbt.so/2013.1/901 2013/11/27
 31 33  0  0  0  0  0  0  0  0999 V2000
   -7.4760   -5.4992   -1.9744 N   0  0  0  0  0  0  0  0  0  0  0  0
   -7.4474   -4.9602   -3.2394 C   0  0  0  0  0  0  0  0  0  0  0  0
   -6.5104   -5.1599   -4.0130 O   0  0  0  0  0  0  0  0  0  0  0  0
   -8.5611   -4.1576   -3.5932 N   0  0  0  0  0  0  0  0  0  0  0  0
   -9.6793   -3.8615   -2.7833 C   0  0  0  0  0  0  0  0  0  0  0  0
  -10.5875   -3.1439   -3.2209 O   0  0  0  0  0  0  0  0  0  0  0  0
   -9.6338   -4.4715   -1.4525 C   0  0  0  0  0  0  0  0  0  0  0  0
  -10.6850   -4.2321   -0.6029 N   0  0  0  0  0  0  0  0  0  0  0  0
  -10.5573   -4.6482    0.6906 C   0  0  0  0  0  0  0  0  0  0  0  0
  -11.5255   -4.2511    1.5957 C   0  0  0  0  0  0  0  0  0  0  0  0
  -11.4633   -4.6266    2.8943 C   0  0  0  0  0  0  0  0  0  0  0  0
  -12.5371   -4.1729    3.8311 C   0  0  0  0  0  0  0  0  0  0  0  0
  -10.4392   -5.4056    3.3364 C   0  0  0  0  0  0  0  0  0  0  0  0
  -10.3747   -5.8098    4.7733 C   0  0  0  0  0  0  0  0  0  0  0  0
   -9.4671   -5.8199    2.4843 C   0  0  0  0  0  0  0  0  0  0  0  0
   -9.4847   -5.4613    1.1365 C   0  0  0  0  0  0  0  0  0  0  0  0
   -8.5099   -5.8592    0.1977 N   0  0  0  0  0  0  0  0  0  0  0  0
   -8.5007   -5.2912   -1.0928 C   0  0  0  0  0  0  0  0  0  0  0  0
   -7.8887   -7.2256    0.3569 C   0  0  0  0  0  0  0  0  0  0  0  0
   -6.4977   -7.2758    1.0590 C   0  0  1  0  0  0  0  0  0  0  0  0
   -6.1939   -8.6077    1.4484 O   0  0  0  0  0  0  0  0  0  0  0  0
   -5.3654   -6.6430    0.2156 C   0  0  1  0  0  0  0  0  0  0  0  0
   -5.5385   -5.2311    0.1372 O   0  0  0  0  0  0  0  0  0  0  0  0
   -3.9115   -6.9733    0.6339 C   0  0  1  0  0  0  0  0  0  0  0  0
   -3.0387   -6.5650   -0.4137 O   0  0  0  0  0  0  0  0  0  0  0  0
   -3.4850   -6.2669    1.9403 C   0  0  0  0  0  0  0  0  0  0  0  0
   -2.1366   -6.5491    2.2955 O   0  0  0  0  0  0  0  0  0  0  0  0
   -1.4639   -5.9895    3.6166 P   0  0  0  0  0  0  0  0  0  0  0  0
   -0.0714   -6.4752    3.7475 O   0  0  0  0  0  0  0  0  0  0  0  0
   -1.7249   -4.5410    3.7612 O   0  5  0  0  0  0  0  0  0  0  0  0
   -2.2748   -6.7049    4.7852 O   0  5  0  0  0  0  0  0  0  0  0  0
  1 18  1  0  0  0  0
  1  2  1  0  0  0  0
  2  4  1  0  0  0  0
  2  3  2  0  0  0  0
  4  5  1  0  0  0  0
  5  7  1  0  0  0  0
  5  6  2  0  0  0  0
  7 18  2  0  0  0  0
  7  8  1  0  0  0  0
  8  9  1  0  0  0  0
  9 10  2  0  0  0  0
  9 16  1  0  0  0  0
 10 11  1  0  0  0  0
 11 12  1  0  0  0  0
 11 13  2  0  0  0  0
 13 14  1  0  0  0  0
 13 15  1  0  0  0  0
 15 16  2  0  0  0  0
 16 17  1  0  0  0  0
 17 19  1  0  0  0  0
 17 18  1  0  0  0  0
 20 19  1  6  0  0  0
 20 22  1  0  0  0  0
 20 21  1  0  0  0  0
 22 24  1  0  0  0  0
 22 23  1  1  0  0  0
 24 26  1  1  0  0  0
 24 25  1  0  0  0  0
 26 27  1  0  0  0  0
 27 28  1  0  0  0  0
 28 30  1  0  0  0  0
 28 29  2  0  0  0  0
 28 31  1  0  0  0  0
M  CHG  2  30  -1  31  -1
M  END
>  <CHROM.1>
-98.54244273,165.06686740,69.51350037,56.31640557,166.99423723,56.27671404
-178.41811338,-66.78358829,-177.89698747,178.31849942,-6.79339953,-5.59294126
0.85792275,-2.75512849,-0.16869751,1.67962800

>  <Name>
1fmn_cryst

>  <RI>
0

>  <Rbt.Current_Directory>
/home/itssahil/PROJECTS/Mol_Feturizer/New_Systems/rnas/1fmn

>  <Rbt.Executable>
rbdock ($Id: //depot/dev/client3/rdock/2013.1/src/exe/rbdock.cxx#4 $)

>  <Rbt.Library>
libRbt.so (2013.1, Build901 2013/11/27)

>  <Rbt.Parameter_File>
/export/apps/rDock/src/rDock_2013.1_src/data/scripts/dock_solv.prm

>  <Rbt.Receptor>
prm/pocket_docking_6.prm

>  <SCORE>
-57.9669

>  <SCORE.INTER>
-51.0445

>  <SCORE.INTER.CONST>
1

>  <SCORE.INTER.POLAR>
-3.13202

>  <SCORE.INTER.ROT>
7

>  <SCORE.INTER.SOLV>
18.924

>  <SCORE.INTER.VDW>
-38.1642

>  <SCORE.INTER.norm>
-1.6466

>  <SCORE.INTRA>
-6.97498

>  <SCORE.INTRA.DIHEDRAL>
-10.6126

>  <SCORE.INTRA.DIHEDRAL.0>
15.5708

>  <SCORE.INTRA.POLAR>
-0.020743

>  <SCORE.INTRA.POLAR.0>
-0.0677885

>  <SCORE.INTRA.REPUL>
0

>  <SCORE.INTRA.REPUL.0>
0

>  <SCORE.INTRA.SOLV>
-4.06141

>  <SCORE.INTRA.SOLV.lig_0>
-87.6316

>  <SCORE.INTRA.VDW>
0.432528

>  <SCORE.INTRA.VDW.0>
-2.87309

>  <SCORE.INTRA.norm>
-0.224999

>  <SCORE.RESTR>
0.0525189

>  <SCORE.RESTR.CAVITY>
0.0525189

>  <SCORE.RESTR.norm>
0.00169416

>  <SCORE.SYSTEM>
0

>  <SCORE.SYSTEM.CONST>
0

>  <SCORE.SYSTEM.DIHEDRAL>
0

>  <SCORE.SYSTEM.SOLV>
0

>  <SCORE.SYSTEM.norm>
0

>  <SCORE.heavy>
31

>  <SCORE.norm>
-1.8699

>  <SYMMETRIC_BONDS>
33 34 3

>  <RMSD>
5.059

$$$$
1fmn_cryst
 OpenBabel11021811393D
libRbt.so/2013.1/901 2013/11/27
 31 33  0  0  0  0  0  0  0  0999 V2000
   -7.1450   -5.6721   -1.7917 N   0  0  0  0  0  0  0  0  0  0  0  0
   -7.1433   -5.2378   -3.0967 C   0  0  0  0  0  0  0  0  0  0  0  0
   -6.1653   -5.3816   -3.8311 O   0  0  0  0  0  0  0  0  0  0  0  0
   -8.3350   -4.6110   -3.5398 N   0  0  0  0  0  0  0  0  0  0  0  0
   -9.5056   -4.3915   -2.7811 C   0  0  0  0  0  0  0  0  0  0  0  0
  -10.4806   -3.8301   -3.2964 O   0  0  0  0  0  0  0  0  0  0  0  0
   -9.4273   -4.8814   -1.4031 C   0  0  0  0  0  0  0  0  0  0  0  0
  -10.5257   -4.7065   -0.5987 N   0  0  0  0  0  0  0  0  0  0  0  0
  -10.3883   -4.9975    0.7276 C   0  0  0  0  0  0  0  0  0  0  0  0
  -11.4254   -4.6518    1.5758 C   0  0  0  0  0  0  0  0  0  0  0  0
  -11.3582   -4.9103    2.9024 C   0  0  0  0  0  0  0  0  0  0  0  0
  -12.5078   -4.5191    3.7751 C   0  0  0  0  0  0  0  0  0  0  0  0
  -10.2608   -5.5177    3.4297 C   0  0  0  0  0  0  0  0  0  0  0  0
  -10.1921   -5.7932    4.8965 C   0  0  0  0  0  0  0  0  0  0  0  0
   -9.2194   -5.8756    2.6358 C   0  0  0  0  0  0  0  0  0  0  0  0
   -9.2388   -5.6323    1.2625 C   0  0  0  0  0  0  0  0  0  0  0  0
   -8.1941   -5.9807    0.3810 N   0  0  0  0  0  0  0  0  0  0  0  0
   -8.2143   -5.5223   -0.9522 C   0  0  0  0  0  0  0  0  0  0  0  0
   -7.4160   -7.2420    0.6676 C   0  0  0  0  0  0  0  0  0  0  0  0
   -5.8687   -7.0899    0.7803 C   0  0  1  0  0  0  0  0  0  0  0  0
   -5.5391   -5.8047    1.2879 O   0  0  0  0  0  0  0  0  0  0  0  0
   -5.2015   -8.2254    1.5924 C   0  0  1  0  0  0  0  0  0  0  0  0
   -4.9317   -9.3419    0.7497 O   0  0  0  0  0  0  0  0  0  0  0  0
   -3.9335   -7.8569    2.4014 C   0  0  1  0  0  0  0  0  0  0  0  0
   -3.5767   -8.9723    3.2104 O   0  0  0  0  0  0  0  0  0  0  0  0
   -2.7313   -7.4892    1.5030 C   0  0  0  0  0  0  0  0  0  0  0  0
   -1.5309   -7.3144    2.2463 O   0  0  0  0  0  0  0  0  0  0  0  0
   -0.1495   -6.9395    1.5663 P   0  0  0  0  0  0  0  0  0  0  0  0
   -0.2521   -5.6578    0.8323 O   0  0  0  0  0  0  0  0  0  0  0  0
    0.9670   -7.1225    2.5187 O   0  5  0  0  0  0  0  0  0  0  0  0
    0.0353   -8.0563    0.4467 O   0  5  0  0  0  0  0  0  0  0  0  0
  1 18  1  0  0  0  0
  1  2  1  0  0  0  0
  2  4  1  0  0  0  0
  2  3  2  0  0  0  0
  4  5  1  0  0  0  0
  5  7  1  0  0  0  0
  5  6  2  0  0  0  0
  7 18  2  0  0  0  0
  7  8  1  0  0  0  0
  8  9  1  0  0  0  0
  9 10  2  0  0  0  0
  9 16  1  0  0  0  0
 10 11  1  0  0  0  0
 11 12  1  0  0  0  0
 11 13  2  0  0  0  0
 13 14  1  0  0  0  0
 13 15  1  0  0  0  0
 15 16  2  0  0  0  0
 16 17  1  0  0  0  0
 17 19  1  0  0  0  0
 17 18  1  0  0  0  0
 20 19  1  1  0  0  0
 20 22  1  0  0  0  0
 20 21  1  0  0  0  0
 22 24  1  0  0  0  0
 22 23  1  6  0  0  0
 24 26  1  6  0  0  0
 24 25  1  0  0  0  0
 26 27  1  0  0  0  0
 27 28  1  0  0  0  0
 28 30  1  0  0  0  0
 28 29  2  0  0  0  0
 28 31  1  0  0  0  0
M  CHG  2  30  -1  31  -1
M  END
>  <CHROM.1>
-125.31693946,30.95999569,85.48461397,-173.88824285,172.38053102,-61.66206169
-172.69907902,58.16106350,179.73382975,59.05912017,-6.31620671,-6.19369528
0.68726702,-2.95305544,-0.22845021,1.80817484

>  <Name>
1fmn_cryst

>  <RI>
0

>  <Rbt.Current_Directory>
/home/itssahil/PROJECTS/Mol_Feturizer/New_Systems/rnas/1fmn

>  <Rbt.Executable>
rbdock ($Id: //depot/dev/client3/rdock/2013.1/src/exe/rbdock.cxx#4 $)

>  <Rbt.Library>
libRbt.so (2013.1, Build901 2013/11/27)

>  <Rbt.Parameter_File>
/export/apps/rDock/src/rDock_2013.1_src/data/scripts/dock_solv.prm

>  <Rbt.Receptor>
prm/pocket_docking_8.prm

>  <SCORE>
-46.7745

>  <SCORE.INTER>
-41.9733

>  <SCORE.INTER.CONST>
1

>  <SCORE.INTER.POLAR>
-1.40907

>  <SCORE.INTER.ROT>
7

>  <SCORE.INTER.SOLV>
15.9726

>  <SCORE.INTER.VDW>
-36.8761

>  <SCORE.INTER.norm>
-1.35398

>  <SCORE.INTRA>
-4.80126

>  <SCORE.INTRA.DIHEDRAL>
-8.13276

>  <SCORE.INTRA.DIHEDRAL.0>
15.5708

>  <SCORE.INTRA.POLAR>
0.0626663

>  <SCORE.INTRA.POLAR.0>
-0.0677885

>  <SCORE.INTRA.REPUL>
0

>  <SCORE.INTRA.REPUL.0>
0

>  <SCORE.INTRA.SOLV>
-4.50317

>  <SCORE.INTRA.SOLV.lig_0>
-87.6316

>  <SCORE.INTRA.VDW>
1.30364

>  <SCORE.INTRA.VDW.0>
-2.87309

>  <SCORE.INTRA.norm>
-0.154879

>  <SCORE.RESTR>
0

>  <SCORE.RESTR.CAVITY>
0

>  <SCORE.RESTR.norm>
0

>  <SCORE.SYSTEM>
0

>  <SCORE.SYSTEM.CONST>
0

>  <SCORE.SYSTEM.DIHEDRAL>
0

>  <SCORE.SYSTEM.SOLV>
0

>  <SCORE.SYSTEM.norm>
0

>  <SCORE.heavy>
31

>  <SCORE.norm>
-1.50886

>  <SYMMETRIC_BONDS>
33 34 3

>  <RMSD>
5.083

$$$$
1fmn_cryst
 OpenBabel11021811393D
libRbt.so/2013.1/901 2013/11/27
 31 33  0  0  0  0  0  0  0  0999 V2000
   -8.5080   -4.7191    0.7715 N   0  0  0  0  0  0  0  0  0  0  0  0
   -7.4139   -5.4242    0.3272 C   0  0  0  0  0  0  0  0  0  0  0  0
   -6.5259   -5.8017    1.0924 O   0  0  0  0  0  0  0  0  0  0  0  0
   -7.3713   -5.6837   -1.0657 N   0  0  0  0  0  0  0  0  0  0  0  0
   -8.3291   -5.2925   -2.0269 C   0  0  0  0  0  0  0  0  0  0  0  0
   -8.1676   -5.5887   -3.2174 O   0  0  0  0  0  0  0  0  0  0  0  0
   -9.4618   -4.5460   -1.4747 C   0  0  0  0  0  0  0  0  0  0  0  0
  -10.4382   -4.1291   -2.3448 N   0  0  0  0  0  0  0  0  0  0  0  0
  -11.3941   -3.2836   -1.8611 C   0  0  0  0  0  0  0  0  0  0  0  0
  -12.2705   -2.7132   -2.7672 C   0  0  0  0  0  0  0  0  0  0  0  0
  -13.2437   -1.8661   -2.3589 C   0  0  0  0  0  0  0  0  0  0  0  0
  -14.1669   -1.2791   -3.3785 C   0  0  0  0  0  0  0  0  0  0  0  0
  -13.3774   -1.5568   -1.0407 C   0  0  0  0  0  0  0  0  0  0  0  0
  -14.4502   -0.6153   -0.5995 C   0  0  0  0  0  0  0  0  0  0  0  0
  -12.5410   -2.0932   -0.1157 C   0  0  0  0  0  0  0  0  0  0  0  0
  -11.5221   -2.9717   -0.4839 C   0  0  0  0  0  0  0  0  0  0  0  0
  -10.6218   -3.5667    0.4246 N   0  0  0  0  0  0  0  0  0  0  0  0
   -9.5067   -4.2838   -0.0553 C   0  0  0  0  0  0  0  0  0  0  0  0
  -11.1335   -3.9218    1.7996 C   0  0  0  0  0  0  0  0  0  0  0  0
  -11.0035   -5.4169    2.2214 C   0  0  1  0  0  0  0  0  0  0  0  0
  -10.3632   -6.1611    1.1947 O   0  0  0  0  0  0  0  0  0  0  0  0
  -10.3144   -5.6060    3.5938 C   0  0  1  0  0  0  0  0  0  0  0  0
  -11.1427   -6.3763    4.4599 O   0  0  0  0  0  0  0  0  0  0  0  0
   -8.8789   -6.1865    3.5833 C   0  0  1  0  0  0  0  0  0  0  0  0
   -7.9724   -5.1376    3.2608 O   0  0  0  0  0  0  0  0  0  0  0  0
   -8.4671   -6.8002    4.9403 C   0  0  0  0  0  0  0  0  0  0  0  0
   -7.0578   -6.9524    5.0625 O   0  0  0  0  0  0  0  0  0  0  0  0
   -6.3743   -7.6080    6.3331 P   0  0  0  0  0  0  0  0  0  0  0  0
   -6.5258   -6.7391    7.5223 O   0  0  0  0  0  0  0  0  0  0  0  0
   -6.7458   -9.0349    6.4469 O   0  5  0  0  0  0  0  0  0  0  0  0
   -4.8216   -7.5808    5.9824 O   0  5  0  0  0  0  0  0  0  0  0  0
  1 18  1  0  0  0  0
  1  2  1  0  0  0  0
  2  4  1  0  0  0  0
  2  3  2  0  0  0  0
  4  5  1  0  0  0  0
  5  7  1  0  0  0  0
  5  6  2  0  0  0  0
  7 18  2  0  0  0  0
  7  8  1  0  0  0  0
  8  9  1  0  0  0  0
  9 10  2  0  0  0  0
  9 16  1  0  0  0  0
 10 11  1  0  0  0  0
 11 12  1  0  0  0  0
 11 13  2  0  0  0  0
 13 14  1  0  0  0  0
 13 15  1  0  0  0  0
 15 16  2  0  0  0  0
 16 17  1  0  0  0  0
 17 19  1  0  0  0  0
 17 18  1  0  0  0  0
 20 19  1  6  0  0  0
 20 22  1  0  0  0  0
 20 21  1  0  0  0  0
 22 24  1  0  0  0  0
 22 23  1  1  0  0  0
 24 26  1  1  0  0  0
 24 25  1  0  0  0  0
 26 27  1  0  0  0  0
 27 28  1  0  0  0  0
 28 30  1  0  0  0  0
 28 29  2  0  0  0  0
 28 31  1  0  0  0  0
M  CHG  2  30  -1  31  -1
M  END
>  <CHROM.1>
122.37420460,1.90913558,125.28789556,159.92232870,79.77123893,-98.05986468
-161.88861127,-177.94446404,-177.64038077,-68.49683055,-9.44873767,-5.01654185
1.51781558,-2.21002681,-0.51873892,1.77921474

>  <Name>
1fmn_cryst

>  <RI>
0

>  <Rbt.Current_Directory>
/home/itssahil/PROJECTS/Mol_Feturizer/New_Systems/rnas/1fmn

>  <Rbt.Executable>
rbdock ($Id: //depot/dev/client3/rdock/2013.1/src/exe/rbdock.cxx#4 $)

>  <Rbt.Library>
libRbt.so (2013.1, Build901 2013/11/27)

>  <Rbt.Parameter_File>
/export/apps/rDock/src/rDock_2013.1_src/data/scripts/dock_solv.prm

>  <Rbt.Receptor>
prm/pocket_docking_8.prm

>  <SCORE>
-38.3662

>  <SCORE.INTER>
-42.5341

>  <SCORE.INTER.CONST>
1

>  <SCORE.INTER.POLAR>
-2.94966

>  <SCORE.INTER.ROT>
7

>  <SCORE.INTER.SOLV>
30.1662

>  <SCORE.INTER.VDW>
-36.8459

>  <SCORE.INTER.norm>
-1.37207

>  <SCORE.INTRA>
4.16784

>  <SCORE.INTRA.DIHEDRAL>
5.80818

>  <SCORE.INTRA.DIHEDRAL.0>
15.5708

>  <SCORE.INTRA.POLAR>
-0.824323

>  <SCORE.INTRA.POLAR.0>
-0.0677885

>  <SCORE.INTRA.REPUL>
0.0526063

>  <SCORE.INTRA.REPUL.0>
0

>  <SCORE.INTRA.SOLV>
-0.923321

>  <SCORE.INTRA.SOLV.lig_0>
-87.6316

>  <SCORE.INTRA.VDW>
4.26508

>  <SCORE.INTRA.VDW.0>
-2.87309

>  <SCORE.INTRA.norm>
0.134446

>  <SCORE.RESTR>
0

>  <SCORE.RESTR.CAVITY>
0

>  <SCORE.RESTR.norm>
0

>  <SCORE.SYSTEM>
0

>  <SCORE.SYSTEM.CONST>
0

>  <SCORE.SYSTEM.DIHEDRAL>
0

>  <SCORE.SYSTEM.SOLV>
0

>  <SCORE.SYSTEM.norm>
0

>  <SCORE.heavy>
31

>  <SCORE.norm>
-1.23762

>  <SYMMETRIC_BONDS>
33 34 3

>  <RMSD>
5.101

$$$$
1fmn_cryst
 OpenBabel11021811393D
libRbt.so/2013.1/901 2013/11/27
 31 33  0  0  0  0  0  0  0  0999 V2000
   -6.4129   -6.0380    0.8164 N   0  0  0  0  0  0  0  0  0  0  0  0
   -5.4358   -6.3442   -0.1018 C   0  0  0  0  0  0  0  0  0  0  0  0
   -4.3768   -6.8804    0.2262 O   0  0  0  0  0  0  0  0  0  0  0  0
   -5.7231   -5.9993   -1.4464 N   0  0  0  0  0  0  0  0  0  0  0  0
   -6.8977   -5.3794   -1.9263 C   0  0  0  0  0  0  0  0  0  0  0  0
   -7.0194   -5.1350   -3.1333 O   0  0  0  0  0  0  0  0  0  0  0  0
   -7.8875   -5.0855   -0.8875 C   0  0  0  0  0  0  0  0  0  0  0  0
   -9.0589   -4.4824   -1.2725 N   0  0  0  0  0  0  0  0  0  0  0  0
   -9.8972   -4.0474   -0.2873 C   0  0  0  0  0  0  0  0  0  0  0  0
  -10.9855   -3.2777   -0.6581 C   0  0  0  0  0  0  0  0  0  0  0  0
  -11.8587   -2.8124    0.2651 C   0  0  0  0  0  0  0  0  0  0  0  0
  -13.0206   -1.9875   -0.1888 C   0  0  0  0  0  0  0  0  0  0  0  0
  -11.6796   -3.0940    1.5841 C   0  0  0  0  0  0  0  0  0  0  0  0
  -12.6447   -2.5705    2.5973 C   0  0  0  0  0  0  0  0  0  0  0  0
  -10.6266   -3.8460    1.9944 C   0  0  0  0  0  0  0  0  0  0  0  0
   -9.6982   -4.3500    1.0836 C   0  0  0  0  0  0  0  0  0  0  0  0
   -8.5852   -5.1396    1.4411 N   0  0  0  0  0  0  0  0  0  0  0  0
   -7.5961   -5.4391    0.4820 C   0  0  0  0  0  0  0  0  0  0  0  0
   -8.7366   -6.0941    2.6006 C   0  0  0  0  0  0  0  0  0  0  0  0
   -7.5872   -6.0911    3.6537 C   0  0  1  0  0  0  0  0  0  0  0  0
   -6.9331   -4.8301    3.6607 O   0  0  0  0  0  0  0  0  0  0  0  0
   -8.0537   -6.5130    5.0674 C   0  0  1  0  0  0  0  0  0  0  0  0
   -9.4536   -6.2913    5.2116 O   0  0  0  0  0  0  0  0  0  0  0  0
   -7.6977   -7.9493    5.5234 C   0  0  1  0  0  0  0  0  0  0  0  0
   -6.3545   -8.2226    5.1398 O   0  0  0  0  0  0  0  0  0  0  0  0
   -7.8289   -8.1467    7.0503 C   0  0  0  0  0  0  0  0  0  0  0  0
   -7.6563   -9.5042    7.4396 O   0  0  0  0  0  0  0  0  0  0  0  0
   -7.7327   -9.9784    8.9497 P   0  0  0  0  0  0  0  0  0  0  0  0
   -8.7224  -11.0675    9.1124 O   0  0  0  0  0  0  0  0  0  0  0  0
   -6.3755  -10.1661    9.5065 O   0  5  0  0  0  0  0  0  0  0  0  0
   -8.3534   -8.7237    9.7082 O   0  5  0  0  0  0  0  0  0  0  0  0
  1 18  1  0  0  0  0
  1  2  1  0  0  0  0
  2  4  1  0  0  0  0
  2  3  2  0  0  0  0
  4  5  1  0  0  0  0
  5  7  1  0  0  0  0
  5  6  2  0  0  0  0
  7 18  2  0  0  0  0
  7  8  1  0  0  0  0
  8  9  1  0  0  0  0
  9 10  2  0  0  0  0
  9 16  1  0  0  0  0
 10 11  1  0  0  0  0
 11 12  1  0  0  0  0
 11 13  2  0  0  0  0
 13 14  1  0  0  0  0
 13 15  1  0  0  0  0
 15 16  2  0  0  0  0
 16 17  1  0  0  0  0
 17 19  1  0  0  0  0
 17 18  1  0  0  0  0
 20 19  1  6  0  0  0
 20 22  1  0  0  0  0
 20 21  1  0  0  0  0
 22 24  1  0  0  0  0
 22 23  1  6  0  0  0
 24 26  1  1  0  0  0
 24 25  1  0  0  0  0
 26 27  1  0  0  0  0
 27 28  1  0  0  0  0
 28 30  1  0  0  0  0
 28 29  2  0  0  0  0
 28 31  1  0  0  0  0
M  CHG  2  30  -1  31  -1
M  END
>  <CHROM.1>
-133.38736377,25.93258136,-23.18896887,-75.03602873,42.74797189,-52.43141715
172.95126640,-172.39135085,179.60453639,125.63489651,-8.32523496,-6.24435839
3.08588101,-1.74018448,-0.53419210,2.01897318

>  <Name>
1fmn_cryst

>  <RI>
0

>  <Rbt.Current_Directory>
/home/itssahil/PROJECTS/Mol_Feturizer/New_Systems/rnas/1fmn

>  <Rbt.Executable>
rbdock ($Id: //depot/dev/client3/rdock/2013.1/src/exe/rbdock.cxx#4 $)

>  <Rbt.Library>
libRbt.so (2013.1, Build901 2013/11/27)

>  <Rbt.Parameter_File>
/export/apps/rDock/src/rDock_2013.1_src/data/scripts/dock_solv.prm

>  <Rbt.Receptor>
prm/pocket_docking_7.prm

>  <SCORE>
-30.502

>  <SCORE.INTER>
-30.7087

>  <SCORE.INTER.CONST>
1

>  <SCORE.INTER.POLAR>
-3.78542

>  <SCORE.INTER.ROT>
7

>  <SCORE.INTER.SOLV>
28.5681

>  <SCORE.INTER.VDW>
-25.6437

>  <SCORE.INTER.norm>
-0.990602

>  <SCORE.INTRA>
0.0282651

>  <SCORE.INTRA.DIHEDRAL>
-2.13919

>  <SCORE.INTRA.DIHEDRAL.0>
15.5708

>  <SCORE.INTRA.POLAR>
0.0677885

>  <SCORE.INTRA.POLAR.0>
-0.0677885

>  <SCORE.INTRA.REPUL>
0

>  <SCORE.INTRA.REPUL.0>
0

>  <SCORE.INTRA.SOLV>
-4.20895

>  <SCORE.INTRA.SOLV.lig_0>
-87.6316

>  <SCORE.INTRA.VDW>
2.97185

>  <SCORE.INTRA.VDW.0>
-2.87309

>  <SCORE.INTRA.norm>
0.000911779

>  <SCORE.RESTR>
0.178359

>  <SCORE.RESTR.CAVITY>
0.178359

>  <SCORE.RESTR.norm>
0.00575351

>  <SCORE.SYSTEM>
0

>  <SCORE.SYSTEM.CONST>
0

>  <SCORE.SYSTEM.DIHEDRAL>
0

>  <SCORE.SYSTEM.SOLV>
0

>  <SCORE.SYSTEM.norm>
0

>  <SCORE.heavy>
31

>  <SCORE.norm>
-0.983937

>  <SYMMETRIC_BONDS>
33 34 3

>  <RMSD>
5.108

$$$$
1fmn_cryst
 OpenBabel11021811393D
libRbt.so/2013.1/901 2013/11/27
 31 33  0  0  0  0  0  0  0  0999 V2000
   -7.2307   -5.2106   -2.0232 N   0  0  0  0  0  0  0  0  0  0  0  0
   -7.3284   -4.6960   -3.2949 C   0  0  0  0  0  0  0  0  0  0  0  0
   -6.3915   -4.7452   -4.0926 O   0  0  0  0  0  0  0  0  0  0  0  0
   -8.5722   -4.1022   -3.6262 N   0  0  0  0  0  0  0  0  0  0  0  0
   -9.7031   -3.9885   -2.7882 C   0  0  0  0  0  0  0  0  0  0  0  0
  -10.7322   -3.4447   -3.2083 O   0  0  0  0  0  0  0  0  0  0  0  0
   -9.5186   -4.5592   -1.4520 C   0  0  0  0  0  0  0  0  0  0  0  0
  -10.5728   -4.4893   -0.5756 N   0  0  0  0  0  0  0  0  0  0  0  0
  -10.3416   -4.8555    0.7187 C   0  0  0  0  0  0  0  0  0  0  0  0
  -11.3396   -4.6149    1.6463 C   0  0  0  0  0  0  0  0  0  0  0  0
  -11.1799   -4.9523    2.9471 C   0  0  0  0  0  0  0  0  0  0  0  0
  -12.2908   -4.6736    3.9087 C   0  0  0  0  0  0  0  0  0  0  0  0
  -10.0260   -5.5367    3.3690 C   0  0  0  0  0  0  0  0  0  0  0  0
   -9.8554   -5.8996    4.8082 C   0  0  0  0  0  0  0  0  0  0  0  0
   -9.0197   -5.7925    2.4944 C   0  0  0  0  0  0  0  0  0  0  0  0
   -9.1340   -5.4650    1.1434 C   0  0  0  0  0  0  0  0  0  0  0  0
   -8.1302   -5.7058    0.1819 N   0  0  0  0  0  0  0  0  0  0  0  0
   -8.2525   -5.1665   -1.1151 C   0  0  0  0  0  0  0  0  0  0  0  0
   -7.2796   -6.9426    0.3398 C   0  0  0  0  0  0  0  0  0  0  0  0
   -6.1141   -6.8538    1.3713 C   0  0  1  0  0  0  0  0  0  0  0  0
   -5.3033   -8.0177    1.2950 O   0  0  0  0  0  0  0  0  0  0  0  0
   -5.2825   -5.5554    1.2421 C   0  0  1  0  0  0  0  0  0  0  0  0
   -5.8498   -4.5241    2.0447 O   0  0  0  0  0  0  0  0  0  0  0  0
   -3.7634   -5.6653    1.5214 C   0  0  1  0  0  0  0  0  0  0  0  0
   -3.1838   -4.3743    1.3682 O   0  0  0  0  0  0  0  0  0  0  0  0
   -3.4479   -6.1869    2.9412 C   0  0  0  0  0  0  0  0  0  0  0  0
   -2.9831   -5.1582    3.8072 O   0  0  0  0  0  0  0  0  0  0  0  0
   -3.8155   -4.6486    5.0556 P   0  0  0  0  0  0  0  0  0  0  0  0
   -5.2245   -4.3900    4.6816 O   0  0  0  0  0  0  0  0  0  0  0  0
   -3.5404   -5.4864    6.2428 O   0  5  0  0  0  0  0  0  0  0  0  0
   -3.1897   -3.2182    5.3678 O   0  5  0  0  0  0  0  0  0  0  0  0
  1 18  1  0  0  0  0
  1  2  1  0  0  0  0
  2  4  1  0  0  0  0
  2  3  2  0  0  0  0
  4  5  1  0  0  0  0
  5  7  1  0  0  0  0
  5  6  2  0  0  0  0
  7 18  2  0  0  0  0
  7  8  1  0  0  0  0
  8  9  1  0  0  0  0
  9 10  2  0  0  0  0
  9 16  1  0  0  0  0
 10 11  1  0  0  0  0
 11 12  1  0  0  0  0
 11 13  2  0  0  0  0
 13 14  1  0  0  0  0
 13 15  1  0  0  0  0
 15 16  2  0  0  0  0
 16 17  1  0  0  0  0
 17 19  1  0  0  0  0
 17 18  1  0  0  0  0
 20 19  1  6  0  0  0
 20 22  1  0  0  0  0
 20 21  1  0  0  0  0
 22 24  1  0  0  0  0
 22 23  1  1  0  0  0
 24 26  1  1  0  0  0
 24 25  1  0  0  0  0
 26 27  1  0  0  0  0
 27 28  1  0  0  0  0
 28 30  1  0  0  0  0
 28 29  2  0  0  0  0
 28 31  1  0  0  0  0
M  CHG  2  30  -1  31  -1
M  END
>  <CHROM.1>
-80.01625318,-172.75704802,88.65354735,-166.35632117,-179.29944427,67.16375953
-105.68441161,-56.09710859,112.82821828,-47.45337869,-7.09337966,-5.09817923
1.37942008,-2.33751785,-0.03523567,1.60917658

>  <Name>
1fmn_cryst

>  <RI>
0

>  <Rbt.Current_Directory>
/home/itssahil/PROJECTS/Mol_Feturizer/New_Systems/rnas/1fmn

>  <Rbt.Executable>
rbdock ($Id: //depot/dev/client3/rdock/2013.1/src/exe/rbdock.cxx#4 $)

>  <Rbt.Library>
libRbt.so (2013.1, Build901 2013/11/27)

>  <Rbt.Parameter_File>
/export/apps/rDock/src/rDock_2013.1_src/data/scripts/dock_solv.prm

>  <Rbt.Receptor>
prm/pocket_docking_8.prm

>  <SCORE>
-46.4381

>  <SCORE.INTER>
-43.9227

>  <SCORE.INTER.CONST>
1

>  <SCORE.INTER.POLAR>
-2.27862

>  <SCORE.INTER.ROT>
7

>  <SCORE.INTER.SOLV>
22.6594

>  <SCORE.INTER.VDW>
-37.5062

>  <SCORE.INTER.norm>
-1.41686

>  <SCORE.INTRA>
-2.51536

>  <SCORE.INTRA.DIHEDRAL>
2.56088

>  <SCORE.INTRA.DIHEDRAL.0>
15.5708

>  <SCORE.INTRA.POLAR>
-1.21932

>  <SCORE.INTRA.POLAR.0>
-0.0677885

>  <SCORE.INTRA.REPUL>
0

>  <SCORE.INTRA.REPUL.0>
0

>  <SCORE.INTRA.SOLV>
0.296943

>  <SCORE.INTRA.SOLV.lig_0>
-87.6316

>  <SCORE.INTRA.VDW>
0.2014

>  <SCORE.INTRA.VDW.0>
-2.87309

>  <SCORE.INTRA.norm>
-0.0811408

>  <SCORE.RESTR>
0

>  <SCORE.RESTR.CAVITY>
0

>  <SCORE.RESTR.norm>
0

>  <SCORE.SYSTEM>
0

>  <SCORE.SYSTEM.CONST>
0

>  <SCORE.SYSTEM.DIHEDRAL>
0

>  <SCORE.SYSTEM.SOLV>
0

>  <SCORE.SYSTEM.norm>
0

>  <SCORE.heavy>
31

>  <SCORE.norm>
-1.498

>  <SYMMETRIC_BONDS>
33 34 3

>  <RMSD>
5.116

$$$$
1fmn_cryst
 OpenBabel11021811393D
libRbt.so/2013.1/901 2013/11/27
 31 33  0  0  0  0  0  0  0  0999 V2000
   -7.8532   -4.7000   -2.2739 N   0  0  0  0  0  0  0  0  0  0  0  0
   -8.0777   -4.1525   -3.5154 C   0  0  0  0  0  0  0  0  0  0  0  0
   -7.2002   -4.1098   -4.3783 O   0  0  0  0  0  0  0  0  0  0  0  0
   -9.3797   -3.6371   -3.7360 N   0  0  0  0  0  0  0  0  0  0  0  0
  -10.4517   -3.6304   -2.8168 C   0  0  0  0  0  0  0  0  0  0  0  0
  -11.5432   -3.1468   -3.1428 O   0  0  0  0  0  0  0  0  0  0  0  0
  -10.1323   -4.2298   -1.5192 C   0  0  0  0  0  0  0  0  0  0  0  0
  -11.1222   -4.2626   -0.5688 N   0  0  0  0  0  0  0  0  0  0  0  0
  -10.7732   -4.6535    0.6913 C   0  0  0  0  0  0  0  0  0  0  0  0
  -11.7151   -4.5139    1.6952 C   0  0  0  0  0  0  0  0  0  0  0  0
  -11.4387   -4.8814    2.9680 C   0  0  0  0  0  0  0  0  0  0  0  0
  -12.4930   -4.7127    4.0151 C   0  0  0  0  0  0  0  0  0  0  0  0
  -10.2202   -5.3966    3.2855 C   0  0  0  0  0  0  0  0  0  0  0  0
   -9.9211   -5.7932    4.6946 C   0  0  0  0  0  0  0  0  0  0  0  0
   -9.2652   -5.5526    2.3334 C   0  0  0  0  0  0  0  0  0  0  0  0
   -9.4993   -5.1902    1.0070 C   0  0  0  0  0  0  0  0  0  0  0  0
   -8.5542   -5.3285   -0.0311 N   0  0  0  0  0  0  0  0  0  0  0  0
   -8.8068   -4.7572   -1.2952 C   0  0  0  0  0  0  0  0  0  0  0  0
   -7.6125   -6.5070    0.0202 C   0  0  0  0  0  0  0  0  0  0  0  0
   -6.2249   -6.2555    0.6845 C   0  0  1  0  0  0  0  0  0  0  0  0
   -6.1924   -4.9644    1.2762 O   0  0  0  0  0  0  0  0  0  0  0  0
   -5.8167   -7.3642    1.6836 C   0  0  1  0  0  0  0  0  0  0  0  0
   -5.7734   -8.6280    1.0275 O   0  0  0  0  0  0  0  0  0  0  0  0
   -4.5097   -7.1405    2.4834 C   0  0  1  0  0  0  0  0  0  0  0  0
   -4.2650   -8.2965    3.2768 O   0  0  0  0  0  0  0  0  0  0  0  0
   -3.2836   -6.8908    1.5767 C   0  0  0  0  0  0  0  0  0  0  0  0
   -2.1014   -6.6253    2.3223 O   0  0  0  0  0  0  0  0  0  0  0  0
   -0.7188   -6.2663    1.6363 P   0  0  0  0  0  0  0  0  0  0  0  0
   -0.2813   -7.3513    0.7289 O   0  0  0  0  0  0  0  0  0  0  0  0
   -0.7356   -4.8789    1.1245 O   0  5  0  0  0  0  0  0  0  0  0  0
    0.3171   -6.2802    2.8453 O   0  5  0  0  0  0  0  0  0  0  0  0
  1 18  1  0  0  0  0
  1  2  1  0  0  0  0
  2  4  1  0  0  0  0
  2  3  2  0  0  0  0
  4  5  1  0  0  0  0
  5  7  1  0  0  0  0
  5  6  2  0  0  0  0
  7 18  2  0  0  0  0
  7  8  1  0  0  0  0
  8  9  1  0  0  0  0
  9 10  2  0  0  0  0
  9 16  1  0  0  0  0
 10 11  1  0  0  0  0
 11 12  1  0  0  0  0
 11 13  2  0  0  0  0
 13 14  1  0  0  0  0
 13 15  1  0  0  0  0
 15 16  2  0  0  0  0
 16 17  1  0  0  0  0
 17 19  1  0  0  0  0
 17 18  1  0  0  0  0
 20 19  1  1  0  0  0
 20 22  1  0  0  0  0
 20 21  1  0  0  0  0
 22 24  1  0  0  0  0
 22 23  1  6  0  0  0
 24 26  1  6  0  0  0
 24 25  1  0  0  0  0
 26 27  1  0  0  0  0
 27 28  1  0  0  0  0
 28 30  1  0  0  0  0
 28 29  2  0  0  0  0
 28 31  1  0  0  0  0
M  CHG  2  30  -1  31  -1
M  END
>  <CHROM.1>
-94.24692077,7.48170174,58.61363485,-67.68627434,-176.39539221,61.87722731
177.27387326,61.95029620,-176.95594498,-58.94721413,-6.83724666,-5.56267516
0.63554302,-2.84335236,-0.17110312,1.87698139

>  <Name>
1fmn_cryst

>  <RI>
0

>  <Rbt.Current_Directory>
/home/itssahil/PROJECTS/Mol_Feturizer/New_Systems/rnas/1fmn

>  <Rbt.Executable>
rbdock ($Id: //depot/dev/client3/rdock/2013.1/src/exe/rbdock.cxx#4 $)

>  <Rbt.Library>
libRbt.so (2013.1, Build901 2013/11/27)

>  <Rbt.Parameter_File>
/export/apps/rDock/src/rDock_2013.1_src/data/scripts/dock_solv.prm

>  <Rbt.Receptor>
prm/pocket_docking_8.prm

>  <SCORE>
-44.5853

>  <SCORE.INTER>
-39.0714

>  <SCORE.INTER.CONST>
1

>  <SCORE.INTER.POLAR>
-1.20087

>  <SCORE.INTER.ROT>
7

>  <SCORE.INTER.SOLV>
16.0265

>  <SCORE.INTER.VDW>
-35.6535

>  <SCORE.INTER.norm>
-1.26037

>  <SCORE.INTRA>
-5.51385

>  <SCORE.INTRA.DIHEDRAL>
-7.34072

>  <SCORE.INTRA.DIHEDRAL.0>
15.5708

>  <SCORE.INTRA.POLAR>
0.0673005

>  <SCORE.INTRA.POLAR.0>
-0.0677885

>  <SCORE.INTRA.REPUL>
0

>  <SCORE.INTRA.REPUL.0>
0

>  <SCORE.INTRA.SOLV>
-4.86231

>  <SCORE.INTRA.SOLV.lig_0>
-87.6316

>  <SCORE.INTRA.VDW>
0.358839

>  <SCORE.INTRA.VDW.0>
-2.87309

>  <SCORE.INTRA.norm>
-0.177866

>  <SCORE.RESTR>
0

>  <SCORE.RESTR.CAVITY>
0

>  <SCORE.RESTR.norm>
0

>  <SCORE.SYSTEM>
0

>  <SCORE.SYSTEM.CONST>
0

>  <SCORE.SYSTEM.DIHEDRAL>
0

>  <SCORE.SYSTEM.SOLV>
0

>  <SCORE.SYSTEM.norm>
0

>  <SCORE.heavy>
31

>  <SCORE.norm>
-1.43823

>  <SYMMETRIC_BONDS>
33 34 3

>  <RMSD>
5.128

$$$$
1fmn_cryst
 OpenBabel11021811393D
libRbt.so/2013.1/901 2013/11/27
 31 33  0  0  0  0  0  0  0  0999 V2000
   -7.4519   -5.4460   -1.9419 N   0  0  0  0  0  0  0  0  0  0  0  0
   -7.4770   -4.9416   -3.2211 C   0  0  0  0  0  0  0  0  0  0  0  0
   -6.5318   -5.0838   -3.9975 O   0  0  0  0  0  0  0  0  0  0  0  0
   -8.6562   -4.2447   -3.5864 N   0  0  0  0  0  0  0  0  0  0  0  0
   -9.7898   -4.0205   -2.7747 C   0  0  0  0  0  0  0  0  0  0  0  0
  -10.7577   -3.3935   -3.2233 O   0  0  0  0  0  0  0  0  0  0  0  0
   -9.6844   -4.5876   -1.4284 C   0  0  0  0  0  0  0  0  0  0  0  0
  -10.7463   -4.4133   -0.5761 N   0  0  0  0  0  0  0  0  0  0  0  0
  -10.5754   -4.7814    0.7269 C   0  0  0  0  0  0  0  0  0  0  0  0
  -11.5674   -4.4415    1.6297 C   0  0  0  0  0  0  0  0  0  0  0  0
  -11.4653   -4.7746    2.9374 C   0  0  0  0  0  0  0  0  0  0  0  0
  -12.5669   -4.3862    3.8712 C   0  0  0  0  0  0  0  0  0  0  0  0
  -10.3767   -5.4530    3.3910 C   0  0  0  0  0  0  0  0  0  0  0  0
  -10.2689   -5.8105    4.8376 C   0  0  0  0  0  0  0  0  0  0  0  0
   -9.3791   -5.8081    2.5417 C   0  0  0  0  0  0  0  0  0  0  0  0
   -9.4357   -5.4896    1.1849 C   0  0  0  0  0  0  0  0  0  0  0  0
   -8.4374   -5.8307    0.2484 N   0  0  0  0  0  0  0  0  0  0  0  0
   -8.4844   -5.2998   -1.0570 C   0  0  0  0  0  0  0  0  0  0  0  0
   -7.7031   -7.1357    0.4388 C   0  0  0  0  0  0  0  0  0  0  0  0
   -6.4154   -7.0834    1.3159 C   0  0  1  0  0  0  0  0  0  0  0  0
   -6.4715   -8.0793    2.3274 O   0  0  0  0  0  0  0  0  0  0  0  0
   -5.1102   -7.1662    0.4891 C   0  0  1  0  0  0  0  0  0  0  0  0
   -5.1040   -6.1653   -0.5247 O   0  0  0  0  0  0  0  0  0  0  0  0
   -3.7777   -7.1268    1.2770 C   0  0  1  0  0  0  0  0  0  0  0  0
   -3.7830   -8.1910    2.2222 O   0  0  0  0  0  0  0  0  0  0  0  0
   -2.5361   -7.2742    0.3690 C   0  0  0  0  0  0  0  0  0  0  0  0
   -1.3196   -7.2668    1.1065 O   0  0  0  0  0  0  0  0  0  0  0  0
   -0.8134   -5.9988    1.9109 P   0  0  0  0  0  0  0  0  0  0  0  0
   -0.4786   -4.8881    0.9909 O   0  0  0  0  0  0  0  0  0  0  0  0
   -1.7013   -5.7224    3.0608 O   0  5  0  0  0  0  0  0  0  0  0  0
    0.5758   -6.4730    2.5275 O   0  5  0  0  0  0  0  0  0  0  0  0
  1 18  1  0  0  0  0
  1  2  1  0  0  0  0
  2  4  1  0  0  0  0
  2  3  2  0  0  0  0
  4  5  1  0  0  0  0
  5  7  1  0  0  0  0
  5  6  2  0  0  0  0
  7 18  2  0  0  0  0
  7  8  1  0  0  0  0
  8  9  1  0  0  0  0
  9 10  2  0  0  0  0
  9 16  1  0  0  0  0
 10 11  1  0  0  0  0
 11 12  1  0  0  0  0
 11 13  2  0  0  0  0
 13 14  1  0  0  0  0
 13 15  1  0  0  0  0
 15 16  2  0  0  0  0
 16 17  1  0  0  0  0
 17 19  1  0  0  0  0
 17 18  1  0  0  0  0
 20 19  1  6  0  0  0
 20 22  1  0  0  0  0
 20 21  1  0  0  0  0
 22 24  1  0  0  0  0
 22 23  1  6  0  0  0
 24 26  1  6  0  0  0
 24 25  1  0  0  0  0
 26 27  1  0  0  0  0
 27 28  1  0  0  0  0
 28 30  1  0  0  0  0
 28 29  2  0  0  0  0
 28 31  1  0  0  0  0
M  CHG  2  30  -1  31  -1
M  END
>  <CHROM.1>
-89.60472150,128.50971630,53.74703737,174.98595111,56.99544947,55.10579219
-178.67161273,61.86958067,-65.34500689,-66.14589833,-6.61303279,-5.75329720
0.61385303,-2.95122063,-0.16296335,1.78299279

>  <Name>
1fmn_cryst

>  <RI>
0

>  <Rbt.Current_Directory>
/home/itssahil/PROJECTS/Mol_Feturizer/New_Systems/rnas/1fmn

>  <Rbt.Executable>
rbdock ($Id: //depot/dev/client3/rdock/2013.1/src/exe/rbdock.cxx#4 $)

>  <Rbt.Library>
libRbt.so (2013.1, Build901 2013/11/27)

>  <Rbt.Parameter_File>
/export/apps/rDock/src/rDock_2013.1_src/data/scripts/dock_solv.prm

>  <Rbt.Receptor>
prm/pocket_docking_6.prm

>  <SCORE>
-47.3217

>  <SCORE.INTER>
-38.6312

>  <SCORE.INTER.CONST>
1

>  <SCORE.INTER.POLAR>
-0.497143

>  <SCORE.INTER.ROT>
7

>  <SCORE.INTER.SOLV>
16.3037

>  <SCORE.INTER.VDW>
-37.7982

>  <SCORE.INTER.norm>
-1.24617

>  <SCORE.INTRA>
-8.69054

>  <SCORE.INTRA.DIHEDRAL>
-7.42387

>  <SCORE.INTRA.DIHEDRAL.0>
15.5708

>  <SCORE.INTRA.POLAR>
-1.33253

>  <SCORE.INTRA.POLAR.0>
-0.0677885

>  <SCORE.INTRA.REPUL>
0

>  <SCORE.INTRA.REPUL.0>
0

>  <SCORE.INTRA.SOLV>
-0.867527

>  <SCORE.INTRA.SOLV.lig_0>
-87.6316

>  <SCORE.INTRA.VDW>
-0.0142453

>  <SCORE.INTRA.VDW.0>
-2.87309

>  <SCORE.INTRA.norm>
-0.28034

>  <SCORE.RESTR>
0

>  <SCORE.RESTR.CAVITY>
0

>  <SCORE.RESTR.norm>
0

>  <SCORE.SYSTEM>
0

>  <SCORE.SYSTEM.CONST>
0

>  <SCORE.SYSTEM.DIHEDRAL>
0

>  <SCORE.SYSTEM.SOLV>
0

>  <SCORE.SYSTEM.norm>
0

>  <SCORE.heavy>
31

>  <SCORE.norm>
-1.52651

>  <SYMMETRIC_BONDS>
33 34 3

>  <RMSD>
5.153

$$$$
1fmn_cryst
 OpenBabel11021811393D
libRbt.so/2013.1/901 2013/11/27
 31 33  0  0  0  0  0  0  0  0999 V2000
   -7.4812   -5.0855   -1.9841 N   0  0  0  0  0  0  0  0  0  0  0  0
   -7.5743   -4.5615   -3.2523 C   0  0  0  0  0  0  0  0  0  0  0  0
   -6.6367   -4.6103   -4.0492 O   0  0  0  0  0  0  0  0  0  0  0  0
   -8.8144   -3.9584   -3.5810 N   0  0  0  0  0  0  0  0  0  0  0  0
   -9.9457   -3.8443   -2.7436 C   0  0  0  0  0  0  0  0  0  0  0  0
  -10.9713   -3.2918   -3.1611 O   0  0  0  0  0  0  0  0  0  0  0  0
   -9.7661   -4.4254   -1.4112 C   0  0  0  0  0  0  0  0  0  0  0  0
  -10.8209   -4.3557   -0.5355 N   0  0  0  0  0  0  0  0  0  0  0  0
  -10.5934   -4.7323    0.7564 C   0  0  0  0  0  0  0  0  0  0  0  0
  -11.5913   -4.4927    1.6844 C   0  0  0  0  0  0  0  0  0  0  0  0
  -11.4351   -4.8402    2.9830 C   0  0  0  0  0  0  0  0  0  0  0  0
  -12.5456   -4.5620    3.9452 C   0  0  0  0  0  0  0  0  0  0  0  0
  -10.2849   -5.4339    3.4022 C   0  0  0  0  0  0  0  0  0  0  0  0
  -10.1182   -5.8079    4.8390 C   0  0  0  0  0  0  0  0  0  0  0  0
   -9.2790   -5.6892    2.5271 C   0  0  0  0  0  0  0  0  0  0  0  0
   -9.3897   -5.3515    1.1783 C   0  0  0  0  0  0  0  0  0  0  0  0
   -8.3861   -5.5911    0.2163 N   0  0  0  0  0  0  0  0  0  0  0  0
   -8.5038   -5.0420   -1.0770 C   0  0  0  0  0  0  0  0  0  0  0  0
   -7.5426   -6.8338    0.3666 C   0  0  0  0  0  0  0  0  0  0  0  0
   -6.0025   -6.6473    0.2132 C   0  0  1  0  0  0  0  0  0  0  0  0
   -5.6618   -5.2733    0.3312 O   0  0  0  0  0  0  0  0  0  0  0  0
   -5.1812   -7.5358    1.1777 C   0  0  1  0  0  0  0  0  0  0  0  0
   -5.8400   -8.7823    1.3819 O   0  0  0  0  0  0  0  0  0  0  0  0
   -3.6956   -7.7779    0.8141 C   0  0  1  0  0  0  0  0  0  0  0  0
   -3.3082   -6.8137   -0.1587 O   0  0  0  0  0  0  0  0  0  0  0  0
   -2.7509   -7.6636    2.0315 C   0  0  0  0  0  0  0  0  0  0  0  0
   -1.4218   -8.0702    1.7279 O   0  0  0  0  0  0  0  0  0  0  0  0
   -1.0414   -9.5709    1.3898 P   0  0  0  0  0  0  0  0  0  0  0  0
   -1.3969  -10.4716    2.5098 O   0  0  0  0  0  0  0  0  0  0  0  0
   -1.4879   -9.9272    0.0257 O   0  5  0  0  0  0  0  0  0  0  0  0
    0.5500   -9.5560    1.3456 O   0  5  0  0  0  0  0  0  0  0  0  0
  1 18  1  0  0  0  0
  1  2  1  0  0  0  0
  2  4  1  0  0  0  0
  2  3  2  0  0  0  0
  4  5  1  0  0  0  0
  5  7  1  0  0  0  0
  5  6  2  0  0  0  0
  7 18  2  0  0  0  0
  7  8  1  0  0  0  0
  8  9  1  0  0  0  0
  9 10  2  0  0  0  0
  9 16  1  0  0  0  0
 10 11  1  0  0  0  0
 11 12  1  0  0  0  0
 11 13  2  0  0  0  0
 13 14  1  0  0  0  0
 13 15  1  0  0  0  0
 15 16  2  0  0  0  0
 16 17  1  0  0  0  0
 17 19  1  0  0  0  0
 17 18  1  0  0  0  0
 20 19  1  1  0  0  0
 20 22  1  0  0  0  0
 20 21  1  0  0  0  0
 22 24  1  0  0  0  0
 22 23  1  6  0  0  0
 24 26  1  1  0  0  0
 24 25  1  0  0  0  0
 26 27  1  0  0  0  0
 27 28  1  0  0  0  0
 28 30  1  0  0  0  0
 28 29  2  0  0  0  0
 28 31  1  0  0  0  0
M  CHG  2  30  -1  31  -1
M  END
>  <CHROM.1>
-133.16302138,16.43288919,34.29971857,59.96911521,15.98603500,56.74601464
171.71389894,-75.14483111,-67.47857306,-58.99517710,-6.64586824,-6.36064181
0.43984548,-2.87796247,-0.42264950,1.90278543

>  <Name>
1fmn_cryst

>  <RI>
0

>  <Rbt.Current_Directory>
/home/itssahil/PROJECTS/Mol_Feturizer/New_Systems/rnas/1fmn

>  <Rbt.Executable>
rbdock ($Id: //depot/dev/client3/rdock/2013.1/src/exe/rbdock.cxx#4 $)

>  <Rbt.Library>
libRbt.so (2013.1, Build901 2013/11/27)

>  <Rbt.Parameter_File>
/export/apps/rDock/src/rDock_2013.1_src/data/scripts/dock_solv.prm

>  <Rbt.Receptor>
prm/pocket_docking_7.prm

>  <SCORE>
-50.2952

>  <SCORE.INTER>
-50.1617

>  <SCORE.INTER.CONST>
1

>  <SCORE.INTER.POLAR>
-2.643

>  <SCORE.INTER.ROT>
7

>  <SCORE.INTER.SOLV>
18.0463

>  <SCORE.INTER.VDW>
-38.9132

>  <SCORE.INTER.norm>
-1.61812

>  <SCORE.INTRA>
-0.1335

>  <SCORE.INTRA.DIHEDRAL>
-1.09134

>  <SCORE.INTRA.DIHEDRAL.0>
15.5708

>  <SCORE.INTRA.POLAR>
-0.0886027

>  <SCORE.INTRA.POLAR.0>
-0.0677885

>  <SCORE.INTRA.REPUL>
0

>  <SCORE.INTRA.REPUL.0>
0

>  <SCORE.INTRA.SOLV>
-1.52618

>  <SCORE.INTRA.SOLV.lig_0>
-87.6316

>  <SCORE.INTRA.VDW>
1.47651

>  <SCORE.INTRA.VDW.0>
-2.87309

>  <SCORE.INTRA.norm>
-0.00430644

>  <SCORE.RESTR>
0

>  <SCORE.RESTR.CAVITY>
0

>  <SCORE.RESTR.norm>
0

>  <SCORE.SYSTEM>
0

>  <SCORE.SYSTEM.CONST>
0

>  <SCORE.SYSTEM.DIHEDRAL>
0

>  <SCORE.SYSTEM.SOLV>
0

>  <SCORE.SYSTEM.norm>
0

>  <SCORE.heavy>
31

>  <SCORE.norm>
-1.62242

>  <SYMMETRIC_BONDS>
33 34 3

>  <RMSD>
5.180

$$$$
1fmn_cryst
 OpenBabel11021811393D
libRbt.so/2013.1/901 2013/11/27
 31 33  0  0  0  0  0  0  0  0999 V2000
   -4.8803   -8.3938    3.8136 N   0  0  0  0  0  0  0  0  0  0  0  0
   -4.3818   -9.2886    4.7314 C   0  0  0  0  0  0  0  0  0  0  0  0
   -3.3061   -9.8642    4.5642 O   0  0  0  0  0  0  0  0  0  0  0  0
   -5.1864   -9.5092    5.8775 N   0  0  0  0  0  0  0  0  0  0  0  0
   -6.4324   -8.9088    6.1624 C   0  0  0  0  0  0  0  0  0  0  0  0
   -7.0311   -9.1921    7.2077 O   0  0  0  0  0  0  0  0  0  0  0  0
   -6.8937   -7.9702    5.1370 C   0  0  0  0  0  0  0  0  0  0  0  0
   -8.0979   -7.3432    5.3392 N   0  0  0  0  0  0  0  0  0  0  0  0
   -8.6092   -6.6125    4.3062 C   0  0  0  0  0  0  0  0  0  0  0  0
   -9.9006   -6.1318    4.4317 C   0  0  0  0  0  0  0  0  0  0  0  0
  -10.4718   -5.3995    3.4475 C   0  0  0  0  0  0  0  0  0  0  0  0
  -11.8693   -4.9009    3.6345 C   0  0  0  0  0  0  0  0  0  0  0  0
   -9.7819   -5.1224    2.3081 C   0  0  0  0  0  0  0  0  0  0  0  0
  -10.4227   -4.3190    1.2236 C   0  0  0  0  0  0  0  0  0  0  0  0
   -8.5121   -5.5724    2.1411 C   0  0  0  0  0  0  0  0  0  0  0  0
   -7.8775   -6.3307    3.1249 C   0  0  0  0  0  0  0  0  0  0  0  0
   -6.5610   -6.8259    3.0176 N   0  0  0  0  0  0  0  0  0  0  0  0
   -6.0731   -7.7434    3.9706 C   0  0  0  0  0  0  0  0  0  0  0  0
   -5.5452   -5.9854    2.2828 C   0  0  0  0  0  0  0  0  0  0  0  0
   -4.9273   -4.7950    3.0774 C   0  0  1  0  0  0  0  0  0  0  0  0
   -4.3211   -5.2665    4.2724 O   0  0  0  0  0  0  0  0  0  0  0  0
   -3.9572   -3.9353    2.2324 C   0  0  1  0  0  0  0  0  0  0  0  0
   -3.5133   -2.8094    2.9839 O   0  0  0  0  0  0  0  0  0  0  0  0
   -2.7427   -4.6619    1.6041 C   0  0  1  0  0  0  0  0  0  0  0  0
   -1.8725   -3.6831    1.0468 O   0  0  0  0  0  0  0  0  0  0  0  0
   -1.9507   -5.5068    2.6271 C   0  0  0  0  0  0  0  0  0  0  0  0
   -0.7541   -6.0450    2.0771 O   0  0  0  0  0  0  0  0  0  0  0  0
   -0.7503   -7.0393    0.8432 P   0  0  0  0  0  0  0  0  0  0  0  0
   -1.7466   -8.1184    1.0307 O   0  0  0  0  0  0  0  0  0  0  0  0
   -0.7509   -6.2889   -0.4311 O   0  5  0  0  0  0  0  0  0  0  0  0
    0.6703   -7.7520    0.9373 O   0  5  0  0  0  0  0  0  0  0  0  0
  1 18  1  0  0  0  0
  1  2  1  0  0  0  0
  2  4  1  0  0  0  0
  2  3  2  0  0  0  0
  4  5  1  0  0  0  0
  5  7  1  0  0  0  0
  5  6  2  0  0  0  0
  7 18  2  0  0  0  0
  7  8  1  0  0  0  0
  8  9  1  0  0  0  0
  9 10  2  0  0  0  0
  9 16  1  0  0  0  0
 10 11  1  0  0  0  0
 11 12  1  0  0  0  0
 11 13  2  0  0  0  0
 13 14  1  0  0  0  0
 13 15  1  0  0  0  0
 15 16  2  0  0  0  0
 16 17  1  0  0  0  0
 17 19  1  0  0  0  0
 17 18  1  0  0  0  0
 20 19  1  6  0  0  0
 20 22  1  0  0  0  0
 20 21  1  0  0  0  0
 22 24  1  0  0  0  0
 22 23  1  1  0  0  0
 24 26  1  1  0  0  0
 24 25  1  0  0  0  0
 26 27  1  0  0  0  0
 27 28  1  0  0  0  0
 28 30  1  0  0  0  0
 28 29  2  0  0  0  0
 28 31  1  0  0  0  0
M  CHG  2  30  -1  31  -1
M  END
>  <CHROM.1>
79.41387566,56.84502809,175.40603280,-58.46473006,-171.27577398,-175.83378984
-173.25579147,68.88010423,-60.94777913,-47.37674978,-5.07778962,-6.49607678
3.06572144,-2.95458154,0.25979155,-0.66022453

>  <Name>
1fmn_cryst

>  <RI>
0

>  <Rbt.Current_Directory>
/home/itssahil/PROJECTS/Mol_Feturizer/New_Systems/rnas/1fmn

>  <Rbt.Executable>
rbdock ($Id: //depot/dev/client3/rdock/2013.1/src/exe/rbdock.cxx#4 $)

>  <Rbt.Library>
libRbt.so (2013.1, Build901 2013/11/27)

>  <Rbt.Parameter_File>
/export/apps/rDock/src/rDock_2013.1_src/data/scripts/dock_solv.prm

>  <Rbt.Receptor>
prm/pocket_docking_6.prm

>  <SCORE>
-29.7867

>  <SCORE.INTER>
-23.9732

>  <SCORE.INTER.CONST>
1

>  <SCORE.INTER.POLAR>
-0.579184

>  <SCORE.INTER.ROT>
7

>  <SCORE.INTER.SOLV>
12.0077

>  <SCORE.INTER.VDW>
-26.3208

>  <SCORE.INTER.norm>
-0.77333

>  <SCORE.INTRA>
-5.8135

>  <SCORE.INTRA.DIHEDRAL>
-12.5836

>  <SCORE.INTRA.DIHEDRAL.0>
15.5708

>  <SCORE.INTRA.POLAR>
0.0677885

>  <SCORE.INTRA.POLAR.0>
-0.0677885

>  <SCORE.INTRA.REPUL>
0

>  <SCORE.INTRA.REPUL.0>
0

>  <SCORE.INTRA.SOLV>
-0.528991

>  <SCORE.INTRA.SOLV.lig_0>
-87.6316

>  <SCORE.INTRA.VDW>
0.512313

>  <SCORE.INTRA.VDW.0>
-2.87309

>  <SCORE.INTRA.norm>
-0.187532

>  <SCORE.RESTR>
0

>  <SCORE.RESTR.CAVITY>
0

>  <SCORE.RESTR.norm>
0

>  <SCORE.SYSTEM>
0

>  <SCORE.SYSTEM.CONST>
0

>  <SCORE.SYSTEM.DIHEDRAL>
0

>  <SCORE.SYSTEM.SOLV>
0

>  <SCORE.SYSTEM.norm>
0

>  <SCORE.heavy>
31

>  <SCORE.norm>
-0.960862

>  <SYMMETRIC_BONDS>
33 34 3

>  <RMSD>
5.199

$$$$
1fmn_cryst
 OpenBabel11021811393D
libRbt.so/2013.1/901 2013/11/27
 31 33  0  0  0  0  0  0  0  0999 V2000
   -8.8887   -6.7661    3.9908 N   0  0  0  0  0  0  0  0  0  0  0  0
  -10.0546   -6.1324    3.6294 C   0  0  0  0  0  0  0  0  0  0  0  0
  -11.0488   -6.1307    4.3561 O   0  0  0  0  0  0  0  0  0  0  0  0
  -10.0403   -5.4871    2.3674 N   0  0  0  0  0  0  0  0  0  0  0  0
   -8.9608   -5.4344    1.4585 C   0  0  0  0  0  0  0  0  0  0  0  0
   -9.0845   -4.8310    0.3852 O   0  0  0  0  0  0  0  0  0  0  0  0
   -7.7575   -6.1329    1.9161 C   0  0  0  0  0  0  0  0  0  0  0  0
   -6.6619   -6.1283    1.0892 N   0  0  0  0  0  0  0  0  0  0  0  0
   -5.6096   -6.9266    1.4329 C   0  0  0  0  0  0  0  0  0  0  0  0
   -4.5824   -7.0714    0.5173 C   0  0  0  0  0  0  0  0  0  0  0  0
   -3.5075   -7.8467    0.7907 C   0  0  0  0  0  0  0  0  0  0  0  0
   -2.4231   -7.9670   -0.2320 C   0  0  0  0  0  0  0  0  0  0  0  0
   -3.4181   -8.5036    1.9787 C   0  0  0  0  0  0  0  0  0  0  0  0
   -2.2310   -9.3630    2.2695 C   0  0  0  0  0  0  0  0  0  0  0  0
   -4.4014   -8.3907    2.9078 C   0  0  0  0  0  0  0  0  0  0  0  0
   -5.5297   -7.6042    2.6758 C   0  0  0  0  0  0  0  0  0  0  0  0
   -6.5850   -7.4405    3.5976 N   0  0  0  0  0  0  0  0  0  0  0  0
   -7.7710   -6.7882    3.2029 C   0  0  0  0  0  0  0  0  0  0  0  0
   -6.2460   -7.4303    5.0684 C   0  0  0  0  0  0  0  0  0  0  0  0
   -6.2161   -8.8164    5.7812 C   0  0  1  0  0  0  0  0  0  0  0  0
   -4.8734   -9.2366    5.9778 O   0  0  0  0  0  0  0  0  0  0  0  0
   -7.0333   -8.8447    7.0947 C   0  0  1  0  0  0  0  0  0  0  0  0
   -6.6715   -9.9794    7.8765 O   0  0  0  0  0  0  0  0  0  0  0  0
   -6.9973   -7.5681    7.9703 C   0  0  1  0  0  0  0  0  0  0  0  0
   -7.5995   -7.8666    9.2250 O   0  0  0  0  0  0  0  0  0  0  0  0
   -5.5637   -7.0475    8.2181 C   0  0  0  0  0  0  0  0  0  0  0  0
   -5.5499   -5.7488    8.7988 O   0  0  0  0  0  0  0  0  0  0  0  0
   -4.2108   -5.0124    9.2180 P   0  0  0  0  0  0  0  0  0  0  0  0
   -3.3876   -4.6948    8.0291 O   0  0  0  0  0  0  0  0  0  0  0  0
   -4.4910   -3.9364   10.1931 O   0  5  0  0  0  0  0  0  0  0  0  0
   -3.3986   -6.1288   10.0110 O   0  5  0  0  0  0  0  0  0  0  0  0
  1 18  1  0  0  0  0
  1  2  1  0  0  0  0
  2  4  1  0  0  0  0
  2  3  2  0  0  0  0
  4  5  1  0  0  0  0
  5  7  1  0  0  0  0
  5  6  2  0  0  0  0
  7 18  2  0  0  0  0
  7  8  1  0  0  0  0
  8  9  1  0  0  0  0
  9 10  2  0  0  0  0
  9 16  1  0  0  0  0
 10 11  1  0  0  0  0
 11 12  1  0  0  0  0
 11 13  2  0  0  0  0
 13 14  1  0  0  0  0
 13 15  1  0  0  0  0
 15 16  2  0  0  0  0
 16 17  1  0  0  0  0
 17 19  1  0  0  0  0
 17 18  1  0  0  0  0
 20 19  1  1  0  0  0
 20 22  1  0  0  0  0
 20 21  1  0  0  0  0
 22 24  1  0  0  0  0
 22 23  1  1  0  0  0
 24 26  1  1  0  0  0
 24 25  1  0  0  0  0
 26 27  1  0  0  0  0
 27 28  1  0  0  0  0
 28 30  1  0  0  0  0
 28 29  2  0  0  0  0
 28 31  1  0  0  0  0
M  CHG  2  30  -1  31  -1
M  END
>  <CHROM.1>
-88.03588070,103.20667555,-163.68772915,-64.14653915,-169.80826797,-62.08959654
168.75713852,51.65950022,177.01695100,66.01180500,-6.07449955,-6.92264469
4.92069742,1.77229634,0.26005627,-1.69747580

>  <Name>
1fmn_cryst

>  <RI>
0

>  <Rbt.Current_Directory>
/home/itssahil/PROJECTS/Mol_Feturizer/New_Systems/rnas/1fmn

>  <Rbt.Executable>
rbdock ($Id: //depot/dev/client3/rdock/2013.1/src/exe/rbdock.cxx#4 $)

>  <Rbt.Library>
libRbt.so (2013.1, Build901 2013/11/27)

>  <Rbt.Parameter_File>
/export/apps/rDock/src/rDock_2013.1_src/data/scripts/dock_solv.prm

>  <Rbt.Receptor>
prm/pocket_docking_7.prm

>  <SCORE>
-30.0247

>  <SCORE.INTER>
-26.0412

>  <SCORE.INTER.CONST>
1

>  <SCORE.INTER.POLAR>
-2.39922

>  <SCORE.INTER.ROT>
7

>  <SCORE.INTER.SOLV>
15.7565

>  <SCORE.INTER.VDW>
-22.8822

>  <SCORE.INTER.norm>
-0.840039

>  <SCORE.INTRA>
-3.98344

>  <SCORE.INTRA.DIHEDRAL>
-6.42387

>  <SCORE.INTRA.DIHEDRAL.0>
15.5708

>  <SCORE.INTRA.POLAR>
-0.0281118

>  <SCORE.INTRA.POLAR.0>
-0.0677885

>  <SCORE.INTRA.REPUL>
0

>  <SCORE.INTRA.REPUL.0>
0

>  <SCORE.INTRA.SOLV>
-4.74783

>  <SCORE.INTRA.SOLV.lig_0>
-87.6316

>  <SCORE.INTRA.VDW>
1.69799

>  <SCORE.INTRA.VDW.0>
-2.87309

>  <SCORE.INTRA.norm>
-0.128498

>  <SCORE.RESTR>
0

>  <SCORE.RESTR.CAVITY>
0

>  <SCORE.RESTR.norm>
0

>  <SCORE.SYSTEM>
0

>  <SCORE.SYSTEM.CONST>
0

>  <SCORE.SYSTEM.DIHEDRAL>
0

>  <SCORE.SYSTEM.SOLV>
0

>  <SCORE.SYSTEM.norm>
0

>  <SCORE.heavy>
31

>  <SCORE.norm>
-0.968537

>  <SYMMETRIC_BONDS>
33 34 3

>  <RMSD>
5.247

$$$$
1fmn_cryst
 OpenBabel11021811393D
libRbt.so/2013.1/901 2013/11/27
 31 33  0  0  0  0  0  0  0  0999 V2000
   -7.4704   -5.4873   -1.9352 N   0  0  0  0  0  0  0  0  0  0  0  0
   -7.4922   -4.9731   -3.2106 C   0  0  0  0  0  0  0  0  0  0  0  0
   -6.5543   -5.1289   -3.9933 O   0  0  0  0  0  0  0  0  0  0  0  0
   -8.6588   -4.2496   -3.5641 N   0  0  0  0  0  0  0  0  0  0  0  0
   -9.7832   -4.0082   -2.7445 C   0  0  0  0  0  0  0  0  0  0  0  0
  -10.7405   -3.3583   -3.1832 O   0  0  0  0  0  0  0  0  0  0  0  0
   -9.6821   -4.5872   -1.4030 C   0  0  0  0  0  0  0  0  0  0  0  0
  -10.7355   -4.3975   -0.5435 N   0  0  0  0  0  0  0  0  0  0  0  0
  -10.5652   -4.7786    0.7558 C   0  0  0  0  0  0  0  0  0  0  0  0
  -11.5450   -4.4251    1.6666 C   0  0  0  0  0  0  0  0  0  0  0  0
  -11.4426   -4.7697    2.9712 C   0  0  0  0  0  0  0  0  0  0  0  0
  -12.5309   -4.3658    3.9140 C   0  0  0  0  0  0  0  0  0  0  0  0
  -10.3657   -5.4736    3.4139 C   0  0  0  0  0  0  0  0  0  0  0  0
  -10.2574   -5.8439    4.8572 C   0  0  0  0  0  0  0  0  0  0  0  0
   -9.3802   -5.8428    2.5564 C   0  0  0  0  0  0  0  0  0  0  0  0
   -9.4377   -5.5133    1.2023 C   0  0  0  0  0  0  0  0  0  0  0  0
   -8.4517   -5.8678    0.2577 N   0  0  0  0  0  0  0  0  0  0  0  0
   -8.4949   -5.3265   -1.0435 C   0  0  0  0  0  0  0  0  0  0  0  0
   -7.7433   -7.1889    0.4347 C   0  0  0  0  0  0  0  0  0  0  0  0
   -6.4870   -7.1822    1.3576 C   0  0  1  0  0  0  0  0  0  0  0  0
   -5.7729   -8.4025    1.2210 O   0  0  0  0  0  0  0  0  0  0  0  0
   -5.5783   -5.9485    1.1424 C   0  0  1  0  0  0  0  0  0  0  0  0
   -6.3089   -4.7494    1.3831 O   0  0  0  0  0  0  0  0  0  0  0  0
   -4.2419   -5.9175    1.9241 C   0  0  1  0  0  0  0  0  0  0  0  0
   -3.5932   -4.6792    1.6559 O   0  0  0  0  0  0  0  0  0  0  0  0
   -4.4334   -6.0583    3.4509 C   0  0  0  0  0  0  0  0  0  0  0  0
   -3.7243   -5.0645    4.1814 O   0  0  0  0  0  0  0  0  0  0  0  0
   -4.2699   -3.5889    4.3716 P   0  0  0  0  0  0  0  0  0  0  0  0
   -4.1864   -3.1731    5.7901 O   0  0  0  0  0  0  0  0  0  0  0  0
   -3.7145   -2.6904    3.3366 O   0  5  0  0  0  0  0  0  0  0  0  0
   -5.8254   -3.7185    4.0579 O   0  5  0  0  0  0  0  0  0  0  0  0
  1 18  1  0  0  0  0
  1  2  1  0  0  0  0
  2  4  1  0  0  0  0
  2  3  2  0  0  0  0
  4  5  1  0  0  0  0
  5  7  1  0  0  0  0
  5  6  2  0  0  0  0
  7 18  2  0  0  0  0
  7  8  1  0  0  0  0
  8  9  1  0  0  0  0
  9 10  2  0  0  0  0
  9 16  1  0  0  0  0
 10 11  1  0  0  0  0
 11 12  1  0  0  0  0
 11 13  2  0  0  0  0
 13 14  1  0  0  0  0
 13 15  1  0  0  0  0
 15 16  2  0  0  0  0
 16 17  1  0  0  0  0
 17 19  1  0  0  0  0
 17 18  1  0  0  0  0
 20 19  1  6  0  0  0
 20 22  1  0  0  0  0
 20 21  1  0  0  0  0
 22 24  1  0  0  0  0
 22 23  1  1  0  0  0
 24 26  1  1  0  0  0
 24 25  1  0  0  0  0
 26 27  1  0  0  0  0
 27 28  1  0  0  0  0
 28 30  1  0  0  0  0
 28 29  2  0  0  0  0
 28 31  1  0  0  0  0
M  CHG  2  30  -1  31  -1
M  END
>  <CHROM.1>
-86.90973010,-168.25534735,58.82673144,58.05928991,-176.59548624,-149.32561485
-130.65379756,-64.41688675,80.37203573,131.74767472,-7.45465456,-4.97996572
1.26782438,-2.35437855,-0.01163900,1.50862256

>  <Name>
1fmn_cryst

>  <RI>
0

>  <Rbt.Current_Directory>
/home/itssahil/PROJECTS/Mol_Feturizer/New_Systems/rnas/1fmn

>  <Rbt.Executable>
rbdock ($Id: //depot/dev/client3/rdock/2013.1/src/exe/rbdock.cxx#4 $)

>  <Rbt.Library>
libRbt.so (2013.1, Build901 2013/11/27)

>  <Rbt.Parameter_File>
/export/apps/rDock/src/rDock_2013.1_src/data/scripts/dock_solv.prm

>  <Rbt.Receptor>
prm/pocket_docking_6.prm

>  <SCORE>
-59.54

>  <SCORE.INTER>
-61.2818

>  <SCORE.INTER.CONST>
1

>  <SCORE.INTER.POLAR>
-5.44402

>  <SCORE.INTER.ROT>
7

>  <SCORE.INTER.SOLV>
32.5519

>  <SCORE.INTER.VDW>
-41.8251

>  <SCORE.INTER.norm>
-1.97683

>  <SCORE.INTRA>
1.72245

>  <SCORE.INTRA.DIHEDRAL>
-0.430671

>  <SCORE.INTRA.DIHEDRAL.0>
15.5708

>  <SCORE.INTRA.POLAR>
0.0677885

>  <SCORE.INTRA.POLAR.0>
-0.0677885

>  <SCORE.INTRA.REPUL>
0

>  <SCORE.INTRA.REPUL.0>
0

>  <SCORE.INTRA.SOLV>
3.7521

>  <SCORE.INTRA.SOLV.lig_0>
-87.6316

>  <SCORE.INTRA.VDW>
-0.168744

>  <SCORE.INTRA.VDW.0>
-2.87309

>  <SCORE.INTRA.norm>
0.0555629

>  <SCORE.RESTR>
0.0193699

>  <SCORE.RESTR.CAVITY>
0.0193699

>  <SCORE.RESTR.norm>
0.000624836

>  <SCORE.SYSTEM>
0

>  <SCORE.SYSTEM.CONST>
0

>  <SCORE.SYSTEM.DIHEDRAL>
0

>  <SCORE.SYSTEM.SOLV>
0

>  <SCORE.SYSTEM.norm>
0

>  <SCORE.heavy>
31

>  <SCORE.norm>
-1.92065

>  <SYMMETRIC_BONDS>
33 34 3

>  <RMSD>
5.270

$$$$
1fmn_cryst
 OpenBabel11021811393D
libRbt.so/2013.1/901 2013/11/27
 31 33  0  0  0  0  0  0  0  0999 V2000
   -7.1803   -5.6288   -1.8099 N   0  0  0  0  0  0  0  0  0  0  0  0
   -7.1651   -5.1653   -3.1047 C   0  0  0  0  0  0  0  0  0  0  0  0
   -6.1908   -5.3199   -3.8419 O   0  0  0  0  0  0  0  0  0  0  0  0
   -8.3382   -4.4952   -3.5339 N   0  0  0  0  0  0  0  0  0  0  0  0
   -9.5029   -4.2600   -2.7708 C   0  0  0  0  0  0  0  0  0  0  0  0
  -10.4612   -3.6597   -3.2735 O   0  0  0  0  0  0  0  0  0  0  0  0
   -9.4397   -4.7831   -1.4042 C   0  0  0  0  0  0  0  0  0  0  0  0
  -10.5336   -4.5955   -0.5964 N   0  0  0  0  0  0  0  0  0  0  0  0
  -10.4057   -4.9203    0.7230 C   0  0  0  0  0  0  0  0  0  0  0  0
  -11.4335   -4.5647    1.5784 C   0  0  0  0  0  0  0  0  0  0  0  0
  -11.3749   -4.8551    2.8989 C   0  0  0  0  0  0  0  0  0  0  0  0
  -12.5139   -4.4515    3.7798 C   0  0  0  0  0  0  0  0  0  0  0  0
  -10.2956   -5.5050    3.4125 C   0  0  0  0  0  0  0  0  0  0  0  0
  -10.2361   -5.8155    4.8727 C   0  0  0  0  0  0  0  0  0  0  0  0
   -9.2639   -5.8741    2.6111 C   0  0  0  0  0  0  0  0  0  0  0  0
   -9.2752   -5.5992    1.2437 C   0  0  0  0  0  0  0  0  0  0  0  0
   -8.2398   -5.9569    0.3548 N   0  0  0  0  0  0  0  0  0  0  0  0
   -8.2457   -5.4680   -0.9676 C   0  0  0  0  0  0  0  0  0  0  0  0
   -7.4979   -7.2458    0.6130 C   0  0  0  0  0  0  0  0  0  0  0  0
   -6.6146   -7.2906    1.8967 C   0  0  1  0  0  0  0  0  0  0  0  0
   -5.9996   -8.5648    2.0233 O   0  0  0  0  0  0  0  0  0  0  0  0
   -5.5855   -6.1375    1.9698 C   0  0  1  0  0  0  0  0  0  0  0  0
   -6.2498   -4.8966    2.1901 O   0  0  0  0  0  0  0  0  0  0  0  0
   -4.4223   -6.2992    2.9790 C   0  0  1  0  0  0  0  0  0  0  0  0
   -4.8769   -7.1001    4.0642 O   0  0  0  0  0  0  0  0  0  0  0  0
   -3.1739   -6.9652    2.3580 C   0  0  0  0  0  0  0  0  0  0  0  0
   -2.7429   -6.3109    1.1705 O   0  0  0  0  0  0  0  0  0  0  0  0
   -1.6849   -6.9480    0.1775 P   0  0  0  0  0  0  0  0  0  0  0  0
   -1.8450   -6.3997   -1.1884 O   0  0  0  0  0  0  0  0  0  0  0  0
   -0.3366   -6.9526    0.7850 O   0  5  0  0  0  0  0  0  0  0  0  0
   -2.1315   -8.4730    0.0779 O   0  5  0  0  0  0  0  0  0  0  0  0
  1 18  1  0  0  0  0
  1  2  1  0  0  0  0
  2  4  1  0  0  0  0
  2  3  2  0  0  0  0
  4  5  1  0  0  0  0
  5  7  1  0  0  0  0
  5  6  2  0  0  0  0
  7 18  2  0  0  0  0
  7  8  1  0  0  0  0
  8  9  1  0  0  0  0
  9 10  2  0  0  0  0
  9 16  1  0  0  0  0
 10 11  1  0  0  0  0
 11 12  1  0  0  0  0
 11 13  2  0  0  0  0
 13 14  1  0  0  0  0
 13 15  1  0  0  0  0
 15 16  2  0  0  0  0
 16 17  1  0  0  0  0
 17 19  1  0  0  0  0
 17 18  1  0  0  0  0
 20 19  1  6  0  0  0
 20 22  1  0  0  0  0
 20 21  1  0  0  0  0
 22 24  1  0  0  0  0
 22 23  1  1  0  0  0
 24 26  1  6  0  0  0
 24 25  1  0  0  0  0
 26 27  1  0  0  0  0
 27 28  1  0  0  0  0
 28 30  1  0  0  0  0
 28 29  2  0  0  0  0
 28 31  1  0  0  0  0
M  CHG  2  30  -1  31  -1
M  END
>  <CHROM.1>
-67.39205670,178.93164064,69.74461957,-173.82881803,-29.18331049,-51.47825066
52.89677602,-173.23595087,-167.12930403,155.41243564,-6.82784197,-5.90873070
0.60788073,-3.09830328,-0.26184062,1.77883635

>  <Name>
1fmn_cryst

>  <RI>
0

>  <Rbt.Current_Directory>
/home/itssahil/PROJECTS/Mol_Feturizer/New_Systems/rnas/1fmn

>  <Rbt.Executable>
rbdock ($Id: //depot/dev/client3/rdock/2013.1/src/exe/rbdock.cxx#4 $)

>  <Rbt.Library>
libRbt.so (2013.1, Build901 2013/11/27)

>  <Rbt.Parameter_File>
/export/apps/rDock/src/rDock_2013.1_src/data/scripts/dock_solv.prm

>  <Rbt.Receptor>
prm/pocket_docking_5.prm

>  <SCORE>
-50.3284

>  <SCORE.INTER>
-40.0535

>  <SCORE.INTER.CONST>
1

>  <SCORE.INTER.POLAR>
-1.22517

>  <SCORE.INTER.ROT>
7

>  <SCORE.INTER.SOLV>
24.4364

>  <SCORE.INTER.VDW>
-39.0306

>  <SCORE.INTER.norm>
-1.29205

>  <SCORE.INTRA>
-10.2749

>  <SCORE.INTRA.DIHEDRAL>
-8.51321

>  <SCORE.INTRA.DIHEDRAL.0>
15.5708

>  <SCORE.INTRA.POLAR>
-1.307

>  <SCORE.INTRA.POLAR.0>
-0.0677885

>  <SCORE.INTRA.REPUL>
0

>  <SCORE.INTRA.REPUL.0>
0

>  <SCORE.INTRA.SOLV>
-3.64666

>  <SCORE.INTRA.SOLV.lig_0>
-87.6316

>  <SCORE.INTRA.VDW>
0.24883

>  <SCORE.INTRA.VDW.0>
-2.87309

>  <SCORE.INTRA.norm>
-0.331449

>  <SCORE.RESTR>
0

>  <SCORE.RESTR.CAVITY>
0

>  <SCORE.RESTR.norm>
0

>  <SCORE.SYSTEM>
0

>  <SCORE.SYSTEM.CONST>
0

>  <SCORE.SYSTEM.DIHEDRAL>
0

>  <SCORE.SYSTEM.SOLV>
0

>  <SCORE.SYSTEM.norm>
0

>  <SCORE.heavy>
31

>  <SCORE.norm>
-1.6235

>  <SYMMETRIC_BONDS>
33 34 3

>  <RMSD>
5.288

$$$$
1fmn_cryst
 OpenBabel11021811393D
libRbt.so/2013.1/901 2013/11/27
 31 33  0  0  0  0  0  0  0  0999 V2000
   -7.3755   -5.4926   -1.9149 N   0  0  0  0  0  0  0  0  0  0  0  0
   -7.3766   -4.9681   -3.1863 C   0  0  0  0  0  0  0  0  0  0  0  0
   -6.4316   -5.1289   -3.9595 O   0  0  0  0  0  0  0  0  0  0  0  0
   -8.5304   -4.2280   -3.5473 N   0  0  0  0  0  0  0  0  0  0  0  0
   -9.6611   -3.9797   -2.7387 C   0  0  0  0  0  0  0  0  0  0  0  0
  -10.6056   -3.3150   -3.1830 O   0  0  0  0  0  0  0  0  0  0  0  0
   -9.5824   -4.5705   -1.4007 C   0  0  0  0  0  0  0  0  0  0  0  0
  -10.6433   -4.3751   -0.5519 N   0  0  0  0  0  0  0  0  0  0  0  0
  -10.4924   -4.7684    0.7462 C   0  0  0  0  0  0  0  0  0  0  0  0
  -11.4784   -4.4105    1.6486 C   0  0  0  0  0  0  0  0  0  0  0  0
  -11.3951   -4.7667    2.9515 C   0  0  0  0  0  0  0  0  0  0  0  0
  -12.4894   -4.3572    3.8850 C   0  0  0  0  0  0  0  0  0  0  0  0
  -10.3317   -5.4868    3.4007 C   0  0  0  0  0  0  0  0  0  0  0  0
  -10.2445   -5.8698    4.8421 C   0  0  0  0  0  0  0  0  0  0  0  0
   -9.3409   -5.8609    2.5516 C   0  0  0  0  0  0  0  0  0  0  0  0
   -9.3789   -5.5200    1.1996 C   0  0  0  0  0  0  0  0  0  0  0  0
   -8.3864   -5.8788    0.2635 N   0  0  0  0  0  0  0  0  0  0  0  0
   -8.4082   -5.3267   -1.0337 C   0  0  0  0  0  0  0  0  0  0  0  0
   -7.6957   -7.2096    0.4379 C   0  0  0  0  0  0  0  0  0  0  0  0
   -6.5802   -7.2730    1.5250 C   0  0  1  0  0  0  0  0  0  0  0  0
   -6.1655   -8.6172    1.7227 O   0  0  0  0  0  0  0  0  0  0  0  0
   -5.3871   -6.3329    1.2306 C   0  0  1  0  0  0  0  0  0  0  0  0
   -5.2319   -6.1578   -0.1746 O   0  0  0  0  0  0  0  0  0  0  0  0
   -5.3901   -4.9546    1.9365 C   0  0  1  0  0  0  0  0  0  0  0  0
   -5.5257   -5.1674    3.3373 O   0  0  0  0  0  0  0  0  0  0  0  0
   -4.1006   -4.1430    1.6792 C   0  0  0  0  0  0  0  0  0  0  0  0
   -2.9385   -4.7980    2.1740 O   0  0  0  0  0  0  0  0  0  0  0  0
   -1.4932   -4.1527    2.0963 P   0  0  0  0  0  0  0  0  0  0  0  0
   -1.4924   -2.7874    2.6690 O   0  0  0  0  0  0  0  0  0  0  0  0
   -0.4678   -5.1139    2.5560 O   0  5  0  0  0  0  0  0  0  0  0  0
   -1.2503   -3.9583    0.5348 O   0  5  0  0  0  0  0  0  0  0  0  0
  1 18  1  0  0  0  0
  1  2  1  0  0  0  0
  2  4  1  0  0  0  0
  2  3  2  0  0  0  0
  4  5  1  0  0  0  0
  5  7  1  0  0  0  0
  5  6  2  0  0  0  0
  7 18  2  0  0  0  0
  7  8  1  0  0  0  0
  8  9  1  0  0  0  0
  9 10  2  0  0  0  0
  9 16  1  0  0  0  0
 10 11  1  0  0  0  0
 11 12  1  0  0  0  0
 11 13  2  0  0  0  0
 13 14  1  0  0  0  0
 13 15  1  0  0  0  0
 15 16  2  0  0  0  0
 16 17  1  0  0  0  0
 17 19  1  0  0  0  0
 17 18  1  0  0  0  0
 20 19  1  6  0  0  0
 20 22  1  0  0  0  0
 20 21  1  0  0  0  0
 22 24  1  0  0  0  0
 22 23  1  6  0  0  0
 24 26  1  1  0  0  0
 24 25  1  0  0  0  0
 26 27  1  0  0  0  0
 27 28  1  0  0  0  0
 28 30  1  0  0  0  0
 28 29  2  0  0  0  0
 28 31  1  0  0  0  0
M  CHG  2  30  -1  31  -1
M  END
>  <CHROM.1>
-78.52880249,171.05311992,-29.33377460,-175.86013611,54.23961523,-51.45007199
-61.82829202,-175.54527348,-177.27290837,52.12910205,-6.89223181,-5.09382442
0.76641027,-2.95628257,0.05348057,1.69200495

>  <Name>
1fmn_cryst

>  <RI>
0

>  <Rbt.Current_Directory>
/home/itssahil/PROJECTS/Mol_Feturizer/New_Systems/rnas/1fmn

>  <Rbt.Executable>
rbdock ($Id: //depot/dev/client3/rdock/2013.1/src/exe/rbdock.cxx#4 $)

>  <Rbt.Library>
libRbt.so (2013.1, Build901 2013/11/27)

>  <Rbt.Parameter_File>
/export/apps/rDock/src/rDock_2013.1_src/data/scripts/dock_solv.prm

>  <Rbt.Receptor>
prm/pocket_docking_7.prm

>  <SCORE>
-51.6817

>  <SCORE.INTER>
-42.7073

>  <SCORE.INTER.CONST>
1

>  <SCORE.INTER.POLAR>
-1.25358

>  <SCORE.INTER.ROT>
7

>  <SCORE.INTER.SOLV>
19.6138

>  <SCORE.INTER.VDW>
-39.0975

>  <SCORE.INTER.norm>
-1.37765

>  <SCORE.INTRA>
-8.97618

>  <SCORE.INTRA.DIHEDRAL>
-9.62259

>  <SCORE.INTRA.DIHEDRAL.0>
15.5708

>  <SCORE.INTRA.POLAR>
-0.741755

>  <SCORE.INTRA.POLAR.0>
-0.0677885

>  <SCORE.INTRA.REPUL>
0

>  <SCORE.INTRA.REPUL.0>
0

>  <SCORE.INTRA.SOLV>
-3.68515

>  <SCORE.INTRA.SOLV.lig_0>
-87.6316

>  <SCORE.INTRA.VDW>
0.199653

>  <SCORE.INTRA.VDW.0>
-2.87309

>  <SCORE.INTRA.norm>
-0.289554

>  <SCORE.RESTR>
0.00175595

>  <SCORE.RESTR.CAVITY>
0.00175595

>  <SCORE.RESTR.norm>
5.66437e-05

>  <SCORE.SYSTEM>
0

>  <SCORE.SYSTEM.CONST>
0

>  <SCORE.SYSTEM.DIHEDRAL>
0

>  <SCORE.SYSTEM.SOLV>
0

>  <SCORE.SYSTEM.norm>
0

>  <SCORE.heavy>
31

>  <SCORE.norm>
-1.66715

>  <SYMMETRIC_BONDS>
33 34 3

>  <RMSD>
5.353

$$$$
1fmn_cryst
 OpenBabel11021811393D
libRbt.so/2013.1/901 2013/11/27
 31 33  0  0  0  0  0  0  0  0999 V2000
   -9.0115   -5.1870    0.0638 N   0  0  0  0  0  0  0  0  0  0  0  0
  -10.1937   -4.6270   -0.3610 C   0  0  0  0  0  0  0  0  0  0  0  0
  -10.3163   -4.1337   -1.4826 O   0  0  0  0  0  0  0  0  0  0  0  0
  -11.2582   -4.6495    0.5748 N   0  0  0  0  0  0  0  0  0  0  0  0
  -11.2217   -5.1822    1.8821 C   0  0  0  0  0  0  0  0  0  0  0  0
  -12.2308   -5.1371    2.5970 O   0  0  0  0  0  0  0  0  0  0  0  0
   -9.9288   -5.7585    2.2585 C   0  0  0  0  0  0  0  0  0  0  0  0
   -9.8107   -6.2982    3.5151 N   0  0  0  0  0  0  0  0  0  0  0  0
   -8.5634   -6.6686    3.9271 C   0  0  0  0  0  0  0  0  0  0  0  0
   -8.4037   -7.0390    5.2506 C   0  0  0  0  0  0  0  0  0  0  0  0
   -7.1958   -7.4184    5.7285 C   0  0  0  0  0  0  0  0  0  0  0  0
   -7.0777   -7.8124    7.1663 C   0  0  0  0  0  0  0  0  0  0  0  0
   -6.1089   -7.4408    4.9104 C   0  0  0  0  0  0  0  0  0  0  0  0
   -4.7778   -7.8544    5.4481 C   0  0  0  0  0  0  0  0  0  0  0  0
   -6.2182   -7.0864    3.6046 C   0  0  0  0  0  0  0  0  0  0  0  0
   -7.4400   -6.6882    3.0623 C   0  0  0  0  0  0  0  0  0  0  0  0
   -7.6242   -6.3112    1.7154 N   0  0  0  0  0  0  0  0  0  0  0  0
   -8.8450   -5.7380    1.3044 C   0  0  0  0  0  0  0  0  0  0  0  0
   -6.8008   -7.0143    0.6637 C   0  0  0  0  0  0  0  0  0  0  0  0
   -5.3876   -6.4205    0.3800 C   0  0  1  0  0  0  0  0  0  0  0  0
   -5.2832   -5.1181    0.9375 O   0  0  0  0  0  0  0  0  0  0  0  0
   -4.2343   -7.3444    0.8386 C   0  0  1  0  0  0  0  0  0  0  0  0
   -4.7537   -8.5811    1.3183 O   0  0  0  0  0  0  0  0  0  0  0  0
   -3.1004   -7.6093   -0.1822 C   0  0  1  0  0  0  0  0  0  0  0  0
   -2.3829   -6.3963   -0.3816 O   0  0  0  0  0  0  0  0  0  0  0  0
   -2.1117   -8.7009    0.2852 C   0  0  0  0  0  0  0  0  0  0  0  0
   -2.6912  -10.0002    0.2731 O   0  0  0  0  0  0  0  0  0  0  0  0
   -1.8389  -11.3200    0.4801 P   0  0  0  0  0  0  0  0  0  0  0  0
   -2.7176  -12.5083    0.5689 O   0  0  0  0  0  0  0  0  0  0  0  0
   -0.6948  -11.3539   -0.4564 O   0  5  0  0  0  0  0  0  0  0  0  0
   -1.2161  -11.1427    1.9346 O   0  5  0  0  0  0  0  0  0  0  0  0
  1 18  1  0  0  0  0
  1  2  1  0  0  0  0
  2  4  1  0  0  0  0
  2  3  2  0  0  0  0
  4  5  1  0  0  0  0
  5  7  1  0  0  0  0
  5  6  2  0  0  0  0
  7 18  2  0  0  0  0
  7  8  1  0  0  0  0
  8  9  1  0  0  0  0
  9 10  2  0  0  0  0
  9 16  1  0  0  0  0
 10 11  1  0  0  0  0
 11 12  1  0  0  0  0
 11 13  2  0  0  0  0
 13 14  1  0  0  0  0
 13 15  1  0  0  0  0
 15 16  2  0  0  0  0
 16 17  1  0  0  0  0
 17 19  1  0  0  0  0
 17 18  1  0  0  0  0
 20 19  1  1  0  0  0
 20 22  1  0  0  0  0
 20 21  1  0  0  0  0
 22 24  1  0  0  0  0
 22 23  1  6  0  0  0
 24 26  1  1  0  0  0
 24 25  1  0  0  0  0
 26 27  1  0  0  0  0
 27 28  1  0  0  0  0
 28 30  1  0  0  0  0
 28 29  2  0  0  0  0
 28 31  1  0  0  0  0
M  CHG  2  30  -1  31  -1
M  END
>  <CHROM.1>
-86.29291580,-14.81302898,4.76471306,-161.90657295,67.95969100,65.42903555
70.40565398,58.54815751,169.92644595,173.73394139,-6.13285935,-7.45876024
1.73553349,-3.13839493,-0.56941507,1.84447821

>  <Name>
1fmn_cryst

>  <RI>
0

>  <Rbt.Current_Directory>
/home/itssahil/PROJECTS/Mol_Feturizer/New_Systems/rnas/1fmn

>  <Rbt.Executable>
rbdock ($Id: //depot/dev/client3/rdock/2013.1/src/exe/rbdock.cxx#4 $)

>  <Rbt.Library>
libRbt.so (2013.1, Build901 2013/11/27)

>  <Rbt.Parameter_File>
/export/apps/rDock/src/rDock_2013.1_src/data/scripts/dock_solv.prm

>  <Rbt.Receptor>
prm/pocket_docking_8.prm

>  <SCORE>
-38.1641

>  <SCORE.INTER>
-37.3749

>  <SCORE.INTER.CONST>
1

>  <SCORE.INTER.POLAR>
-1.95605

>  <SCORE.INTER.ROT>
7

>  <SCORE.INTER.SOLV>
19.073

>  <SCORE.INTER.VDW>
-33.0207

>  <SCORE.INTER.norm>
-1.20564

>  <SCORE.INTRA>
-0.789199

>  <SCORE.INTRA.DIHEDRAL>
-0.976354

>  <SCORE.INTRA.DIHEDRAL.0>
15.5708

>  <SCORE.INTRA.POLAR>
0.0677885

>  <SCORE.INTRA.POLAR.0>
-0.0677885

>  <SCORE.INTRA.REPUL>
0

>  <SCORE.INTRA.REPUL.0>
0

>  <SCORE.INTRA.SOLV>
-3.69075

>  <SCORE.INTRA.SOLV.lig_0>
-87.6316

>  <SCORE.INTRA.VDW>
1.31387

>  <SCORE.INTRA.VDW.0>
-2.87309

>  <SCORE.INTRA.norm>
-0.025458

>  <SCORE.RESTR>
0

>  <SCORE.RESTR.CAVITY>
0

>  <SCORE.RESTR.norm>
0

>  <SCORE.SYSTEM>
0

>  <SCORE.SYSTEM.CONST>
0

>  <SCORE.SYSTEM.DIHEDRAL>
0

>  <SCORE.SYSTEM.SOLV>
0

>  <SCORE.SYSTEM.norm>
0

>  <SCORE.heavy>
31

>  <SCORE.norm>
-1.2311

>  <SYMMETRIC_BONDS>
33 34 3

>  <RMSD>
5.429

$$$$
1fmn_cryst
 OpenBabel11021811393D
libRbt.so/2013.1/901 2013/11/27
 31 33  0  0  0  0  0  0  0  0999 V2000
   -8.7178   -6.2916    3.4239 N   0  0  0  0  0  0  0  0  0  0  0  0
   -9.5875   -5.4780    2.7358 C   0  0  0  0  0  0  0  0  0  0  0  0
  -10.5360   -4.9206    3.2891 O   0  0  0  0  0  0  0  0  0  0  0  0
   -9.3255   -5.3265    1.3510 N   0  0  0  0  0  0  0  0  0  0  0  0
   -8.2742   -5.9228    0.6206 C   0  0  0  0  0  0  0  0  0  0  0  0
   -8.1604   -5.7024   -0.5917 O   0  0  0  0  0  0  0  0  0  0  0  0
   -7.3939   -6.7741    1.4241 C   0  0  0  0  0  0  0  0  0  0  0  0
   -6.3457   -7.3911    0.7878 N   0  0  0  0  0  0  0  0  0  0  0  0
   -5.6390   -8.3208    1.4941 C   0  0  0  0  0  0  0  0  0  0  0  0
   -4.7045   -9.0782    0.8105 C   0  0  0  0  0  0  0  0  0  0  0  0
   -3.9670  -10.0179    1.4465 C   0  0  0  0  0  0  0  0  0  0  0  0
   -2.9681  -10.8072    0.6619 C   0  0  0  0  0  0  0  0  0  0  0  0
   -4.1340  -10.2371    2.7789 C   0  0  0  0  0  0  0  0  0  0  0  0
   -3.3205  -11.2813    3.4716 C   0  0  0  0  0  0  0  0  0  0  0  0
   -5.0386   -9.5174    3.4907 C   0  0  0  0  0  0  0  0  0  0  0  0
   -5.8232   -8.5371    2.8832 C   0  0  0  0  0  0  0  0  0  0  0  0
   -6.7776   -7.7519    3.5632 N   0  0  0  0  0  0  0  0  0  0  0  0
   -7.6590   -6.9265    2.8354 C   0  0  0  0  0  0  0  0  0  0  0  0
   -6.4873   -7.3638    4.9927 C   0  0  0  0  0  0  0  0  0  0  0  0
   -5.1298   -6.6426    5.2518 C   0  0  1  0  0  0  0  0  0  0  0  0
   -5.1333   -5.3594    4.6424 O   0  0  0  0  0  0  0  0  0  0  0  0
   -4.7513   -6.5744    6.7505 C   0  0  1  0  0  0  0  0  0  0  0  0
   -4.4053   -7.8700    7.2315 O   0  0  0  0  0  0  0  0  0  0  0  0
   -3.6580   -5.5538    7.1516 C   0  0  1  0  0  0  0  0  0  0  0  0
   -3.5061   -5.5908    8.5664 O   0  0  0  0  0  0  0  0  0  0  0  0
   -2.2897   -5.8479    6.4966 C   0  0  0  0  0  0  0  0  0  0  0  0
   -2.2530   -5.4754    5.1241 O   0  0  0  0  0  0  0  0  0  0  0  0
   -0.9593   -5.6456    4.2248 P   0  0  0  0  0  0  0  0  0  0  0  0
   -1.1451   -5.0023    2.9043 O   0  0  0  0  0  0  0  0  0  0  0  0
    0.2598   -5.3308    5.0004 O   0  5  0  0  0  0  0  0  0  0  0  0
   -0.9068   -7.2096    3.9316 O   0  5  0  0  0  0  0  0  0  0  0  0
  1 18  1  0  0  0  0
  1  2  1  0  0  0  0
  2  4  1  0  0  0  0
  2  3  2  0  0  0  0
  4  5  1  0  0  0  0
  5  7  1  0  0  0  0
  5  6  2  0  0  0  0
  7 18  2  0  0  0  0
  7  8  1  0  0  0  0
  8  9  1  0  0  0  0
  9 10  2  0  0  0  0
  9 16  1  0  0  0  0
 10 11  1  0  0  0  0
 11 12  1  0  0  0  0
 11 13  2  0  0  0  0
 13 14  1  0  0  0  0
 13 15  1  0  0  0  0
 15 16  2  0  0  0  0
 16 17  1  0  0  0  0
 17 19  1  0  0  0  0
 17 18  1  0  0  0  0
 20 19  1  1  0  0  0
 20 22  1  0  0  0  0
 20 21  1  0  0  0  0
 22 24  1  0  0  0  0
 22 23  1  6  0  0  0
 24 26  1  6  0  0  0
 24 25  1  0  0  0  0
 26 27  1  0  0  0  0
 27 28  1  0  0  0  0
 28 30  1  0  0  0  0
 28 29  2  0  0  0  0
 28 31  1  0  0  0  0
M  CHG  2  30  -1  31  -1
M  END
>  <CHROM.1>
54.45471530,67.10070558,70.36304356,-168.37208538,176.86161528,60.64780107
75.84909072,59.25169249,178.85464141,-171.87631087,-4.87840668,-6.96501753
3.61380569,2.72554422,0.31156000,-2.22983278

>  <Name>
1fmn_cryst

>  <RI>
0

>  <Rbt.Current_Directory>
/home/itssahil/PROJECTS/Mol_Feturizer/New_Systems/rnas/1fmn

>  <Rbt.Executable>
rbdock ($Id: //depot/dev/client3/rdock/2013.1/src/exe/rbdock.cxx#4 $)

>  <Rbt.Library>
libRbt.so (2013.1, Build901 2013/11/27)

>  <Rbt.Parameter_File>
/export/apps/rDock/src/rDock_2013.1_src/data/scripts/dock_solv.prm

>  <Rbt.Receptor>
prm/pocket_docking_4.prm

>  <SCORE>
-32.4649

>  <SCORE.INTER>
-21.9767

>  <SCORE.INTER.CONST>
1

>  <SCORE.INTER.POLAR>
-1.4016

>  <SCORE.INTER.ROT>
7

>  <SCORE.INTER.SOLV>
9.80727

>  <SCORE.INTER.VDW>
-21.5149

>  <SCORE.INTER.norm>
-0.708926

>  <SCORE.INTRA>
-10.4882

>  <SCORE.INTRA.DIHEDRAL>
-11.2829

>  <SCORE.INTRA.DIHEDRAL.0>
15.5708

>  <SCORE.INTRA.POLAR>
-0.784793

>  <SCORE.INTRA.POLAR.0>
-0.0677885

>  <SCORE.INTRA.REPUL>
0

>  <SCORE.INTRA.REPUL.0>
0

>  <SCORE.INTRA.SOLV>
-4.18191

>  <SCORE.INTRA.SOLV.lig_0>
-87.6316

>  <SCORE.INTRA.VDW>
-0.0874431

>  <SCORE.INTRA.VDW.0>
-2.87309

>  <SCORE.INTRA.norm>
-0.338328

>  <SCORE.RESTR>
0

>  <SCORE.RESTR.CAVITY>
0

>  <SCORE.RESTR.norm>
0

>  <SCORE.SYSTEM>
0

>  <SCORE.SYSTEM.CONST>
0

>  <SCORE.SYSTEM.DIHEDRAL>
0

>  <SCORE.SYSTEM.SOLV>
0

>  <SCORE.SYSTEM.norm>
0

>  <SCORE.heavy>
31

>  <SCORE.norm>
-1.04725

>  <SYMMETRIC_BONDS>
33 34 3

>  <RMSD>
5.455

$$$$
1fmn_cryst
 OpenBabel11021811393D
libRbt.so/2013.1/901 2013/11/27
 31 33  0  0  0  0  0  0  0  0999 V2000
   -6.3430   -6.0270   -0.5665 N   0  0  0  0  0  0  0  0  0  0  0  0
   -7.1800   -5.3804   -1.4457 C   0  0  0  0  0  0  0  0  0  0  0  0
   -6.7986   -5.0075   -2.5556 O   0  0  0  0  0  0  0  0  0  0  0  0
   -8.5057   -5.1667   -0.9914 N   0  0  0  0  0  0  0  0  0  0  0  0
   -9.0411   -5.5468    0.2588 C   0  0  0  0  0  0  0  0  0  0  0  0
  -10.2234   -5.2983    0.5269 O   0  0  0  0  0  0  0  0  0  0  0  0
   -8.0874   -6.2283    1.1369 C   0  0  0  0  0  0  0  0  0  0  0  0
   -8.5303   -6.6310    2.3722 N   0  0  0  0  0  0  0  0  0  0  0  0
   -7.5995   -7.0999    3.2533 C   0  0  0  0  0  0  0  0  0  0  0  0
   -8.0029   -7.3330    4.5562 C   0  0  0  0  0  0  0  0  0  0  0  0
   -7.1341   -7.7986    5.4834 C   0  0  0  0  0  0  0  0  0  0  0  0
   -7.6218   -8.0368    6.8769 C   0  0  0  0  0  0  0  0  0  0  0  0
   -5.8387   -8.0458    5.1488 C   0  0  0  0  0  0  0  0  0  0  0  0
   -4.8847   -8.5531    6.1806 C   0  0  0  0  0  0  0  0  0  0  0  0
   -5.3982   -7.8326    3.8826 C   0  0  0  0  0  0  0  0  0  0  0  0
   -6.2529   -7.3541    2.8896 C   0  0  0  0  0  0  0  0  0  0  0  0
   -5.8621   -7.1142    1.5556 N   0  0  0  0  0  0  0  0  0  0  0  0
   -6.7375   -6.4484    0.6734 C   0  0  0  0  0  0  0  0  0  0  0  0
   -4.8269   -8.0275    0.9452 C   0  0  0  0  0  0  0  0  0  0  0  0
   -4.5115   -9.3375    1.7292 C   0  0  1  0  0  0  0  0  0  0  0  0
   -5.6671  -10.1613    1.7906 O   0  0  0  0  0  0  0  0  0  0  0  0
   -3.2827  -10.0984    1.1767 C   0  0  1  0  0  0  0  0  0  0  0  0
   -3.4789  -10.4213   -0.1969 O   0  0  0  0  0  0  0  0  0  0  0  0
   -1.8995   -9.4293    1.3686 C   0  0  1  0  0  0  0  0  0  0  0  0
   -1.9316   -8.1465    0.7527 O   0  0  0  0  0  0  0  0  0  0  0  0
   -1.5141   -9.2578    2.8551 C   0  0  0  0  0  0  0  0  0  0  0  0
   -0.2215   -8.6863    3.0189 O   0  0  0  0  0  0  0  0  0  0  0  0
    0.4485   -8.4769    4.4397 P   0  0  0  0  0  0  0  0  0  0  0  0
    1.8453   -8.0062    4.3013 O   0  0  0  0  0  0  0  0  0  0  0  0
   -0.4615   -7.7381    5.3414 O   0  5  0  0  0  0  0  0  0  0  0  0
    0.5540   -9.9525    5.0282 O   0  5  0  0  0  0  0  0  0  0  0  0
  1 18  1  0  0  0  0
  1  2  1  0  0  0  0
  2  4  1  0  0  0  0
  2  3  2  0  0  0  0
  4  5  1  0  0  0  0
  5  7  1  0  0  0  0
  5  6  2  0  0  0  0
  7 18  2  0  0  0  0
  7  8  1  0  0  0  0
  8  9  1  0  0  0  0
  9 10  2  0  0  0  0
  9 16  1  0  0  0  0
 10 11  1  0  0  0  0
 11 12  1  0  0  0  0
 11 13  2  0  0  0  0
 13 14  1  0  0  0  0
 13 15  1  0  0  0  0
 15 16  2  0  0  0  0
 16 17  1  0  0  0  0
 17 19  1  0  0  0  0
 17 18  1  0  0  0  0
 20 19  1  6  0  0  0
 20 22  1  0  0  0  0
 20 21  1  0  0  0  0
 22 24  1  0  0  0  0
 22 23  1  6  0  0  0
 24 26  1  1  0  0  0
 24 25  1  0  0  0  0
 26 27  1  0  0  0  0
 27 28  1  0  0  0  0
 28 30  1  0  0  0  0
 28 29  2  0  0  0  0
 28 31  1  0  0  0  0
M  CHG  2  30  -1  31  -1
M  END
>  <CHROM.1>
13.01914734,63.34205115,-57.83541530,-160.79808044,-57.91155725,-176.30000773
177.88303063,-177.95622987,-176.54457808,173.67637308,-4.65484849,-7.77117750
2.37957521,-2.70409741,-0.26896915,1.74661285

>  <Name>
1fmn_cryst

>  <RI>
0

>  <Rbt.Current_Directory>
/home/itssahil/PROJECTS/Mol_Feturizer/New_Systems/rnas/1fmn

>  <Rbt.Executable>
rbdock ($Id: //depot/dev/client3/rdock/2013.1/src/exe/rbdock.cxx#4 $)

>  <Rbt.Library>
libRbt.so (2013.1, Build901 2013/11/27)

>  <Rbt.Parameter_File>
/export/apps/rDock/src/rDock_2013.1_src/data/scripts/dock_solv.prm

>  <Rbt.Receptor>
prm/pocket_docking_5.prm

>  <SCORE>
-29.1676

>  <SCORE.INTER>
-23.5592

>  <SCORE.INTER.CONST>
1

>  <SCORE.INTER.POLAR>
-0.867823

>  <SCORE.INTER.ROT>
7

>  <SCORE.INTER.SOLV>
13.9392

>  <SCORE.INTER.VDW>
-25.7265

>  <SCORE.INTER.norm>
-0.759975

>  <SCORE.INTRA>
-5.6084

>  <SCORE.INTRA.DIHEDRAL>
-10.9248

>  <SCORE.INTRA.DIHEDRAL.0>
15.5708

>  <SCORE.INTRA.POLAR>
0.0677885

>  <SCORE.INTRA.POLAR.0>
-0.0677885

>  <SCORE.INTRA.REPUL>
0

>  <SCORE.INTRA.REPUL.0>
0

>  <SCORE.INTRA.SOLV>
-4.45975

>  <SCORE.INTRA.SOLV.lig_0>
-87.6316

>  <SCORE.INTRA.VDW>
1.85338

>  <SCORE.INTRA.VDW.0>
-2.87309

>  <SCORE.INTRA.norm>
-0.180916

>  <SCORE.RESTR>
0

>  <SCORE.RESTR.CAVITY>
0

>  <SCORE.RESTR.norm>
0

>  <SCORE.SYSTEM>
0

>  <SCORE.SYSTEM.CONST>
0

>  <SCORE.SYSTEM.DIHEDRAL>
0

>  <SCORE.SYSTEM.SOLV>
0

>  <SCORE.SYSTEM.norm>
0

>  <SCORE.heavy>
31

>  <SCORE.norm>
-0.940891

>  <SYMMETRIC_BONDS>
33 34 3

>  <RMSD>
5.462

$$$$
1fmn_cryst
 OpenBabel11021811393D
libRbt.so/2013.1/901 2013/11/27
 31 33  0  0  0  0  0  0  0  0999 V2000
   -7.3419   -6.3489   -0.0961 N   0  0  0  0  0  0  0  0  0  0  0  0
   -8.1982   -5.5134   -0.7746 C   0  0  0  0  0  0  0  0  0  0  0  0
   -8.0146   -5.2081   -1.9534 O   0  0  0  0  0  0  0  0  0  0  0  0
   -9.3005   -5.0233   -0.0302 N   0  0  0  0  0  0  0  0  0  0  0  0
   -9.5986   -5.3049    1.3211 C   0  0  0  0  0  0  0  0  0  0  0  0
  -10.6011   -4.8082    1.8500 O   0  0  0  0  0  0  0  0  0  0  0  0
   -8.6397   -6.2002    1.9723 C   0  0  0  0  0  0  0  0  0  0  0  0
   -8.8587   -6.5239    3.2882 N   0  0  0  0  0  0  0  0  0  0  0  0
   -7.8741   -7.2069    3.9414 C   0  0  0  0  0  0  0  0  0  0  0  0
   -8.0026   -7.3756    5.3087 C   0  0  0  0  0  0  0  0  0  0  0  0
   -7.0652   -8.0427    6.0211 C   0  0  0  0  0  0  0  0  0  0  0  0
   -7.2534   -8.1999    7.4963 C   0  0  0  0  0  0  0  0  0  0  0  0
   -5.9709   -8.5616    5.4011 C   0  0  0  0  0  0  0  0  0  0  0  0
   -4.9374   -9.2907    6.1964 C   0  0  0  0  0  0  0  0  0  0  0  0
   -5.8030   -8.4214    4.0613 C   0  0  0  0  0  0  0  0  0  0  0  0
   -6.7397   -7.7433    3.2813 C   0  0  0  0  0  0  0  0  0  0  0  0
   -6.6289   -7.5645    1.8864 N   0  0  0  0  0  0  0  0  0  0  0  0
   -7.5181   -6.7017    1.2134 C   0  0  0  0  0  0  0  0  0  0  0  0
   -5.9919   -8.6691    1.0787 C   0  0  0  0  0  0  0  0  0  0  0  0
   -4.6381   -9.2259    1.6147 C   0  0  1  0  0  0  0  0  0  0  0  0
   -4.7689  -10.6030    1.9379 O   0  0  0  0  0  0  0  0  0  0  0  0
   -3.4491   -8.9621    0.6603 C   0  0  1  0  0  0  0  0  0  0  0  0
   -3.2317   -7.5613    0.5184 O   0  0  0  0  0  0  0  0  0  0  0  0
   -2.1134   -9.6720    0.9919 C   0  0  1  0  0  0  0  0  0  0  0  0
   -1.1438   -9.2782    0.0271 O   0  0  0  0  0  0  0  0  0  0  0  0
   -1.5814   -9.3273    2.4011 C   0  0  0  0  0  0  0  0  0  0  0  0
   -0.4054  -10.0567    2.7313 O   0  0  0  0  0  0  0  0  0  0  0  0
    0.3363   -9.9011    4.1230 P   0  0  0  0  0  0  0  0  0  0  0  0
   -0.5894  -10.1650    5.2479 O   0  0  0  0  0  0  0  0  0  0  0  0
    1.6397  -10.5994    4.1000 O   0  5  0  0  0  0  0  0  0  0  0  0
    0.6680   -8.3459    4.2019 O   0  5  0  0  0  0  0  0  0  0  0  0
  1 18  1  0  0  0  0
  1  2  1  0  0  0  0
  2  4  1  0  0  0  0
  2  3  2  0  0  0  0
  4  5  1  0  0  0  0
  5  7  1  0  0  0  0
  5  6  2  0  0  0  0
  7 18  2  0  0  0  0
  7  8  1  0  0  0  0
  8  9  1  0  0  0  0
  9 10  2  0  0  0  0
  9 16  1  0  0  0  0
 10 11  1  0  0  0  0
 11 12  1  0  0  0  0
 11 13  2  0  0  0  0
 13 14  1  0  0  0  0
 13 15  1  0  0  0  0
 15 16  2  0  0  0  0
 16 17  1  0  0  0  0
 17 19  1  0  0  0  0
 17 18  1  0  0  0  0
 20 19  1  6  0  0  0
 20 22  1  0  0  0  0
 20 21  1  0  0  0  0
 22 24  1  0  0  0  0
 22 23  1  1  0  0  0
 24 26  1  1  0  0  0
 24 25  1  0  0  0  0
 26 27  1  0  0  0  0
 27 28  1  0  0  0  0
 28 30  1  0  0  0  0
 28 29  2  0  0  0  0
 28 31  1  0  0  0  0
M  CHG  2  30  -1  31  -1
M  END
>  <CHROM.1>
-48.38088170,118.07886131,63.14223301,-64.04754505,-178.50970718,-62.93381822
175.83932259,57.62130115,-179.43573371,55.77286694,-4.91232215,-8.06580404
2.60865252,-2.83654429,-0.36873679,1.79972883

>  <Name>
1fmn_cryst

>  <RI>
0

>  <Rbt.Current_Directory>
/home/itssahil/PROJECTS/Mol_Feturizer/New_Systems/rnas/1fmn

>  <Rbt.Executable>
rbdock ($Id: //depot/dev/client3/rdock/2013.1/src/exe/rbdock.cxx#4 $)

>  <Rbt.Library>
libRbt.so (2013.1, Build901 2013/11/27)

>  <Rbt.Parameter_File>
/export/apps/rDock/src/rDock_2013.1_src/data/scripts/dock_solv.prm

>  <Rbt.Receptor>
prm/pocket_docking_8.prm

>  <SCORE>
-34.7341

>  <SCORE.INTER>
-29.5952

>  <SCORE.INTER.CONST>
1

>  <SCORE.INTER.POLAR>
-1.63727

>  <SCORE.INTER.ROT>
7

>  <SCORE.INTER.SOLV>
12.5012

>  <SCORE.INTER.VDW>
-26.7063

>  <SCORE.INTER.norm>
-0.954685

>  <SCORE.INTRA>
-5.1388

>  <SCORE.INTRA.DIHEDRAL>
-8.78189

>  <SCORE.INTRA.DIHEDRAL.0>
15.5708

>  <SCORE.INTRA.POLAR>
0.0441095

>  <SCORE.INTRA.POLAR.0>
-0.0677885

>  <SCORE.INTRA.REPUL>
0.00816584

>  <SCORE.INTRA.REPUL.0>
0

>  <SCORE.INTRA.SOLV>
-4.81381

>  <SCORE.INTRA.SOLV.lig_0>
-87.6316

>  <SCORE.INTRA.VDW>
1.46825

>  <SCORE.INTRA.VDW.0>
-2.87309

>  <SCORE.INTRA.norm>
-0.165768

>  <SCORE.RESTR>
0

>  <SCORE.RESTR.CAVITY>
0

>  <SCORE.RESTR.norm>
0

>  <SCORE.SYSTEM>
0

>  <SCORE.SYSTEM.CONST>
0

>  <SCORE.SYSTEM.DIHEDRAL>
0

>  <SCORE.SYSTEM.SOLV>
0

>  <SCORE.SYSTEM.norm>
0

>  <SCORE.heavy>
31

>  <SCORE.norm>
-1.12045

>  <SYMMETRIC_BONDS>
33 34 3

>  <RMSD>
5.505

$$$$
1fmn_cryst
 OpenBabel11021811393D
libRbt.so/2013.1/901 2013/11/27
 31 33  0  0  0  0  0  0  0  0999 V2000
   -7.4483   -5.4772   -1.9571 N   0  0  0  0  0  0  0  0  0  0  0  0
   -7.4343   -4.9087   -3.2094 C   0  0  0  0  0  0  0  0  0  0  0  0
   -6.5016   -5.0822   -3.9946 O   0  0  0  0  0  0  0  0  0  0  0  0
   -8.5575   -4.1078   -3.5358 N   0  0  0  0  0  0  0  0  0  0  0  0
   -9.6718   -3.8404   -2.7107 C   0  0  0  0  0  0  0  0  0  0  0  0
  -10.5896   -3.1207   -3.1246 O   0  0  0  0  0  0  0  0  0  0  0  0
   -9.6107   -4.4807   -1.3949 C   0  0  0  0  0  0  0  0  0  0  0  0
  -10.6573   -4.2704   -0.5320 N   0  0  0  0  0  0  0  0  0  0  0  0
  -10.5158   -4.7153    0.7505 C   0  0  0  0  0  0  0  0  0  0  0  0
  -11.4803   -4.3478    1.6719 C   0  0  0  0  0  0  0  0  0  0  0  0
  -11.4048   -4.7528    2.9610 C   0  0  0  0  0  0  0  0  0  0  0  0
  -12.4750   -4.3304    3.9162 C   0  0  0  0  0  0  0  0  0  0  0  0
  -10.3706   -5.5329    3.3769 C   0  0  0  0  0  0  0  0  0  0  0  0
  -10.2914   -5.9699    4.8034 C   0  0  0  0  0  0  0  0  0  0  0  0
   -9.4016   -5.9188    2.5080 C   0  0  0  0  0  0  0  0  0  0  0  0
   -9.4328   -5.5291    1.1691 C   0  0  0  0  0  0  0  0  0  0  0  0
   -8.4621   -5.8966    0.2138 N   0  0  0  0  0  0  0  0  0  0  0  0
   -8.4678   -5.2987   -1.0631 C   0  0  0  0  0  0  0  0  0  0  0  0
   -7.8280   -7.2609    0.3364 C   0  0  0  0  0  0  0  0  0  0  0  0
   -6.8489   -7.4639    1.5324 C   0  0  1  0  0  0  0  0  0  0  0  0
   -6.0334   -8.6053    1.3089 O   0  0  0  0  0  0  0  0  0  0  0  0
   -6.0111   -6.2039    1.8557 C   0  0  1  0  0  0  0  0  0  0  0  0
   -5.4186   -6.3230    3.1458 O   0  0  0  0  0  0  0  0  0  0  0  0
   -4.9378   -5.7908    0.8188 C   0  0  1  0  0  0  0  0  0  0  0  0
   -4.3383   -4.5750    1.2527 O   0  0  0  0  0  0  0  0  0  0  0  0
   -3.8316   -6.8548    0.6400 C   0  0  0  0  0  0  0  0  0  0  0  0
   -2.9065   -6.5100   -0.3844 O   0  0  0  0  0  0  0  0  0  0  0  0
   -1.5679   -7.3195   -0.6373 P   0  0  0  0  0  0  0  0  0  0  0  0
   -1.8467   -8.7643   -0.8013 O   0  0  0  0  0  0  0  0  0  0  0  0
   -0.7315   -6.6405   -1.6504 O   0  5  0  0  0  0  0  0  0  0  0  0
   -0.7837   -7.1923    0.7425 O   0  5  0  0  0  0  0  0  0  0  0  0
  1 18  1  0  0  0  0
  1  2  1  0  0  0  0
  2  4  1  0  0  0  0
  2  3  2  0  0  0  0
  4  5  1  0  0  0  0
  5  7  1  0  0  0  0
  5  6  2  0  0  0  0
  7 18  2  0  0  0  0
  7  8  1  0  0  0  0
  8  9  1  0  0  0  0
  9 10  2  0  0  0  0
  9 16  1  0  0  0  0
 10 11  1  0  0  0  0
 11 12  1  0  0  0  0
 11 13  2  0  0  0  0
 13 14  1  0  0  0  0
 13 15  1  0  0  0  0
 15 16  2  0  0  0  0
 16 17  1  0  0  0  0
 17 19  1  0  0  0  0
 17 18  1  0  0  0  0
 20 19  1  6  0  0  0
 20 22  1  0  0  0  0
 20 21  1  0  0  0  0
 22 24  1  0  0  0  0
 22 23  1  1  0  0  0
 24 26  1  1  0  0  0
 24 25  1  0  0  0  0
 26 27  1  0  0  0  0
 27 28  1  0  0  0  0
 28 30  1  0  0  0  0
 28 29  2  0  0  0  0
 28 31  1  0  0  0  0
M  CHG  2  30  -1  31  -1
M  END
>  <CHROM.1>
-70.67718530,-162.36850872,164.38322879,-35.30115696,176.45920605,59.82303634
175.65279292,-165.92847285,171.23502544,53.07766492,-6.88592978,-5.81943786
0.20342204,3.06036095,-0.31006225,1.84356332

>  <Name>
1fmn_cryst

>  <RI>
0

>  <Rbt.Current_Directory>
/home/itssahil/PROJECTS/Mol_Feturizer/New_Systems/rnas/1fmn

>  <Rbt.Executable>
rbdock ($Id: //depot/dev/client3/rdock/2013.1/src/exe/rbdock.cxx#4 $)

>  <Rbt.Library>
libRbt.so (2013.1, Build901 2013/11/27)

>  <Rbt.Parameter_File>
/export/apps/rDock/src/rDock_2013.1_src/data/scripts/dock_solv.prm

>  <Rbt.Receptor>
prm/pocket_docking_6.prm

>  <SCORE>
-56.593

>  <SCORE.INTER>
-51.2138

>  <SCORE.INTER.CONST>
1

>  <SCORE.INTER.POLAR>
-3.08346

>  <SCORE.INTER.ROT>
7

>  <SCORE.INTER.SOLV>
26.3309

>  <SCORE.INTER.VDW>
-40.908

>  <SCORE.INTER.norm>
-1.65206

>  <SCORE.INTRA>
-5.37915

>  <SCORE.INTRA.DIHEDRAL>
-7.74129

>  <SCORE.INTRA.DIHEDRAL.0>
15.5708

>  <SCORE.INTRA.POLAR>
0.0677885

>  <SCORE.INTRA.POLAR.0>
-0.0677885

>  <SCORE.INTRA.REPUL>
0

>  <SCORE.INTRA.REPUL.0>
0

>  <SCORE.INTRA.SOLV>
-4.86318

>  <SCORE.INTRA.SOLV.lig_0>
-87.6316

>  <SCORE.INTRA.VDW>
0.692604

>  <SCORE.INTRA.VDW.0>
-2.87309

>  <SCORE.INTRA.norm>
-0.173521

>  <SCORE.RESTR>
0

>  <SCORE.RESTR.CAVITY>
0

>  <SCORE.RESTR.norm>
0

>  <SCORE.SYSTEM>
0

>  <SCORE.SYSTEM.CONST>
0

>  <SCORE.SYSTEM.DIHEDRAL>
0

>  <SCORE.SYSTEM.SOLV>
0

>  <SCORE.SYSTEM.norm>
0

>  <SCORE.heavy>
31

>  <SCORE.norm>
-1.82558

>  <SYMMETRIC_BONDS>
33 34 3

>  <RMSD>
5.510

$$$$
1fmn_cryst
 OpenBabel11021811393D
libRbt.so/2013.1/901 2013/11/27
 31 33  0  0  0  0  0  0  0  0999 V2000
   -7.2982   -5.1140   -1.9942 N   0  0  0  0  0  0  0  0  0  0  0  0
   -7.3825   -4.6419   -3.2832 C   0  0  0  0  0  0  0  0  0  0  0  0
   -6.4200   -4.6651   -4.0511 O   0  0  0  0  0  0  0  0  0  0  0  0
   -8.6442   -4.1235   -3.6690 N   0  0  0  0  0  0  0  0  0  0  0  0
   -9.8049   -4.0449   -2.8686 C   0  0  0  0  0  0  0  0  0  0  0  0
  -10.8470   -3.5677   -3.3351 O   0  0  0  0  0  0  0  0  0  0  0  0
   -9.6330   -4.5665   -1.5108 C   0  0  0  0  0  0  0  0  0  0  0  0
  -10.7161   -4.5265   -0.6684 N   0  0  0  0  0  0  0  0  0  0  0  0
  -10.5067   -4.8429    0.6426 C   0  0  0  0  0  0  0  0  0  0  0  0
  -11.5441   -4.6281    1.5326 C   0  0  0  0  0  0  0  0  0  0  0  0
  -11.4078   -4.9193    2.8472 C   0  0  0  0  0  0  0  0  0  0  0  0
  -12.5608   -4.6713    3.7667 C   0  0  0  0  0  0  0  0  0  0  0  0
  -10.2391   -5.4304    3.3205 C   0  0  0  0  0  0  0  0  0  0  0  0
  -10.0949   -5.7424    4.7744 C   0  0  0  0  0  0  0  0  0  0  0  0
   -9.1944   -5.6584    2.4842 C   0  0  0  0  0  0  0  0  0  0  0  0
   -9.2832   -5.3762    1.1211 C   0  0  0  0  0  0  0  0  0  0  0  0
   -8.2391   -5.5918    0.1973 N   0  0  0  0  0  0  0  0  0  0  0  0
   -8.3485   -5.0971   -1.1184 C   0  0  0  0  0  0  0  0  0  0  0  0
   -7.3316   -6.7776    0.4177 C   0  0  0  0  0  0  0  0  0  0  0  0
   -6.0285   -6.5100    1.2304 C   0  0  1  0  0  0  0  0  0  0  0  0
   -6.3445   -5.9068    2.4771 O   0  0  0  0  0  0  0  0  0  0  0  0
   -5.1457   -7.7694    1.4001 C   0  0  1  0  0  0  0  0  0  0  0  0
   -5.9597   -8.9146    1.6351 O   0  0  0  0  0  0  0  0  0  0  0  0
   -4.1276   -8.0687    0.2724 C   0  0  1  0  0  0  0  0  0  0  0  0
   -3.5422   -6.8394   -0.1424 O   0  0  0  0  0  0  0  0  0  0  0  0
   -3.0026   -9.0307    0.7159 C   0  0  0  0  0  0  0  0  0  0  0  0
   -2.0415   -9.2523   -0.3094 O   0  0  0  0  0  0  0  0  0  0  0  0
   -0.8410  -10.2746   -0.1514 P   0  0  0  0  0  0  0  0  0  0  0  0
   -0.0364   -9.9632    1.0519 O   0  0  0  0  0  0  0  0  0  0  0  0
   -1.3092  -11.6632   -0.3501 O   0  5  0  0  0  0  0  0  0  0  0  0
    0.1023   -9.9432   -1.3904 O   0  5  0  0  0  0  0  0  0  0  0  0
  1 18  1  0  0  0  0
  1  2  1  0  0  0  0
  2  4  1  0  0  0  0
  2  3  2  0  0  0  0
  4  5  1  0  0  0  0
  5  7  1  0  0  0  0
  5  6  2  0  0  0  0
  7 18  2  0  0  0  0
  7  8  1  0  0  0  0
  8  9  1  0  0  0  0
  9 10  2  0  0  0  0
  9 16  1  0  0  0  0
 10 11  1  0  0  0  0
 11 12  1  0  0  0  0
 11 13  2  0  0  0  0
 13 14  1  0  0  0  0
 13 15  1  0  0  0  0
 15 16  2  0  0  0  0
 16 17  1  0  0  0  0
 17 19  1  0  0  0  0
 17 18  1  0  0  0  0
 20 19  1  1  0  0  0
 20 22  1  0  0  0  0
 20 21  1  0  0  0  0
 22 24  1  0  0  0  0
 22 23  1  6  0  0  0
 24 26  1  1  0  0  0
 24 25  1  0  0  0  0
 26 27  1  0  0  0  0
 27 28  1  0  0  0  0
 28 30  1  0  0  0  0
 28 29  2  0  0  0  0
 28 31  1  0  0  0  0
M  CHG  2  30  -1  31  -1
M  END
>  <CHROM.1>
-93.09177320,54.19863063,-39.38986437,-173.65812074,40.52708509,80.01370677
-177.42614476,-159.96262302,-175.63691021,-55.57880623,-6.60508931,-6.63315093
0.12772436,-3.02885924,-0.51105575,1.89819537

>  <Name>
1fmn_cryst

>  <RI>
0

>  <Rbt.Current_Directory>
/home/itssahil/PROJECTS/Mol_Feturizer/New_Systems/rnas/1fmn

>  <Rbt.Executable>
rbdock ($Id: //depot/dev/client3/rdock/2013.1/src/exe/rbdock.cxx#4 $)

>  <Rbt.Library>
libRbt.so (2013.1, Build901 2013/11/27)

>  <Rbt.Parameter_File>
/export/apps/rDock/src/rDock_2013.1_src/data/scripts/dock_solv.prm

>  <Rbt.Receptor>
prm/pocket_docking_8.prm

>  <SCORE>
-52.4231

>  <SCORE.INTER>
-47.6938

>  <SCORE.INTER.CONST>
1

>  <SCORE.INTER.POLAR>
-2.49149

>  <SCORE.INTER.ROT>
7

>  <SCORE.INTER.SOLV>
17.7306

>  <SCORE.INTER.VDW>
-37.6678

>  <SCORE.INTER.norm>
-1.53851

>  <SCORE.INTRA>
-4.72928

>  <SCORE.INTRA.DIHEDRAL>
-6.12431

>  <SCORE.INTRA.DIHEDRAL.0>
15.5708

>  <SCORE.INTRA.POLAR>
0.0677885

>  <SCORE.INTRA.POLAR.0>
-0.0677885

>  <SCORE.INTRA.REPUL>
0

>  <SCORE.INTRA.REPUL.0>
0

>  <SCORE.INTRA.SOLV>
-5.21225

>  <SCORE.INTRA.SOLV.lig_0>
-87.6316

>  <SCORE.INTRA.VDW>
0.708521

>  <SCORE.INTRA.VDW.0>
-2.87309

>  <SCORE.INTRA.norm>
-0.152557

>  <SCORE.RESTR>
0

>  <SCORE.RESTR.CAVITY>
0

>  <SCORE.RESTR.norm>
0

>  <SCORE.SYSTEM>
0

>  <SCORE.SYSTEM.CONST>
0

>  <SCORE.SYSTEM.DIHEDRAL>
0

>  <SCORE.SYSTEM.SOLV>
0

>  <SCORE.SYSTEM.norm>
0

>  <SCORE.heavy>
31

>  <SCORE.norm>
-1.69107

>  <SYMMETRIC_BONDS>
33 34 3

>  <RMSD>
5.530

$$$$
1fmn_cryst
 OpenBabel11021811393D
libRbt.so/2013.1/901 2013/11/27
 31 33  0  0  0  0  0  0  0  0999 V2000
   -7.3797   -5.5690   -1.9394 N   0  0  0  0  0  0  0  0  0  0  0  0
   -7.3344   -5.0245   -3.2015 C   0  0  0  0  0  0  0  0  0  0  0  0
   -6.3926   -5.2302   -3.9678 O   0  0  0  0  0  0  0  0  0  0  0  0
   -8.4367   -4.2090   -3.5614 N   0  0  0  0  0  0  0  0  0  0  0  0
   -9.5590   -3.9053   -2.7600 C   0  0  0  0  0  0  0  0  0  0  0  0
  -10.4560   -3.1765   -3.2023 O   0  0  0  0  0  0  0  0  0  0  0  0
   -9.5315   -4.5218   -1.4317 C   0  0  0  0  0  0  0  0  0  0  0  0
  -10.5878   -4.2757   -0.5904 N   0  0  0  0  0  0  0  0  0  0  0  0
  -10.4758   -4.6990    0.7022 C   0  0  0  0  0  0  0  0  0  0  0  0
  -11.4479   -4.2962    1.6006 C   0  0  0  0  0  0  0  0  0  0  0  0
  -11.4011   -4.6783    2.8979 C   0  0  0  0  0  0  0  0  0  0  0  0
  -12.4786   -4.2179    3.8273 C   0  0  0  0  0  0  0  0  0  0  0  0
  -10.3889   -5.4696    3.3454 C   0  0  0  0  0  0  0  0  0  0  0  0
  -10.3413   -5.8811    4.7809 C   0  0  0  0  0  0  0  0  0  0  0  0
   -9.4134   -5.8898    2.5000 C   0  0  0  0  0  0  0  0  0  0  0  0
   -9.4154   -5.5249    1.1538 C   0  0  0  0  0  0  0  0  0  0  0  0
   -8.4364   -5.9284    0.2218 N   0  0  0  0  0  0  0  0  0  0  0  0
   -8.4100   -5.3547   -1.0659 C   0  0  0  0  0  0  0  0  0  0  0  0
   -7.8305   -7.3018    0.3801 C   0  0  0  0  0  0  0  0  0  0  0  0
   -6.6213   -7.4161    1.3574 C   0  0  1  0  0  0  0  0  0  0  0  0
   -6.2804   -8.7807    1.5566 O   0  0  0  0  0  0  0  0  0  0  0  0
   -5.4022   -6.5690    0.9212 C   0  0  1  0  0  0  0  0  0  0  0  0
   -5.7206   -5.1815    0.9753 O   0  0  0  0  0  0  0  0  0  0  0  0
   -4.0660   -6.8324    1.6582 C   0  0  1  0  0  0  0  0  0  0  0  0
   -3.7037   -8.1944    1.4589 O   0  0  0  0  0  0  0  0  0  0  0  0
   -2.9139   -5.9328    1.1572 C   0  0  0  0  0  0  0  0  0  0  0  0
   -2.4225   -6.3373   -0.1152 O   0  0  0  0  0  0  0  0  0  0  0  0
   -0.9269   -6.0865   -0.5749 P   0  0  0  0  0  0  0  0  0  0  0  0
    0.0287   -6.5743    0.4455 O   0  0  0  0  0  0  0  0  0  0  0  0
   -0.7364   -6.5048   -1.9805 O   0  5  0  0  0  0  0  0  0  0  0  0
   -0.7891   -4.5004   -0.5618 O   0  5  0  0  0  0  0  0  0  0  0  0
  1 18  1  0  0  0  0
  1  2  1  0  0  0  0
  2  4  1  0  0  0  0
  2  3  2  0  0  0  0
  4  5  1  0  0  0  0
  5  7  1  0  0  0  0
  5  6  2  0  0  0  0
  7 18  2  0  0  0  0
  7  8  1  0  0  0  0
  8  9  1  0  0  0  0
  9 10  2  0  0  0  0
  9 16  1  0  0  0  0
 10 11  1  0  0  0  0
 11 12  1  0  0  0  0
 11 13  2  0  0  0  0
 13 14  1  0  0  0  0
 13 15  1  0  0  0  0
 15 16  2  0  0  0  0
 16 17  1  0  0  0  0
 17 19  1  0  0  0  0
 17 18  1  0  0  0  0
 20 19  1  6  0  0  0
 20 22  1  0  0  0  0
 20 21  1  0  0  0  0
 22 24  1  0  0  0  0
 22 23  1  1  0  0  0
 24 26  1  6  0  0  0
 24 25  1  0  0  0  0
 26 27  1  0  0  0  0
 27 28  1  0  0  0  0
 28 30  1  0  0  0  0
 28 29  2  0  0  0  0
 28 31  1  0  0  0  0
M  CHG  2  30  -1  31  -1
M  END
>  <CHROM.1>
-85.41446413,171.56857049,65.49563531,49.98593358,59.71573389,-49.78795735
-74.44356092,-58.76615045,-151.52060924,51.17968094,-6.65745224,-5.67276499
0.13349762,3.05572617,-0.20766441,1.89224160

>  <Name>
1fmn_cryst

>  <RI>
0

>  <Rbt.Current_Directory>
/home/itssahil/PROJECTS/Mol_Feturizer/New_Systems/rnas/1fmn

>  <Rbt.Executable>
rbdock ($Id: //depot/dev/client3/rdock/2013.1/src/exe/rbdock.cxx#4 $)

>  <Rbt.Library>
libRbt.so (2013.1, Build901 2013/11/27)

>  <Rbt.Parameter_File>
/export/apps/rDock/src/rDock_2013.1_src/data/scripts/dock_solv.prm

>  <Rbt.Receptor>
prm/pocket_docking_7.prm

>  <SCORE>
-54.1242

>  <SCORE.INTER>
-45.2287

>  <SCORE.INTER.CONST>
1

>  <SCORE.INTER.POLAR>
-2.14699

>  <SCORE.INTER.ROT>
7

>  <SCORE.INTER.SOLV>
25.6579

>  <SCORE.INTER.VDW>
-39.8152

>  <SCORE.INTER.norm>
-1.45899

>  <SCORE.INTRA>
-8.9012

>  <SCORE.INTRA.DIHEDRAL>
-7.6433

>  <SCORE.INTRA.DIHEDRAL.0>
15.5708

>  <SCORE.INTRA.POLAR>
-1.15075

>  <SCORE.INTRA.POLAR.0>
-0.0677885

>  <SCORE.INTRA.REPUL>
0

>  <SCORE.INTRA.REPUL.0>
0

>  <SCORE.INTRA.SOLV>
-3.1356

>  <SCORE.INTRA.SOLV.lig_0>
-87.6316

>  <SCORE.INTRA.VDW>
0.400813

>  <SCORE.INTRA.VDW.0>
-2.87309

>  <SCORE.INTRA.norm>
-0.287135

>  <SCORE.RESTR>
0.00575623

>  <SCORE.RESTR.CAVITY>
0.00575623

>  <SCORE.RESTR.norm>
0.000185685

>  <SCORE.SYSTEM>
0

>  <SCORE.SYSTEM.CONST>
0

>  <SCORE.SYSTEM.DIHEDRAL>
0

>  <SCORE.SYSTEM.SOLV>
0

>  <SCORE.SYSTEM.norm>
0

>  <SCORE.heavy>
31

>  <SCORE.norm>
-1.74594

>  <SYMMETRIC_BONDS>
33 34 3

>  <RMSD>
5.565

$$$$
1fmn_cryst
 OpenBabel11021811393D
libRbt.so/2013.1/901 2013/11/27
 31 33  0  0  0  0  0  0  0  0999 V2000
   -7.3713   -6.2562   -0.3322 N   0  0  0  0  0  0  0  0  0  0  0  0
   -8.2943   -5.5443   -1.0622 C   0  0  0  0  0  0  0  0  0  0  0  0
   -8.0977   -5.2338   -2.2376 O   0  0  0  0  0  0  0  0  0  0  0  0
   -9.4816   -5.1873   -0.3751 N   0  0  0  0  0  0  0  0  0  0  0  0
   -9.8025   -5.4864    0.9672 C   0  0  0  0  0  0  0  0  0  0  0  0
  -10.8820   -5.1131    1.4432 O   0  0  0  0  0  0  0  0  0  0  0  0
   -8.7691   -6.2450    1.6756 C   0  0  0  0  0  0  0  0  0  0  0  0
   -9.0047   -6.5764    2.9867 N   0  0  0  0  0  0  0  0  0  0  0  0
   -7.9726   -7.1212    3.6942 C   0  0  0  0  0  0  0  0  0  0  0  0
   -8.1402   -7.2867    5.0576 C   0  0  0  0  0  0  0  0  0  0  0  0
   -7.1595   -7.8208    5.8219 C   0  0  0  0  0  0  0  0  0  0  0  0
   -7.3926   -7.9810    7.2904 C   0  0  0  0  0  0  0  0  0  0  0  0
   -5.9821   -8.2058    5.2592 C   0  0  0  0  0  0  0  0  0  0  0  0
   -4.9021   -8.7882    6.1116 C   0  0  0  0  0  0  0  0  0  0  0  0
   -5.7731   -8.0632    3.9255 C   0  0  0  0  0  0  0  0  0  0  0  0
   -6.7514   -7.5189    3.0935 C   0  0  0  0  0  0  0  0  0  0  0  0
   -6.6014   -7.3460    1.7015 N   0  0  0  0  0  0  0  0  0  0  0  0
   -7.5606   -6.6111    0.9750 C   0  0  0  0  0  0  0  0  0  0  0  0
   -5.7953   -8.3721    0.9427 C   0  0  0  0  0  0  0  0  0  0  0  0
   -4.2924   -8.5003    1.3363 C   0  0  1  0  0  0  0  0  0  0  0  0
   -4.0673   -9.7279    2.0148 O   0  0  0  0  0  0  0  0  0  0  0  0
   -3.3300   -8.3116    0.1395 C   0  0  1  0  0  0  0  0  0  0  0  0
   -3.4497   -6.9931   -0.3868 O   0  0  0  0  0  0  0  0  0  0  0  0
   -1.8381   -8.6498    0.3798 C   0  0  1  0  0  0  0  0  0  0  0  0
   -1.1048   -8.3034   -0.7899 O   0  0  0  0  0  0  0  0  0  0  0  0
   -1.2358   -7.8951    1.5861 C   0  0  0  0  0  0  0  0  0  0  0  0
   -1.4449   -6.4901    1.5076 O   0  0  0  0  0  0  0  0  0  0  0  0
   -0.9917   -5.4915    2.6517 P   0  0  0  0  0  0  0  0  0  0  0  0
   -1.8059   -4.2552    2.6274 O   0  0  0  0  0  0  0  0  0  0  0  0
   -0.8307   -6.2080    3.9353 O   0  5  0  0  0  0  0  0  0  0  0  0
    0.4704   -5.0460    2.2062 O   0  5  0  0  0  0  0  0  0  0  0  0
  1 18  1  0  0  0  0
  1  2  1  0  0  0  0
  2  4  1  0  0  0  0
  2  3  2  0  0  0  0
  4  5  1  0  0  0  0
  5  7  1  0  0  0  0
  5  6  2  0  0  0  0
  7 18  2  0  0  0  0
  7  8  1  0  0  0  0
  8  9  1  0  0  0  0
  9 10  2  0  0  0  0
  9 16  1  0  0  0  0
 10 11  1  0  0  0  0
 11 12  1  0  0  0  0
 11 13  2  0  0  0  0
 13 14  1  0  0  0  0
 13 15  1  0  0  0  0
 15 16  2  0  0  0  0
 16 17  1  0  0  0  0
 17 19  1  0  0  0  0
 17 18  1  0  0  0  0
 20 19  1  6  0  0  0
 20 22  1  0  0  0  0
 20 21  1  0  0  0  0
 22 24  1  0  0  0  0
 22 23  1  1  0  0  0
 24 26  1  1  0  0  0
 24 25  1  0  0  0  0
 26 27  1  0  0  0  0
 27 28  1  0  0  0  0
 28 30  1  0  0  0  0
 28 29  2  0  0  0  0
 28 31  1  0  0  0  0
M  CHG  2  30  -1  31  -1
M  END
>  <CHROM.1>
-62.51937753,109.36893657,63.32220247,-172.42568647,-174.98966702,-159.29318604
-52.77058307,-175.27670856,176.84714152,-155.20545955,-5.15846818,-6.91001470
2.03468052,-3.12443974,-0.05144623,1.82120412

>  <Name>
1fmn_cryst

>  <RI>
0

>  <Rbt.Current_Directory>
/home/itssahil/PROJECTS/Mol_Feturizer/New_Systems/rnas/1fmn

>  <Rbt.Executable>
rbdock ($Id: //depot/dev/client3/rdock/2013.1/src/exe/rbdock.cxx#4 $)

>  <Rbt.Library>
libRbt.so (2013.1, Build901 2013/11/27)

>  <Rbt.Parameter_File>
/export/apps/rDock/src/rDock_2013.1_src/data/scripts/dock_solv.prm

>  <Rbt.Receptor>
prm/pocket_docking_5.prm

>  <SCORE>
-34.0577

>  <SCORE.INTER>
-30.0629

>  <SCORE.INTER.CONST>
1

>  <SCORE.INTER.POLAR>
-2.09419

>  <SCORE.INTER.ROT>
7

>  <SCORE.INTER.SOLV>
13.5139

>  <SCORE.INTER.VDW>
-25.8326

>  <SCORE.INTER.norm>
-0.969771

>  <SCORE.INTRA>
-3.99485

>  <SCORE.INTRA.DIHEDRAL>
-5.38604

>  <SCORE.INTRA.DIHEDRAL.0>
15.5708

>  <SCORE.INTRA.POLAR>
0.0677885

>  <SCORE.INTRA.POLAR.0>
-0.0677885

>  <SCORE.INTRA.REPUL>
0

>  <SCORE.INTRA.REPUL.0>
0

>  <SCORE.INTRA.SOLV>
-4.31264

>  <SCORE.INTRA.SOLV.lig_0>
-87.6316

>  <SCORE.INTRA.VDW>
0.624014

>  <SCORE.INTRA.VDW.0>
-2.87309

>  <SCORE.INTRA.norm>
-0.128866

>  <SCORE.RESTR>
0

>  <SCORE.RESTR.CAVITY>
0

>  <SCORE.RESTR.norm>
0

>  <SCORE.SYSTEM>
0

>  <SCORE.SYSTEM.CONST>
0

>  <SCORE.SYSTEM.DIHEDRAL>
0

>  <SCORE.SYSTEM.SOLV>
0

>  <SCORE.SYSTEM.norm>
0

>  <SCORE.heavy>
31

>  <SCORE.norm>
-1.09864

>  <SYMMETRIC_BONDS>
33 34 3

>  <RMSD>
5.566

$$$$
1fmn_cryst
 OpenBabel11021811393D
libRbt.so/2013.1/901 2013/11/27
 31 33  0  0  0  0  0  0  0  0999 V2000
   -6.6128   -6.5632    0.2047 N   0  0  0  0  0  0  0  0  0  0  0  0
   -7.3710   -5.6752   -0.5220 C   0  0  0  0  0  0  0  0  0  0  0  0
   -7.0744   -5.3530   -1.6730 O   0  0  0  0  0  0  0  0  0  0  0  0
   -8.5105   -5.1518    0.1390 N   0  0  0  0  0  0  0  0  0  0  0  0
   -8.9348   -5.4488    1.4528 C   0  0  0  0  0  0  0  0  0  0  0  0
   -9.9562   -4.9187    1.9078 O   0  0  0  0  0  0  0  0  0  0  0  0
   -8.0747   -6.4006    2.1595 C   0  0  0  0  0  0  0  0  0  0  0  0
   -8.4190   -6.7425    3.4436 N   0  0  0  0  0  0  0  0  0  0  0  0
   -7.5243   -7.4835    4.1598 C   0  0  0  0  0  0  0  0  0  0  0  0
   -7.7762   -7.6757    5.5067 C   0  0  0  0  0  0  0  0  0  0  0  0
   -6.9328   -8.4000    6.2784 C   0  0  0  0  0  0  0  0  0  0  0  0
   -7.2529   -8.5804    7.7280 C   0  0  0  0  0  0  0  0  0  0  0  0
   -5.8132   -8.9544    5.7398 C   0  0  0  0  0  0  0  0  0  0  0  0
   -4.8840   -9.7467    6.6006 C   0  0  0  0  0  0  0  0  0  0  0  0
   -5.5256   -8.7930    4.4230 C   0  0  0  0  0  0  0  0  0  0  0  0
   -6.3620   -8.0563    3.5843 C   0  0  0  0  0  0  0  0  0  0  0  0
   -6.1250   -7.8526    2.2087 N   0  0  0  0  0  0  0  0  0  0  0  0
   -6.9152   -6.9359    1.4854 C   0  0  0  0  0  0  0  0  0  0  0  0
   -5.4699   -8.9672    1.4297 C   0  0  0  0  0  0  0  0  0  0  0  0
   -3.9184   -9.0699    1.5406 C   0  0  1  0  0  0  0  0  0  0  0  0
   -3.4850  -10.3668    1.1559 O   0  0  0  0  0  0  0  0  0  0  0  0
   -3.1761   -7.9545    0.7667 C   0  0  1  0  0  0  0  0  0  0  0  0
   -3.8739   -7.6393   -0.4347 O   0  0  0  0  0  0  0  0  0  0  0  0
   -2.8546   -6.6555    1.5458 C   0  0  1  0  0  0  0  0  0  0  0  0
   -3.5970   -5.5884    0.9662 O   0  0  0  0  0  0  0  0  0  0  0  0
   -3.2086   -6.7500    3.0470 C   0  0  0  0  0  0  0  0  0  0  0  0
   -3.3782   -5.4711    3.6468 O   0  0  0  0  0  0  0  0  0  0  0  0
   -3.5278   -5.2723    5.2118 P   0  0  0  0  0  0  0  0  0  0  0  0
   -4.1610   -6.4557    5.8369 O   0  0  0  0  0  0  0  0  0  0  0  0
   -2.2719   -4.7513    5.7935 O   0  5  0  0  0  0  0  0  0  0  0  0
   -4.5969   -4.0998    5.3428 O   0  5  0  0  0  0  0  0  0  0  0  0
  1 18  1  0  0  0  0
  1  2  1  0  0  0  0
  2  4  1  0  0  0  0
  2  3  2  0  0  0  0
  4  5  1  0  0  0  0
  5  7  1  0  0  0  0
  5  6  2  0  0  0  0
  7 18  2  0  0  0  0
  7  8  1  0  0  0  0
  8  9  1  0  0  0  0
  9 10  2  0  0  0  0
  9 16  1  0  0  0  0
 10 11  1  0  0  0  0
 11 12  1  0  0  0  0
 11 13  2  0  0  0  0
 13 14  1  0  0  0  0
 13 15  1  0  0  0  0
 15 16  2  0  0  0  0
 16 17  1  0  0  0  0
 17 19  1  0  0  0  0
 17 18  1  0  0  0  0
 20 19  1  6  0  0  0
 20 22  1  0  0  0  0
 20 21  1  0  0  0  0
 22 24  1  0  0  0  0
 22 23  1  6  0  0  0
 24 26  1  1  0  0  0
 24 25  1  0  0  0  0
 26 27  1  0  0  0  0
 27 28  1  0  0  0  0
 28 30  1  0  0  0  0
 28 29  2  0  0  0  0
 28 31  1  0  0  0  0
M  CHG  2  30  -1  31  -1
M  END
>  <CHROM.1>
-81.27071200,160.59981870,-35.85704059,63.15927959,-114.51167577,-159.56740962
-158.62916789,174.10537656,-170.51390605,-29.73771249,-5.56750793,-6.91223083
2.98015815,1.92664981,0.09888635,-1.44635254

>  <Name>
1fmn_cryst

>  <RI>
0

>  <Rbt.Current_Directory>
/home/itssahil/PROJECTS/Mol_Feturizer/New_Systems/rnas/1fmn

>  <Rbt.Executable>
rbdock ($Id: //depot/dev/client3/rdock/2013.1/src/exe/rbdock.cxx#4 $)

>  <Rbt.Library>
libRbt.so (2013.1, Build901 2013/11/27)

>  <Rbt.Parameter_File>
/export/apps/rDock/src/rDock_2013.1_src/data/scripts/dock_solv.prm

>  <Rbt.Receptor>
prm/pocket_docking_4.prm

>  <SCORE>
-26.1325

>  <SCORE.INTER>
-23.6186

>  <SCORE.INTER.CONST>
1

>  <SCORE.INTER.POLAR>
-1.40656

>  <SCORE.INTER.ROT>
7

>  <SCORE.INTER.SOLV>
17.5732

>  <SCORE.INTER.VDW>
-25.1816

>  <SCORE.INTER.norm>
-0.76189

>  <SCORE.INTRA>
-2.51391

>  <SCORE.INTRA.DIHEDRAL>
0.392875

>  <SCORE.INTRA.DIHEDRAL.0>
15.5708

>  <SCORE.INTRA.POLAR>
-1.01752

>  <SCORE.INTRA.POLAR.0>
-0.0677885

>  <SCORE.INTRA.REPUL>
0

>  <SCORE.INTRA.REPUL.0>
0

>  <SCORE.INTRA.SOLV>
2.27675

>  <SCORE.INTRA.SOLV.lig_0>
-87.6316

>  <SCORE.INTRA.VDW>
-0.38917

>  <SCORE.INTRA.VDW.0>
-2.87309

>  <SCORE.INTRA.norm>
-0.0810939

>  <SCORE.RESTR>
0

>  <SCORE.RESTR.CAVITY>
0

>  <SCORE.RESTR.norm>
0

>  <SCORE.SYSTEM>
0

>  <SCORE.SYSTEM.CONST>
0

>  <SCORE.SYSTEM.DIHEDRAL>
0

>  <SCORE.SYSTEM.SOLV>
0

>  <SCORE.SYSTEM.norm>
0

>  <SCORE.heavy>
31

>  <SCORE.norm>
-0.842984

>  <SYMMETRIC_BONDS>
33 34 3

>  <RMSD>
5.572

$$$$
1fmn_cryst
 OpenBabel11021811393D
libRbt.so/2013.1/901 2013/11/27
 31 33  0  0  0  0  0  0  0  0999 V2000
   -9.0825   -5.0429    0.0872 N   0  0  0  0  0  0  0  0  0  0  0  0
  -10.2783   -4.5135   -0.3386 C   0  0  0  0  0  0  0  0  0  0  0  0
  -10.3981   -3.9733   -1.4387 O   0  0  0  0  0  0  0  0  0  0  0  0
  -11.3606   -4.6248    0.5701 N   0  0  0  0  0  0  0  0  0  0  0  0
  -11.3291   -5.2166    1.8519 C   0  0  0  0  0  0  0  0  0  0  0  0
  -12.3542   -5.2476    2.5444 O   0  0  0  0  0  0  0  0  0  0  0  0
  -10.0210   -5.7554    2.2312 C   0  0  0  0  0  0  0  0  0  0  0  0
   -9.9066   -6.3485    3.4638 N   0  0  0  0  0  0  0  0  0  0  0  0
   -8.6537   -6.6854    3.8871 C   0  0  0  0  0  0  0  0  0  0  0  0
   -8.5064   -7.1110    5.1954 C   0  0  0  0  0  0  0  0  0  0  0  0
   -7.2938   -7.4617    5.6833 C   0  0  0  0  0  0  0  0  0  0  0  0
   -7.1896   -7.9179    7.1036 C   0  0  0  0  0  0  0  0  0  0  0  0
   -6.1898   -7.3999    4.8906 C   0  0  0  0  0  0  0  0  0  0  0  0
   -4.8539   -7.7823    5.4394 C   0  0  0  0  0  0  0  0  0  0  0  0
   -6.2863   -6.9890    3.6003 C   0  0  0  0  0  0  0  0  0  0  0  0
   -7.5123   -6.6171    3.0487 C   0  0  0  0  0  0  0  0  0  0  0  0
   -7.6837   -6.1849    1.7169 N   0  0  0  0  0  0  0  0  0  0  0  0
   -8.9190   -5.6445    1.3046 C   0  0  0  0  0  0  0  0  0  0  0  0
   -6.8087   -6.8024    0.6532 C   0  0  0  0  0  0  0  0  0  0  0  0
   -5.4050   -6.1554    0.4504 C   0  0  1  0  0  0  0  0  0  0  0  0
   -5.4597   -4.7663    0.7425 O   0  0  0  0  0  0  0  0  0  0  0  0
   -4.2830   -6.8724    1.2385 C   0  0  1  0  0  0  0  0  0  0  0  0
   -4.1380   -8.2136    0.7806 O   0  0  0  0  0  0  0  0  0  0  0  0
   -2.9002   -6.1767    1.2788 C   0  0  1  0  0  0  0  0  0  0  0  0
   -2.3652   -6.1636   -0.0401 O   0  0  0  0  0  0  0  0  0  0  0  0
   -2.9714   -4.7243    1.8013 C   0  0  0  0  0  0  0  0  0  0  0  0
   -1.7995   -3.9783    1.4942 O   0  0  0  0  0  0  0  0  0  0  0  0
   -1.7529   -2.3953    1.5500 P   0  0  0  0  0  0  0  0  0  0  0  0
   -0.3672   -1.9139    1.7508 O   0  0  0  0  0  0  0  0  0  0  0  0
   -2.5531   -1.8112    0.4521 O   0  5  0  0  0  0  0  0  0  0  0  0
   -2.5244   -2.0423    2.8972 O   0  5  0  0  0  0  0  0  0  0  0  0
  1 18  1  0  0  0  0
  1  2  1  0  0  0  0
  2  4  1  0  0  0  0
  2  3  2  0  0  0  0
  4  5  1  0  0  0  0
  5  7  1  0  0  0  0
  5  6  2  0  0  0  0
  7 18  2  0  0  0  0
  7  8  1  0  0  0  0
  8  9  1  0  0  0  0
  9 10  2  0  0  0  0
  9 16  1  0  0  0  0
 10 11  1  0  0  0  0
 11 12  1  0  0  0  0
 11 13  2  0  0  0  0
 13 14  1  0  0  0  0
 13 15  1  0  0  0  0
 15 16  2  0  0  0  0
 16 17  1  0  0  0  0
 17 19  1  0  0  0  0
 17 18  1  0  0  0  0
 20 19  1  1  0  0  0
 20 22  1  0  0  0  0
 20 21  1  0  0  0  0
 22 24  1  0  0  0  0
 22 23  1  6  0  0  0
 24 26  1  6  0  0  0
 24 25  1  0  0  0  0
 26 27  1  0  0  0  0
 27 28  1  0  0  0  0
 28 30  1  0  0  0  0
 28 29  2  0  0  0  0
 28 31  1  0  0  0  0
M  CHG  2  30  -1  31  -1
M  END
>  <CHROM.1>
-85.08368751,-31.12541392,62.81581932,-63.34599348,-65.81740635,-59.94022898
-163.64717991,-62.73350523,162.87436707,156.20794572,-6.18189869,-5.37835915
2.03424307,2.88897107,0.15558049,2.23448144

>  <Name>
1fmn_cryst

>  <RI>
0

>  <Rbt.Current_Directory>
/home/itssahil/PROJECTS/Mol_Feturizer/New_Systems/rnas/1fmn

>  <Rbt.Executable>
rbdock ($Id: //depot/dev/client3/rdock/2013.1/src/exe/rbdock.cxx#4 $)

>  <Rbt.Library>
libRbt.so (2013.1, Build901 2013/11/27)

>  <Rbt.Parameter_File>
/export/apps/rDock/src/rDock_2013.1_src/data/scripts/dock_solv.prm

>  <Rbt.Receptor>
prm/pocket_docking_8.prm

>  <SCORE>
-43.8188

>  <SCORE.INTER>
-39.3505

>  <SCORE.INTER.CONST>
1

>  <SCORE.INTER.POLAR>
-2.89701

>  <SCORE.INTER.ROT>
7

>  <SCORE.INTER.SOLV>
22.6008

>  <SCORE.INTER.VDW>
-32.3773

>  <SCORE.INTER.norm>
-1.26937

>  <SCORE.INTRA>
-4.46827

>  <SCORE.INTRA.DIHEDRAL>
-7.69002

>  <SCORE.INTRA.DIHEDRAL.0>
15.5708

>  <SCORE.INTRA.POLAR>
0.0675761

>  <SCORE.INTRA.POLAR.0>
-0.0677885

>  <SCORE.INTRA.REPUL>
0.0127093

>  <SCORE.INTRA.REPUL.0>
0

>  <SCORE.INTRA.SOLV>
-3.33448

>  <SCORE.INTRA.SOLV.lig_0>
-87.6316

>  <SCORE.INTRA.VDW>
0.750675

>  <SCORE.INTRA.VDW.0>
-2.87309

>  <SCORE.INTRA.norm>
-0.144138

>  <SCORE.RESTR>
0

>  <SCORE.RESTR.CAVITY>
0

>  <SCORE.RESTR.norm>
0

>  <SCORE.SYSTEM>
0

>  <SCORE.SYSTEM.CONST>
0

>  <SCORE.SYSTEM.DIHEDRAL>
0

>  <SCORE.SYSTEM.SOLV>
0

>  <SCORE.SYSTEM.norm>
0

>  <SCORE.heavy>
31

>  <SCORE.norm>
-1.41351

>  <SYMMETRIC_BONDS>
33 34 3

>  <RMSD>
5.613

$$$$
1fmn_cryst
 OpenBabel11021811393D
libRbt.so/2013.1/901 2013/11/27
 31 33  0  0  0  0  0  0  0  0999 V2000
   -5.1274  -10.1073    6.1782 N   0  0  0  0  0  0  0  0  0  0  0  0
   -5.1070  -10.4491    7.5102 C   0  0  0  0  0  0  0  0  0  0  0  0
   -4.4167  -11.3758    7.9358 O   0  0  0  0  0  0  0  0  0  0  0  0
   -5.9336   -9.6711    8.3594 N   0  0  0  0  0  0  0  0  0  0  0  0
   -6.7646   -8.5961    7.9747 C   0  0  0  0  0  0  0  0  0  0  0  0
   -7.4365   -7.9986    8.8248 O   0  0  0  0  0  0  0  0  0  0  0  0
   -6.7309   -8.2957    6.5416 C   0  0  0  0  0  0  0  0  0  0  0  0
   -7.5118   -7.2628    6.0861 N   0  0  0  0  0  0  0  0  0  0  0  0
   -7.6182   -7.1016    4.7351 C   0  0  0  0  0  0  0  0  0  0  0  0
   -8.5432   -6.1865    4.2644 C   0  0  0  0  0  0  0  0  0  0  0  0
   -8.7025   -5.9742    2.9374 C   0  0  0  0  0  0  0  0  0  0  0  0
   -9.7139   -4.9716    2.4812 C   0  0  0  0  0  0  0  0  0  0  0  0
   -7.9516   -6.6632    2.0361 C   0  0  0  0  0  0  0  0  0  0  0  0
   -8.1389   -6.4276    0.5727 C   0  0  0  0  0  0  0  0  0  0  0  0
   -7.0312   -7.5704    2.4516 C   0  0  0  0  0  0  0  0  0  0  0  0
   -6.8276   -7.8261    3.8076 C   0  0  0  0  0  0  0  0  0  0  0  0
   -5.8872   -8.7514    4.3072 N   0  0  0  0  0  0  0  0  0  0  0  0
   -5.8870   -9.0864    5.6767 C   0  0  0  0  0  0  0  0  0  0  0  0
   -4.5911   -8.9221    3.5526 C   0  0  0  0  0  0  0  0  0  0  0  0
   -4.6223   -9.8950    2.3350 C   0  0  1  0  0  0  0  0  0  0  0  0
   -5.0686   -9.2105    1.1730 O   0  0  0  0  0  0  0  0  0  0  0  0
   -3.2773  -10.6233    2.1012 C   0  0  1  0  0  0  0  0  0  0  0  0
   -3.4064  -11.5711    1.0455 O   0  0  0  0  0  0  0  0  0  0  0  0
   -2.0315   -9.7351    1.8628 C   0  0  1  0  0  0  0  0  0  0  0  0
   -0.9015  -10.5831    1.6901 O   0  0  0  0  0  0  0  0  0  0  0  0
   -2.1673   -8.8278    0.6194 C   0  0  0  0  0  0  0  0  0  0  0  0
   -1.0553   -7.9549    0.4596 O   0  0  0  0  0  0  0  0  0  0  0  0
   -0.9820   -6.8622   -0.6858 P   0  0  0  0  0  0  0  0  0  0  0  0
   -2.3299   -6.3388   -1.0040 O   0  0  0  0  0  0  0  0  0  0  0  0
    0.1067   -5.8980   -0.4174 O   0  5  0  0  0  0  0  0  0  0  0  0
   -0.5341   -7.6906   -1.9695 O   0  5  0  0  0  0  0  0  0  0  0  0
  1 18  1  0  0  0  0
  1  2  1  0  0  0  0
  2  4  1  0  0  0  0
  2  3  2  0  0  0  0
  4  5  1  0  0  0  0
  5  7  1  0  0  0  0
  5  6  2  0  0  0  0
  7 18  2  0  0  0  0
  7  8  1  0  0  0  0
  8  9  1  0  0  0  0
  9 10  2  0  0  0  0
  9 16  1  0  0  0  0
 10 11  1  0  0  0  0
 11 12  1  0  0  0  0
 11 13  2  0  0  0  0
 13 14  1  0  0  0  0
 13 15  1  0  0  0  0
 15 16  2  0  0  0  0
 16 17  1  0  0  0  0
 17 19  1  0  0  0  0
 17 18  1  0  0  0  0
 20 19  1  1  0  0  0
 20 22  1  0  0  0  0
 20 21  1  0  0  0  0
 22 24  1  0  0  0  0
 22 23  1  6  0  0  0
 24 26  1  6  0  0  0
 24 25  1  0  0  0  0
 26 27  1  0  0  0  0
 27 28  1  0  0  0  0
 28 30  1  0  0  0  0
 28 29  2  0  0  0  0
 28 31  1  0  0  0  0
M  CHG  2  30  -1  31  -1
M  END
>  <CHROM.1>
-83.54013372,85.34743568,175.37850460,-166.76898018,179.14840320,60.88919298
176.18075855,-175.46871704,-176.30735838,32.41820256,-4.74280171,-8.31024960
3.07852253,-2.38691666,0.49516051,-1.03203562

>  <Name>
1fmn_cryst

>  <RI>
0

>  <Rbt.Current_Directory>
/home/itssahil/PROJECTS/Mol_Feturizer/New_Systems/rnas/1fmn

>  <Rbt.Executable>
rbdock ($Id: //depot/dev/client3/rdock/2013.1/src/exe/rbdock.cxx#4 $)

>  <Rbt.Library>
libRbt.so (2013.1, Build901 2013/11/27)

>  <Rbt.Parameter_File>
/export/apps/rDock/src/rDock_2013.1_src/data/scripts/dock_solv.prm

>  <Rbt.Receptor>
prm/pocket_docking_6.prm

>  <SCORE>
-34.8399

>  <SCORE.INTER>
-28.7669

>  <SCORE.INTER.CONST>
1

>  <SCORE.INTER.POLAR>
-2.73014

>  <SCORE.INTER.ROT>
7

>  <SCORE.INTER.SOLV>
22.3196

>  <SCORE.INTER.VDW>
-25.784

>  <SCORE.INTER.norm>
-0.927964

>  <SCORE.INTRA>
-6.07298

>  <SCORE.INTRA.DIHEDRAL>
-9.41735

>  <SCORE.INTRA.DIHEDRAL.0>
15.5708

>  <SCORE.INTRA.POLAR>
0.0677885

>  <SCORE.INTRA.POLAR.0>
-0.0677885

>  <SCORE.INTRA.REPUL>
0

>  <SCORE.INTRA.REPUL.0>
0

>  <SCORE.INTRA.SOLV>
-4.71624

>  <SCORE.INTRA.SOLV.lig_0>
-87.6316

>  <SCORE.INTRA.VDW>
0.76333

>  <SCORE.INTRA.VDW.0>
-2.87309

>  <SCORE.INTRA.norm>
-0.195903

>  <SCORE.RESTR>
0

>  <SCORE.RESTR.CAVITY>
0

>  <SCORE.RESTR.norm>
0

>  <SCORE.SYSTEM>
0

>  <SCORE.SYSTEM.CONST>
0

>  <SCORE.SYSTEM.DIHEDRAL>
0

>  <SCORE.SYSTEM.SOLV>
0

>  <SCORE.SYSTEM.norm>
0

>  <SCORE.heavy>
31

>  <SCORE.norm>
-1.12387

>  <SYMMETRIC_BONDS>
33 34 3

>  <RMSD>
5.628

$$$$
1fmn_cryst
 OpenBabel11021811393D
libRbt.so/2013.1/901 2013/11/27
 31 33  0  0  0  0  0  0  0  0999 V2000
   -8.6394   -5.0419   -1.8681 N   0  0  0  0  0  0  0  0  0  0  0  0
   -8.1843   -5.1708   -3.1595 C   0  0  0  0  0  0  0  0  0  0  0  0
   -7.1801   -5.8281   -3.4352 O   0  0  0  0  0  0  0  0  0  0  0  0
   -8.9407   -4.4958   -4.1503 N   0  0  0  0  0  0  0  0  0  0  0  0
  -10.0983   -3.7142   -3.9418 C   0  0  0  0  0  0  0  0  0  0  0  0
  -10.6648   -3.1790   -4.9030 O   0  0  0  0  0  0  0  0  0  0  0  0
  -10.5172   -3.6257   -2.5412 C   0  0  0  0  0  0  0  0  0  0  0  0
  -11.6356   -2.8835   -2.2538 N   0  0  0  0  0  0  0  0  0  0  0  0
  -11.9186   -2.6536   -0.9387 C   0  0  0  0  0  0  0  0  0  0  0  0
  -12.9309   -1.7580   -0.6426 C   0  0  0  0  0  0  0  0  0  0  0  0
  -13.2662   -1.4820    0.6391 C   0  0  0  0  0  0  0  0  0  0  0  0
  -14.3700   -0.5087    0.9049 C   0  0  0  0  0  0  0  0  0  0  0  0
  -12.6078   -2.0834    1.6667 C   0  0  0  0  0  0  0  0  0  0  0  0
  -12.9798   -1.7676    3.0788 C   0  0  0  0  0  0  0  0  0  0  0  0
  -11.6083   -2.9695    1.4241 C   0  0  0  0  0  0  0  0  0  0  0  0
  -11.2244   -3.2891    0.1218 C   0  0  0  0  0  0  0  0  0  0  0  0
  -10.1985   -4.2021   -0.2006 N   0  0  0  0  0  0  0  0  0  0  0  0
   -9.7483   -4.3153   -1.5320 C   0  0  0  0  0  0  0  0  0  0  0  0
  -10.0060   -5.3986    0.6993 C   0  0  0  0  0  0  0  0  0  0  0  0
   -9.3593   -5.1211    2.0903 C   0  0  1  0  0  0  0  0  0  0  0  0
  -10.3674   -4.8435    3.0519 O   0  0  0  0  0  0  0  0  0  0  0  0
   -8.4054   -6.2472    2.5552 C   0  0  1  0  0  0  0  0  0  0  0  0
   -7.3394   -6.4068    1.6236 O   0  0  0  0  0  0  0  0  0  0  0  0
   -7.8379   -6.1364    3.9917 C   0  0  1  0  0  0  0  0  0  0  0  0
   -8.8364   -6.5787    4.9046 O   0  0  0  0  0  0  0  0  0  0  0  0
   -6.5618   -6.9819    4.2024 C   0  0  0  0  0  0  0  0  0  0  0  0
   -5.4579   -6.4971    3.4469 O   0  0  0  0  0  0  0  0  0  0  0  0
   -4.8775   -5.0329    3.6217 P   0  0  0  0  0  0  0  0  0  0  0  0
   -3.9255   -4.7085    2.5352 O   0  0  0  0  0  0  0  0  0  0  0  0
   -5.9629   -4.0743    3.9216 O   0  5  0  0  0  0  0  0  0  0  0  0
   -3.9956   -5.1319    4.9436 O   0  5  0  0  0  0  0  0  0  0  0  0
  1 18  1  0  0  0  0
  1  2  1  0  0  0  0
  2  4  1  0  0  0  0
  2  3  2  0  0  0  0
  4  5  1  0  0  0  0
  5  7  1  0  0  0  0
  5  6  2  0  0  0  0
  7 18  2  0  0  0  0
  7  8  1  0  0  0  0
  8  9  1  0  0  0  0
  9 10  2  0  0  0  0
  9 16  1  0  0  0  0
 10 11  1  0  0  0  0
 11 12  1  0  0  0  0
 11 13  2  0  0  0  0
 13 14  1  0  0  0  0
 13 15  1  0  0  0  0
 15 16  2  0  0  0  0
 16 17  1  0  0  0  0
 17 19  1  0  0  0  0
 17 18  1  0  0  0  0
 20 19  1  6  0  0  0
 20 22  1  0  0  0  0
 20 21  1  0  0  0  0
 22 24  1  0  0  0  0
 22 23  1  6  0  0  0
 24 26  1  6  0  0  0
 24 25  1  0  0  0  0
 26 27  1  0  0  0  0
 27 28  1  0  0  0  0
 28 30  1  0  0  0  0
 28 29  2  0  0  0  0
 28 31  1  0  0  0  0
M  CHG  2  30  -1  31  -1
M  END
>  <CHROM.1>
-73.41610398,90.35985003,60.10677000,59.80839216,79.33696164,-73.55067121
66.97695089,65.15572211,59.51815847,-168.53391276,-9.04568001,-4.36312538
0.84428949,-2.45697698,-0.46717760,1.55262721

>  <Name>
1fmn_cryst

>  <RI>
0

>  <Rbt.Current_Directory>
/home/itssahil/PROJECTS/Mol_Feturizer/New_Systems/rnas/1fmn

>  <Rbt.Executable>
rbdock ($Id: //depot/dev/client3/rdock/2013.1/src/exe/rbdock.cxx#4 $)

>  <Rbt.Library>
libRbt.so (2013.1, Build901 2013/11/27)

>  <Rbt.Parameter_File>
/export/apps/rDock/src/rDock_2013.1_src/data/scripts/dock_solv.prm

>  <Rbt.Receptor>
prm/pocket_docking_6.prm

>  <SCORE>
-43.3497

>  <SCORE.INTER>
-41.0907

>  <SCORE.INTER.CONST>
1

>  <SCORE.INTER.POLAR>
-2.81895

>  <SCORE.INTER.ROT>
7

>  <SCORE.INTER.SOLV>
25.5548

>  <SCORE.INTER.VDW>
-34.7822

>  <SCORE.INTER.norm>
-1.32551

>  <SCORE.INTRA>
-2.25895

>  <SCORE.INTRA.DIHEDRAL>
-8.0811

>  <SCORE.INTRA.DIHEDRAL.0>
15.5708

>  <SCORE.INTRA.POLAR>
0.0677885

>  <SCORE.INTRA.POLAR.0>
-0.0677885

>  <SCORE.INTRA.REPUL>
0

>  <SCORE.INTRA.REPUL.0>
0

>  <SCORE.INTRA.SOLV>
0.520052

>  <SCORE.INTRA.SOLV.lig_0>
-87.6316

>  <SCORE.INTRA.VDW>
1.2911

>  <SCORE.INTRA.VDW.0>
-2.87309

>  <SCORE.INTRA.norm>
-0.0728692

>  <SCORE.RESTR>
0

>  <SCORE.RESTR.CAVITY>
0

>  <SCORE.RESTR.norm>
0

>  <SCORE.SYSTEM>
0

>  <SCORE.SYSTEM.CONST>
0

>  <SCORE.SYSTEM.DIHEDRAL>
0

>  <SCORE.SYSTEM.SOLV>
0

>  <SCORE.SYSTEM.norm>
0

>  <SCORE.heavy>
31

>  <SCORE.norm>
-1.39838

>  <SYMMETRIC_BONDS>
33 34 3

>  <RMSD>
5.636

$$$$
1fmn_cryst
 OpenBabel11021811393D
libRbt.so/2013.1/901 2013/11/27
 31 33  0  0  0  0  0  0  0  0999 V2000
   -8.2105   -5.1970   -1.7740 N   0  0  0  0  0  0  0  0  0  0  0  0
   -7.6911   -5.4059   -3.0303 C   0  0  0  0  0  0  0  0  0  0  0  0
   -6.6384   -6.0198   -3.2075 O   0  0  0  0  0  0  0  0  0  0  0  0
   -8.4411   -4.8663   -4.1053 N   0  0  0  0  0  0  0  0  0  0  0  0
   -9.6511   -4.1443   -4.0118 C   0  0  0  0  0  0  0  0  0  0  0  0
  -10.2048   -3.7291   -5.0377 O   0  0  0  0  0  0  0  0  0  0  0  0
  -10.1369   -3.9639   -2.6419 C   0  0  0  0  0  0  0  0  0  0  0  0
  -11.3092   -3.2720   -2.4649 N   0  0  0  0  0  0  0  0  0  0  0  0
  -11.6640   -2.9498   -1.1871 C   0  0  0  0  0  0  0  0  0  0  0  0
  -12.7398   -2.0979   -1.0105 C   0  0  0  0  0  0  0  0  0  0  0  0
  -13.1480   -1.7359    0.2279 C   0  0  0  0  0  0  0  0  0  0  0  0
  -14.3185   -0.8151    0.3638 C   0  0  0  0  0  0  0  0  0  0  0  0
  -12.5018   -2.2055    1.3293 C   0  0  0  0  0  0  0  0  0  0  0  0
  -12.9549   -1.7953    2.6926 C   0  0  0  0  0  0  0  0  0  0  0  0
  -11.4417   -3.0443    1.2047 C   0  0  0  0  0  0  0  0  0  0  0  0
  -10.9815   -3.4482   -0.0486 C   0  0  0  0  0  0  0  0  0  0  0  0
   -9.8899   -4.3189   -0.2492 N   0  0  0  0  0  0  0  0  0  0  0  0
   -9.3745   -4.5158   -1.5467 C   0  0  0  0  0  0  0  0  0  0  0  0
   -9.6673   -5.4203    0.7586 C   0  0  0  0  0  0  0  0  0  0  0  0
   -9.6463   -4.9927    2.2576 C   0  0  1  0  0  0  0  0  0  0  0  0
  -10.9379   -5.1468    2.8285 O   0  0  0  0  0  0  0  0  0  0  0  0
   -8.5548   -5.7150    3.0829 C   0  0  1  0  0  0  0  0  0  0  0  0
   -7.3496   -4.9555    3.0787 O   0  0  0  0  0  0  0  0  0  0  0  0
   -8.9219   -6.1134    4.5335 C   0  0  1  0  0  0  0  0  0  0  0  0
  -10.1225   -6.8771    4.4997 O   0  0  0  0  0  0  0  0  0  0  0  0
   -7.8211   -6.9479    5.2261 C   0  0  0  0  0  0  0  0  0  0  0  0
   -8.1293   -7.2325    6.5855 O   0  0  0  0  0  0  0  0  0  0  0  0
   -7.0261   -7.6461    7.6453 P   0  0  0  0  0  0  0  0  0  0  0  0
   -6.0551   -6.5481    7.8535 O   0  0  0  0  0  0  0  0  0  0  0  0
   -7.6507   -8.2730    8.8302 O   0  5  0  0  0  0  0  0  0  0  0  0
   -6.2113   -8.8001    6.9109 O   0  5  0  0  0  0  0  0  0  0  0  0
  1 18  1  0  0  0  0
  1  2  1  0  0  0  0
  2  4  1  0  0  0  0
  2  3  2  0  0  0  0
  4  5  1  0  0  0  0
  5  7  1  0  0  0  0
  5  6  2  0  0  0  0
  7 18  2  0  0  0  0
  7  8  1  0  0  0  0
  8  9  1  0  0  0  0
  9 10  2  0  0  0  0
  9 16  1  0  0  0  0
 10 11  1  0  0  0  0
 11 12  1  0  0  0  0
 11 13  2  0  0  0  0
 13 14  1  0  0  0  0
 13 15  1  0  0  0  0
 15 16  2  0  0  0  0
 16 17  1  0  0  0  0
 17 19  1  0  0  0  0
 17 18  1  0  0  0  0
 20 19  1  6  0  0  0
 20 22  1  0  0  0  0
 20 21  1  0  0  0  0
 22 24  1  0  0  0  0
 22 23  1  1  0  0  0
 24 26  1  6  0  0  0
 24 25  1  0  0  0  0
 26 27  1  0  0  0  0
 27 28  1  0  0  0  0
 28 30  1  0  0  0  0
 28 29  2  0  0  0  0
 28 31  1  0  0  0  0
M  CHG  2  30  -1  31  -1
M  END
>  <CHROM.1>
-50.42907195,94.12685534,91.21202218,-171.34196444,53.76052267,-59.97165569
176.09009423,-174.47392059,-159.89091668,63.62705013,-9.47315910,-4.98585251
1.67815946,-1.96553718,-0.64065740,1.73049523

>  <Name>
1fmn_cryst

>  <RI>
0

>  <Rbt.Current_Directory>
/home/itssahil/PROJECTS/Mol_Feturizer/New_Systems/rnas/1fmn

>  <Rbt.Executable>
rbdock ($Id: //depot/dev/client3/rdock/2013.1/src/exe/rbdock.cxx#4 $)

>  <Rbt.Library>
libRbt.so (2013.1, Build901 2013/11/27)

>  <Rbt.Parameter_File>
/export/apps/rDock/src/rDock_2013.1_src/data/scripts/dock_solv.prm

>  <Rbt.Receptor>
prm/pocket_docking_8.prm

>  <SCORE>
-41.7856

>  <SCORE.INTER>
-39.3803

>  <SCORE.INTER.CONST>
1

>  <SCORE.INTER.POLAR>
-1.872

>  <SCORE.INTER.ROT>
7

>  <SCORE.INTER.SOLV>
29.6221

>  <SCORE.INTER.VDW>
-38.1542

>  <SCORE.INTER.norm>
-1.27033

>  <SCORE.INTRA>
-2.40527

>  <SCORE.INTRA.DIHEDRAL>
-5.66048

>  <SCORE.INTRA.DIHEDRAL.0>
15.5708

>  <SCORE.INTRA.POLAR>
0.0677885

>  <SCORE.INTRA.POLAR.0>
-0.0677885

>  <SCORE.INTRA.REPUL>
0

>  <SCORE.INTRA.REPUL.0>
0

>  <SCORE.INTRA.SOLV>
-4.42932

>  <SCORE.INTRA.SOLV.lig_0>
-87.6316

>  <SCORE.INTRA.VDW>
2.40914

>  <SCORE.INTRA.VDW.0>
-2.87309

>  <SCORE.INTRA.norm>
-0.0775895

>  <SCORE.RESTR>
0

>  <SCORE.RESTR.CAVITY>
0

>  <SCORE.RESTR.norm>
0

>  <SCORE.SYSTEM>
0

>  <SCORE.SYSTEM.CONST>
0

>  <SCORE.SYSTEM.DIHEDRAL>
0

>  <SCORE.SYSTEM.SOLV>
0

>  <SCORE.SYSTEM.norm>
0

>  <SCORE.heavy>
31

>  <SCORE.norm>
-1.34792

>  <SYMMETRIC_BONDS>
33 34 3

>  <RMSD>
5.753

$$$$
1fmn_cryst
 OpenBabel11021811393D
libRbt.so/2013.1/901 2013/11/27
 31 33  0  0  0  0  0  0  0  0999 V2000
   -7.6462   -5.6201    2.3425 N   0  0  0  0  0  0  0  0  0  0  0  0
   -8.9599   -5.2571    2.1585 C   0  0  0  0  0  0  0  0  0  0  0  0
   -9.3561   -4.7501    1.1084 O   0  0  0  0  0  0  0  0  0  0  0  0
   -9.8260   -5.4986    3.2545 N   0  0  0  0  0  0  0  0  0  0  0  0
   -9.4745   -6.0661    4.4988 C   0  0  0  0  0  0  0  0  0  0  0  0
  -10.3364   -6.2231    5.3728 O   0  0  0  0  0  0  0  0  0  0  0  0
   -8.0591   -6.4243    4.6158 C   0  0  0  0  0  0  0  0  0  0  0  0
   -7.6361   -6.9828    5.7962 N   0  0  0  0  0  0  0  0  0  0  0  0
   -6.2925   -7.1475    5.9696 C   0  0  0  0  0  0  0  0  0  0  0  0
   -5.8451   -7.5347    7.2203 C   0  0  0  0  0  0  0  0  0  0  0  0
   -4.5267   -7.7177    7.4645 C   0  0  0  0  0  0  0  0  0  0  0  0
   -4.0959   -8.1396    8.8330 C   0  0  0  0  0  0  0  0  0  0  0  0
   -3.6110   -7.5210    6.4776 C   0  0  0  0  0  0  0  0  0  0  0  0
   -2.1569   -7.7186    6.7578 C   0  0  0  0  0  0  0  0  0  0  0  0
   -4.0037   -7.1415    5.2347 C   0  0  0  0  0  0  0  0  0  0  0  0
   -5.3500   -6.9400    4.9308 C   0  0  0  0  0  0  0  0  0  0  0  0
   -5.8262   -6.5496    3.6617 N   0  0  0  0  0  0  0  0  0  0  0  0
   -7.1773   -6.1807    3.4985 C   0  0  0  0  0  0  0  0  0  0  0  0
   -5.0959   -7.0596    2.4431 C   0  0  0  0  0  0  0  0  0  0  0  0
   -5.7366   -8.2785    1.7122 C   0  0  1  0  0  0  0  0  0  0  0  0
   -6.6865   -7.8313    0.7554 O   0  0  0  0  0  0  0  0  0  0  0  0
   -4.6915   -9.2360    1.0917 C   0  0  1  0  0  0  0  0  0  0  0  0
   -3.6934   -8.4939    0.3970 O   0  0  0  0  0  0  0  0  0  0  0  0
   -4.0219  -10.2558    2.0453 C   0  0  1  0  0  0  0  0  0  0  0  0
   -3.4016  -11.2667    1.2584 O   0  0  0  0  0  0  0  0  0  0  0  0
   -2.9557   -9.6142    2.9613 C   0  0  0  0  0  0  0  0  0  0  0  0
   -2.0976  -10.5806    3.5561 O   0  0  0  0  0  0  0  0  0  0  0  0
   -2.6140  -11.6613    4.5938 P   0  0  0  0  0  0  0  0  0  0  0  0
   -3.1309  -12.8601    3.8953 O   0  0  0  0  0  0  0  0  0  0  0  0
   -1.6339  -11.8456    5.6857 O   0  5  0  0  0  0  0  0  0  0  0  0
   -3.8884  -10.9718    5.2536 O   0  5  0  0  0  0  0  0  0  0  0  0
  1 18  1  0  0  0  0
  1  2  1  0  0  0  0
  2  4  1  0  0  0  0
  2  3  2  0  0  0  0
  4  5  1  0  0  0  0
  5  7  1  0  0  0  0
  5  6  2  0  0  0  0
  7 18  2  0  0  0  0
  7  8  1  0  0  0  0
  8  9  1  0  0  0  0
  9 10  2  0  0  0  0
  9 16  1  0  0  0  0
 10 11  1  0  0  0  0
 11 12  1  0  0  0  0
 11 13  2  0  0  0  0
 13 14  1  0  0  0  0
 13 15  1  0  0  0  0
 15 16  2  0  0  0  0
 16 17  1  0  0  0  0
 17 19  1  0  0  0  0
 17 18  1  0  0  0  0
 20 19  1  6  0  0  0
 20 22  1  0  0  0  0
 20 21  1  0  0  0  0
 22 24  1  0  0  0  0
 22 23  1  1  0  0  0
 24 26  1  6  0  0  0
 24 25  1  0  0  0  0
 26 27  1  0  0  0  0
 27 28  1  0  0  0  0
 28 30  1  0  0  0  0
 28 29  2  0  0  0  0
 28 31  1  0  0  0  0
M  CHG  2  30  -1  31  -1
M  END
>  <CHROM.1>
99.88114274,87.34310469,-45.59668903,74.37423885,163.85341296,-50.07206516
-163.67515729,-63.81468900,-65.18602978,86.30025717,-5.32047767,-8.26900243
3.97251882,-3.12536552,-0.71637857,1.39219974

>  <Name>
1fmn_cryst

>  <RI>
0

>  <Rbt.Current_Directory>
/home/itssahil/PROJECTS/Mol_Feturizer/New_Systems/rnas/1fmn

>  <Rbt.Executable>
rbdock ($Id: //depot/dev/client3/rdock/2013.1/src/exe/rbdock.cxx#4 $)

>  <Rbt.Library>
libRbt.so (2013.1, Build901 2013/11/27)

>  <Rbt.Parameter_File>
/export/apps/rDock/src/rDock_2013.1_src/data/scripts/dock_solv.prm

>  <Rbt.Receptor>
prm/pocket_docking_5.prm

>  <SCORE>
-26.6313

>  <SCORE.INTER>
-24.1114

>  <SCORE.INTER.CONST>
1

>  <SCORE.INTER.POLAR>
-2.31269

>  <SCORE.INTER.ROT>
7

>  <SCORE.INTER.SOLV>
17.5731

>  <SCORE.INTER.VDW>
-22.4897

>  <SCORE.INTER.norm>
-0.777787

>  <SCORE.INTRA>
-2.51993

>  <SCORE.INTRA.DIHEDRAL>
-6.15329

>  <SCORE.INTRA.DIHEDRAL.0>
15.5708

>  <SCORE.INTRA.POLAR>
0.0677885

>  <SCORE.INTRA.POLAR.0>
-0.0677885

>  <SCORE.INTRA.REPUL>
0

>  <SCORE.INTRA.REPUL.0>
0

>  <SCORE.INTRA.SOLV>
2.09975

>  <SCORE.INTRA.SOLV.lig_0>
-87.6316

>  <SCORE.INTRA.VDW>
-0.723644

>  <SCORE.INTRA.VDW.0>
-2.87309

>  <SCORE.INTRA.norm>
-0.0812882

>  <SCORE.RESTR>
0

>  <SCORE.RESTR.CAVITY>
0

>  <SCORE.RESTR.norm>
0

>  <SCORE.SYSTEM>
0

>  <SCORE.SYSTEM.CONST>
0

>  <SCORE.SYSTEM.DIHEDRAL>
0

>  <SCORE.SYSTEM.SOLV>
0

>  <SCORE.SYSTEM.norm>
0

>  <SCORE.heavy>
31

>  <SCORE.norm>
-0.859075

>  <SYMMETRIC_BONDS>
33 34 3

>  <RMSD>
5.903

$$$$
1fmn_cryst
 OpenBabel11021811393D
libRbt.so/2013.1/901 2013/11/27
 31 33  0  0  0  0  0  0  0  0999 V2000
   -8.5261   -6.3180    1.8587 N   0  0  0  0  0  0  0  0  0  0  0  0
   -9.8355   -5.9004    1.9097 C   0  0  0  0  0  0  0  0  0  0  0  0
  -10.4261   -5.4811    0.9138 O   0  0  0  0  0  0  0  0  0  0  0  0
  -10.4589   -5.9787    3.1804 N   0  0  0  0  0  0  0  0  0  0  0  0
   -9.8731   -6.4359    4.3812 C   0  0  0  0  0  0  0  0  0  0  0  0
  -10.5363   -6.4531    5.4258 O   0  0  0  0  0  0  0  0  0  0  0  0
   -8.4784   -6.8613    4.2436 C   0  0  0  0  0  0  0  0  0  0  0  0
   -7.8359   -7.3201    5.3664 N   0  0  0  0  0  0  0  0  0  0  0  0
   -6.4925   -7.5435    5.2768 C   0  0  0  0  0  0  0  0  0  0  0  0
   -5.8053   -7.8264    6.4439 C   0  0  0  0  0  0  0  0  0  0  0  0
   -4.4723   -8.0592    6.4304 C   0  0  0  0  0  0  0  0  0  0  0  0
   -3.7776   -8.3637    7.7192 C   0  0  0  0  0  0  0  0  0  0  0  0
   -3.7789   -8.0172    5.2605 C   0  0  0  0  0  0  0  0  0  0  0  0
   -2.3062   -8.2687    5.2556 C   0  0  0  0  0  0  0  0  0  0  0  0
   -4.4113   -7.7443    4.0907 C   0  0  0  0  0  0  0  0  0  0  0  0
   -5.7835   -7.4975    4.0498 C   0  0  0  0  0  0  0  0  0  0  0  0
   -6.5026   -7.2116    2.8704 N   0  0  0  0  0  0  0  0  0  0  0  0
   -7.8439   -6.7840    2.9486 C   0  0  0  0  0  0  0  0  0  0  0  0
   -6.0640   -7.8843    1.5923 C   0  0  0  0  0  0  0  0  0  0  0  0
   -4.9632   -8.9795    1.7293 C   0  0  1  0  0  0  0  0  0  0  0  0
   -5.5578  -10.2691    1.7656 O   0  0  0  0  0  0  0  0  0  0  0  0
   -3.8618   -8.8763    0.6475 C   0  0  1  0  0  0  0  0  0  0  0  0
   -3.1157   -7.6744    0.8159 O   0  0  0  0  0  0  0  0  0  0  0  0
   -2.8978  -10.0806    0.5117 C   0  0  1  0  0  0  0  0  0  0  0  0
   -3.6119  -11.1641   -0.0731 O   0  0  0  0  0  0  0  0  0  0  0  0
   -1.6632   -9.7684   -0.3636 C   0  0  0  0  0  0  0  0  0  0  0  0
   -0.6369   -9.1023    0.3622 O   0  0  0  0  0  0  0  0  0  0  0  0
    0.2202   -9.8186    1.4863 P   0  0  0  0  0  0  0  0  0  0  0  0
   -0.6241  -10.1723    2.6500 O   0  0  0  0  0  0  0  0  0  0  0  0
    1.0855  -10.8626    0.8961 O   0  5  0  0  0  0  0  0  0  0  0  0
    1.1975   -8.6729    2.0032 O   0  5  0  0  0  0  0  0  0  0  0  0
  1 18  1  0  0  0  0
  1  2  1  0  0  0  0
  2  4  1  0  0  0  0
  2  3  2  0  0  0  0
  4  5  1  0  0  0  0
  5  7  1  0  0  0  0
  5  6  2  0  0  0  0
  7 18  2  0  0  0  0
  7  8  1  0  0  0  0
  8  9  1  0  0  0  0
  9 10  2  0  0  0  0
  9 16  1  0  0  0  0
 10 11  1  0  0  0  0
 11 12  1  0  0  0  0
 11 13  2  0  0  0  0
 13 14  1  0  0  0  0
 13 15  1  0  0  0  0
 15 16  2  0  0  0  0
 16 17  1  0  0  0  0
 17 19  1  0  0  0  0
 17 18  1  0  0  0  0
 20 19  1  6  0  0  0
 20 22  1  0  0  0  0
 20 21  1  0  0  0  0
 22 24  1  0  0  0  0
 22 23  1  1  0  0  0
 24 26  1  6  0  0  0
 24 25  1  0  0  0  0
 26 27  1  0  0  0  0
 27 28  1  0  0  0  0
 28 30  1  0  0  0  0
 28 29  2  0  0  0  0
 28 31  1  0  0  0  0
M  CHG  2  30  -1  31  -1
M  END
>  <CHROM.1>
7.58664910,97.40574199,66.11083420,54.09865383,71.85284840,61.99609821,82.65957774
-64.38409521,69.88680283,-66.35737949,-4.78060373,-8.23215372,2.81220140
2.84279805,-0.33168903,1.44592883

>  <Name>
1fmn_cryst

>  <RI>
0

>  <Rbt.Current_Directory>
/home/itssahil/PROJECTS/Mol_Feturizer/New_Systems/rnas/1fmn

>  <Rbt.Executable>
rbdock ($Id: //depot/dev/client3/rdock/2013.1/src/exe/rbdock.cxx#4 $)

>  <Rbt.Library>
libRbt.so (2013.1, Build901 2013/11/27)

>  <Rbt.Parameter_File>
/export/apps/rDock/src/rDock_2013.1_src/data/scripts/dock_solv.prm

>  <Rbt.Receptor>
prm/pocket_docking_8.prm

>  <SCORE>
-30.3044

>  <SCORE.INTER>
-27.7308

>  <SCORE.INTER.CONST>
1

>  <SCORE.INTER.POLAR>
-2.4009

>  <SCORE.INTER.ROT>
7

>  <SCORE.INTER.SOLV>
13.8064

>  <SCORE.INTER.VDW>
-23.3529

>  <SCORE.INTER.norm>
-0.894541

>  <SCORE.INTRA>
-2.57365

>  <SCORE.INTRA.DIHEDRAL>
-6.39603

>  <SCORE.INTRA.DIHEDRAL.0>
15.5708

>  <SCORE.INTRA.POLAR>
-0.174134

>  <SCORE.INTRA.POLAR.0>
-0.0677885

>  <SCORE.INTRA.REPUL>
0

>  <SCORE.INTRA.REPUL.0>
0

>  <SCORE.INTRA.SOLV>
-0.952047

>  <SCORE.INTRA.SOLV.lig_0>
-87.6316

>  <SCORE.INTRA.VDW>
1.69244

>  <SCORE.INTRA.VDW.0>
-2.87309

>  <SCORE.INTRA.norm>
-0.083021

>  <SCORE.RESTR>
0

>  <SCORE.RESTR.CAVITY>
0

>  <SCORE.RESTR.norm>
0

>  <SCORE.SYSTEM>
0

>  <SCORE.SYSTEM.CONST>
0

>  <SCORE.SYSTEM.DIHEDRAL>
0

>  <SCORE.SYSTEM.SOLV>
0

>  <SCORE.SYSTEM.norm>
0

>  <SCORE.heavy>
31

>  <SCORE.norm>
-0.977562

>  <SYMMETRIC_BONDS>
33 34 3

>  <RMSD>
5.922

$$$$
1fmn_cryst
 OpenBabel11021811393D
libRbt.so/2013.1/901 2013/11/27
 31 33  0  0  0  0  0  0  0  0999 V2000
   -7.8686   -5.7756   -0.0131 N   0  0  0  0  0  0  0  0  0  0  0  0
   -8.8167   -4.9941   -0.6312 C   0  0  0  0  0  0  0  0  0  0  0  0
   -8.6583   -4.5545   -1.7706 O   0  0  0  0  0  0  0  0  0  0  0  0
   -9.9831   -4.7235    0.1275 N   0  0  0  0  0  0  0  0  0  0  0  0
  -10.2604   -5.1711    1.4378 C   0  0  0  0  0  0  0  0  0  0  0  0
  -11.3258   -4.8602    1.9853 O   0  0  0  0  0  0  0  0  0  0  0  0
   -9.2025   -5.9959    2.0258 C   0  0  0  0  0  0  0  0  0  0  0  0
   -9.3955   -6.4715    3.2989 N   0  0  0  0  0  0  0  0  0  0  0  0
   -8.3397   -7.0836    3.9097 C   0  0  0  0  0  0  0  0  0  0  0  0
   -8.4637   -7.3997    5.2510 C   0  0  0  0  0  0  0  0  0  0  0  0
   -7.4574   -8.0079    5.9210 C   0  0  0  0  0  0  0  0  0  0  0  0
   -7.6436   -8.3307    7.3693 C   0  0  0  0  0  0  0  0  0  0  0  0
   -6.2969   -8.3201    5.2832 C   0  0  0  0  0  0  0  0  0  0  0  0
   -5.1886   -8.9854    6.0322 C   0  0  0  0  0  0  0  0  0  0  0  0
   -6.1305   -8.0298    3.9675 C   0  0  0  0  0  0  0  0  0  0  0  0
   -7.1365   -7.4041    3.2314 C   0  0  0  0  0  0  0  0  0  0  0  0
   -7.0311   -7.0776    1.8630 N   0  0  0  0  0  0  0  0  0  0  0  0
   -8.0153   -6.2739    1.2521 C   0  0  0  0  0  0  0  0  0  0  0  0
   -6.2456   -8.0080    0.9710 C   0  0  0  0  0  0  0  0  0  0  0  0
   -4.7758   -8.3011    1.4000 C   0  0  1  0  0  0  0  0  0  0  0  0
   -4.6389   -9.6635    1.7782 O   0  0  0  0  0  0  0  0  0  0  0  0
   -3.7345   -7.8853    0.3338 C   0  0  1  0  0  0  0  0  0  0  0  0
   -4.1150   -6.6541   -0.2738 O   0  0  0  0  0  0  0  0  0  0  0  0
   -2.2560   -7.8139    0.7885 C   0  0  1  0  0  0  0  0  0  0  0  0
   -1.8303   -9.1257    1.1405 O   0  0  0  0  0  0  0  0  0  0  0  0
   -1.3148   -7.2625   -0.3059 C   0  0  0  0  0  0  0  0  0  0  0  0
   -1.5019   -5.8705   -0.5327 O   0  0  0  0  0  0  0  0  0  0  0  0
   -0.4526   -4.9827   -1.3214 P   0  0  0  0  0  0  0  0  0  0  0  0
   -0.0002   -5.6682   -2.5533 O   0  0  0  0  0  0  0  0  0  0  0  0
   -0.9236   -3.5845   -1.4215 O   0  5  0  0  0  0  0  0  0  0  0  0
    0.8164   -4.9553   -0.3603 O   0  5  0  0  0  0  0  0  0  0  0  0
  1 18  1  0  0  0  0
  1  2  1  0  0  0  0
  2  4  1  0  0  0  0
  2  3  2  0  0  0  0
  4  5  1  0  0  0  0
  5  7  1  0  0  0  0
  5  6  2  0  0  0  0
  7 18  2  0  0  0  0
  7  8  1  0  0  0  0
  8  9  1  0  0  0  0
  9 10  2  0  0  0  0
  9 16  1  0  0  0  0
 10 11  1  0  0  0  0
 11 12  1  0  0  0  0
 11 13  2  0  0  0  0
 13 14  1  0  0  0  0
 13 15  1  0  0  0  0
 15 16  2  0  0  0  0
 16 17  1  0  0  0  0
 17 19  1  0  0  0  0
 17 18  1  0  0  0  0
 20 19  1  6  0  0  0
 20 22  1  0  0  0  0
 20 21  1  0  0  0  0
 22 24  1  0  0  0  0
 22 23  1  1  0  0  0
 24 26  1  6  0  0  0
 24 25  1  0  0  0  0
 26 27  1  0  0  0  0
 27 28  1  0  0  0  0
 28 30  1  0  0  0  0
 28 29  2  0  0  0  0
 28 31  1  0  0  0  0
M  CHG  2  30  -1  31  -1
M  END
>  <CHROM.1>
-55.47956495,113.17668092,39.18058378,-55.31029073,64.84074008,-76.60746620
71.06083393,-47.58723356,164.50011184,45.22992831,-5.40399045,-6.66298049
1.40284942,2.67343271,-0.19701878,2.14907847

>  <Name>
1fmn_cryst

>  <RI>
0

>  <Rbt.Current_Directory>
/home/itssahil/PROJECTS/Mol_Feturizer/New_Systems/rnas/1fmn

>  <Rbt.Executable>
rbdock ($Id: //depot/dev/client3/rdock/2013.1/src/exe/rbdock.cxx#4 $)

>  <Rbt.Library>
libRbt.so (2013.1, Build901 2013/11/27)

>  <Rbt.Parameter_File>
/export/apps/rDock/src/rDock_2013.1_src/data/scripts/dock_solv.prm

>  <Rbt.Receptor>
prm/pocket_docking_7.prm

>  <SCORE>
-37.8865

>  <SCORE.INTER>
-33.3539

>  <SCORE.INTER.CONST>
1

>  <SCORE.INTER.POLAR>
-1.6367

>  <SCORE.INTER.ROT>
7

>  <SCORE.INTER.SOLV>
24.4

>  <SCORE.INTER.VDW>
-33.1802

>  <SCORE.INTER.norm>
-1.07593

>  <SCORE.INTRA>
-4.53261

>  <SCORE.INTRA.DIHEDRAL>
-3.96259

>  <SCORE.INTRA.DIHEDRAL.0>
15.5708

>  <SCORE.INTRA.POLAR>
-0.657418

>  <SCORE.INTRA.POLAR.0>
-0.0677885

>  <SCORE.INTRA.REPUL>
0.0184383

>  <SCORE.INTRA.REPUL.0>
0

>  <SCORE.INTRA.SOLV>
-4.25894

>  <SCORE.INTRA.SOLV.lig_0>
-87.6316

>  <SCORE.INTRA.VDW>
1.72118

>  <SCORE.INTRA.VDW.0>
-2.87309

>  <SCORE.INTRA.norm>
-0.146213

>  <SCORE.RESTR>
0

>  <SCORE.RESTR.CAVITY>
0

>  <SCORE.RESTR.norm>
0

>  <SCORE.SYSTEM>
0

>  <SCORE.SYSTEM.CONST>
0

>  <SCORE.SYSTEM.DIHEDRAL>
0

>  <SCORE.SYSTEM.SOLV>
0

>  <SCORE.SYSTEM.norm>
0

>  <SCORE.heavy>
31

>  <SCORE.norm>
-1.22215

>  <SYMMETRIC_BONDS>
33 34 3

>  <RMSD>
6.039

$$$$
1fmn_cryst
 OpenBabel11021811393D
libRbt.so/2013.1/901 2013/11/27
 31 33  0  0  0  0  0  0  0  0999 V2000
   -2.5349   -6.1190    3.7219 N   0  0  0  0  0  0  0  0  0  0  0  0
   -1.2929   -6.1365    3.1316 C   0  0  0  0  0  0  0  0  0  0  0  0
   -0.2550   -6.1162    3.7941 O   0  0  0  0  0  0  0  0  0  0  0  0
   -1.2838   -6.1742    1.7146 N   0  0  0  0  0  0  0  0  0  0  0  0
   -2.4106   -6.1937    0.8636 C   0  0  0  0  0  0  0  0  0  0  0  0
   -2.2582   -6.2286   -0.3640 O   0  0  0  0  0  0  0  0  0  0  0  0
   -3.6943   -6.1723    1.5684 C   0  0  0  0  0  0  0  0  0  0  0  0
   -4.8396   -6.1895    0.8119 N   0  0  0  0  0  0  0  0  0  0  0  0
   -6.0247   -5.9876    1.4580 C   0  0  0  0  0  0  0  0  0  0  0  0
   -7.1607   -5.8190    0.6864 C   0  0  0  0  0  0  0  0  0  0  0  0
   -8.3698   -5.6152    1.2590 C   0  0  0  0  0  0  0  0  0  0  0  0
   -9.5670   -5.4419    0.3797 C   0  0  0  0  0  0  0  0  0  0  0  0
   -8.4902   -5.5706    2.6135 C   0  0  0  0  0  0  0  0  0  0  0  0
   -9.8278   -5.3383    3.2371 C   0  0  0  0  0  0  0  0  0  0  0  0
   -7.4033   -5.7316    3.4106 C   0  0  0  0  0  0  0  0  0  0  0  0
   -6.1349   -5.9448    2.8709 C   0  0  0  0  0  0  0  0  0  0  0  0
   -4.9660   -6.1231    3.6402 N   0  0  0  0  0  0  0  0  0  0  0  0
   -3.7038   -6.1364    3.0120 C   0  0  0  0  0  0  0  0  0  0  0  0
   -5.0896   -6.8442    4.9605 C   0  0  0  0  0  0  0  0  0  0  0  0
   -5.7964   -8.2332    4.9268 C   0  0  1  0  0  0  0  0  0  0  0  0
   -4.9569   -9.1944    4.3027 O   0  0  0  0  0  0  0  0  0  0  0  0
   -6.2855   -8.7029    6.3175 C   0  0  1  0  0  0  0  0  0  0  0  0
   -7.7084   -8.7697    6.3435 O   0  0  0  0  0  0  0  0  0  0  0  0
   -5.6858  -10.0224    6.8627 C   0  0  1  0  0  0  0  0  0  0  0  0
   -4.2775   -9.8580    6.9876 O   0  0  0  0  0  0  0  0  0  0  0  0
   -6.2637  -10.4239    8.2383 C   0  0  0  0  0  0  0  0  0  0  0  0
   -5.9232   -9.4968    9.2624 O   0  0  0  0  0  0  0  0  0  0  0  0
   -7.0127   -8.7080   10.1003 P   0  0  0  0  0  0  0  0  0  0  0  0
   -7.9650   -9.6427   10.7418 O   0  0  0  0  0  0  0  0  0  0  0  0
   -6.3755   -7.6646   10.9324 O   0  5  0  0  0  0  0  0  0  0  0  0
   -7.8560   -7.9371    8.9915 O   0  5  0  0  0  0  0  0  0  0  0  0
  1 18  1  0  0  0  0
  1  2  1  0  0  0  0
  2  4  1  0  0  0  0
  2  3  2  0  0  0  0
  4  5  1  0  0  0  0
  5  7  1  0  0  0  0
  5  6  2  0  0  0  0
  7 18  2  0  0  0  0
  7  8  1  0  0  0  0
  8  9  1  0  0  0  0
  9 10  2  0  0  0  0
  9 16  1  0  0  0  0
 10 11  1  0  0  0  0
 11 12  1  0  0  0  0
 11 13  2  0  0  0  0
 13 14  1  0  0  0  0
 13 15  1  0  0  0  0
 15 16  2  0  0  0  0
 16 17  1  0  0  0  0
 17 19  1  0  0  0  0
 17 18  1  0  0  0  0
 20 19  1  1  0  0  0
 20 22  1  0  0  0  0
 20 21  1  0  0  0  0
 22 24  1  0  0  0  0
 22 23  1  6  0  0  0
 24 26  1  1  0  0  0
 24 25  1  0  0  0  0
 26 27  1  0  0  0  0
 27 28  1  0  0  0  0
 28 30  1  0  0  0  0
 28 29  2  0  0  0  0
 28 31  1  0  0  0  0
M  CHG  2  30  -1  31  -1
M  END
>  <CHROM.1>
52.35299700,71.82905509,114.50774457,179.51535815,60.87237480,-153.55424941
-65.11279296,-173.11170230,120.27981930,55.39280256,-5.58373755,-7.32011626
4.78147055,-1.27957168,-0.08760366,1.97127130

>  <Name>
1fmn_cryst

>  <RI>
0

>  <Rbt.Current_Directory>
/home/itssahil/PROJECTS/Mol_Feturizer/New_Systems/rnas/1fmn

>  <Rbt.Executable>
rbdock ($Id: //depot/dev/client3/rdock/2013.1/src/exe/rbdock.cxx#4 $)

>  <Rbt.Library>
libRbt.so (2013.1, Build901 2013/11/27)

>  <Rbt.Parameter_File>
/export/apps/rDock/src/rDock_2013.1_src/data/scripts/dock_solv.prm

>  <Rbt.Receptor>
prm/pocket_docking_6.prm

>  <SCORE>
-23.3552

>  <SCORE.INTER>
-19.799

>  <SCORE.INTER.CONST>
1

>  <SCORE.INTER.POLAR>
-2.17511

>  <SCORE.INTER.ROT>
7

>  <SCORE.INTER.SOLV>
12.8958

>  <SCORE.INTER.VDW>
-18.5142

>  <SCORE.INTER.norm>
-0.638677

>  <SCORE.INTRA>
-3.55745

>  <SCORE.INTRA.DIHEDRAL>
2.00829

>  <SCORE.INTRA.DIHEDRAL.0>
15.5708

>  <SCORE.INTRA.POLAR>
-1.26554

>  <SCORE.INTRA.POLAR.0>
-0.0677885

>  <SCORE.INTRA.REPUL>
0

>  <SCORE.INTRA.REPUL.0>
0

>  <SCORE.INTRA.SOLV>
-0.28547

>  <SCORE.INTRA.SOLV.lig_0>
-87.6316

>  <SCORE.INTRA.VDW>
-0.116003

>  <SCORE.INTRA.VDW.0>
-2.87309

>  <SCORE.INTRA.norm>
-0.114756

>  <SCORE.RESTR>
0.00122208

>  <SCORE.RESTR.CAVITY>
0.00122208

>  <SCORE.RESTR.norm>
3.94219e-05

>  <SCORE.SYSTEM>
0

>  <SCORE.SYSTEM.CONST>
0

>  <SCORE.SYSTEM.DIHEDRAL>
0

>  <SCORE.SYSTEM.SOLV>
0

>  <SCORE.SYSTEM.norm>
0

>  <SCORE.heavy>
31

>  <SCORE.norm>
-0.753393

>  <SYMMETRIC_BONDS>
33 34 3

>  <RMSD>
6.042

$$$$
1fmn_cryst
 OpenBabel11021811393D
libRbt.so/2013.1/901 2013/11/27
 31 33  0  0  0  0  0  0  0  0999 V2000
   -7.1680   -7.8954    4.8800 N   0  0  0  0  0  0  0  0  0  0  0  0
   -8.0469   -6.8513    4.7099 C   0  0  0  0  0  0  0  0  0  0  0  0
   -8.8218   -6.4988    5.5998 O   0  0  0  0  0  0  0  0  0  0  0  0
   -8.0072   -6.2113    3.4457 N   0  0  0  0  0  0  0  0  0  0  0  0
   -7.1658   -6.5388    2.3599 C   0  0  0  0  0  0  0  0  0  0  0  0
   -7.2346   -5.8923    1.3069 O   0  0  0  0  0  0  0  0  0  0  0  0
   -6.2611   -7.6609    2.6200 C   0  0  0  0  0  0  0  0  0  0  0  0
   -5.4092   -8.0421    1.6136 N   0  0  0  0  0  0  0  0  0  0  0  0
   -4.6995   -9.1942    1.7913 C   0  0  0  0  0  0  0  0  0  0  0  0
   -3.9822   -9.6839    0.7142 C   0  0  0  0  0  0  0  0  0  0  0  0
   -3.2554  -10.8207    0.8181 C   0  0  0  0  0  0  0  0  0  0  0  0
   -2.4955  -11.3054   -0.3752 C   0  0  0  0  0  0  0  0  0  0  0  0
   -3.2183  -11.5081    1.9916 C   0  0  0  0  0  0  0  0  0  0  0  0
   -2.4188  -12.7659    2.0955 C   0  0  0  0  0  0  0  0  0  0  0  0
   -3.9056  -11.0651    3.0752 C   0  0  0  0  0  0  0  0  0  0  0  0
   -4.6693   -9.8992    3.0211 C   0  0  0  0  0  0  0  0  0  0  0  0
   -5.4037   -9.3816    4.1087 N   0  0  0  0  0  0  0  0  0  0  0  0
   -6.2996   -8.3113    3.9088 C   0  0  0  0  0  0  0  0  0  0  0  0
   -4.8358   -9.5590    5.4959 C   0  0  0  0  0  0  0  0  0  0  0  0
   -3.5787   -8.7052    5.8433 C   0  0  1  0  0  0  0  0  0  0  0  0
   -2.5317   -8.9788    4.9230 O   0  0  0  0  0  0  0  0  0  0  0  0
   -3.8797   -7.1912    5.9495 C   0  0  1  0  0  0  0  0  0  0  0  0
   -2.8939   -6.5472    6.7515 O   0  0  0  0  0  0  0  0  0  0  0  0
   -4.0651   -6.4185    4.6204 C   0  0  1  0  0  0  0  0  0  0  0  0
   -4.8008   -5.2303    4.8903 O   0  0  0  0  0  0  0  0  0  0  0  0
   -2.7246   -6.0333    3.9553 C   0  0  0  0  0  0  0  0  0  0  0  0
   -2.9072   -5.3206    2.7376 O   0  0  0  0  0  0  0  0  0  0  0  0
   -1.6948   -4.8074    1.8556 P   0  0  0  0  0  0  0  0  0  0  0  0
   -1.1057   -5.9159    1.0706 O   0  0  0  0  0  0  0  0  0  0  0  0
   -2.0534   -3.5558    1.1542 O   0  5  0  0  0  0  0  0  0  0  0  0
   -0.5877   -4.4123    2.9294 O   0  5  0  0  0  0  0  0  0  0  0  0
  1 18  1  0  0  0  0
  1  2  1  0  0  0  0
  2  4  1  0  0  0  0
  2  3  2  0  0  0  0
  4  5  1  0  0  0  0
  5  7  1  0  0  0  0
  5  6  2  0  0  0  0
  7 18  2  0  0  0  0
  7  8  1  0  0  0  0
  8  9  1  0  0  0  0
  9 10  2  0  0  0  0
  9 16  1  0  0  0  0
 10 11  1  0  0  0  0
 11 12  1  0  0  0  0
 11 13  2  0  0  0  0
 13 14  1  0  0  0  0
 13 15  1  0  0  0  0
 15 16  2  0  0  0  0
 16 17  1  0  0  0  0
 17 19  1  0  0  0  0
 17 18  1  0  0  0  0
 20 19  1  6  0  0  0
 20 22  1  0  0  0  0
 20 21  1  0  0  0  0
 22 24  1  0  0  0  0
 22 23  1  6  0  0  0
 24 26  1  1  0  0  0
 24 25  1  0  0  0  0
 26 27  1  0  0  0  0
 27 28  1  0  0  0  0
 28 30  1  0  0  0  0
 28 29  2  0  0  0  0
 28 31  1  0  0  0  0
M  CHG  2  30  -1  31  -1
M  END
>  <CHROM.1>
71.16391157,-57.79432525,157.15628771,62.71753827,158.55494250,-61.25187658
-179.81958759,60.65559181,179.97036170,77.85684173,-4.23229932,-7.58523701
3.19839026,1.60632007,0.49615787,0.21619853

>  <Name>
1fmn_cryst

>  <RI>
0

>  <Rbt.Current_Directory>
/home/itssahil/PROJECTS/Mol_Feturizer/New_Systems/rnas/1fmn

>  <Rbt.Executable>
rbdock ($Id: //depot/dev/client3/rdock/2013.1/src/exe/rbdock.cxx#4 $)

>  <Rbt.Library>
libRbt.so (2013.1, Build901 2013/11/27)

>  <Rbt.Parameter_File>
/export/apps/rDock/src/rDock_2013.1_src/data/scripts/dock_solv.prm

>  <Rbt.Receptor>
prm/pocket_docking_6.prm

>  <SCORE>
-27.2042

>  <SCORE.INTER>
-19.4372

>  <SCORE.INTER.CONST>
1

>  <SCORE.INTER.POLAR>
-1.72725

>  <SCORE.INTER.ROT>
7

>  <SCORE.INTER.SOLV>
11.4292

>  <SCORE.INTER.VDW>
-19.2771

>  <SCORE.INTER.norm>
-0.627006

>  <SCORE.INTRA>
-7.76697

>  <SCORE.INTRA.DIHEDRAL>
-9.99417

>  <SCORE.INTRA.DIHEDRAL.0>
15.5708

>  <SCORE.INTRA.POLAR>
0.0677885

>  <SCORE.INTRA.POLAR.0>
-0.0677885

>  <SCORE.INTRA.REPUL>
0

>  <SCORE.INTRA.REPUL.0>
0

>  <SCORE.INTRA.SOLV>
-2.44496

>  <SCORE.INTRA.SOLV.lig_0>
-87.6316

>  <SCORE.INTRA.VDW>
-1.77789

>  <SCORE.INTRA.VDW.0>
-2.87309

>  <SCORE.INTRA.norm>
-0.250547

>  <SCORE.RESTR>
0

>  <SCORE.RESTR.CAVITY>
0

>  <SCORE.RESTR.norm>
0

>  <SCORE.SYSTEM>
0

>  <SCORE.SYSTEM.CONST>
0

>  <SCORE.SYSTEM.DIHEDRAL>
0

>  <SCORE.SYSTEM.SOLV>
0

>  <SCORE.SYSTEM.norm>
0

>  <SCORE.heavy>
31

>  <SCORE.norm>
-0.877554

>  <SYMMETRIC_BONDS>
33 34 3

>  <RMSD>
6.078

$$$$
1fmn_cryst
 OpenBabel11021811393D
libRbt.so/2013.1/901 2013/11/27
 31 33  0  0  0  0  0  0  0  0999 V2000
   -8.6034   -4.7954   -2.2508 N   0  0  0  0  0  0  0  0  0  0  0  0
   -7.7058   -5.1646   -3.2253 C   0  0  0  0  0  0  0  0  0  0  0  0
   -6.6706   -5.7769   -2.9609 O   0  0  0  0  0  0  0  0  0  0  0  0
   -8.0454   -4.7917   -4.5500 N   0  0  0  0  0  0  0  0  0  0  0  0
   -9.1986   -4.0867   -4.9591 C   0  0  0  0  0  0  0  0  0  0  0  0
   -9.3725   -3.8266   -6.1564 O   0  0  0  0  0  0  0  0  0  0  0  0
  -10.1027   -3.7295   -3.8636 C   0  0  0  0  0  0  0  0  0  0  0  0
  -11.2485   -3.0422   -4.1782 N   0  0  0  0  0  0  0  0  0  0  0  0
  -11.9948   -2.5547   -3.1447 C   0  0  0  0  0  0  0  0  0  0  0  0
  -13.0450   -1.7071   -3.4497 C   0  0  0  0  0  0  0  0  0  0  0  0
  -13.8276   -1.1867   -2.4760 C   0  0  0  0  0  0  0  0  0  0  0  0
  -14.9519   -0.2782   -2.8594 C   0  0  0  0  0  0  0  0  0  0  0  0
  -13.5926   -1.4886   -1.1703 C   0  0  0  0  0  0  0  0  0  0  0  0
  -14.4573   -0.9041   -0.1013 C   0  0  0  0  0  0  0  0  0  0  0  0
  -12.5740   -2.3163   -0.8239 C   0  0  0  0  0  0  0  0  0  0  0  0
  -11.7386   -2.8794   -1.7885 C   0  0  0  0  0  0  0  0  0  0  0  0
  -10.6660   -3.7485   -1.4983 N   0  0  0  0  0  0  0  0  0  0  0  0
   -9.7582   -4.1116   -2.5143 C   0  0  0  0  0  0  0  0  0  0  0  0
  -10.8175   -4.6970   -0.3340 C   0  0  0  0  0  0  0  0  0  0  0  0
   -9.8189   -4.5067    0.8479 C   0  0  1  0  0  0  0  0  0  0  0  0
  -10.4977   -3.9899    1.9836 O   0  0  0  0  0  0  0  0  0  0  0  0
   -9.0172   -5.7874    1.1816 C   0  0  1  0  0  0  0  0  0  0  0  0
   -8.3904   -6.2969    0.0081 O   0  0  0  0  0  0  0  0  0  0  0  0
   -7.9838   -5.6879    2.3305 C   0  0  1  0  0  0  0  0  0  0  0  0
   -8.6601   -5.9074    3.5635 O   0  0  0  0  0  0  0  0  0  0  0  0
   -6.8383   -6.7170    2.2014 C   0  0  0  0  0  0  0  0  0  0  0  0
   -5.7958   -6.4906    3.1427 O   0  0  0  0  0  0  0  0  0  0  0  0
   -4.9689   -5.1398    3.1963 P   0  0  0  0  0  0  0  0  0  0  0  0
   -3.8750   -5.2288    4.1901 O   0  0  0  0  0  0  0  0  0  0  0  0
   -4.6486   -4.6701    1.8311 O   0  5  0  0  0  0  0  0  0  0  0  0
   -6.0028   -4.0880    3.7959 O   0  5  0  0  0  0  0  0  0  0  0  0
  1 18  1  0  0  0  0
  1  2  1  0  0  0  0
  2  4  1  0  0  0  0
  2  3  2  0  0  0  0
  4  5  1  0  0  0  0
  5  7  1  0  0  0  0
  5  6  2  0  0  0  0
  7 18  2  0  0  0  0
  7  8  1  0  0  0  0
  8  9  1  0  0  0  0
  9 10  2  0  0  0  0
  9 16  1  0  0  0  0
 10 11  1  0  0  0  0
 11 12  1  0  0  0  0
 11 13  2  0  0  0  0
 13 14  1  0  0  0  0
 13 15  1  0  0  0  0
 15 16  2  0  0  0  0
 16 17  1  0  0  0  0
 17 19  1  0  0  0  0
 17 18  1  0  0  0  0
 20 19  1  6  0  0  0
 20 22  1  0  0  0  0
 20 21  1  0  0  0  0
 22 24  1  0  0  0  0
 22 23  1  6  0  0  0
 24 26  1  6  0  0  0
 24 25  1  0  0  0  0
 26 27  1  0  0  0  0
 27 28  1  0  0  0  0
 28 30  1  0  0  0  0
 28 29  2  0  0  0  0
 28 31  1  0  0  0  0
M  CHG  2  30  -1  31  -1
M  END
>  <CHROM.1>
-117.01707534,109.66952652,52.66256246,-165.41715878,84.93983616,-77.98641265
171.28540788,-64.37400450,-59.89498785,-175.00303078,-9.20585408,-4.16097011
-0.49644743,-2.46791979,-0.47877047,1.54329587

>  <Name>
1fmn_cryst

>  <RI>
0

>  <Rbt.Current_Directory>
/home/itssahil/PROJECTS/Mol_Feturizer/New_Systems/rnas/1fmn

>  <Rbt.Executable>
rbdock ($Id: //depot/dev/client3/rdock/2013.1/src/exe/rbdock.cxx#4 $)

>  <Rbt.Library>
libRbt.so (2013.1, Build901 2013/11/27)

>  <Rbt.Parameter_File>
/export/apps/rDock/src/rDock_2013.1_src/data/scripts/dock_solv.prm

>  <Rbt.Receptor>
prm/pocket_docking_7.prm

>  <SCORE>
-47.0711

>  <SCORE.INTER>
-43.9884

>  <SCORE.INTER.CONST>
1

>  <SCORE.INTER.POLAR>
-4.02094

>  <SCORE.INTER.ROT>
7

>  <SCORE.INTER.SOLV>
26.0976

>  <SCORE.INTER.VDW>
-32.8883

>  <SCORE.INTER.norm>
-1.41898

>  <SCORE.INTRA>
-3.08273

>  <SCORE.INTRA.DIHEDRAL>
-3.29266

>  <SCORE.INTRA.DIHEDRAL.0>
15.5708

>  <SCORE.INTRA.POLAR>
-0.61906

>  <SCORE.INTRA.POLAR.0>
-0.0677885

>  <SCORE.INTRA.REPUL>
0

>  <SCORE.INTRA.REPUL.0>
0

>  <SCORE.INTRA.SOLV>
0.10083

>  <SCORE.INTRA.SOLV.lig_0>
-87.6316

>  <SCORE.INTRA.VDW>
0.617983

>  <SCORE.INTRA.VDW.0>
-2.87309

>  <SCORE.INTRA.norm>
-0.099443

>  <SCORE.RESTR>
0

>  <SCORE.RESTR.CAVITY>
0

>  <SCORE.RESTR.norm>
0

>  <SCORE.SYSTEM>
0

>  <SCORE.SYSTEM.CONST>
0

>  <SCORE.SYSTEM.DIHEDRAL>
0

>  <SCORE.SYSTEM.SOLV>
0

>  <SCORE.SYSTEM.norm>
0

>  <SCORE.heavy>
31

>  <SCORE.norm>
-1.51842

>  <SYMMETRIC_BONDS>
33 34 3

>  <RMSD>
6.114

$$$$
1fmn_cryst
 OpenBabel11021811393D
libRbt.so/2013.1/901 2013/11/27
 31 33  0  0  0  0  0  0  0  0999 V2000
   -8.1313   -5.8972    1.9916 N   0  0  0  0  0  0  0  0  0  0  0  0
   -9.2269   -5.0713    2.0866 C   0  0  0  0  0  0  0  0  0  0  0  0
   -9.5735   -4.3375    1.1603 O   0  0  0  0  0  0  0  0  0  0  0  0
   -9.9273   -5.1149    3.3183 N   0  0  0  0  0  0  0  0  0  0  0  0
   -9.6120   -5.9117    4.4408 C   0  0  0  0  0  0  0  0  0  0  0  0
  -10.3137   -5.8524    5.4583 O   0  0  0  0  0  0  0  0  0  0  0  0
   -8.4327   -6.7614    4.2603 C   0  0  0  0  0  0  0  0  0  0  0  0
   -8.0593   -7.5677    5.3065 N   0  0  0  0  0  0  0  0  0  0  0  0
   -6.8643   -8.2191    5.2048 C   0  0  0  0  0  0  0  0  0  0  0  0
   -6.3933   -8.8835    6.3233 C   0  0  0  0  0  0  0  0  0  0  0  0
   -5.2165   -9.5511    6.2949 C   0  0  0  0  0  0  0  0  0  0  0  0
   -4.7542  -10.2556    7.5303 C   0  0  0  0  0  0  0  0  0  0  0  0
   -4.4695   -9.5795    5.1581 C   0  0  0  0  0  0  0  0  0  0  0  0
   -3.1682  -10.3132    5.1377 C   0  0  0  0  0  0  0  0  0  0  0  0
   -4.8921   -8.9426    4.0362 C   0  0  0  0  0  0  0  0  0  0  0  0
   -6.0973   -8.2409    4.0125 C   0  0  0  0  0  0  0  0  0  0  0  0
   -6.5965   -7.5611    2.8817 N   0  0  0  0  0  0  0  0  0  0  0  0
   -7.7207   -6.7190    3.0047 C   0  0  0  0  0  0  0  0  0  0  0  0
   -6.3197   -8.1515    1.5204 C   0  0  0  0  0  0  0  0  0  0  0  0
   -5.3217   -7.3668    0.6158 C   0  0  1  0  0  0  0  0  0  0  0  0
   -5.5022   -5.9682    0.7866 O   0  0  0  0  0  0  0  0  0  0  0  0
   -3.8483   -7.7929    0.8201 C   0  0  1  0  0  0  0  0  0  0  0  0
   -3.6730   -9.1568    0.4478 O   0  0  0  0  0  0  0  0  0  0  0  0
   -2.7652   -6.9180    0.1423 C   0  0  1  0  0  0  0  0  0  0  0  0
   -2.6032   -5.7297    0.9087 O   0  0  0  0  0  0  0  0  0  0  0  0
   -1.3979   -7.6293    0.0323 C   0  0  0  0  0  0  0  0  0  0  0  0
   -1.3251   -8.4958   -1.0937 O   0  0  0  0  0  0  0  0  0  0  0  0
   -0.5155   -9.8580   -1.0752 P   0  0  0  0  0  0  0  0  0  0  0  0
   -0.8664  -10.6974   -2.2432 O   0  0  0  0  0  0  0  0  0  0  0  0
    0.9133   -9.6112   -0.7844 O   0  5  0  0  0  0  0  0  0  0  0  0
   -1.0993  -10.6267    0.1909 O   0  5  0  0  0  0  0  0  0  0  0  0
  1 18  1  0  0  0  0
  1  2  1  0  0  0  0
  2  4  1  0  0  0  0
  2  3  2  0  0  0  0
  4  5  1  0  0  0  0
  5  7  1  0  0  0  0
  5  6  2  0  0  0  0
  7 18  2  0  0  0  0
  7  8  1  0  0  0  0
  8  9  1  0  0  0  0
  9 10  2  0  0  0  0
  9 16  1  0  0  0  0
 10 11  1  0  0  0  0
 11 12  1  0  0  0  0
 11 13  2  0  0  0  0
 13 14  1  0  0  0  0
 13 15  1  0  0  0  0
 15 16  2  0  0  0  0
 16 17  1  0  0  0  0
 17 19  1  0  0  0  0
 17 18  1  0  0  0  0
 20 19  1  1  0  0  0
 20 22  1  0  0  0  0
 20 21  1  0  0  0  0
 22 24  1  0  0  0  0
 22 23  1  6  0  0  0
 24 26  1  1  0  0  0
 24 25  1  0  0  0  0
 26 27  1  0  0  0  0
 27 28  1  0  0  0  0
 28 30  1  0  0  0  0
 28 29  2  0  0  0  0
 28 31  1  0  0  0  0
M  CHG  2  30  -1  31  -1
M  END
>  <CHROM.1>
-110.16880583,-37.23519942,63.24517123,-160.58859691,76.79444393,-166.31087706
82.51411940,-58.03943073,-145.45941918,166.63166730,-4.99522239,-7.90862065
2.25091820,2.82214060,-0.55840243,2.05190518

>  <Name>
1fmn_cryst

>  <RI>
0

>  <Rbt.Current_Directory>
/home/itssahil/PROJECTS/Mol_Feturizer/New_Systems/rnas/1fmn

>  <Rbt.Executable>
rbdock ($Id: //depot/dev/client3/rdock/2013.1/src/exe/rbdock.cxx#4 $)

>  <Rbt.Library>
libRbt.so (2013.1, Build901 2013/11/27)

>  <Rbt.Parameter_File>
/export/apps/rDock/src/rDock_2013.1_src/data/scripts/dock_solv.prm

>  <Rbt.Receptor>
prm/pocket_docking_7.prm

>  <SCORE>
-29.1907

>  <SCORE.INTER>
-24.2057

>  <SCORE.INTER.CONST>
1

>  <SCORE.INTER.POLAR>
-1.00502

>  <SCORE.INTER.ROT>
7

>  <SCORE.INTER.SOLV>
15.3927

>  <SCORE.INTER.VDW>
-26.1846

>  <SCORE.INTER.norm>
-0.78083

>  <SCORE.INTRA>
-4.99147

>  <SCORE.INTRA.DIHEDRAL>
-1.7055

>  <SCORE.INTRA.DIHEDRAL.0>
15.5708

>  <SCORE.INTRA.POLAR>
-1.2534

>  <SCORE.INTRA.POLAR.0>
-0.0677885

>  <SCORE.INTRA.REPUL>
0

>  <SCORE.INTRA.REPUL.0>
0

>  <SCORE.INTRA.SOLV>
-0.508165

>  <SCORE.INTRA.SOLV.lig_0>
-87.6316

>  <SCORE.INTRA.VDW>
0.376929

>  <SCORE.INTRA.VDW.0>
-2.87309

>  <SCORE.INTRA.norm>
-0.161015

>  <SCORE.RESTR>
0.00651573

>  <SCORE.RESTR.CAVITY>
0.00651573

>  <SCORE.RESTR.norm>
0.000210185

>  <SCORE.SYSTEM>
0

>  <SCORE.SYSTEM.CONST>
0

>  <SCORE.SYSTEM.DIHEDRAL>
0

>  <SCORE.SYSTEM.SOLV>
0

>  <SCORE.SYSTEM.norm>
0

>  <SCORE.heavy>
31

>  <SCORE.norm>
-0.941635

>  <SYMMETRIC_BONDS>
33 34 3

>  <RMSD>
6.245

$$$$
1fmn_cryst
 OpenBabel11021811393D
libRbt.so/2013.1/901 2013/11/27
 31 33  0  0  0  0  0  0  0  0999 V2000
   -6.5981   -6.1969   -0.2234 N   0  0  0  0  0  0  0  0  0  0  0  0
   -7.3043   -5.2840   -0.9714 C   0  0  0  0  0  0  0  0  0  0  0  0
   -6.9624   -4.9709   -2.1122 O   0  0  0  0  0  0  0  0  0  0  0  0
   -8.4459   -4.7242   -0.3445 N   0  0  0  0  0  0  0  0  0  0  0  0
   -8.9196   -5.0082    0.9552 C   0  0  0  0  0  0  0  0  0  0  0  0
   -9.9366   -4.4453    1.3797 O   0  0  0  0  0  0  0  0  0  0  0  0
   -8.1130   -5.9881    1.6862 C   0  0  0  0  0  0  0  0  0  0  0  0
   -8.5075   -6.3195    2.9585 N   0  0  0  0  0  0  0  0  0  0  0  0
   -7.6597   -7.0899    3.7005 C   0  0  0  0  0  0  0  0  0  0  0  0
   -7.9589   -7.2748    5.0387 C   0  0  0  0  0  0  0  0  0  0  0  0
   -7.1636   -8.0268    5.8345 C   0  0  0  0  0  0  0  0  0  0  0  0
   -7.5336   -8.1977    7.2733 C   0  0  0  0  0  0  0  0  0  0  0  0
   -6.0467   -8.6171    5.3294 C   0  0  0  0  0  0  0  0  0  0  0  0
   -5.1705   -9.4400    6.2168 C   0  0  0  0  0  0  0  0  0  0  0  0
   -5.7138   -8.4642    4.0222 C   0  0  0  0  0  0  0  0  0  0  0  0
   -6.4997   -7.7000    3.1597 C   0  0  0  0  0  0  0  0  0  0  0  0
   -6.2142   -7.5030    1.7924 N   0  0  0  0  0  0  0  0  0  0  0  0
   -6.9516   -6.5605    1.0468 C   0  0  0  0  0  0  0  0  0  0  0  0
   -5.5723   -8.6379    1.0318 C   0  0  0  0  0  0  0  0  0  0  0  0
   -4.2354   -9.1910    1.6122 C   0  0  1  0  0  0  0  0  0  0  0  0
   -3.9151  -10.4342    1.0040 O   0  0  0  0  0  0  0  0  0  0  0  0
   -3.0669   -8.1807    1.5225 C   0  0  1  0  0  0  0  0  0  0  0  0
   -1.9441   -8.6583    2.2579 O   0  0  0  0  0  0  0  0  0  0  0  0
   -2.6224   -7.7473    0.1039 C   0  0  1  0  0  0  0  0  0  0  0  0
   -3.6636   -6.9683   -0.4748 O   0  0  0  0  0  0  0  0  0  0  0  0
   -1.3213   -6.9138    0.1085 C   0  0  0  0  0  0  0  0  0  0  0  0
   -0.6931   -6.8800   -1.1676 O   0  0  0  0  0  0  0  0  0  0  0  0
    0.0540   -8.1323   -1.7878 P   0  0  0  0  0  0  0  0  0  0  0  0
    1.1040   -8.6294   -0.8699 O   0  0  0  0  0  0  0  0  0  0  0  0
   -0.9193   -9.0991   -2.3400 O   0  5  0  0  0  0  0  0  0  0  0  0
    0.8339   -7.5261   -3.0364 O   0  5  0  0  0  0  0  0  0  0  0  0
  1 18  1  0  0  0  0
  1  2  1  0  0  0  0
  2  4  1  0  0  0  0
  2  3  2  0  0  0  0
  4  5  1  0  0  0  0
  5  7  1  0  0  0  0
  5  6  2  0  0  0  0
  7 18  2  0  0  0  0
  7  8  1  0  0  0  0
  8  9  1  0  0  0  0
  9 10  2  0  0  0  0
  9 16  1  0  0  0  0
 10 11  1  0  0  0  0
 11 12  1  0  0  0  0
 11 13  2  0  0  0  0
 13 14  1  0  0  0  0
 13 15  1  0  0  0  0
 15 16  2  0  0  0  0
 16 17  1  0  0  0  0
 17 19  1  0  0  0  0
 17 18  1  0  0  0  0
 20 19  1  6  0  0  0
 20 22  1  0  0  0  0
 20 21  1  0  0  0  0
 22 24  1  0  0  0  0
 22 23  1  6  0  0  0
 24 26  1  1  0  0  0
 24 25  1  0  0  0  0
 26 27  1  0  0  0  0
 27 28  1  0  0  0  0
 28 30  1  0  0  0  0
 28 29  2  0  0  0  0
 28 31  1  0  0  0  0
M  CHG  2  30  -1  31  -1
M  END
>  <CHROM.1>
-55.75230454,166.11885351,170.58648263,58.81843935,68.19017074,-61.23920146
161.31329564,-158.82129197,-72.26525112,-55.61235008,-4.74695997,-7.42934951
1.20340079,2.69698723,-0.41134956,2.02137459

>  <Name>
1fmn_cryst

>  <RI>
0

>  <Rbt.Current_Directory>
/home/itssahil/PROJECTS/Mol_Feturizer/New_Systems/rnas/1fmn

>  <Rbt.Executable>
rbdock ($Id: //depot/dev/client3/rdock/2013.1/src/exe/rbdock.cxx#4 $)

>  <Rbt.Library>
libRbt.so (2013.1, Build901 2013/11/27)

>  <Rbt.Parameter_File>
/export/apps/rDock/src/rDock_2013.1_src/data/scripts/dock_solv.prm

>  <Rbt.Receptor>
prm/pocket_docking_8.prm

>  <SCORE>
-39.0696

>  <SCORE.INTER>
-31.1483

>  <SCORE.INTER.CONST>
1

>  <SCORE.INTER.POLAR>
-1.76894

>  <SCORE.INTER.ROT>
7

>  <SCORE.INTER.SOLV>
19.863

>  <SCORE.INTER.VDW>
-29.7568

>  <SCORE.INTER.norm>
-1.00478

>  <SCORE.INTRA>
-7.92128

>  <SCORE.INTRA.DIHEDRAL>
-8.68975

>  <SCORE.INTRA.DIHEDRAL.0>
15.5708

>  <SCORE.INTRA.POLAR>
-0.825656

>  <SCORE.INTRA.POLAR.0>
-0.0677885

>  <SCORE.INTRA.REPUL>
0

>  <SCORE.INTRA.REPUL.0>
0

>  <SCORE.INTRA.SOLV>
-1.905

>  <SCORE.INTRA.SOLV.lig_0>
-87.6316

>  <SCORE.INTRA.VDW>
0.183331

>  <SCORE.INTRA.VDW.0>
-2.87309

>  <SCORE.INTRA.norm>
-0.255525

>  <SCORE.RESTR>
0

>  <SCORE.RESTR.CAVITY>
0

>  <SCORE.RESTR.norm>
0

>  <SCORE.SYSTEM>
0

>  <SCORE.SYSTEM.CONST>
0

>  <SCORE.SYSTEM.DIHEDRAL>
0

>  <SCORE.SYSTEM.SOLV>
0

>  <SCORE.SYSTEM.norm>
0

>  <SCORE.heavy>
31

>  <SCORE.norm>
-1.26031

>  <SYMMETRIC_BONDS>
33 34 3

>  <RMSD>
6.306

$$$$
1fmn_cryst
 OpenBabel11021811393D
libRbt.so/2013.1/901 2013/11/27
 31 33  0  0  0  0  0  0  0  0999 V2000
   -7.7902   -6.1303    2.2040 N   0  0  0  0  0  0  0  0  0  0  0  0
   -8.8755   -5.2876    2.1437 C   0  0  0  0  0  0  0  0  0  0  0  0
   -9.0995   -4.5812    1.1602 O   0  0  0  0  0  0  0  0  0  0  0  0
   -9.7152   -5.2805    3.2858 N   0  0  0  0  0  0  0  0  0  0  0  0
   -9.5462   -6.0429    4.4624 C   0  0  0  0  0  0  0  0  0  0  0  0
  -10.3605   -5.9402    5.3885 O   0  0  0  0  0  0  0  0  0  0  0  0
   -8.3683   -6.9134    4.4485 C   0  0  0  0  0  0  0  0  0  0  0  0
   -8.1328   -7.6886    5.5565 N   0  0  0  0  0  0  0  0  0  0  0  0
   -6.9452   -8.3584    5.6161 C   0  0  0  0  0  0  0  0  0  0  0  0
   -6.6189   -8.9907    6.8028 C   0  0  0  0  0  0  0  0  0  0  0  0
   -5.4582   -9.6740    6.9336 C   0  0  0  0  0  0  0  0  0  0  0  0
   -5.1547  -10.3423    8.2366 C   0  0  0  0  0  0  0  0  0  0  0  0
   -4.5844   -9.7504    5.8935 C   0  0  0  0  0  0  0  0  0  0  0  0
   -3.3021  -10.5011    6.0490 C   0  0  0  0  0  0  0  0  0  0  0  0
   -4.8627   -9.1464    4.7101 C   0  0  0  0  0  0  0  0  0  0  0  0
   -6.0451   -8.4305    4.5230 C   0  0  0  0  0  0  0  0  0  0  0  0
   -6.3977   -7.7829    3.3204 N   0  0  0  0  0  0  0  0  0  0  0  0
   -7.5142   -6.9226    3.2841 C   0  0  0  0  0  0  0  0  0  0  0  0
   -5.9741   -8.4225    2.0205 C   0  0  0  0  0  0  0  0  0  0  0  0
   -4.4428   -8.4507    1.7299 C   0  0  1  0  0  0  0  0  0  0  0  0
   -3.7935   -7.3949    2.4239 O   0  0  0  0  0  0  0  0  0  0  0  0
   -3.7921   -9.8244    2.0192 C   0  0  1  0  0  0  0  0  0  0  0  0
   -4.0902  -10.7421    0.9710 O   0  0  0  0  0  0  0  0  0  0  0  0
   -2.2711   -9.8322    2.3099 C   0  0  1  0  0  0  0  0  0  0  0  0
   -1.9000  -11.1417    2.7264 O   0  0  0  0  0  0  0  0  0  0  0  0
   -1.4206   -9.4414    1.0805 C   0  0  0  0  0  0  0  0  0  0  0  0
   -1.8566   -8.2266    0.4820 O   0  0  0  0  0  0  0  0  0  0  0  0
   -1.1966   -7.6337   -0.8311 P   0  0  0  0  0  0  0  0  0  0  0  0
   -1.0074   -8.6901   -1.8510 O   0  0  0  0  0  0  0  0  0  0  0  0
   -1.8665   -6.3769   -1.2294 O   0  5  0  0  0  0  0  0  0  0  0  0
    0.2701   -7.2258   -0.3650 O   0  5  0  0  0  0  0  0  0  0  0  0
  1 18  1  0  0  0  0
  1  2  1  0  0  0  0
  2  4  1  0  0  0  0
  2  3  2  0  0  0  0
  4  5  1  0  0  0  0
  5  7  1  0  0  0  0
  5  6  2  0  0  0  0
  7 18  2  0  0  0  0
  7  8  1  0  0  0  0
  8  9  1  0  0  0  0
  9 10  2  0  0  0  0
  9 16  1  0  0  0  0
 10 11  1  0  0  0  0
 11 12  1  0  0  0  0
 11 13  2  0  0  0  0
 13 14  1  0  0  0  0
 13 15  1  0  0  0  0
 15 16  2  0  0  0  0
 16 17  1  0  0  0  0
 17 19  1  0  0  0  0
 17 18  1  0  0  0  0
 20 19  1  1  0  0  0
 20 22  1  0  0  0  0
 20 21  1  0  0  0  0
 22 24  1  0  0  0  0
 22 23  1  6  0  0  0
 24 26  1  6  0  0  0
 24 25  1  0  0  0  0
 26 27  1  0  0  0  0
 27 28  1  0  0  0  0
 28 30  1  0  0  0  0
 28 29  2  0  0  0  0
 28 31  1  0  0  0  0
M  CHG  2  30  -1  31  -1
M  END
>  <CHROM.1>
-67.45379560,-25.34148813,77.04077039,-61.03504324,172.18824436,-49.28438942
51.19678711,-59.50346244,-177.26087408,45.43101106,-4.97262303,-8.08348782
2.81246438,2.74123390,-0.49891330,2.12564938

>  <Name>
1fmn_cryst

>  <RI>
0

>  <Rbt.Current_Directory>
/home/itssahil/PROJECTS/Mol_Feturizer/New_Systems/rnas/1fmn

>  <Rbt.Executable>
rbdock ($Id: //depot/dev/client3/rdock/2013.1/src/exe/rbdock.cxx#4 $)

>  <Rbt.Library>
libRbt.so (2013.1, Build901 2013/11/27)

>  <Rbt.Parameter_File>
/export/apps/rDock/src/rDock_2013.1_src/data/scripts/dock_solv.prm

>  <Rbt.Receptor>
prm/pocket_docking_7.prm

>  <SCORE>
-35.6719

>  <SCORE.INTER>
-29.8713

>  <SCORE.INTER.CONST>
1

>  <SCORE.INTER.POLAR>
-2.80479

>  <SCORE.INTER.ROT>
7

>  <SCORE.INTER.SOLV>
23.2805

>  <SCORE.INTER.VDW>
-26.5917

>  <SCORE.INTER.norm>
-0.96359

>  <SCORE.INTRA>
-5.80059

>  <SCORE.INTRA.DIHEDRAL>
-8.41139

>  <SCORE.INTRA.DIHEDRAL.0>
15.5708

>  <SCORE.INTRA.POLAR>
0.0677885

>  <SCORE.INTRA.POLAR.0>
-0.0677885

>  <SCORE.INTRA.REPUL>
0

>  <SCORE.INTRA.REPUL.0>
0

>  <SCORE.INTRA.SOLV>
-3.49617

>  <SCORE.INTRA.SOLV.lig_0>
-87.6316

>  <SCORE.INTRA.VDW>
-0.0772982

>  <SCORE.INTRA.VDW.0>
-2.87309

>  <SCORE.INTRA.norm>
-0.187116

>  <SCORE.RESTR>
0

>  <SCORE.RESTR.CAVITY>
0

>  <SCORE.RESTR.norm>
0

>  <SCORE.SYSTEM>
0

>  <SCORE.SYSTEM.CONST>
0

>  <SCORE.SYSTEM.DIHEDRAL>
0

>  <SCORE.SYSTEM.SOLV>
0

>  <SCORE.SYSTEM.norm>
0

>  <SCORE.heavy>
31

>  <SCORE.norm>
-1.15071

>  <SYMMETRIC_BONDS>
33 34 3

>  <RMSD>
6.357

$$$$
1fmn_cryst
 OpenBabel11021811393D
libRbt.so/2013.1/901 2013/11/27
 31 33  0  0  0  0  0  0  0  0999 V2000
   -9.4492   -4.5076   -1.6548 N   0  0  0  0  0  0  0  0  0  0  0  0
   -9.1886   -4.8526   -2.9604 C   0  0  0  0  0  0  0  0  0  0  0  0
   -8.2163   -5.5412   -3.2719 O   0  0  0  0  0  0  0  0  0  0  0  0
  -10.1061   -4.3617   -3.9230 N   0  0  0  0  0  0  0  0  0  0  0  0
  -11.2439   -3.5632   -3.6743 C   0  0  0  0  0  0  0  0  0  0  0  0
  -11.9648   -3.2037   -4.6136 O   0  0  0  0  0  0  0  0  0  0  0  0
  -11.4512   -3.2390   -2.2611 C   0  0  0  0  0  0  0  0  0  0  0  0
  -12.5373   -2.4656   -1.9349 N   0  0  0  0  0  0  0  0  0  0  0  0
  -12.6275   -2.0160   -0.6495 C   0  0  0  0  0  0  0  0  0  0  0  0
  -13.6124   -1.0892   -0.3568 C   0  0  0  0  0  0  0  0  0  0  0  0
  -13.7608   -0.6002    0.8963 C   0  0  0  0  0  0  0  0  0  0  0  0
  -14.8432    0.3973    1.1603 C   0  0  0  0  0  0  0  0  0  0  0  0
  -12.9370   -1.0130    1.8973 C   0  0  0  0  0  0  0  0  0  0  0  0
  -13.1036   -0.4627    3.2763 C   0  0  0  0  0  0  0  0  0  0  0  0
  -11.9572   -1.9213    1.6571 C   0  0  0  0  0  0  0  0  0  0  0  0
  -11.7624   -2.4565    0.3838 C   0  0  0  0  0  0  0  0  0  0  0  0
  -10.7675   -3.4048    0.0664 N   0  0  0  0  0  0  0  0  0  0  0  0
  -10.5181   -3.7412   -1.2800 C   0  0  0  0  0  0  0  0  0  0  0  0
  -10.4041   -4.4286    1.1143 C   0  0  0  0  0  0  0  0  0  0  0  0
  -11.5616   -4.9124    2.0396 C   0  0  1  0  0  0  0  0  0  0  0  0
  -11.7775   -6.3056    1.8654 O   0  0  0  0  0  0  0  0  0  0  0  0
  -11.3521   -4.5371    3.5260 C   0  0  1  0  0  0  0  0  0  0  0  0
  -12.6063   -4.4630    4.1977 O   0  0  0  0  0  0  0  0  0  0  0  0
  -10.3698   -5.4156    4.3390 C   0  0  1  0  0  0  0  0  0  0  0  0
  -11.0154   -6.6468    4.6445 O   0  0  0  0  0  0  0  0  0  0  0  0
   -9.0592   -5.7166    3.5779 C   0  0  0  0  0  0  0  0  0  0  0  0
   -7.9514   -5.8946    4.4527 O   0  0  0  0  0  0  0  0  0  0  0  0
   -7.8027   -7.1556    5.4007 P   0  0  0  0  0  0  0  0  0  0  0  0
   -6.6347   -7.0074    6.2985 O   0  0  0  0  0  0  0  0  0  0  0  0
   -9.1083   -7.5201    5.9920 O   0  5  0  0  0  0  0  0  0  0  0  0
   -7.4234   -8.3360    4.4018 O   0  5  0  0  0  0  0  0  0  0  0  0
  1 18  1  0  0  0  0
  1  2  1  0  0  0  0
  2  4  1  0  0  0  0
  2  3  2  0  0  0  0
  4  5  1  0  0  0  0
  5  7  1  0  0  0  0
  5  6  2  0  0  0  0
  7 18  2  0  0  0  0
  7  8  1  0  0  0  0
  8  9  1  0  0  0  0
  9 10  2  0  0  0  0
  9 16  1  0  0  0  0
 10 11  1  0  0  0  0
 11 12  1  0  0  0  0
 11 13  2  0  0  0  0
 13 14  1  0  0  0  0
 13 15  1  0  0  0  0
 15 16  2  0  0  0  0
 16 17  1  0  0  0  0
 17 19  1  0  0  0  0
 17 18  1  0  0  0  0
 20 19  1  6  0  0  0
 20 22  1  0  0  0  0
 20 21  1  0  0  0  0
 22 24  1  0  0  0  0
 22 23  1  1  0  0  0
 24 26  1  6  0  0  0
 24 25  1  0  0  0  0
 26 27  1  0  0  0  0
 27 28  1  0  0  0  0
 28 30  1  0  0  0  0
 28 29  2  0  0  0  0
 28 31  1  0  0  0  0
M  CHG  2  30  -1  31  -1
M  END
>  <CHROM.1>
33.86012926,117.66223566,154.91964692,88.63741463,-75.76850872,176.27133775
150.24288730,-73.48329361,69.95773939,-173.97383080,-10.69203645,-4.31748331
1.39688649,-2.15776380,-0.79121706,1.69764885

>  <Name>
1fmn_cryst

>  <RI>
0

>  <Rbt.Current_Directory>
/home/itssahil/PROJECTS/Mol_Feturizer/New_Systems/rnas/1fmn

>  <Rbt.Executable>
rbdock ($Id: //depot/dev/client3/rdock/2013.1/src/exe/rbdock.cxx#4 $)

>  <Rbt.Library>
libRbt.so (2013.1, Build901 2013/11/27)

>  <Rbt.Parameter_File>
/export/apps/rDock/src/rDock_2013.1_src/data/scripts/dock_solv.prm

>  <Rbt.Receptor>
prm/blind_docking_40.prm

>  <SCORE>
-34.4242

>  <SCORE.INTER>
-39.3887

>  <SCORE.INTER.CONST>
1

>  <SCORE.INTER.POLAR>
-3.62433

>  <SCORE.INTER.ROT>
7

>  <SCORE.INTER.SOLV>
39.012

>  <SCORE.INTER.VDW>
-35.4487

>  <SCORE.INTER.norm>
-1.2706

>  <SCORE.INTRA>
2.05199

>  <SCORE.INTRA.DIHEDRAL>
2.39195

>  <SCORE.INTRA.DIHEDRAL.0>
15.5708

>  <SCORE.INTRA.POLAR>
-0.324881

>  <SCORE.INTRA.POLAR.0>
-0.0677885

>  <SCORE.INTRA.REPUL>
0

>  <SCORE.INTRA.REPUL.0>
0

>  <SCORE.INTRA.SOLV>
-0.120039

>  <SCORE.INTRA.SOLV.lig_0>
-87.6316

>  <SCORE.INTRA.VDW>
2.02062

>  <SCORE.INTRA.VDW.0>
-2.87309

>  <SCORE.INTRA.norm>
0.0661931

>  <SCORE.RESTR>
2.91255

>  <SCORE.RESTR.CAVITY>
2.91255

>  <SCORE.RESTR.norm>
0.0939534

>  <SCORE.SYSTEM>
0

>  <SCORE.SYSTEM.CONST>
0

>  <SCORE.SYSTEM.DIHEDRAL>
0

>  <SCORE.SYSTEM.SOLV>
0

>  <SCORE.SYSTEM.norm>
0

>  <SCORE.heavy>
31

>  <SCORE.norm>
-1.11046

>  <SYMMETRIC_BONDS>
33 34 3

>  <RMSD>
6.515

$$$$
1fmn_cryst
 OpenBabel11021811393D
libRbt.so/2013.1/901 2013/11/27
 31 33  0  0  0  0  0  0  0  0999 V2000
   -5.5615   -8.9104    3.2333 N   0  0  0  0  0  0  0  0  0  0  0  0
   -4.8542   -9.5818    4.2031 C   0  0  0  0  0  0  0  0  0  0  0  0
   -3.9282  -10.3444    3.9253 O   0  0  0  0  0  0  0  0  0  0  0  0
   -5.2619   -9.3440    5.5398 N   0  0  0  0  0  0  0  0  0  0  0  0
   -6.3096   -8.4980    5.9648 C   0  0  0  0  0  0  0  0  0  0  0  0
   -6.5591   -8.3804    7.1712 O   0  0  0  0  0  0  0  0  0  0  0  0
   -7.0135   -7.8210    4.8734 C   0  0  0  0  0  0  0  0  0  0  0  0
   -8.0465   -6.9794    5.2033 N   0  0  0  0  0  0  0  0  0  0  0  0
   -8.8135   -6.4935    4.1843 C   0  0  0  0  0  0  0  0  0  0  0  0
   -9.9628   -5.7980    4.5157 C   0  0  0  0  0  0  0  0  0  0  0  0
  -10.7706   -5.2874    3.5575 C   0  0  0  0  0  0  0  0  0  0  0  0
  -11.9995   -4.5411    3.9692 C   0  0  0  0  0  0  0  0  0  0  0  0
  -10.4655   -5.4516    2.2419 C   0  0  0  0  0  0  0  0  0  0  0  0
  -11.3666   -4.8905    1.1905 C   0  0  0  0  0  0  0  0  0  0  0  0
   -9.3478   -6.1261    1.8696 C   0  0  0  0  0  0  0  0  0  0  0  0
   -8.4819   -6.6714    2.8173 C   0  0  0  0  0  0  0  0  0  0  0  0
   -7.3038   -7.3796    2.5000 N   0  0  0  0  0  0  0  0  0  0  0  0
   -6.5967   -8.0610    3.5117 C   0  0  0  0  0  0  0  0  0  0  0  0
   -6.5248   -6.9492    1.2809 C   0  0  0  0  0  0  0  0  0  0  0  0
   -6.6470   -5.4488    0.8759 C   0  0  1  0  0  0  0  0  0  0  0  0
   -5.6911   -4.6716    1.5833 O   0  0  0  0  0  0  0  0  0  0  0  0
   -6.5667   -5.2208   -0.6524 C   0  0  1  0  0  0  0  0  0  0  0  0
   -5.4768   -5.9538   -1.2041 O   0  0  0  0  0  0  0  0  0  0  0  0
   -7.8531   -5.4933   -1.4702 C   0  0  1  0  0  0  0  0  0  0  0  0
   -8.9732   -5.0719   -0.6996 O   0  0  0  0  0  0  0  0  0  0  0  0
   -7.8742   -4.7513   -2.8254 C   0  0  0  0  0  0  0  0  0  0  0  0
   -7.0257   -5.3602   -3.7916 O   0  0  0  0  0  0  0  0  0  0  0  0
   -6.9473   -4.8659   -5.2952 P   0  0  0  0  0  0  0  0  0  0  0  0
   -6.3636   -3.5076   -5.3754 O   0  0  0  0  0  0  0  0  0  0  0  0
   -6.3940   -5.9267   -6.1644 O   0  5  0  0  0  0  0  0  0  0  0  0
   -8.4733   -4.6980   -5.7172 O   0  5  0  0  0  0  0  0  0  0  0  0
  1 18  1  0  0  0  0
  1  2  1  0  0  0  0
  2  4  1  0  0  0  0
  2  3  2  0  0  0  0
  4  5  1  0  0  0  0
  5  7  1  0  0  0  0
  5  6  2  0  0  0  0
  7 18  2  0  0  0  0
  7  8  1  0  0  0  0
  8  9  1  0  0  0  0
  9 10  2  0  0  0  0
  9 16  1  0  0  0  0
 10 11  1  0  0  0  0
 11 12  1  0  0  0  0
 11 13  2  0  0  0  0
 13 14  1  0  0  0  0
 13 15  1  0  0  0  0
 15 16  2  0  0  0  0
 16 17  1  0  0  0  0
 17 19  1  0  0  0  0
 17 18  1  0  0  0  0
 20 19  1  6  0  0  0
 20 22  1  0  0  0  0
 20 21  1  0  0  0  0
 22 24  1  0  0  0  0
 22 23  1  6  0  0  0
 24 26  1  6  0  0  0
 24 25  1  0  0  0  0
 26 27  1  0  0  0  0
 27 28  1  0  0  0  0
 28 30  1  0  0  0  0
 28 29  2  0  0  0  0
 28 31  1  0  0  0  0
M  CHG  2  30  -1  31  -1
M  END
>  <CHROM.1>
28.00283180,86.46868946,-46.70620571,164.69073885,37.10499806,-15.31901198
75.68853642,-161.56399558,175.17160575,66.47800035,-7.45500497,-6.30702139
0.91222061,-1.55462420,0.51379111,-1.26314154

>  <Name>
1fmn_cryst

>  <RI>
0

>  <Rbt.Current_Directory>
/home/itssahil/PROJECTS/Mol_Feturizer/New_Systems/rnas/1fmn

>  <Rbt.Executable>
rbdock ($Id: //depot/dev/client3/rdock/2013.1/src/exe/rbdock.cxx#4 $)

>  <Rbt.Library>
libRbt.so (2013.1, Build901 2013/11/27)

>  <Rbt.Parameter_File>
/export/apps/rDock/src/rDock_2013.1_src/data/scripts/dock_solv.prm

>  <Rbt.Receptor>
prm/pocket_docking_8.prm

>  <SCORE>
-39.0228

>  <SCORE.INTER>
-39.5776

>  <SCORE.INTER.CONST>
1

>  <SCORE.INTER.POLAR>
-1.17071

>  <SCORE.INTER.ROT>
7

>  <SCORE.INTER.SOLV>
29.7472

>  <SCORE.INTER.VDW>
-40.6651

>  <SCORE.INTER.norm>
-1.2767

>  <SCORE.INTRA>
0.554792

>  <SCORE.INTRA.DIHEDRAL>
0.857902

>  <SCORE.INTRA.DIHEDRAL.0>
15.5708

>  <SCORE.INTRA.POLAR>
0.0677885

>  <SCORE.INTRA.POLAR.0>
-0.0677885

>  <SCORE.INTRA.REPUL>
0.00826209

>  <SCORE.INTRA.REPUL.0>
0

>  <SCORE.INTRA.SOLV>
-4.2894

>  <SCORE.INTRA.SOLV.lig_0>
-87.6316

>  <SCORE.INTRA.VDW>
1.99875

>  <SCORE.INTRA.VDW.0>
-2.87309

>  <SCORE.INTRA.norm>
0.0178965

>  <SCORE.RESTR>
0

>  <SCORE.RESTR.CAVITY>
0

>  <SCORE.RESTR.norm>
0

>  <SCORE.SYSTEM>
0

>  <SCORE.SYSTEM.CONST>
0

>  <SCORE.SYSTEM.DIHEDRAL>
0

>  <SCORE.SYSTEM.SOLV>
0

>  <SCORE.SYSTEM.norm>
0

>  <SCORE.heavy>
31

>  <SCORE.norm>
-1.2588

>  <SYMMETRIC_BONDS>
33 34 3

>  <RMSD>
6.985

$$$$
1fmn_cryst
 OpenBabel11021811393D
libRbt.so/2013.1/901 2013/11/27
 31 33  0  0  0  0  0  0  0  0999 V2000
  -10.4447   -5.5370    2.7028 N   0  0  0  0  0  0  0  0  0  0  0  0
  -11.3482   -5.4884    3.7386 C   0  0  0  0  0  0  0  0  0  0  0  0
  -12.4080   -4.8673    3.6518 O   0  0  0  0  0  0  0  0  0  0  0  0
  -10.9799   -6.1935    4.9119 N   0  0  0  0  0  0  0  0  0  0  0  0
   -9.7917   -6.9286    5.1170 C   0  0  0  0  0  0  0  0  0  0  0  0
   -9.5970   -7.5011    6.1966 O   0  0  0  0  0  0  0  0  0  0  0  0
   -8.8827   -6.9308    3.9686 C   0  0  0  0  0  0  0  0  0  0  0  0
   -7.7040   -7.6241    4.0873 N   0  0  0  0  0  0  0  0  0  0  0  0
   -6.7830   -7.4765    3.0910 C   0  0  0  0  0  0  0  0  0  0  0  0
   -5.5256   -8.0194    3.2878 C   0  0  0  0  0  0  0  0  0  0  0  0
   -4.5630   -7.9120    2.3428 C   0  0  0  0  0  0  0  0  0  0  0  0
   -3.2216   -8.5194    2.6039 C   0  0  0  0  0  0  0  0  0  0  0  0
   -4.8159   -7.2619    1.1747 C   0  0  0  0  0  0  0  0  0  0  0  0
   -3.7451   -7.1420    0.1397 C   0  0  0  0  0  0  0  0  0  0  0  0
   -6.0351   -6.7141    0.9374 C   0  0  0  0  0  0  0  0  0  0  0  0
   -7.0616   -6.7973    1.8780 C   0  0  0  0  0  0  0  0  0  0  0  0
   -8.3506   -6.2544    1.6945 N   0  0  0  0  0  0  0  0  0  0  0  0
   -9.2589   -6.2148    2.7723 C   0  0  0  0  0  0  0  0  0  0  0  0
   -8.9302   -6.2599    0.3008 C   0  0  0  0  0  0  0  0  0  0  0  0
   -9.8563   -5.0615   -0.0682 C   0  0  1  0  0  0  0  0  0  0  0  0
   -9.4289   -3.8869    0.6067 O   0  0  0  0  0  0  0  0  0  0  0  0
   -9.9896   -4.8406   -1.5938 C   0  0  1  0  0  0  0  0  0  0  0  0
  -11.1074   -4.0033   -1.8753 O   0  0  0  0  0  0  0  0  0  0  0  0
   -8.7372   -4.3158   -2.3381 C   0  0  1  0  0  0  0  0  0  0  0  0
   -7.7602   -5.3506   -2.3584 O   0  0  0  0  0  0  0  0  0  0  0  0
   -9.0363   -3.8856   -3.7918 C   0  0  0  0  0  0  0  0  0  0  0  0
   -8.6344   -4.8652   -4.7420 O   0  0  0  0  0  0  0  0  0  0  0  0
   -7.1963   -4.8735   -5.4074 P   0  0  0  0  0  0  0  0  0  0  0  0
   -7.0039   -3.6822   -6.2654 O   0  0  0  0  0  0  0  0  0  0  0  0
   -6.1595   -5.1982   -4.4041 O   0  5  0  0  0  0  0  0  0  0  0  0
   -7.2499   -6.1121   -6.4064 O   0  5  0  0  0  0  0  0  0  0  0  0
  1 18  1  0  0  0  0
  1  2  1  0  0  0  0
  2  4  1  0  0  0  0
  2  3  2  0  0  0  0
  4  5  1  0  0  0  0
  5  7  1  0  0  0  0
  5  6  2  0  0  0  0
  7 18  2  0  0  0  0
  7  8  1  0  0  0  0
  8  9  1  0  0  0  0
  9 10  2  0  0  0  0
  9 16  1  0  0  0  0
 10 11  1  0  0  0  0
 11 12  1  0  0  0  0
 11 13  2  0  0  0  0
 13 14  1  0  0  0  0
 13 15  1  0  0  0  0
 15 16  2  0  0  0  0
 16 17  1  0  0  0  0
 17 19  1  0  0  0  0
 17 18  1  0  0  0  0
 20 19  1  6  0  0  0
 20 22  1  0  0  0  0
 20 21  1  0  0  0  0
 22 24  1  0  0  0  0
 22 23  1  1  0  0  0
 24 26  1  6  0  0  0
 24 25  1  0  0  0  0
 26 27  1  0  0  0  0
 27 28  1  0  0  0  0
 28 30  1  0  0  0  0
 28 29  2  0  0  0  0
 28 31  1  0  0  0  0
M  CHG  2  30  -1  31  -1
M  END
>  <CHROM.1>
-146.68001790,32.41887001,163.86303654,-40.02238422,69.82524827,-84.80950446
-101.33133048,-178.79057140,-90.84805273,-65.71844545,-8.12068227,-5.88565248
0.14114182,1.70829623,-0.39043348,1.85063629

>  <Name>
1fmn_cryst

>  <RI>
0

>  <Rbt.Current_Directory>
/home/itssahil/PROJECTS/Mol_Feturizer/New_Systems/rnas/1fmn

>  <Rbt.Executable>
rbdock ($Id: //depot/dev/client3/rdock/2013.1/src/exe/rbdock.cxx#4 $)

>  <Rbt.Library>
libRbt.so (2013.1, Build901 2013/11/27)

>  <Rbt.Parameter_File>
/export/apps/rDock/src/rDock_2013.1_src/data/scripts/dock_solv.prm

>  <Rbt.Receptor>
prm/pocket_docking_5.prm

>  <SCORE>
-33.3313

>  <SCORE.INTER>
-37.4625

>  <SCORE.INTER.CONST>
1

>  <SCORE.INTER.POLAR>
-2.03329

>  <SCORE.INTER.ROT>
7

>  <SCORE.INTER.SOLV>
31.2954

>  <SCORE.INTER.VDW>
-36.8958

>  <SCORE.INTER.norm>
-1.20847

>  <SCORE.INTRA>
4.13123

>  <SCORE.INTRA.DIHEDRAL>
1.51774

>  <SCORE.INTRA.DIHEDRAL.0>
15.5708

>  <SCORE.INTRA.POLAR>
-0.775353

>  <SCORE.INTRA.POLAR.0>
-0.0677885

>  <SCORE.INTRA.REPUL>
0

>  <SCORE.INTRA.REPUL.0>
0

>  <SCORE.INTRA.SOLV>
0.384418

>  <SCORE.INTRA.SOLV.lig_0>
-87.6316

>  <SCORE.INTRA.VDW>
5.81635

>  <SCORE.INTRA.VDW.0>
-2.87309

>  <SCORE.INTRA.norm>
0.133265

>  <SCORE.RESTR>
0

>  <SCORE.RESTR.CAVITY>
0

>  <SCORE.RESTR.norm>
0

>  <SCORE.SYSTEM>
0

>  <SCORE.SYSTEM.CONST>
0

>  <SCORE.SYSTEM.DIHEDRAL>
0

>  <SCORE.SYSTEM.SOLV>
0

>  <SCORE.SYSTEM.norm>
0

>  <SCORE.heavy>
31

>  <SCORE.norm>
-1.0752

>  <SYMMETRIC_BONDS>
33 34 3

>  <RMSD>
7.327

$$$$
1fmn_cryst
 OpenBabel11021811393D
libRbt.so/2013.1/901 2013/11/27
 31 33  0  0  0  0  0  0  0  0999 V2000
   -9.9255   -4.7899    3.1217 N   0  0  0  0  0  0  0  0  0  0  0  0
  -11.0822   -4.9124    3.8556 C   0  0  0  0  0  0  0  0  0  0  0  0
  -12.0323   -4.1426    3.7097 O   0  0  0  0  0  0  0  0  0  0  0  0
  -11.1087   -5.9760    4.7923 N   0  0  0  0  0  0  0  0  0  0  0  0
  -10.0766   -6.9070    5.0417 C   0  0  0  0  0  0  0  0  0  0  0  0
  -10.2340   -7.7922    5.8919 O   0  0  0  0  0  0  0  0  0  0  0  0
   -8.8796   -6.7087    4.2213 C   0  0  0  0  0  0  0  0  0  0  0  0
   -7.8292   -7.5736    4.4029 N   0  0  0  0  0  0  0  0  0  0  0  0
   -6.6549   -7.2800    3.7726 C   0  0  0  0  0  0  0  0  0  0  0  0
   -5.5423   -8.0373    4.0937 C   0  0  0  0  0  0  0  0  0  0  0  0
   -4.3453   -7.8028    3.5077 C   0  0  0  0  0  0  0  0  0  0  0  0
   -3.1747   -8.6523    3.8878 C   0  0  0  0  0  0  0  0  0  0  0  0
   -4.2133   -6.8098    2.5871 C   0  0  0  0  0  0  0  0  0  0  0  0
   -2.8864   -6.5533    1.9502 C   0  0  0  0  0  0  0  0  0  0  0  0
   -5.2775   -6.0417    2.2402 C   0  0  0  0  0  0  0  0  0  0  0  0
   -6.5329   -6.2425    2.8139 C   0  0  0  0  0  0  0  0  0  0  0  0
   -7.6796   -5.4844    2.4970 N   0  0  0  0  0  0  0  0  0  0  0  0
   -8.8534   -5.6268    3.2651 C   0  0  0  0  0  0  0  0  0  0  0  0
   -7.8364   -4.9963    1.0773 C   0  0  0  0  0  0  0  0  0  0  0  0
   -8.6517   -5.9140    0.1163 C   0  0  1  0  0  0  0  0  0  0  0  0
   -9.8015   -6.4189    0.7802 O   0  0  0  0  0  0  0  0  0  0  0  0
   -9.0073   -5.2298   -1.2252 C   0  0  1  0  0  0  0  0  0  0  0  0
   -9.9980   -4.2268   -1.0201 O   0  0  0  0  0  0  0  0  0  0  0  0
   -7.8317   -4.6489   -2.0489 C   0  0  1  0  0  0  0  0  0  0  0  0
   -6.6149   -4.9719   -1.3849 O   0  0  0  0  0  0  0  0  0  0  0  0
   -7.7742   -5.2031   -3.4902 C   0  0  0  0  0  0  0  0  0  0  0  0
   -6.8640   -4.4831   -4.3133 O   0  0  0  0  0  0  0  0  0  0  0  0
   -6.8023   -4.6669   -5.8861 P   0  0  0  0  0  0  0  0  0  0  0  0
   -8.1209   -4.3952   -6.5022 O   0  0  0  0  0  0  0  0  0  0  0  0
   -5.6086   -3.9947   -6.4430 O   0  5  0  0  0  0  0  0  0  0  0  0
   -6.5595   -6.2291   -6.0741 O   0  5  0  0  0  0  0  0  0  0  0  0
  1 18  1  0  0  0  0
  1  2  1  0  0  0  0
  2  4  1  0  0  0  0
  2  3  2  0  0  0  0
  4  5  1  0  0  0  0
  5  7  1  0  0  0  0
  5  6  2  0  0  0  0
  7 18  2  0  0  0  0
  7  8  1  0  0  0  0
  8  9  1  0  0  0  0
  9 10  2  0  0  0  0
  9 16  1  0  0  0  0
 10 11  1  0  0  0  0
 11 12  1  0  0  0  0
 11 13  2  0  0  0  0
 13 14  1  0  0  0  0
 13 15  1  0  0  0  0
 15 16  2  0  0  0  0
 16 17  1  0  0  0  0
 17 19  1  0  0  0  0
 17 18  1  0  0  0  0
 20 19  1  1  0  0  0
 20 22  1  0  0  0  0
 20 21  1  0  0  0  0
 22 24  1  0  0  0  0
 22 23  1  1  0  0  0
 24 26  1  6  0  0  0
 24 25  1  0  0  0  0
 26 27  1  0  0  0  0
 27 28  1  0  0  0  0
 28 30  1  0  0  0  0
 28 29  2  0  0  0  0
 28 31  1  0  0  0  0
M  CHG  2  30  -1  31  -1
M  END
>  <CHROM.1>
92.81353123,42.19391197,-71.32326814,-67.50465375,3.87487226,-169.90440599
168.61270652,-87.88000244,-168.63532601,56.91393007,-7.67713705,-5.80119752
0.51632513,1.71787341,-0.29880424,1.81723600

>  <Name>
1fmn_cryst

>  <RI>
0

>  <Rbt.Current_Directory>
/home/itssahil/PROJECTS/Mol_Feturizer/New_Systems/rnas/1fmn

>  <Rbt.Executable>
rbdock ($Id: //depot/dev/client3/rdock/2013.1/src/exe/rbdock.cxx#4 $)

>  <Rbt.Library>
libRbt.so (2013.1, Build901 2013/11/27)

>  <Rbt.Parameter_File>
/export/apps/rDock/src/rDock_2013.1_src/data/scripts/dock_solv.prm

>  <Rbt.Receptor>
prm/pocket_docking_5.prm

>  <SCORE>
-37.1631

>  <SCORE.INTER>
-36.3074

>  <SCORE.INTER.CONST>
1

>  <SCORE.INTER.POLAR>
-2.39291

>  <SCORE.INTER.ROT>
7

>  <SCORE.INTER.SOLV>
30.4948

>  <SCORE.INTER.VDW>
-34.6602

>  <SCORE.INTER.norm>
-1.17121

>  <SCORE.INTRA>
-0.85575

>  <SCORE.INTRA.DIHEDRAL>
-2.26788

>  <SCORE.INTRA.DIHEDRAL.0>
15.5708

>  <SCORE.INTRA.POLAR>
0.0677885

>  <SCORE.INTRA.POLAR.0>
-0.0677885

>  <SCORE.INTRA.REPUL>
0

>  <SCORE.INTRA.REPUL.0>
0

>  <SCORE.INTRA.SOLV>
-3.76862

>  <SCORE.INTRA.SOLV.lig_0>
-87.6316

>  <SCORE.INTRA.VDW>
1.93202

>  <SCORE.INTRA.VDW.0>
-2.87309

>  <SCORE.INTRA.norm>
-0.0276048

>  <SCORE.RESTR>
0

>  <SCORE.RESTR.CAVITY>
0

>  <SCORE.RESTR.norm>
0

>  <SCORE.SYSTEM>
0

>  <SCORE.SYSTEM.CONST>
0

>  <SCORE.SYSTEM.DIHEDRAL>
0

>  <SCORE.SYSTEM.SOLV>
0

>  <SCORE.SYSTEM.norm>
0

>  <SCORE.heavy>
31

>  <SCORE.norm>
-1.19881

>  <SYMMETRIC_BONDS>
33 34 3

>  <RMSD>
7.370

$$$$
1fmn_cryst
 OpenBabel11021811393D
libRbt.so/2013.1/901 2013/11/27
 31 33  0  0  0  0  0  0  0  0999 V2000
   -2.0052   -6.6846    0.2645 N   0  0  0  0  0  0  0  0  0  0  0  0
   -1.2813   -6.6211   -0.9032 C   0  0  0  0  0  0  0  0  0  0  0  0
   -1.1515   -7.5959   -1.6444 O   0  0  0  0  0  0  0  0  0  0  0  0
   -0.6913   -5.3658   -1.1957 N   0  0  0  0  0  0  0  0  0  0  0  0
   -0.7727   -4.1923   -0.4144 C   0  0  0  0  0  0  0  0  0  0  0  0
   -0.2074   -3.1579   -0.7909 O   0  0  0  0  0  0  0  0  0  0  0  0
   -1.5595   -4.3422    0.8119 C   0  0  0  0  0  0  0  0  0  0  0  0
   -1.6875   -3.2457    1.6277 N   0  0  0  0  0  0  0  0  0  0  0  0
   -2.2638   -3.4338    2.8504 C   0  0  0  0  0  0  0  0  0  0  0  0
   -2.2306   -2.3822    3.7490 C   0  0  0  0  0  0  0  0  0  0  0  0
   -2.7827   -2.4973    4.9791 C   0  0  0  0  0  0  0  0  0  0  0  0
   -2.7226   -1.3296    5.9115 C   0  0  0  0  0  0  0  0  0  0  0  0
   -3.3831   -3.6582    5.3574 C   0  0  0  0  0  0  0  0  0  0  0  0
   -3.9840   -3.7788    6.7199 C   0  0  0  0  0  0  0  0  0  0  0  0
   -3.4402   -4.7162    4.5088 C   0  0  0  0  0  0  0  0  0  0  0  0
   -2.8872   -4.6494    3.2300 C   0  0  0  0  0  0  0  0  0  0  0  0
   -2.9145   -5.7083    2.2984 N   0  0  0  0  0  0  0  0  0  0  0  0
   -2.1628   -5.6202    1.1088 C   0  0  0  0  0  0  0  0  0  0  0  0
   -4.1233   -6.6121    2.2880 C   0  0  0  0  0  0  0  0  0  0  0  0
   -5.5139   -5.9076    2.2714 C   0  0  1  0  0  0  0  0  0  0  0  0
   -6.2239   -6.2542    1.0909 O   0  0  0  0  0  0  0  0  0  0  0  0
   -6.3459   -6.1695    3.5494 C   0  0  1  0  0  0  0  0  0  0  0  0
   -7.5005   -5.3351    3.5660 O   0  0  0  0  0  0  0  0  0  0  0  0
   -6.7515   -7.6367    3.8332 C   0  0  1  0  0  0  0  0  0  0  0  0
   -6.1670   -8.4657    2.8348 O   0  0  0  0  0  0  0  0  0  0  0  0
   -6.2908   -8.1313    5.2227 C   0  0  0  0  0  0  0  0  0  0  0  0
   -6.7616   -7.3019    6.2784 O   0  0  0  0  0  0  0  0  0  0  0  0
   -6.3533   -7.5285    7.7927 P   0  0  0  0  0  0  0  0  0  0  0  0
   -7.4791   -8.1038    8.5634 O   0  0  0  0  0  0  0  0  0  0  0  0
   -5.0280   -8.1783    7.8836 O   0  5  0  0  0  0  0  0  0  0  0  0
   -6.1629   -6.0521    8.3572 O   0  5  0  0  0  0  0  0  0  0  0  0
  1 18  1  0  0  0  0
  1  2  1  0  0  0  0
  2  4  1  0  0  0  0
  2  3  2  0  0  0  0
  4  5  1  0  0  0  0
  5  7  1  0  0  0  0
  5  6  2  0  0  0  0
  7 18  2  0  0  0  0
  7  8  1  0  0  0  0
  8  9  1  0  0  0  0
  9 10  2  0  0  0  0
  9 16  1  0  0  0  0
 10 11  1  0  0  0  0
 11 12  1  0  0  0  0
 11 13  2  0  0  0  0
 13 14  1  0  0  0  0
 13 15  1  0  0  0  0
 15 16  2  0  0  0  0
 16 17  1  0  0  0  0
 17 19  1  0  0  0  0
 17 18  1  0  0  0  0
 20 19  1  1  0  0  0
 20 22  1  0  0  0  0
 20 21  1  0  0  0  0
 22 24  1  0  0  0  0
 22 23  1  6  0  0  0
 24 26  1  1  0  0  0
 24 25  1  0  0  0  0
 26 27  1  0  0  0  0
 27 28  1  0  0  0  0
 28 30  1  0  0  0  0
 28 29  2  0  0  0  0
 28 31  1  0  0  0  0
M  CHG  2  30  -1  31  -1
M  END
>  <CHROM.1>
48.58972339,118.33457468,170.76263221,-178.22074918,3.45605906,176.12327993
55.77798907,-60.25691840,-175.78568834,-106.13429157,-4.03197843,-5.65945889
3.50959555,0.55756939,-0.83904948,-2.13778955

>  <Name>
1fmn_cryst

>  <RI>
0

>  <Rbt.Current_Directory>
/home/itssahil/PROJECTS/Mol_Feturizer/New_Systems/rnas/1fmn

>  <Rbt.Executable>
rbdock ($Id: //depot/dev/client3/rdock/2013.1/src/exe/rbdock.cxx#4 $)

>  <Rbt.Library>
libRbt.so (2013.1, Build901 2013/11/27)

>  <Rbt.Parameter_File>
/export/apps/rDock/src/rDock_2013.1_src/data/scripts/dock_solv.prm

>  <Rbt.Receptor>
prm/pocket_docking_8.prm

>  <SCORE>
-19.556

>  <SCORE.INTER>
-17.2264

>  <SCORE.INTER.CONST>
1

>  <SCORE.INTER.POLAR>
-2.26822

>  <SCORE.INTER.ROT>
7

>  <SCORE.INTER.SOLV>
18.4986

>  <SCORE.INTER.VDW>
-18.3564

>  <SCORE.INTER.norm>
-0.55569

>  <SCORE.INTRA>
-2.32957

>  <SCORE.INTRA.DIHEDRAL>
-0.985655

>  <SCORE.INTRA.DIHEDRAL.0>
15.5708

>  <SCORE.INTRA.POLAR>
-0.17965

>  <SCORE.INTRA.POLAR.0>
-0.0677885

>  <SCORE.INTRA.REPUL>
0

>  <SCORE.INTRA.REPUL.0>
0

>  <SCORE.INTRA.SOLV>
-3.74425

>  <SCORE.INTRA.SOLV.lig_0>
-87.6316

>  <SCORE.INTRA.VDW>
0.646191

>  <SCORE.INTRA.VDW.0>
-2.87309

>  <SCORE.INTRA.norm>
-0.0751475

>  <SCORE.RESTR>
0

>  <SCORE.RESTR.CAVITY>
0

>  <SCORE.RESTR.norm>
0

>  <SCORE.SYSTEM>
0

>  <SCORE.SYSTEM.CONST>
0

>  <SCORE.SYSTEM.DIHEDRAL>
0

>  <SCORE.SYSTEM.SOLV>
0

>  <SCORE.SYSTEM.norm>
0

>  <SCORE.heavy>
31

>  <SCORE.norm>
-0.630837

>  <SYMMETRIC_BONDS>
33 34 3

>  <RMSD>
7.591

$$$$
1fmn_cryst
 OpenBabel11021811393D
libRbt.so/2013.1/901 2013/11/27
 31 33  0  0  0  0  0  0  0  0999 V2000
   -9.9670   -5.4509    3.6204 N   0  0  0  0  0  0  0  0  0  0  0  0
   -9.4359   -6.0008    4.7637 C   0  0  0  0  0  0  0  0  0  0  0  0
   -9.9489   -5.8286    5.8699 O   0  0  0  0  0  0  0  0  0  0  0  0
   -8.2600   -6.7726    4.5882 N   0  0  0  0  0  0  0  0  0  0  0  0
   -7.5905   -7.0261    3.3709 C   0  0  0  0  0  0  0  0  0  0  0  0
   -6.5681   -7.7231    3.3607 O   0  0  0  0  0  0  0  0  0  0  0  0
   -8.2175   -6.4057    2.2017 C   0  0  0  0  0  0  0  0  0  0  0  0
   -7.6273   -6.6046    0.9785 N   0  0  0  0  0  0  0  0  0  0  0  0
   -8.1048   -5.8825   -0.0765 C   0  0  0  0  0  0  0  0  0  0  0  0
   -7.4020   -5.9361   -1.2671 C   0  0  0  0  0  0  0  0  0  0  0  0
   -7.8173   -5.2462   -2.3548 C   0  0  0  0  0  0  0  0  0  0  0  0
   -7.0232   -5.3409   -3.6185 C   0  0  0  0  0  0  0  0  0  0  0  0
   -8.9406   -4.4808   -2.2957 C   0  0  0  0  0  0  0  0  0  0  0  0
   -9.3880   -3.7170   -3.4993 C   0  0  0  0  0  0  0  0  0  0  0  0
   -9.6625   -4.3986   -1.1491 C   0  0  0  0  0  0  0  0  0  0  0  0
   -9.2781   -5.0900   -0.0003 C   0  0  0  0  0  0  0  0  0  0  0  0
   -9.9830   -5.0516    1.2210 N   0  0  0  0  0  0  0  0  0  0  0  0
   -9.4170   -5.6215    2.3799 C   0  0  0  0  0  0  0  0  0  0  0  0
  -11.4874   -4.9416    1.1678 C   0  0  0  0  0  0  0  0  0  0  0  0
  -12.1100   -3.6587    1.7977 C   0  0  1  0  0  0  0  0  0  0  0  0
  -11.7439   -3.5585    3.1666 O   0  0  0  0  0  0  0  0  0  0  0  0
  -11.7774   -2.3691    1.0101 C   0  0  1  0  0  0  0  0  0  0  0  0
  -11.8693   -2.6092   -0.3912 O   0  0  0  0  0  0  0  0  0  0  0  0
  -12.5771   -1.0958    1.3803 C   0  0  1  0  0  0  0  0  0  0  0  0
  -13.9624   -1.3656    1.1958 O   0  0  0  0  0  0  0  0  0  0  0  0
  -12.3485   -0.6439    2.8402 C   0  0  0  0  0  0  0  0  0  0  0  0
  -13.1178    0.5034    3.1807 O   0  0  0  0  0  0  0  0  0  0  0  0
  -13.0837    1.1603    4.6224 P   0  0  0  0  0  0  0  0  0  0  0  0
  -13.9317    0.4012    5.5694 O   0  0  0  0  0  0  0  0  0  0  0  0
  -11.6949    1.4812    5.0164 O   0  5  0  0  0  0  0  0  0  0  0  0
  -13.8205    2.5569    4.4182 O   0  5  0  0  0  0  0  0  0  0  0  0
  1 18  1  0  0  0  0
  1  2  1  0  0  0  0
  2  4  1  0  0  0  0
  2  3  2  0  0  0  0
  4  5  1  0  0  0  0
  5  7  1  0  0  0  0
  5  6  2  0  0  0  0
  7 18  2  0  0  0  0
  7  8  1  0  0  0  0
  8  9  1  0  0  0  0
  9 10  2  0  0  0  0
  9 16  1  0  0  0  0
 10 11  1  0  0  0  0
 11 12  1  0  0  0  0
 11 13  2  0  0  0  0
 13 14  1  0  0  0  0
 13 15  1  0  0  0  0
 15 16  2  0  0  0  0
 16 17  1  0  0  0  0
 17 19  1  0  0  0  0
 17 18  1  0  0  0  0
 20 19  1  6  0  0  0
 20 22  1  0  0  0  0
 20 21  1  0  0  0  0
 22 24  1  0  0  0  0
 22 23  1  6  0  0  0
 24 26  1  1  0  0  0
 24 25  1  0  0  0  0
 26 27  1  0  0  0  0
 27 28  1  0  0  0  0
 28 30  1  0  0  0  0
 28 29  2  0  0  0  0
 28 31  1  0  0  0  0
M  CHG  2  30  -1  31  -1
M  END
>  <CHROM.1>
-117.33828386,-58.57582261,41.37332211,-164.58969050,-58.33672504,49.10812245
-178.27945505,-61.85639654,179.18427617,-79.46828186,-10.48142082,-3.45192438
1.91245278,-0.30357273,-0.95078395,1.72906586

>  <Name>
1fmn_cryst

>  <RI>
0

>  <Rbt.Current_Directory>
/home/itssahil/PROJECTS/Mol_Feturizer/New_Systems/rnas/1fmn

>  <Rbt.Executable>
rbdock ($Id: //depot/dev/client3/rdock/2013.1/src/exe/rbdock.cxx#4 $)

>  <Rbt.Library>
libRbt.so (2013.1, Build901 2013/11/27)

>  <Rbt.Parameter_File>
/export/apps/rDock/src/rDock_2013.1_src/data/scripts/dock_solv.prm

>  <Rbt.Receptor>
prm/blind_docking_20.prm

>  <SCORE>
-37.714

>  <SCORE.INTER>
-32.0767

>  <SCORE.INTER.CONST>
1

>  <SCORE.INTER.POLAR>
-1.20953

>  <SCORE.INTER.ROT>
7

>  <SCORE.INTER.SOLV>
30.5025

>  <SCORE.INTER.VDW>
-35.7869

>  <SCORE.INTER.norm>
-1.03473

>  <SCORE.INTRA>
-8.57023

>  <SCORE.INTRA.DIHEDRAL>
-9.92128

>  <SCORE.INTRA.DIHEDRAL.0>
15.5708

>  <SCORE.INTRA.POLAR>
-0.87392

>  <SCORE.INTRA.POLAR.0>
-0.0677885

>  <SCORE.INTRA.REPUL>
0

>  <SCORE.INTRA.REPUL.0>
0

>  <SCORE.INTRA.SOLV>
-2.94424

>  <SCORE.INTRA.SOLV.lig_0>
-87.6316

>  <SCORE.INTRA.VDW>
0.833857

>  <SCORE.INTRA.VDW.0>
-2.87309

>  <SCORE.INTRA.norm>
-0.276459

>  <SCORE.RESTR>
2.9329

>  <SCORE.RESTR.CAVITY>
2.9329

>  <SCORE.RESTR.norm>
0.0946097

>  <SCORE.SYSTEM>
0

>  <SCORE.SYSTEM.CONST>
0

>  <SCORE.SYSTEM.DIHEDRAL>
0

>  <SCORE.SYSTEM.SOLV>
0

>  <SCORE.SYSTEM.norm>
0

>  <SCORE.heavy>
31

>  <SCORE.norm>
-1.21658

>  <SYMMETRIC_BONDS>
33 34 3

>  <RMSD>
7.695

$$$$
1fmn_cryst
 OpenBabel11021811393D
libRbt.so/2013.1/901 2013/11/27
 31 33  0  0  0  0  0  0  0  0999 V2000
   -9.8971   -5.5622    3.7145 N   0  0  0  0  0  0  0  0  0  0  0  0
   -9.2777   -6.1659    4.7839 C   0  0  0  0  0  0  0  0  0  0  0  0
   -9.7065   -6.0570    5.9332 O   0  0  0  0  0  0  0  0  0  0  0  0
   -8.1138   -6.9157    4.4798 N   0  0  0  0  0  0  0  0  0  0  0  0
   -7.5369   -7.0984    3.2039 C   0  0  0  0  0  0  0  0  0  0  0  0
   -6.5139   -7.7837    3.0798 O   0  0  0  0  0  0  0  0  0  0  0  0
   -8.2542   -6.4239    2.1197 C   0  0  0  0  0  0  0  0  0  0  0  0
   -7.7571   -6.5527    0.8467 N   0  0  0  0  0  0  0  0  0  0  0  0
   -8.3174   -5.7810   -0.1296 C   0  0  0  0  0  0  0  0  0  0  0  0
   -7.7064   -5.7652   -1.3709 C   0  0  0  0  0  0  0  0  0  0  0  0
   -8.2069   -5.0236   -2.3862 C   0  0  0  0  0  0  0  0  0  0  0  0
   -7.5102   -5.0440   -3.7093 C   0  0  0  0  0  0  0  0  0  0  0  0
   -9.3271   -4.2736   -2.2023 C   0  0  0  0  0  0  0  0  0  0  0  0
   -9.8689   -3.4524   -3.3267 C   0  0  0  0  0  0  0  0  0  0  0  0
   -9.9607   -4.2587   -1.0019 C   0  0  0  0  0  0  0  0  0  0  0  0
   -9.4863   -5.0054    0.0765 C   0  0  0  0  0  0  0  0  0  0  0  0
  -10.0970   -5.0381    1.3477 N   0  0  0  0  0  0  0  0  0  0  0  0
   -9.4415   -5.6621    2.4289 C   0  0  0  0  0  0  0  0  0  0  0  0
  -11.6018   -4.9405    1.4138 C   0  0  0  0  0  0  0  0  0  0  0  0
  -12.1827   -3.6917    2.1440 C   0  0  1  0  0  0  0  0  0  0  0  0
  -11.8498   -3.7332    3.5244 O   0  0  0  0  0  0  0  0  0  0  0  0
  -11.7709   -2.3534    1.4857 C   0  0  1  0  0  0  0  0  0  0  0  0
  -12.4136   -2.2065    0.2228 O   0  0  0  0  0  0  0  0  0  0  0  0
  -11.9647   -1.0689    2.3285 C   0  0  1  0  0  0  0  0  0  0  0  0
  -10.9700   -0.1257    1.9453 O   0  0  0  0  0  0  0  0  0  0  0  0
  -13.3577   -0.4277    2.1381 C   0  0  0  0  0  0  0  0  0  0  0  0
  -13.4478    0.8622    2.7316 O   0  0  0  0  0  0  0  0  0  0  0  0
  -13.1449    1.1224    4.2651 P   0  0  0  0  0  0  0  0  0  0  0  0
  -13.9392    0.2136    5.1225 O   0  0  0  0  0  0  0  0  0  0  0  0
  -11.6881    1.2230    4.4989 O   0  5  0  0  0  0  0  0  0  0  0  0
  -13.7372    2.5772    4.5251 O   0  5  0  0  0  0  0  0  0  0  0  0
  1 18  1  0  0  0  0
  1  2  1  0  0  0  0
  2  4  1  0  0  0  0
  2  3  2  0  0  0  0
  4  5  1  0  0  0  0
  5  7  1  0  0  0  0
  5  6  2  0  0  0  0
  7 18  2  0  0  0  0
  7  8  1  0  0  0  0
  8  9  1  0  0  0  0
  9 10  2  0  0  0  0
  9 16  1  0  0  0  0
 10 11  1  0  0  0  0
 11 12  1  0  0  0  0
 11 13  2  0  0  0  0
 13 14  1  0  0  0  0
 13 15  1  0  0  0  0
 15 16  2  0  0  0  0
 16 17  1  0  0  0  0
 17 19  1  0  0  0  0
 17 18  1  0  0  0  0
 20 19  1  6  0  0  0
 20 22  1  0  0  0  0
 20 21  1  0  0  0  0
 22 24  1  0  0  0  0
 22 23  1  6  0  0  0
 24 26  1  6  0  0  0
 24 25  1  0  0  0  0
 26 27  1  0  0  0  0
 27 28  1  0  0  0  0
 28 30  1  0  0  0  0
 28 29  2  0  0  0  0
 28 31  1  0  0  0  0
M  CHG  2  30  -1  31  -1
M  END
>  <CHROM.1>
-116.78133826,-65.71998842,69.55713592,179.53681437,149.73738141,-58.24794268
-170.00149928,-165.60118664,-56.44503299,-52.91407842,-10.48933567,-3.37421730
1.93849279,-0.18598543,-0.98446985,1.79456955

>  <Name>
1fmn_cryst

>  <RI>
0

>  <Rbt.Current_Directory>
/home/itssahil/PROJECTS/Mol_Feturizer/New_Systems/rnas/1fmn

>  <Rbt.Executable>
rbdock ($Id: //depot/dev/client3/rdock/2013.1/src/exe/rbdock.cxx#4 $)

>  <Rbt.Library>
libRbt.so (2013.1, Build901 2013/11/27)

>  <Rbt.Parameter_File>
/export/apps/rDock/src/rDock_2013.1_src/data/scripts/dock_solv.prm

>  <Rbt.Receptor>
prm/blind_docking_20.prm

>  <SCORE>
-42.4232

>  <SCORE.INTER>
-36.4242

>  <SCORE.INTER.CONST>
1

>  <SCORE.INTER.POLAR>
-1.7857

>  <SCORE.INTER.ROT>
7

>  <SCORE.INTER.SOLV>
29.6615

>  <SCORE.INTER.VDW>
-36.4843

>  <SCORE.INTER.norm>
-1.17497

>  <SCORE.INTRA>
-9.24584

>  <SCORE.INTRA.DIHEDRAL>
-8.08113

>  <SCORE.INTRA.DIHEDRAL.0>
15.5708

>  <SCORE.INTRA.POLAR>
-1.54095

>  <SCORE.INTRA.POLAR.0>
-0.0677885

>  <SCORE.INTRA.REPUL>
0

>  <SCORE.INTRA.REPUL.0>
0

>  <SCORE.INTRA.SOLV>
0.248932

>  <SCORE.INTRA.SOLV.lig_0>
-87.6316

>  <SCORE.INTRA.VDW>
-0.090515

>  <SCORE.INTRA.VDW.0>
-2.87309

>  <SCORE.INTRA.norm>
-0.298253

>  <SCORE.RESTR>
3.24686

>  <SCORE.RESTR.CAVITY>
3.24686

>  <SCORE.RESTR.norm>
0.104737

>  <SCORE.SYSTEM>
0

>  <SCORE.SYSTEM.CONST>
0

>  <SCORE.SYSTEM.DIHEDRAL>
0

>  <SCORE.SYSTEM.SOLV>
0

>  <SCORE.SYSTEM.norm>
0

>  <SCORE.heavy>
31

>  <SCORE.norm>
-1.36849

>  <SYMMETRIC_BONDS>
33 34 3

>  <RMSD>
7.704

$$$$
1fmn_cryst
 OpenBabel11021811393D
libRbt.so/2013.1/901 2013/11/27
 31 33  0  0  0  0  0  0  0  0999 V2000
  -11.8629   -2.6388    0.9974 N   0  0  0  0  0  0  0  0  0  0  0  0
  -12.9039   -1.7749    1.2457 C   0  0  0  0  0  0  0  0  0  0  0  0
  -13.2752   -0.9446    0.4155 O   0  0  0  0  0  0  0  0  0  0  0  0
  -13.5174   -1.8977    2.5177 N   0  0  0  0  0  0  0  0  0  0  0  0
  -13.1668   -2.8070    3.5397 C   0  0  0  0  0  0  0  0  0  0  0  0
  -13.7913   -2.8080    4.6080 O   0  0  0  0  0  0  0  0  0  0  0  0
  -12.0498   -3.6907    3.1982 C   0  0  0  0  0  0  0  0  0  0  0  0
  -11.6471   -4.6054    4.1392 N   0  0  0  0  0  0  0  0  0  0  0  0
  -10.4985   -5.2997    3.8920 C   0  0  0  0  0  0  0  0  0  0  0  0
   -9.9860   -6.0843    4.9100 C   0  0  0  0  0  0  0  0  0  0  0  0
   -8.8511   -6.8006    4.7356 C   0  0  0  0  0  0  0  0  0  0  0  0
   -8.3412   -7.6352    5.8669 C   0  0  0  0  0  0  0  0  0  0  0  0
   -8.1883   -6.7601    3.5482 C   0  0  0  0  0  0  0  0  0  0  0  0
   -6.9324   -7.5487    3.3667 C   0  0  0  0  0  0  0  0  0  0  0  0
   -8.6542   -6.0049    2.5208 C   0  0  0  0  0  0  0  0  0  0  0  0
   -9.8192   -5.2487    2.6485 C   0  0  0  0  0  0  0  0  0  0  0  0
  -10.3598   -4.4464    1.6218 N   0  0  0  0  0  0  0  0  0  0  0  0
  -11.4263   -3.5675    1.9015 C   0  0  0  0  0  0  0  0  0  0  0  0
  -10.2109   -4.9228    0.1973 C   0  0  0  0  0  0  0  0  0  0  0  0
   -8.7591   -4.9691   -0.3686 C   0  0  1  0  0  0  0  0  0  0  0  0
   -8.1258   -6.1838    0.0075 O   0  0  0  0  0  0  0  0  0  0  0  0
   -8.6911   -4.7253   -1.8950 C   0  0  1  0  0  0  0  0  0  0  0  0
   -9.4581   -3.5773   -2.2460 O   0  0  0  0  0  0  0  0  0  0  0  0
   -7.2808   -4.6306   -2.5275 C   0  0  1  0  0  0  0  0  0  0  0  0
   -6.6036   -5.8621   -2.3021 O   0  0  0  0  0  0  0  0  0  0  0  0
   -7.3193   -4.3551   -4.0474 C   0  0  0  0  0  0  0  0  0  0  0  0
   -7.4538   -5.5470   -4.8126 O   0  0  0  0  0  0  0  0  0  0  0  0
   -7.4524   -5.5521   -6.3973 P   0  0  0  0  0  0  0  0  0  0  0  0
   -7.3468   -6.9327   -6.9213 O   0  0  0  0  0  0  0  0  0  0  0  0
   -8.5213   -4.6753   -6.9224 O   0  5  0  0  0  0  0  0  0  0  0  0
   -6.0755   -4.8478   -6.7755 O   0  5  0  0  0  0  0  0  0  0  0  0
  1 18  1  0  0  0  0
  1  2  1  0  0  0  0
  2  4  1  0  0  0  0
  2  3  2  0  0  0  0
  4  5  1  0  0  0  0
  5  7  1  0  0  0  0
  5  6  2  0  0  0  0
  7 18  2  0  0  0  0
  7  8  1  0  0  0  0
  8  9  1  0  0  0  0
  9 10  2  0  0  0  0
  9 16  1  0  0  0  0
 10 11  1  0  0  0  0
 11 12  1  0  0  0  0
 11 13  2  0  0  0  0
 13 14  1  0  0  0  0
 13 15  1  0  0  0  0
 15 16  2  0  0  0  0
 16 17  1  0  0  0  0
 17 19  1  0  0  0  0
 17 18  1  0  0  0  0
 20 19  1  6  0  0  0
 20 22  1  0  0  0  0
 20 21  1  0  0  0  0
 22 24  1  0  0  0  0
 22 23  1  1  0  0  0
 24 26  1  6  0  0  0
 24 25  1  0  0  0  0
 26 27  1  0  0  0  0
 27 28  1  0  0  0  0
 28 30  1  0  0  0  0
 28 29  2  0  0  0  0
 28 31  1  0  0  0  0
M  CHG  2  30  -1  31  -1
M  END
>  <CHROM.1>
-66.30070286,83.93636837,48.38318510,60.13454511,60.66583181,-168.61012507
-85.50714499,179.08799397,-177.13672092,169.15302067,-9.49102558,-4.78475896
-0.10920489,2.10637991,-0.71014992,1.83526254

>  <Name>
1fmn_cryst

>  <RI>
0

>  <Rbt.Current_Directory>
/home/itssahil/PROJECTS/Mol_Feturizer/New_Systems/rnas/1fmn

>  <Rbt.Executable>
rbdock ($Id: //depot/dev/client3/rdock/2013.1/src/exe/rbdock.cxx#4 $)

>  <Rbt.Library>
libRbt.so (2013.1, Build901 2013/11/27)

>  <Rbt.Parameter_File>
/export/apps/rDock/src/rDock_2013.1_src/data/scripts/dock_solv.prm

>  <Rbt.Receptor>
prm/blind_docking_100.prm

>  <SCORE>
-49.2937

>  <SCORE.INTER>
-50.7538

>  <SCORE.INTER.CONST>
1

>  <SCORE.INTER.POLAR>
-2.80127

>  <SCORE.INTER.ROT>
7

>  <SCORE.INTER.SOLV>
27.4537

>  <SCORE.INTER.VDW>
-41.9162

>  <SCORE.INTER.norm>
-1.63722

>  <SCORE.INTRA>
-3.54006

>  <SCORE.INTRA.DIHEDRAL>
-8.78749

>  <SCORE.INTRA.DIHEDRAL.0>
15.5708

>  <SCORE.INTRA.POLAR>
0.0677885

>  <SCORE.INTRA.POLAR.0>
-0.0677885

>  <SCORE.INTRA.REPUL>
0

>  <SCORE.INTRA.REPUL.0>
0

>  <SCORE.INTRA.SOLV>
-4.21501

>  <SCORE.INTRA.SOLV.lig_0>
-87.6316

>  <SCORE.INTRA.VDW>
2.73071

>  <SCORE.INTRA.VDW.0>
-2.87309

>  <SCORE.INTRA.norm>
-0.114195

>  <SCORE.RESTR>
5.00013

>  <SCORE.RESTR.CAVITY>
5.00013

>  <SCORE.RESTR.norm>
0.161294

>  <SCORE.SYSTEM>
0

>  <SCORE.SYSTEM.CONST>
0

>  <SCORE.SYSTEM.DIHEDRAL>
0

>  <SCORE.SYSTEM.SOLV>
0

>  <SCORE.SYSTEM.norm>
0

>  <SCORE.heavy>
31

>  <SCORE.norm>
-1.59012

>  <SYMMETRIC_BONDS>
33 34 3

>  <RMSD>
7.705

$$$$
1fmn_cryst
 OpenBabel11021811393D
libRbt.so/2013.1/901 2013/11/27
 31 33  0  0  0  0  0  0  0  0999 V2000
  -11.7425   -2.7379    1.1028 N   0  0  0  0  0  0  0  0  0  0  0  0
  -12.7838   -1.8686    1.3300 C   0  0  0  0  0  0  0  0  0  0  0  0
  -13.1265   -1.0287    0.4972 O   0  0  0  0  0  0  0  0  0  0  0  0
  -13.4326   -1.9976    2.5837 N   0  0  0  0  0  0  0  0  0  0  0  0
  -13.1165   -2.9180    3.6070 C   0  0  0  0  0  0  0  0  0  0  0  0
  -13.7699   -2.9234    4.6579 O   0  0  0  0  0  0  0  0  0  0  0  0
  -11.9968   -3.8069    3.2885 C   0  0  0  0  0  0  0  0  0  0  0  0
  -11.6264   -4.7323    4.2323 N   0  0  0  0  0  0  0  0  0  0  0  0
  -10.4764   -5.4329    4.0105 C   0  0  0  0  0  0  0  0  0  0  0  0
   -9.9974   -6.2297    5.0353 C   0  0  0  0  0  0  0  0  0  0  0  0
   -8.8633   -6.9527    4.8858 C   0  0  0  0  0  0  0  0  0  0  0  0
   -8.3904   -7.8005    6.0233 C   0  0  0  0  0  0  0  0  0  0  0  0
   -8.1680   -6.9071    3.7172 C   0  0  0  0  0  0  0  0  0  0  0  0
   -6.9132   -7.7032    3.5633 C   0  0  0  0  0  0  0  0  0  0  0  0
   -8.6004   -6.1400    2.6841 C   0  0  0  0  0  0  0  0  0  0  0  0
   -9.7631   -5.3764    2.7864 C   0  0  0  0  0  0  0  0  0  0  0  0
  -10.2698   -4.5616    1.7523 N   0  0  0  0  0  0  0  0  0  0  0  0
  -11.3373   -3.6774    2.0104 C   0  0  0  0  0  0  0  0  0  0  0  0
  -10.0854   -5.0271    0.3284 C   0  0  0  0  0  0  0  0  0  0  0  0
   -8.7376   -4.6450   -0.3554 C   0  0  1  0  0  0  0  0  0  0  0  0
   -7.6774   -5.4204    0.1854 O   0  0  0  0  0  0  0  0  0  0  0  0
   -8.7915   -4.7288   -1.8995 C   0  0  1  0  0  0  0  0  0  0  0  0
   -9.7872   -3.8455   -2.4072 O   0  0  0  0  0  0  0  0  0  0  0  0
   -7.4596   -4.5148   -2.6599 C   0  0  1  0  0  0  0  0  0  0  0  0
   -6.5998   -5.6136   -2.3783 O   0  0  0  0  0  0  0  0  0  0  0  0
   -7.6492   -4.4110   -4.1899 C   0  0  0  0  0  0  0  0  0  0  0  0
   -6.4509   -4.6856   -4.9059 O   0  0  0  0  0  0  0  0  0  0  0  0
   -6.4398   -5.0588   -6.4460 P   0  0  0  0  0  0  0  0  0  0  0  0
   -5.1489   -4.6899   -7.0701 O   0  0  0  0  0  0  0  0  0  0  0  0
   -6.9618   -6.4266   -6.6546 O   0  5  0  0  0  0  0  0  0  0  0  0
   -7.5158   -4.0720   -7.0810 O   0  5  0  0  0  0  0  0  0  0  0  0
  1 18  1  0  0  0  0
  1  2  1  0  0  0  0
  2  4  1  0  0  0  0
  2  3  2  0  0  0  0
  4  5  1  0  0  0  0
  5  7  1  0  0  0  0
  5  6  2  0  0  0  0
  7 18  2  0  0  0  0
  7  8  1  0  0  0  0
  8  9  1  0  0  0  0
  9 10  2  0  0  0  0
  9 16  1  0  0  0  0
 10 11  1  0  0  0  0
 11 12  1  0  0  0  0
 11 13  2  0  0  0  0
 13 14  1  0  0  0  0
 13 15  1  0  0  0  0
 15 16  2  0  0  0  0
 16 17  1  0  0  0  0
 17 19  1  0  0  0  0
 17 18  1  0  0  0  0
 20 19  1  1  0  0  0
 20 22  1  0  0  0  0
 20 21  1  0  0  0  0
 22 24  1  0  0  0  0
 22 23  1  6  0  0  0
 24 26  1  6  0  0  0
 24 25  1  0  0  0  0
 26 27  1  0  0  0  0
 27 28  1  0  0  0  0
 28 30  1  0  0  0  0
 28 29  2  0  0  0  0
 28 31  1  0  0  0  0
M  CHG  2  30  -1  31  -1
M  END
>  <CHROM.1>
-85.95633483,72.53319115,59.88244334,55.88309667,67.81388390,-62.03050251
-159.27704552,-60.29064552,161.91567395,153.85321567,-9.29069032,-4.70852930
-0.06045962,2.14587023,-0.67527766,1.91688035

>  <Name>
1fmn_cryst

>  <RI>
0

>  <Rbt.Current_Directory>
/home/itssahil/PROJECTS/Mol_Feturizer/New_Systems/rnas/1fmn

>  <Rbt.Executable>
rbdock ($Id: //depot/dev/client3/rdock/2013.1/src/exe/rbdock.cxx#4 $)

>  <Rbt.Library>
libRbt.so (2013.1, Build901 2013/11/27)

>  <Rbt.Parameter_File>
/export/apps/rDock/src/rDock_2013.1_src/data/scripts/dock_solv.prm

>  <Rbt.Receptor>
prm/blind_docking_100.prm

>  <SCORE>
-45.4772

>  <SCORE.INTER>
-45.2632

>  <SCORE.INTER.CONST>
1

>  <SCORE.INTER.POLAR>
-1.79028

>  <SCORE.INTER.ROT>
7

>  <SCORE.INTER.SOLV>
27.9426

>  <SCORE.INTER.VDW>
-41.7887

>  <SCORE.INTER.norm>
-1.4601

>  <SCORE.INTRA>
-5.99945

>  <SCORE.INTRA.DIHEDRAL>
-8.72904

>  <SCORE.INTRA.DIHEDRAL.0>
15.5708

>  <SCORE.INTRA.POLAR>
-0.249931

>  <SCORE.INTRA.POLAR.0>
-0.0677885

>  <SCORE.INTRA.REPUL>
0

>  <SCORE.INTRA.REPUL.0>
0

>  <SCORE.INTRA.SOLV>
-4.0885

>  <SCORE.INTRA.SOLV.lig_0>
-87.6316

>  <SCORE.INTRA.VDW>
1.25909

>  <SCORE.INTRA.VDW.0>
-2.87309

>  <SCORE.INTRA.norm>
-0.193531

>  <SCORE.RESTR>
5.78548

>  <SCORE.RESTR.CAVITY>
5.78548

>  <SCORE.RESTR.norm>
0.186628

>  <SCORE.SYSTEM>
0

>  <SCORE.SYSTEM.CONST>
0

>  <SCORE.SYSTEM.DIHEDRAL>
0

>  <SCORE.SYSTEM.SOLV>
0

>  <SCORE.SYSTEM.norm>
0

>  <SCORE.heavy>
31

>  <SCORE.norm>
-1.46701

>  <SYMMETRIC_BONDS>
33 34 3

>  <RMSD>
7.726

$$$$
1fmn_cryst
 OpenBabel11021811393D
libRbt.so/2013.1/901 2013/11/27
 31 33  0  0  0  0  0  0  0  0999 V2000
  -11.8617   -2.6683    1.0042 N   0  0  0  0  0  0  0  0  0  0  0  0
  -12.9025   -1.8071    1.2626 C   0  0  0  0  0  0  0  0  0  0  0  0
  -13.2799   -0.9735    0.4385 O   0  0  0  0  0  0  0  0  0  0  0  0
  -13.5086   -1.9369    2.5375 N   0  0  0  0  0  0  0  0  0  0  0  0
  -13.1508   -2.8506    3.5530 C   0  0  0  0  0  0  0  0  0  0  0  0
  -13.7691   -2.8576    4.6249 O   0  0  0  0  0  0  0  0  0  0  0  0
  -12.0344   -3.7309    3.2010 C   0  0  0  0  0  0  0  0  0  0  0  0
  -11.6250   -4.6494    4.1353 N   0  0  0  0  0  0  0  0  0  0  0  0
  -10.4767   -5.3408    3.8783 C   0  0  0  0  0  0  0  0  0  0  0  0
   -9.9573   -6.1294    4.8896 C   0  0  0  0  0  0  0  0  0  0  0  0
   -8.8224   -6.8432    4.7054 C   0  0  0  0  0  0  0  0  0  0  0  0
   -8.3047   -7.6824    5.8297 C   0  0  0  0  0  0  0  0  0  0  0  0
   -8.1664   -6.7961    3.5143 C   0  0  0  0  0  0  0  0  0  0  0  0
   -6.9103   -7.5818    3.3219 C   0  0  0  0  0  0  0  0  0  0  0  0
   -8.6393   -6.0367    2.4933 C   0  0  0  0  0  0  0  0  0  0  0  0
   -9.8047   -5.2828    2.6312 C   0  0  0  0  0  0  0  0  0  0  0  0
  -10.3524   -4.4765    1.6114 N   0  0  0  0  0  0  0  0  0  0  0  0
  -11.4186   -3.6006    1.9014 C   0  0  0  0  0  0  0  0  0  0  0  0
  -10.2109   -4.9459    0.1838 C   0  0  0  0  0  0  0  0  0  0  0  0
   -8.7580   -5.0366   -0.3739 C   0  0  1  0  0  0  0  0  0  0  0  0
   -8.1484   -6.2498    0.0438 O   0  0  0  0  0  0  0  0  0  0  0  0
   -8.6798   -4.8434   -1.9071 C   0  0  1  0  0  0  0  0  0  0  0  0
   -9.4908   -3.7429   -2.3077 O   0  0  0  0  0  0  0  0  0  0  0  0
   -7.2664   -4.7093   -2.5254 C   0  0  1  0  0  0  0  0  0  0  0  0
   -6.3686   -5.5190   -1.7741 O   0  0  0  0  0  0  0  0  0  0  0  0
   -7.2122   -5.1485   -4.0059 C   0  0  0  0  0  0  0  0  0  0  0  0
   -6.9248   -4.0663   -4.8835 O   0  0  0  0  0  0  0  0  0  0  0  0
   -8.0492   -3.3026   -5.6983 P   0  0  0  0  0  0  0  0  0  0  0  0
   -9.1358   -2.8482   -4.8012 O   0  0  0  0  0  0  0  0  0  0  0  0
   -7.4453   -2.3257   -6.6300 O   0  5  0  0  0  0  0  0  0  0  0  0
   -8.6955   -4.4398   -6.6060 O   0  5  0  0  0  0  0  0  0  0  0  0
  1 18  1  0  0  0  0
  1  2  1  0  0  0  0
  2  4  1  0  0  0  0
  2  3  2  0  0  0  0
  4  5  1  0  0  0  0
  5  7  1  0  0  0  0
  5  6  2  0  0  0  0
  7 18  2  0  0  0  0
  7  8  1  0  0  0  0
  8  9  1  0  0  0  0
  9 10  2  0  0  0  0
  9 16  1  0  0  0  0
 10 11  1  0  0  0  0
 11 12  1  0  0  0  0
 11 13  2  0  0  0  0
 13 14  1  0  0  0  0
 13 15  1  0  0  0  0
 15 16  2  0  0  0  0
 16 17  1  0  0  0  0
 17 19  1  0  0  0  0
 17 18  1  0  0  0  0
 20 19  1  6  0  0  0
 20 22  1  0  0  0  0
 20 21  1  0  0  0  0
 22 24  1  0  0  0  0
 22 23  1  1  0  0  0
 24 26  1  6  0  0  0
 24 25  1  0  0  0  0
 26 27  1  0  0  0  0
 27 28  1  0  0  0  0
 28 30  1  0  0  0  0
 28 29  2  0  0  0  0
 28 31  1  0  0  0  0
M  CHG  2  30  -1  31  -1
M  END
>  <CHROM.1>
-64.15949032,81.44333035,44.81523515,-172.81657491,33.56606845,-174.97639850
114.11024693,74.83516313,-99.20350890,52.21141550,-9.60954090,-4.38940238
0.04218351,1.99196900,-0.66054475,1.95237230

>  <Name>
1fmn_cryst

>  <RI>
0

>  <Rbt.Current_Directory>
/home/itssahil/PROJECTS/Mol_Feturizer/New_Systems/rnas/1fmn

>  <Rbt.Executable>
rbdock ($Id: //depot/dev/client3/rdock/2013.1/src/exe/rbdock.cxx#4 $)

>  <Rbt.Library>
libRbt.so (2013.1, Build901 2013/11/27)

>  <Rbt.Parameter_File>
/export/apps/rDock/src/rDock_2013.1_src/data/scripts/dock_solv.prm

>  <Rbt.Receptor>
prm/blind_docking_80.prm

>  <SCORE>
-50.4478

>  <SCORE.INTER>
-51.7015

>  <SCORE.INTER.CONST>
1

>  <SCORE.INTER.POLAR>
-2.66447

>  <SCORE.INTER.ROT>
7

>  <SCORE.INTER.SOLV>
25.941

>  <SCORE.INTER.VDW>
-42.4998

>  <SCORE.INTER.norm>
-1.66779

>  <SCORE.INTRA>
-1.11267

>  <SCORE.INTRA.DIHEDRAL>
2.48208

>  <SCORE.INTRA.DIHEDRAL.0>
15.5708

>  <SCORE.INTRA.POLAR>
-1.58653

>  <SCORE.INTRA.POLAR.0>
-0.0677885

>  <SCORE.INTRA.REPUL>
0

>  <SCORE.INTRA.REPUL.0>
0

>  <SCORE.INTRA.SOLV>
0.192799

>  <SCORE.INTRA.SOLV.lig_0>
-87.6316

>  <SCORE.INTRA.VDW>
2.94409

>  <SCORE.INTRA.VDW.0>
-2.87309

>  <SCORE.INTRA.norm>
-0.0358925

>  <SCORE.RESTR>
2.36638

>  <SCORE.RESTR.CAVITY>
2.36638

>  <SCORE.RESTR.norm>
0.0763347

>  <SCORE.SYSTEM>
0

>  <SCORE.SYSTEM.CONST>
0

>  <SCORE.SYSTEM.DIHEDRAL>
0

>  <SCORE.SYSTEM.SOLV>
0

>  <SCORE.SYSTEM.norm>
0

>  <SCORE.heavy>
31

>  <SCORE.norm>
-1.62735

>  <SYMMETRIC_BONDS>
33 34 3

>  <RMSD>
7.760

$$$$
1fmn_cryst
 OpenBabel11021811393D
libRbt.so/2013.1/901 2013/11/27
 31 33  0  0  0  0  0  0  0  0999 V2000
  -10.0421   -5.3770    3.6785 N   0  0  0  0  0  0  0  0  0  0  0  0
   -9.4743   -5.9835    4.7745 C   0  0  0  0  0  0  0  0  0  0  0  0
   -9.9281   -5.8369    5.9098 O   0  0  0  0  0  0  0  0  0  0  0  0
   -8.3326   -6.7826    4.5148 N   0  0  0  0  0  0  0  0  0  0  0  0
   -7.7303   -7.0111    3.2581 C   0  0  0  0  0  0  0  0  0  0  0  0
   -6.7317   -7.7369    3.1734 O   0  0  0  0  0  0  0  0  0  0  0  0
   -8.3930   -6.3303    2.1434 C   0  0  0  0  0  0  0  0  0  0  0  0
   -7.8684   -6.5017    0.8865 N   0  0  0  0  0  0  0  0  0  0  0  0
   -8.3732   -5.7279   -0.1179 C   0  0  0  0  0  0  0  0  0  0  0  0
   -7.7301   -5.7586   -1.3426 C   0  0  0  0  0  0  0  0  0  0  0  0
   -8.1754   -5.0177   -2.3838 C   0  0  0  0  0  0  0  0  0  0  0  0
   -7.4460   -5.0894   -3.6874 C   0  0  0  0  0  0  0  0  0  0  0  0
   -9.2702   -4.2223   -2.2431 C   0  0  0  0  0  0  0  0  0  0  0  0
   -9.7508   -3.4024   -3.3959 C   0  0  0  0  0  0  0  0  0  0  0  0
   -9.9336   -4.1609   -1.0604 C   0  0  0  0  0  0  0  0  0  0  0  0
   -9.5163   -4.9047    0.0433 C   0  0  0  0  0  0  0  0  0  0  0  0
  -10.1605   -4.8903    1.2982 N   0  0  0  0  0  0  0  0  0  0  0  0
   -9.5576   -5.5183    2.4074 C   0  0  0  0  0  0  0  0  0  0  0  0
  -11.6616   -4.7343    1.3226 C   0  0  0  0  0  0  0  0  0  0  0  0
  -12.2131   -3.4550    2.0222 C   0  0  1  0  0  0  0  0  0  0  0  0
  -11.8617   -3.4600    3.3986 O   0  0  0  0  0  0  0  0  0  0  0  0
  -11.7898   -2.1439    1.3180 C   0  0  1  0  0  0  0  0  0  0  0  0
  -11.8728   -2.2944   -0.0962 O   0  0  0  0  0  0  0  0  0  0  0  0
  -12.5169   -0.8480    1.7538 C   0  0  1  0  0  0  0  0  0  0  0  0
  -13.9044   -1.1351    1.8892 O   0  0  0  0  0  0  0  0  0  0  0  0
  -11.9926   -0.2843    3.0936 C   0  0  0  0  0  0  0  0  0  0  0  0
  -12.4108    1.0566    3.3199 O   0  0  0  0  0  0  0  0  0  0  0  0
  -11.9674    2.2605    2.3897 P   0  0  0  0  0  0  0  0  0  0  0  0
  -13.0427    2.6154    1.4358 O   0  0  0  0  0  0  0  0  0  0  0  0
  -11.3481    3.3379    3.1913 O   0  5  0  0  0  0  0  0  0  0  0  0
  -10.7997    1.6412    1.5021 O   0  5  0  0  0  0  0  0  0  0  0  0
  1 18  1  0  0  0  0
  1  2  1  0  0  0  0
  2  4  1  0  0  0  0
  2  3  2  0  0  0  0
  4  5  1  0  0  0  0
  5  7  1  0  0  0  0
  5  6  2  0  0  0  0
  7 18  2  0  0  0  0
  7  8  1  0  0  0  0
  8  9  1  0  0  0  0
  9 10  2  0  0  0  0
  9 16  1  0  0  0  0
 10 11  1  0  0  0  0
 11 12  1  0  0  0  0
 11 13  2  0  0  0  0
 13 14  1  0  0  0  0
 13 15  1  0  0  0  0
 15 16  2  0  0  0  0
 16 17  1  0  0  0  0
 17 19  1  0  0  0  0
 17 18  1  0  0  0  0
 20 19  1  6  0  0  0
 20 22  1  0  0  0  0
 20 21  1  0  0  0  0
 22 24  1  0  0  0  0
 22 23  1  6  0  0  0
 24 26  1  1  0  0  0
 24 25  1  0  0  0  0
 26 27  1  0  0  0  0
 27 28  1  0  0  0  0
 28 30  1  0  0  0  0
 28 29  2  0  0  0  0
 28 31  1  0  0  0  0
M  CHG  2  30  -1  31  -1
M  END
>  <CHROM.1>
-117.12876180,-62.87248551,41.24373846,-175.82111378,-42.50900364,66.98081053
165.14435740,76.33051195,-63.80386982,100.55820467,-10.34038066,-3.11873768
1.53453257,0.20288284,-1.08808261,1.93757140

>  <Name>
1fmn_cryst

>  <RI>
0

>  <Rbt.Current_Directory>
/home/itssahil/PROJECTS/Mol_Feturizer/New_Systems/rnas/1fmn

>  <Rbt.Executable>
rbdock ($Id: //depot/dev/client3/rdock/2013.1/src/exe/rbdock.cxx#4 $)

>  <Rbt.Library>
libRbt.so (2013.1, Build901 2013/11/27)

>  <Rbt.Parameter_File>
/export/apps/rDock/src/rDock_2013.1_src/data/scripts/dock_solv.prm

>  <Rbt.Receptor>
prm/blind_docking_80.prm

>  <SCORE>
-32.6768

>  <SCORE.INTER>
-31.0283

>  <SCORE.INTER.CONST>
1

>  <SCORE.INTER.POLAR>
-1.99357

>  <SCORE.INTER.ROT>
7

>  <SCORE.INTER.SOLV>
31.5156

>  <SCORE.INTER.VDW>
-32.8122

>  <SCORE.INTER.norm>
-1.00091

>  <SCORE.INTRA>
-5.06232

>  <SCORE.INTRA.DIHEDRAL>
-6.34569

>  <SCORE.INTRA.DIHEDRAL.0>
15.5708

>  <SCORE.INTRA.POLAR>
-0.923835

>  <SCORE.INTRA.POLAR.0>
-0.0677885

>  <SCORE.INTRA.REPUL>
0

>  <SCORE.INTRA.REPUL.0>
0

>  <SCORE.INTRA.SOLV>
0.58119

>  <SCORE.INTRA.SOLV.lig_0>
-87.6316

>  <SCORE.INTRA.VDW>
0.960967

>  <SCORE.INTRA.VDW.0>
-2.87309

>  <SCORE.INTRA.norm>
-0.163301

>  <SCORE.RESTR>
3.41385

>  <SCORE.RESTR.CAVITY>
3.41385

>  <SCORE.RESTR.norm>
0.110124

>  <SCORE.SYSTEM>
0

>  <SCORE.SYSTEM.CONST>
0

>  <SCORE.SYSTEM.DIHEDRAL>
0

>  <SCORE.SYSTEM.SOLV>
0

>  <SCORE.SYSTEM.norm>
0

>  <SCORE.heavy>
31

>  <SCORE.norm>
-1.05409

>  <SYMMETRIC_BONDS>
33 34 3

>  <RMSD>
7.780

$$$$
1fmn_cryst
 OpenBabel11021811393D
libRbt.so/2013.1/901 2013/11/27
 31 33  0  0  0  0  0  0  0  0999 V2000
  -12.5524   -1.9021    1.0452 N   0  0  0  0  0  0  0  0  0  0  0  0
  -13.4533   -1.5078    2.0066 C   0  0  0  0  0  0  0  0  0  0  0  0
  -14.2124   -0.5530    1.8374 O   0  0  0  0  0  0  0  0  0  0  0  0
  -13.4488   -2.2661    3.2042 N   0  0  0  0  0  0  0  0  0  0  0  0
  -12.6196   -3.3699    3.5012 C   0  0  0  0  0  0  0  0  0  0  0  0
  -12.7224   -3.9452    4.5920 O   0  0  0  0  0  0  0  0  0  0  0  0
  -11.6886   -3.7259    2.4281 C   0  0  0  0  0  0  0  0  0  0  0  0
  -10.8468   -4.7896    2.6383 N   0  0  0  0  0  0  0  0  0  0  0  0
   -9.8625   -5.0058    1.7180 C   0  0  0  0  0  0  0  0  0  0  0  0
   -8.8997   -5.9548    2.0125 C   0  0  0  0  0  0  0  0  0  0  0  0
   -7.8947   -6.2220    1.1465 C   0  0  0  0  0  0  0  0  0  0  0  0
   -6.8815   -7.2595    1.5116 C   0  0  0  0  0  0  0  0  0  0  0  0
   -7.8118   -5.5559   -0.0370 C   0  0  0  0  0  0  0  0  0  0  0  0
   -6.6950   -5.8523   -0.9841 C   0  0  0  0  0  0  0  0  0  0  0  0
   -8.7343   -4.6170   -0.3688 C   0  0  0  0  0  0  0  0  0  0  0  0
   -9.7898   -4.3045    0.4878 C   0  0  0  0  0  0  0  0  0  0  0  0
  -10.7831   -3.3438    0.2041 N   0  0  0  0  0  0  0  0  0  0  0  0
  -11.6948   -2.9551    1.2069 C   0  0  0  0  0  0  0  0  0  0  0  0
  -11.2214   -3.1802   -1.2310 C   0  0  0  0  0  0  0  0  0  0  0  0
  -10.5520   -4.1288   -2.2714 C   0  0  1  0  0  0  0  0  0  0  0  0
  -11.5332   -4.6633   -3.1485 O   0  0  0  0  0  0  0  0  0  0  0  0
   -9.3841   -3.4652   -3.0393 C   0  0  1  0  0  0  0  0  0  0  0  0
   -8.1995   -4.2452   -2.9060 O   0  0  0  0  0  0  0  0  0  0  0  0
   -9.6280   -3.1277   -4.5308 C   0  0  1  0  0  0  0  0  0  0  0  0
   -9.9069   -1.7360   -4.6368 O   0  0  0  0  0  0  0  0  0  0  0  0
   -8.4168   -3.4622   -5.4301 C   0  0  0  0  0  0  0  0  0  0  0  0
   -8.0809   -4.8443   -5.3974 O   0  0  0  0  0  0  0  0  0  0  0  0
   -6.8370   -5.4419   -6.1763 P   0  0  0  0  0  0  0  0  0  0  0  0
   -6.3106   -6.6432   -5.4894 O   0  0  0  0  0  0  0  0  0  0  0  0
   -7.1189   -5.5218   -7.6258 O   0  5  0  0  0  0  0  0  0  0  0  0
   -5.7130   -4.3275   -6.0040 O   0  5  0  0  0  0  0  0  0  0  0  0
  1 18  1  0  0  0  0
  1  2  1  0  0  0  0
  2  4  1  0  0  0  0
  2  3  2  0  0  0  0
  4  5  1  0  0  0  0
  5  7  1  0  0  0  0
  5  6  2  0  0  0  0
  7 18  2  0  0  0  0
  7  8  1  0  0  0  0
  8  9  1  0  0  0  0
  9 10  2  0  0  0  0
  9 16  1  0  0  0  0
 10 11  1  0  0  0  0
 11 12  1  0  0  0  0
 11 13  2  0  0  0  0
 13 14  1  0  0  0  0
 13 15  1  0  0  0  0
 15 16  2  0  0  0  0
 16 17  1  0  0  0  0
 17 19  1  0  0  0  0
 17 18  1  0  0  0  0
 20 19  1  1  0  0  0
 20 22  1  0  0  0  0
 20 21  1  0  0  0  0
 22 24  1  0  0  0  0
 22 23  1  6  0  0  0
 24 26  1  6  0  0  0
 24 25  1  0  0  0  0
 26 27  1  0  0  0  0
 27 28  1  0  0  0  0
 28 30  1  0  0  0  0
 28 29  2  0  0  0  0
 28 31  1  0  0  0  0
M  CHG  2  30  -1  31  -1
M  END
>  <CHROM.1>
1.60491108,134.91008447,124.73344526,-22.70415100,101.28050563,69.13770974
60.42527339,-176.05301133,-177.05165821,151.37629712,-9.64475721,-4.17293969
-1.31286455,2.29493074,-0.68855545,1.85947624

>  <Name>
1fmn_cryst

>  <RI>
0

>  <Rbt.Current_Directory>
/home/itssahil/PROJECTS/Mol_Feturizer/New_Systems/rnas/1fmn

>  <Rbt.Executable>
rbdock ($Id: //depot/dev/client3/rdock/2013.1/src/exe/rbdock.cxx#4 $)

>  <Rbt.Library>
libRbt.so (2013.1, Build901 2013/11/27)

>  <Rbt.Parameter_File>
/export/apps/rDock/src/rDock_2013.1_src/data/scripts/dock_solv.prm

>  <Rbt.Receptor>
prm/blind_docking_100.prm

>  <SCORE>
-7.23468

>  <SCORE.INTER>
-21.4339

>  <SCORE.INTER.CONST>
1

>  <SCORE.INTER.POLAR>
-1.03766

>  <SCORE.INTER.ROT>
7

>  <SCORE.INTER.SOLV>
31.2166

>  <SCORE.INTER.VDW>
-29.5026

>  <SCORE.INTER.norm>
-0.691416

>  <SCORE.INTRA>
8.09451

>  <SCORE.INTRA.DIHEDRAL>
6.27372

>  <SCORE.INTRA.DIHEDRAL.0>
15.5708

>  <SCORE.INTRA.POLAR>
-0.187819

>  <SCORE.INTRA.POLAR.0>
-0.0677885

>  <SCORE.INTRA.REPUL>
0

>  <SCORE.INTRA.REPUL.0>
0

>  <SCORE.INTRA.SOLV>
-2.63431

>  <SCORE.INTRA.SOLV.lig_0>
-87.6316

>  <SCORE.INTRA.VDW>
6.9134

>  <SCORE.INTRA.VDW.0>
-2.87309

>  <SCORE.INTRA.norm>
0.261113

>  <SCORE.RESTR>
6.1047

>  <SCORE.RESTR.CAVITY>
6.1047

>  <SCORE.RESTR.norm>
0.196926

>  <SCORE.SYSTEM>
0

>  <SCORE.SYSTEM.CONST>
0

>  <SCORE.SYSTEM.DIHEDRAL>
0

>  <SCORE.SYSTEM.SOLV>
0

>  <SCORE.SYSTEM.norm>
0

>  <SCORE.heavy>
31

>  <SCORE.norm>
-0.233377

>  <SYMMETRIC_BONDS>
33 34 3

>  <RMSD>
7.788

$$$$
1fmn_cryst
 OpenBabel11021811393D
libRbt.so/2013.1/901 2013/11/27
 31 33  0  0  0  0  0  0  0  0999 V2000
  -10.0825   -5.3242    3.6629 N   0  0  0  0  0  0  0  0  0  0  0  0
   -9.5187   -5.9518    4.7491 C   0  0  0  0  0  0  0  0  0  0  0  0
   -9.9575   -5.8018    5.8899 O   0  0  0  0  0  0  0  0  0  0  0  0
   -8.3996   -6.7768    4.4726 N   0  0  0  0  0  0  0  0  0  0  0  0
   -7.8157   -7.0114    3.2084 C   0  0  0  0  0  0  0  0  0  0  0  0
   -6.8360   -7.7608    3.1089 O   0  0  0  0  0  0  0  0  0  0  0  0
   -8.4726   -6.3070    2.1049 C   0  0  0  0  0  0  0  0  0  0  0  0
   -7.9649   -6.4827    0.8417 N   0  0  0  0  0  0  0  0  0  0  0  0
   -8.4606   -5.6900   -0.1525 C   0  0  0  0  0  0  0  0  0  0  0  0
   -7.8307   -5.7281   -1.3838 C   0  0  0  0  0  0  0  0  0  0  0  0
   -8.2681   -4.9695   -2.4156 C   0  0  0  0  0  0  0  0  0  0  0  0
   -7.5537   -5.0502   -3.7269 C   0  0  0  0  0  0  0  0  0  0  0  0
   -9.3417   -4.1486   -2.2586 C   0  0  0  0  0  0  0  0  0  0  0  0
   -9.8135   -3.3094   -3.4010 C   0  0  0  0  0  0  0  0  0  0  0  0
   -9.9915   -4.0790   -1.0688 C   0  0  0  0  0  0  0  0  0  0  0  0
   -9.5815   -4.8402    0.0257 C   0  0  0  0  0  0  0  0  0  0  0  0
  -10.2126   -4.8186    1.2872 N   0  0  0  0  0  0  0  0  0  0  0  0
   -9.6142   -5.4687    2.3860 C   0  0  0  0  0  0  0  0  0  0  0  0
  -11.7091   -4.6262    1.3278 C   0  0  0  0  0  0  0  0  0  0  0  0
  -12.2254   -3.3778    2.1058 C   0  0  1  0  0  0  0  0  0  0  0  0
  -11.8920   -3.4869    3.4824 O   0  0  0  0  0  0  0  0  0  0  0  0
  -11.7486   -2.0383    1.4956 C   0  0  1  0  0  0  0  0  0  0  0  0
  -12.2981   -1.8664    0.1925 O   0  0  0  0  0  0  0  0  0  0  0  0
  -11.9828   -0.7611    2.3391 C   0  0  1  0  0  0  0  0  0  0  0  0
  -11.2009    0.2921    1.7865 O   0  0  0  0  0  0  0  0  0  0  0  0
  -13.4635   -0.3198    2.3661 C   0  0  0  0  0  0  0  0  0  0  0  0
  -13.6317    0.9856    2.9061 O   0  0  0  0  0  0  0  0  0  0  0  0
  -13.2721    1.3444    4.4072 P   0  0  0  0  0  0  0  0  0  0  0  0
  -11.8148    1.2318    4.6430 O   0  0  0  0  0  0  0  0  0  0  0  0
  -13.9638    2.5821    4.8274 O   0  5  0  0  0  0  0  0  0  0  0  0
  -13.9305    0.1620    5.2458 O   0  5  0  0  0  0  0  0  0  0  0  0
  1 18  1  0  0  0  0
  1  2  1  0  0  0  0
  2  4  1  0  0  0  0
  2  3  2  0  0  0  0
  4  5  1  0  0  0  0
  5  7  1  0  0  0  0
  5  6  2  0  0  0  0
  7 18  2  0  0  0  0
  7  8  1  0  0  0  0
  8  9  1  0  0  0  0
  9 10  2  0  0  0  0
  9 16  1  0  0  0  0
 10 11  1  0  0  0  0
 11 12  1  0  0  0  0
 11 13  2  0  0  0  0
 13 14  1  0  0  0  0
 13 15  1  0  0  0  0
 15 16  2  0  0  0  0
 16 17  1  0  0  0  0
 17 19  1  0  0  0  0
 17 18  1  0  0  0  0
 20 19  1  6  0  0  0
 20 22  1  0  0  0  0
 20 21  1  0  0  0  0
 22 24  1  0  0  0  0
 22 23  1  6  0  0  0
 24 26  1  6  0  0  0
 24 25  1  0  0  0  0
 26 27  1  0  0  0  0
 27 28  1  0  0  0  0
 28 30  1  0  0  0  0
 28 29  2  0  0  0  0
 28 31  1  0  0  0  0
M  CHG  2  30  -1  31  -1
M  END
>  <CHROM.1>
-120.22900063,-63.96165051,64.67379539,-179.10837171,165.75314242,62.83850124
-168.04714154,60.36749579,-63.84950212,66.08167718,-10.61569093,-3.20910466
1.95121877,-0.18886598,-0.99622264,1.83314560

>  <Name>
1fmn_cryst

>  <RI>
0

>  <Rbt.Current_Directory>
/home/itssahil/PROJECTS/Mol_Feturizer/New_Systems/rnas/1fmn

>  <Rbt.Executable>
rbdock ($Id: //depot/dev/client3/rdock/2013.1/src/exe/rbdock.cxx#4 $)

>  <Rbt.Library>
libRbt.so (2013.1, Build901 2013/11/27)

>  <Rbt.Parameter_File>
/export/apps/rDock/src/rDock_2013.1_src/data/scripts/dock_solv.prm

>  <Rbt.Receptor>
prm/blind_docking_100.prm

>  <SCORE>
-37.2959

>  <SCORE.INTER>
-31.6845

>  <SCORE.INTER.CONST>
1

>  <SCORE.INTER.POLAR>
-1.71458

>  <SCORE.INTER.ROT>
7

>  <SCORE.INTER.SOLV>
29.3258

>  <SCORE.INTER.VDW>
-33.4497

>  <SCORE.INTER.norm>
-1.02208

>  <SCORE.INTRA>
-8.39887

>  <SCORE.INTRA.DIHEDRAL>
-11.2591

>  <SCORE.INTRA.DIHEDRAL.0>
15.5708

>  <SCORE.INTRA.POLAR>
-0.919689

>  <SCORE.INTRA.POLAR.0>
-0.0677885

>  <SCORE.INTRA.REPUL>
0

>  <SCORE.INTRA.REPUL.0>
0

>  <SCORE.INTRA.SOLV>
-0.0454834

>  <SCORE.INTRA.SOLV.lig_0>
-87.6316

>  <SCORE.INTRA.VDW>
0.380354

>  <SCORE.INTRA.VDW.0>
-2.87309

>  <SCORE.INTRA.norm>
-0.270931

>  <SCORE.RESTR>
2.78749

>  <SCORE.RESTR.CAVITY>
2.78749

>  <SCORE.RESTR.norm>
0.0899191

>  <SCORE.SYSTEM>
0

>  <SCORE.SYSTEM.CONST>
0

>  <SCORE.SYSTEM.DIHEDRAL>
0

>  <SCORE.SYSTEM.SOLV>
0

>  <SCORE.SYSTEM.norm>
0

>  <SCORE.heavy>
31

>  <SCORE.norm>
-1.20309

>  <SYMMETRIC_BONDS>
33 34 3

>  <RMSD>
7.814

$$$$
1fmn_cryst
 OpenBabel11021811393D
libRbt.so/2013.1/901 2013/11/27
 31 33  0  0  0  0  0  0  0  0999 V2000
   -9.7331   -5.6367    3.8186 N   0  0  0  0  0  0  0  0  0  0  0  0
   -8.9463   -6.2985    4.7321 C   0  0  0  0  0  0  0  0  0  0  0  0
   -9.1892   -6.2776    5.9391 O   0  0  0  0  0  0  0  0  0  0  0  0
   -7.8373   -7.0006    4.1968 N   0  0  0  0  0  0  0  0  0  0  0  0
   -7.4673   -7.0833    2.8365 C   0  0  0  0  0  0  0  0  0  0  0  0
   -6.4697   -7.7363    2.5052 O   0  0  0  0  0  0  0  0  0  0  0  0
   -8.3540   -6.3519    1.9288 C   0  0  0  0  0  0  0  0  0  0  0  0
   -8.0629   -6.3827    0.5877 N   0  0  0  0  0  0  0  0  0  0  0  0
   -8.7785   -5.5584   -0.2315 C   0  0  0  0  0  0  0  0  0  0  0  0
   -8.3715   -5.4447   -1.5490 C   0  0  0  0  0  0  0  0  0  0  0  0
   -9.0339   -4.6464   -2.4181 C   0  0  0  0  0  0  0  0  0  0  0  0
   -8.5548   -4.5615   -3.8322 C   0  0  0  0  0  0  0  0  0  0  0  0
  -10.1187   -3.9350   -2.0081 C   0  0  0  0  0  0  0  0  0  0  0  0
  -10.8399   -3.0507   -2.9725 C   0  0  0  0  0  0  0  0  0  0  0  0
  -10.5548   -4.0158   -0.7251 C   0  0  0  0  0  0  0  0  0  0  0  0
   -9.9082   -4.8240    0.2098 C   0  0  0  0  0  0  0  0  0  0  0  0
  -10.3099   -4.9566    1.5556 N   0  0  0  0  0  0  0  0  0  0  0  0
   -9.4853   -5.6387    2.4736 C   0  0  0  0  0  0  0  0  0  0  0  0
  -11.7864   -4.8961    1.8636 C   0  0  0  0  0  0  0  0  0  0  0  0
  -12.3206   -3.5445    2.4276 C   0  0  1  0  0  0  0  0  0  0  0  0
  -12.0462   -3.4520    3.8183 O   0  0  0  0  0  0  0  0  0  0  0  0
  -11.8039   -2.3114    1.6488 C   0  0  1  0  0  0  0  0  0  0  0  0
  -12.4361   -2.2322    0.3746 O   0  0  0  0  0  0  0  0  0  0  0  0
  -11.8912   -0.9421    2.3666 C   0  0  1  0  0  0  0  0  0  0  0  0
  -10.9263   -0.0697    1.7888 O   0  0  0  0  0  0  0  0  0  0  0  0
  -13.2863   -0.2882    2.2496 C   0  0  0  0  0  0  0  0  0  0  0  0
  -13.7231    0.2836    3.4769 O   0  0  0  0  0  0  0  0  0  0  0  0
  -13.1412    1.6448    4.0426 P   0  0  0  0  0  0  0  0  0  0  0  0
  -14.1275    2.7401    3.9024 O   0  0  0  0  0  0  0  0  0  0  0  0
  -12.5025    1.4315    5.3592 O   0  5  0  0  0  0  0  0  0  0  0  0
  -11.9643    2.0011    3.0313 O   0  5  0  0  0  0  0  0  0  0  0  0
  1 18  1  0  0  0  0
  1  2  1  0  0  0  0
  2  4  1  0  0  0  0
  2  3  2  0  0  0  0
  4  5  1  0  0  0  0
  5  7  1  0  0  0  0
  5  6  2  0  0  0  0
  7 18  2  0  0  0  0
  7  8  1  0  0  0  0
  8  9  1  0  0  0  0
  9 10  2  0  0  0  0
  9 16  1  0  0  0  0
 10 11  1  0  0  0  0
 11 12  1  0  0  0  0
 11 13  2  0  0  0  0
 13 14  1  0  0  0  0
 13 15  1  0  0  0  0
 15 16  2  0  0  0  0
 16 17  1  0  0  0  0
 17 19  1  0  0  0  0
 17 18  1  0  0  0  0
 20 19  1  6  0  0  0
 20 22  1  0  0  0  0
 20 21  1  0  0  0  0
 22 24  1  0  0  0  0
 22 23  1  6  0  0  0
 24 26  1  6  0  0  0
 24 25  1  0  0  0  0
 26 27  1  0  0  0  0
 27 28  1  0  0  0  0
 28 30  1  0  0  0  0
 28 29  2  0  0  0  0
 28 31  1  0  0  0  0
M  CHG  2  30  -1  31  -1
M  END
>  <CHROM.1>
-101.14160454,-80.45754595,72.45143869,-64.53170073,156.56329227,-168.87837089
137.11958826,178.21208492,74.98669122,106.80242965,-10.62811533,-3.18608125
1.89841114,-0.20380687,-1.02113182,1.66586912

>  <Name>
1fmn_cryst

>  <RI>
0

>  <Rbt.Current_Directory>
/home/itssahil/PROJECTS/Mol_Feturizer/New_Systems/rnas/1fmn

>  <Rbt.Executable>
rbdock ($Id: //depot/dev/client3/rdock/2013.1/src/exe/rbdock.cxx#4 $)

>  <Rbt.Library>
libRbt.so (2013.1, Build901 2013/11/27)

>  <Rbt.Parameter_File>
/export/apps/rDock/src/rDock_2013.1_src/data/scripts/dock_solv.prm

>  <Rbt.Receptor>
prm/blind_docking_20.prm

>  <SCORE>
-38.427

>  <SCORE.INTER>
-37.0872

>  <SCORE.INTER.CONST>
1

>  <SCORE.INTER.POLAR>
-2.26704

>  <SCORE.INTER.ROT>
7

>  <SCORE.INTER.SOLV>
26.5946

>  <SCORE.INTER.VDW>
-34.2995

>  <SCORE.INTER.norm>
-1.19636

>  <SCORE.INTRA>
-4.29735

>  <SCORE.INTRA.DIHEDRAL>
-0.827945

>  <SCORE.INTRA.DIHEDRAL.0>
15.5708

>  <SCORE.INTRA.POLAR>
-1.40815

>  <SCORE.INTRA.POLAR.0>
-0.0677885

>  <SCORE.INTRA.REPUL>
0

>  <SCORE.INTRA.REPUL.0>
0

>  <SCORE.INTRA.SOLV>
0.867211

>  <SCORE.INTRA.SOLV.lig_0>
-87.6316

>  <SCORE.INTRA.VDW>
0.470723

>  <SCORE.INTRA.VDW.0>
-2.87309

>  <SCORE.INTRA.norm>
-0.138624

>  <SCORE.RESTR>
2.95751

>  <SCORE.RESTR.CAVITY>
2.95751

>  <SCORE.RESTR.norm>
0.0954036

>  <SCORE.SYSTEM>
0

>  <SCORE.SYSTEM.CONST>
0

>  <SCORE.SYSTEM.DIHEDRAL>
0

>  <SCORE.SYSTEM.SOLV>
0

>  <SCORE.SYSTEM.norm>
0

>  <SCORE.heavy>
31

>  <SCORE.norm>
-1.23958

>  <SYMMETRIC_BONDS>
33 34 3

>  <RMSD>
7.835

$$$$
1fmn_cryst
 OpenBabel11021811393D
libRbt.so/2013.1/901 2013/11/27
 31 33  0  0  0  0  0  0  0  0999 V2000
   -9.8501   -5.6873    3.7601 N   0  0  0  0  0  0  0  0  0  0  0  0
   -8.9395   -6.3538    4.5464 C   0  0  0  0  0  0  0  0  0  0  0  0
   -9.0680   -6.4346    5.7684 O   0  0  0  0  0  0  0  0  0  0  0  0
   -7.8433   -6.9363    3.8620 N   0  0  0  0  0  0  0  0  0  0  0  0
   -7.5991   -6.8973    2.4716 C   0  0  0  0  0  0  0  0  0  0  0  0
   -6.5975   -7.4531    2.0035 O   0  0  0  0  0  0  0  0  0  0  0  0
   -8.6129   -6.1690    1.7054 C   0  0  0  0  0  0  0  0  0  0  0  0
   -8.4486   -6.0853    0.3451 N   0  0  0  0  0  0  0  0  0  0  0  0
   -9.2899   -5.2587   -0.3415 C   0  0  0  0  0  0  0  0  0  0  0  0
   -9.0175   -5.0247   -1.6777 C   0  0  0  0  0  0  0  0  0  0  0  0
   -9.8091   -4.2166   -2.4206 C   0  0  0  0  0  0  0  0  0  0  0  0
   -9.4724   -3.9993   -3.8613 C   0  0  0  0  0  0  0  0  0  0  0  0
  -10.8937   -3.6144   -1.8620 C   0  0  0  0  0  0  0  0  0  0  0  0
  -11.7583   -2.7184   -2.6878 C   0  0  0  0  0  0  0  0  0  0  0  0
  -11.2004   -3.8154   -0.5550 C   0  0  0  0  0  0  0  0  0  0  0  0
  -10.4176   -4.6390    0.2540 C   0  0  0  0  0  0  0  0  0  0  0  0
  -10.6809   -4.8934    1.6163 N   0  0  0  0  0  0  0  0  0  0  0  0
   -9.7311   -5.5778    2.4021 C   0  0  0  0  0  0  0  0  0  0  0  0
  -12.1224   -4.9595    2.0592 C   0  0  0  0  0  0  0  0  0  0  0  0
  -12.5486   -3.9623    3.1790 C   0  0  1  0  0  0  0  0  0  0  0  0
  -12.0075   -4.3686    4.4280 O   0  0  0  0  0  0  0  0  0  0  0  0
  -12.2065   -2.4901    2.8476 C   0  0  1  0  0  0  0  0  0  0  0  0
  -10.8291   -2.3687    2.5047 O   0  0  0  0  0  0  0  0  0  0  0  0
  -13.0800   -1.7917    1.7765 C   0  0  1  0  0  0  0  0  0  0  0  0
  -14.3852   -2.3575    1.8223 O   0  0  0  0  0  0  0  0  0  0  0  0
  -13.1916   -0.2656    1.9914 C   0  0  0  0  0  0  0  0  0  0  0  0
  -13.4611    0.0741    3.3465 O   0  0  0  0  0  0  0  0  0  0  0  0
  -13.1668    1.5122    3.9437 P   0  0  0  0  0  0  0  0  0  0  0  0
  -14.4253    2.2590    4.1681 O   0  0  0  0  0  0  0  0  0  0  0  0
  -12.1872    1.4274    5.0483 O   0  5  0  0  0  0  0  0  0  0  0  0
  -12.4291    2.2709    2.7542 O   0  5  0  0  0  0  0  0  0  0  0  0
  1 18  1  0  0  0  0
  1  2  1  0  0  0  0
  2  4  1  0  0  0  0
  2  3  2  0  0  0  0
  4  5  1  0  0  0  0
  5  7  1  0  0  0  0
  5  6  2  0  0  0  0
  7 18  2  0  0  0  0
  7  8  1  0  0  0  0
  8  9  1  0  0  0  0
  9 10  2  0  0  0  0
  9 16  1  0  0  0  0
 10 11  1  0  0  0  0
 11 12  1  0  0  0  0
 11 13  2  0  0  0  0
 13 14  1  0  0  0  0
 13 15  1  0  0  0  0
 15 16  2  0  0  0  0
 16 17  1  0  0  0  0
 17 19  1  0  0  0  0
 17 18  1  0  0  0  0
 20 19  1  6  0  0  0
 20 22  1  0  0  0  0
 20 21  1  0  0  0  0
 22 24  1  0  0  0  0
 22 23  1  6  0  0  0
 24 26  1  1  0  0  0
 24 25  1  0  0  0  0
 26 27  1  0  0  0  0
 27 28  1  0  0  0  0
 28 30  1  0  0  0  0
 28 29  2  0  0  0  0
 28 31  1  0  0  0  0
M  CHG  2  30  -1  31  -1
M  END
>  <CHROM.1>
-122.14396599,-72.99083285,-52.95770668,-74.32474550,30.27465110,-154.02791399
-45.80939171,66.09851786,159.60196401,107.23811096,-10.97407925,-3.27194148
1.96485284,-0.23743761,-0.99071059,1.60287122

>  <Name>
1fmn_cryst

>  <RI>
0

>  <Rbt.Current_Directory>
/home/itssahil/PROJECTS/Mol_Feturizer/New_Systems/rnas/1fmn

>  <Rbt.Executable>
rbdock ($Id: //depot/dev/client3/rdock/2013.1/src/exe/rbdock.cxx#4 $)

>  <Rbt.Library>
libRbt.so (2013.1, Build901 2013/11/27)

>  <Rbt.Parameter_File>
/export/apps/rDock/src/rDock_2013.1_src/data/scripts/dock_solv.prm

>  <Rbt.Receptor>
prm/blind_docking_100.prm

>  <SCORE>
12.491

>  <SCORE.INTER>
10.0023

>  <SCORE.INTER.CONST>
1

>  <SCORE.INTER.POLAR>
-2.56309

>  <SCORE.INTER.ROT>
7

>  <SCORE.INTER.SOLV>
28.0095

>  <SCORE.INTER.VDW>
-2.39129

>  <SCORE.INTER.norm>
0.322656

>  <SCORE.INTRA>
-1.65022

>  <SCORE.INTRA.DIHEDRAL>
-1.19079

>  <SCORE.INTRA.DIHEDRAL.0>
15.5708

>  <SCORE.INTRA.POLAR>
-0.749903

>  <SCORE.INTRA.POLAR.0>
-0.0677885

>  <SCORE.INTRA.REPUL>
0.420535

>  <SCORE.INTRA.REPUL.0>
0

>  <SCORE.INTRA.SOLV>
-2.07557

>  <SCORE.INTRA.SOLV.lig_0>
-87.6316

>  <SCORE.INTRA.VDW>
0.429956

>  <SCORE.INTRA.VDW.0>
-2.87309

>  <SCORE.INTRA.norm>
-0.053233

>  <SCORE.RESTR>
4.13888

>  <SCORE.RESTR.CAVITY>
4.13888

>  <SCORE.RESTR.norm>
0.133512

>  <SCORE.SYSTEM>
0

>  <SCORE.SYSTEM.CONST>
0

>  <SCORE.SYSTEM.DIHEDRAL>
0

>  <SCORE.SYSTEM.SOLV>
0

>  <SCORE.SYSTEM.norm>
0

>  <SCORE.heavy>
31

>  <SCORE.norm>
0.402935

>  <SYMMETRIC_BONDS>
33 34 3

>  <RMSD>
7.863

$$$$
1fmn_cryst
 OpenBabel11021811393D
libRbt.so/2013.1/901 2013/11/27
 31 33  0  0  0  0  0  0  0  0999 V2000
   -9.8125   -5.6008    3.6872 N   0  0  0  0  0  0  0  0  0  0  0  0
   -9.1104   -6.2500    4.6758 C   0  0  0  0  0  0  0  0  0  0  0  0
   -9.4462   -6.1938    5.8592 O   0  0  0  0  0  0  0  0  0  0  0  0
   -7.9750   -6.9823    4.2467 N   0  0  0  0  0  0  0  0  0  0  0  0
   -7.5018   -7.1062    2.9220 C   0  0  0  0  0  0  0  0  0  0  0  0
   -6.4926   -7.7824    2.6862 O   0  0  0  0  0  0  0  0  0  0  0  0
   -8.3027   -6.3858    1.9296 C   0  0  0  0  0  0  0  0  0  0  0  0
   -7.9087   -6.4561    0.6166 N   0  0  0  0  0  0  0  0  0  0  0  0
   -8.5444   -5.6432   -0.2765 C   0  0  0  0  0  0  0  0  0  0  0  0
   -8.0342   -5.5702   -1.5605 C   0  0  0  0  0  0  0  0  0  0  0  0
   -8.6135   -4.7853   -2.4985 C   0  0  0  0  0  0  0  0  0  0  0  0
   -8.0244   -4.7446   -3.8724 C   0  0  0  0  0  0  0  0  0  0  0  0
   -9.7148   -4.0473   -2.1925 C   0  0  0  0  0  0  0  0  0  0  0  0
  -10.3438   -3.1781   -3.2322 C   0  0  0  0  0  0  0  0  0  0  0  0
  -10.2507   -4.0878   -0.9460 C   0  0  0  0  0  0  0  0  0  0  0  0
   -9.6925   -4.8807    0.0566 C   0  0  0  0  0  0  0  0  0  0  0  0
  -10.1999   -4.9719    1.3697 N   0  0  0  0  0  0  0  0  0  0  0  0
   -9.4609   -5.6419    2.3662 C   0  0  0  0  0  0  0  0  0  0  0  0
  -11.6946   -4.8814    1.5597 C   0  0  0  0  0  0  0  0  0  0  0  0
  -12.2325   -3.5647    2.1978 C   0  0  1  0  0  0  0  0  0  0  0  0
  -11.9023   -3.5196    3.5786 O   0  0  0  0  0  0  0  0  0  0  0  0
  -11.7741   -2.2915    1.4475 C   0  0  1  0  0  0  0  0  0  0  0  0
  -12.4497   -2.1850    0.1978 O   0  0  0  0  0  0  0  0  0  0  0  0
  -11.8734   -0.9510    2.2164 C   0  0  1  0  0  0  0  0  0  0  0  0
  -11.1087    0.0253    1.5178 O   0  0  0  0  0  0  0  0  0  0  0  0
  -13.3255   -0.4409    2.3531 C   0  0  0  0  0  0  0  0  0  0  0  0
  -13.5594    0.2055    3.5988 O   0  0  0  0  0  0  0  0  0  0  0  0
  -13.2433    1.7394    3.8403 P   0  0  0  0  0  0  0  0  0  0  0  0
  -12.0122    2.1446    3.1244 O   0  0  0  0  0  0  0  0  0  0  0  0
  -14.4638    2.5566    3.6681 O   0  5  0  0  0  0  0  0  0  0  0  0
  -12.8771    1.8101    5.3881 O   0  5  0  0  0  0  0  0  0  0  0  0
  1 18  1  0  0  0  0
  1  2  1  0  0  0  0
  2  4  1  0  0  0  0
  2  3  2  0  0  0  0
  4  5  1  0  0  0  0
  5  7  1  0  0  0  0
  5  6  2  0  0  0  0
  7 18  2  0  0  0  0
  7  8  1  0  0  0  0
  8  9  1  0  0  0  0
  9 10  2  0  0  0  0
  9 16  1  0  0  0  0
 10 11  1  0  0  0  0
 11 12  1  0  0  0  0
 11 13  2  0  0  0  0
 13 14  1  0  0  0  0
 13 15  1  0  0  0  0
 15 16  2  0  0  0  0
 16 17  1  0  0  0  0
 17 19  1  0  0  0  0
 17 18  1  0  0  0  0
 20 19  1  6  0  0  0
 20 22  1  0  0  0  0
 20 21  1  0  0  0  0
 22 24  1  0  0  0  0
 22 23  1  6  0  0  0
 24 26  1  6  0  0  0
 24 25  1  0  0  0  0
 26 27  1  0  0  0  0
 27 28  1  0  0  0  0
 28 30  1  0  0  0  0
 28 29  2  0  0  0  0
 28 31  1  0  0  0  0
M  CHG  2  30  -1  31  -1
M  END
>  <CHROM.1>
-107.81785952,-72.08224354,71.82748078,-179.51770796,165.37225580,68.43462799
144.12483477,51.83930451,85.51432655,-36.88384175,-10.58178343,-3.19813578
1.80053483,-0.14345259,-1.01126832,1.75457631

>  <Name>
1fmn_cryst

>  <RI>
0

>  <Rbt.Current_Directory>
/home/itssahil/PROJECTS/Mol_Feturizer/New_Systems/rnas/1fmn

>  <Rbt.Executable>
rbdock ($Id: //depot/dev/client3/rdock/2013.1/src/exe/rbdock.cxx#4 $)

>  <Rbt.Library>
libRbt.so (2013.1, Build901 2013/11/27)

>  <Rbt.Parameter_File>
/export/apps/rDock/src/rDock_2013.1_src/data/scripts/dock_solv.prm

>  <Rbt.Receptor>
prm/blind_docking_20.prm

>  <SCORE>
-36.6293

>  <SCORE.INTER>
-34.9589

>  <SCORE.INTER.CONST>
1

>  <SCORE.INTER.POLAR>
-2.0031

>  <SCORE.INTER.ROT>
7

>  <SCORE.INTER.SOLV>
25.0557

>  <SCORE.INTER.VDW>
-33.2475

>  <SCORE.INTER.norm>
-1.12771

>  <SCORE.INTRA>
-4.95655

>  <SCORE.INTRA.DIHEDRAL>
-3.00189

>  <SCORE.INTRA.DIHEDRAL.0>
15.5708

>  <SCORE.INTRA.POLAR>
-0.874651

>  <SCORE.INTRA.POLAR.0>
-0.0677885

>  <SCORE.INTRA.REPUL>
0

>  <SCORE.INTRA.REPUL.0>
0

>  <SCORE.INTRA.SOLV>
-0.988934

>  <SCORE.INTRA.SOLV.lig_0>
-87.6316

>  <SCORE.INTRA.VDW>
0.0126711

>  <SCORE.INTRA.VDW.0>
-2.87309

>  <SCORE.INTRA.norm>
-0.159889

>  <SCORE.RESTR>
3.28625

>  <SCORE.RESTR.CAVITY>
3.28625

>  <SCORE.RESTR.norm>
0.106008

>  <SCORE.SYSTEM>
0

>  <SCORE.SYSTEM.CONST>
0

>  <SCORE.SYSTEM.DIHEDRAL>
0

>  <SCORE.SYSTEM.SOLV>
0

>  <SCORE.SYSTEM.norm>
0

>  <SCORE.heavy>
31

>  <SCORE.norm>
-1.18159

>  <SYMMETRIC_BONDS>
33 34 3

>  <RMSD>
7.878

$$$$
1fmn_cryst
 OpenBabel11021811393D
libRbt.so/2013.1/901 2013/11/27
 31 33  0  0  0  0  0  0  0  0999 V2000
   -9.7589   -5.4223    2.6693 N   0  0  0  0  0  0  0  0  0  0  0  0
  -10.7351   -5.2667    3.6255 C   0  0  0  0  0  0  0  0  0  0  0  0
  -11.6885   -4.5036    3.4669 O   0  0  0  0  0  0  0  0  0  0  0  0
  -10.5711   -6.0357    4.8051 N   0  0  0  0  0  0  0  0  0  0  0  0
   -9.5170   -6.9314    5.0890 C   0  0  0  0  0  0  0  0  0  0  0  0
   -9.4979   -7.5435    6.1643 O   0  0  0  0  0  0  0  0  0  0  0  0
   -8.5191   -7.0399    4.0224 C   0  0  0  0  0  0  0  0  0  0  0  0
   -7.4609   -7.8915    4.2208 N   0  0  0  0  0  0  0  0  0  0  0  0
   -6.4443   -7.8558    3.3110 C   0  0  0  0  0  0  0  0  0  0  0  0
   -5.2949   -8.5707    3.5982 C   0  0  0  0  0  0  0  0  0  0  0  0
   -4.2471   -8.5814    2.7418 C   0  0  0  0  0  0  0  0  0  0  0  0
   -3.0293   -9.3728    3.0983 C   0  0  0  0  0  0  0  0  0  0  0  0
   -4.3051   -7.8830    1.5757 C   0  0  0  0  0  0  0  0  0  0  0  0
   -3.1410   -7.8948    0.6393 C   0  0  0  0  0  0  0  0  0  0  0  0
   -5.4126   -7.1679    1.2516 C   0  0  0  0  0  0  0  0  0  0  0  0
   -6.5197   -7.1242    2.0988 C   0  0  0  0  0  0  0  0  0  0  0  0
   -7.7015   -6.4052    1.8223 N   0  0  0  0  0  0  0  0  0  0  0  0
   -8.6873   -6.2586    2.8196 C   0  0  0  0  0  0  0  0  0  0  0  0
   -8.1513   -6.3070    0.3848 C   0  0  0  0  0  0  0  0  0  0  0  0
   -7.5987   -5.0998   -0.4322 C   0  0  1  0  0  0  0  0  0  0  0  0
   -6.2926   -5.3893   -0.9101 O   0  0  0  0  0  0  0  0  0  0  0  0
   -8.5469   -4.6462   -1.5677 C   0  0  1  0  0  0  0  0  0  0  0  0
   -8.3100   -5.4135   -2.7444 O   0  0  0  0  0  0  0  0  0  0  0  0
  -10.0620   -4.6243   -1.2487 C   0  0  1  0  0  0  0  0  0  0  0  0
  -10.2961   -3.6408   -0.2468 O   0  0  0  0  0  0  0  0  0  0  0  0
  -10.9328   -4.2950   -2.4820 C   0  0  0  0  0  0  0  0  0  0  0  0
  -10.4151   -3.2063   -3.2376 O   0  0  0  0  0  0  0  0  0  0  0  0
  -10.9586   -2.8281   -4.6774 P   0  0  0  0  0  0  0  0  0  0  0  0
  -10.7112   -1.3995   -4.9773 O   0  0  0  0  0  0  0  0  0  0  0  0
  -10.5476   -3.8419   -5.6726 O   0  5  0  0  0  0  0  0  0  0  0  0
  -12.5382   -2.9642   -4.5322 O   0  5  0  0  0  0  0  0  0  0  0  0
  1 18  1  0  0  0  0
  1  2  1  0  0  0  0
  2  4  1  0  0  0  0
  2  3  2  0  0  0  0
  4  5  1  0  0  0  0
  5  7  1  0  0  0  0
  5  6  2  0  0  0  0
  7 18  2  0  0  0  0
  7  8  1  0  0  0  0
  8  9  1  0  0  0  0
  9 10  2  0  0  0  0
  9 16  1  0  0  0  0
 10 11  1  0  0  0  0
 11 12  1  0  0  0  0
 11 13  2  0  0  0  0
 13 14  1  0  0  0  0
 13 15  1  0  0  0  0
 15 16  2  0  0  0  0
 16 17  1  0  0  0  0
 17 19  1  0  0  0  0
 17 18  1  0  0  0  0
 20 19  1  6  0  0  0
 20 22  1  0  0  0  0
 20 21  1  0  0  0  0
 22 24  1  0  0  0  0
 22 23  1  6  0  0  0
 24 26  1  6  0  0  0
 24 25  1  0  0  0  0
 26 27  1  0  0  0  0
 27 28  1  0  0  0  0
 28 30  1  0  0  0  0
 28 29  2  0  0  0  0
 28 31  1  0  0  0  0
M  CHG  2  30  -1  31  -1
M  END
>  <CHROM.1>
-89.42367414,81.81512029,-85.88758287,60.01872817,65.11168254,-63.68468116
-44.83088285,-44.21951481,168.81432111,155.25512308,-8.50885998,-5.63988578
0.44063436,1.07125580,-0.43216293,1.89040942

>  <Name>
1fmn_cryst

>  <RI>
0

>  <Rbt.Current_Directory>
/home/itssahil/PROJECTS/Mol_Feturizer/New_Systems/rnas/1fmn

>  <Rbt.Executable>
rbdock ($Id: //depot/dev/client3/rdock/2013.1/src/exe/rbdock.cxx#4 $)

>  <Rbt.Library>
libRbt.so (2013.1, Build901 2013/11/27)

>  <Rbt.Parameter_File>
/export/apps/rDock/src/rDock_2013.1_src/data/scripts/dock_solv.prm

>  <Rbt.Receptor>
prm/pocket_docking_3.prm

>  <SCORE>
-44.3355

>  <SCORE.INTER>
-41.306

>  <SCORE.INTER.CONST>
1

>  <SCORE.INTER.POLAR>
-2.15748

>  <SCORE.INTER.ROT>
7

>  <SCORE.INTER.SOLV>
23.8679

>  <SCORE.INTER.VDW>
-36.5683

>  <SCORE.INTER.norm>
-1.33245

>  <SCORE.INTRA>
-3.11556

>  <SCORE.INTRA.DIHEDRAL>
-6.24301

>  <SCORE.INTRA.DIHEDRAL.0>
15.5708

>  <SCORE.INTRA.POLAR>
0.0677885

>  <SCORE.INTRA.POLAR.0>
-0.0677885

>  <SCORE.INTRA.REPUL>
0

>  <SCORE.INTRA.REPUL.0>
0

>  <SCORE.INTRA.SOLV>
-3.1795

>  <SCORE.INTRA.SOLV.lig_0>
-87.6316

>  <SCORE.INTRA.VDW>
1.36521

>  <SCORE.INTRA.VDW.0>
-2.87309

>  <SCORE.INTRA.norm>
-0.100502

>  <SCORE.RESTR>
0.0860724

>  <SCORE.RESTR.CAVITY>
0.0860724

>  <SCORE.RESTR.norm>
0.00277653

>  <SCORE.SYSTEM>
0

>  <SCORE.SYSTEM.CONST>
0

>  <SCORE.SYSTEM.DIHEDRAL>
0

>  <SCORE.SYSTEM.SOLV>
0

>  <SCORE.SYSTEM.norm>
0

>  <SCORE.heavy>
31

>  <SCORE.norm>
-1.43018

>  <SYMMETRIC_BONDS>
33 34 3

>  <RMSD>
7.878

$$$$
1fmn_cryst
 OpenBabel11021811393D
libRbt.so/2013.1/901 2013/11/27
 31 33  0  0  0  0  0  0  0  0999 V2000
   -9.8454   -5.2331    2.2397 N   0  0  0  0  0  0  0  0  0  0  0  0
  -10.8849   -4.8924    3.0734 C   0  0  0  0  0  0  0  0  0  0  0  0
  -11.7497   -4.0814    2.7404 O   0  0  0  0  0  0  0  0  0  0  0  0
  -10.8942   -5.5294    4.3397 N   0  0  0  0  0  0  0  0  0  0  0  0
   -9.9522   -6.4649    4.8209 C   0  0  0  0  0  0  0  0  0  0  0  0
  -10.0823   -6.9475    5.9530 O   0  0  0  0  0  0  0  0  0  0  0  0
   -8.8773   -6.7736    3.8752 C   0  0  0  0  0  0  0  0  0  0  0  0
   -7.9198   -7.6756    4.2673 N   0  0  0  0  0  0  0  0  0  0  0  0
   -6.8274   -7.8248    3.4629 C   0  0  0  0  0  0  0  0  0  0  0  0
   -5.7754   -8.5882    3.9370 C   0  0  0  0  0  0  0  0  0  0  0  0
   -4.6609   -8.7795    3.1936 C   0  0  0  0  0  0  0  0  0  0  0  0
   -3.5537   -9.6160    3.7512 C   0  0  0  0  0  0  0  0  0  0  0  0
   -4.5539   -8.2190    1.9585 C   0  0  0  0  0  0  0  0  0  0  0  0
   -3.3170   -8.4297    1.1473 C   0  0  0  0  0  0  0  0  0  0  0  0
   -5.5611   -7.4629    1.4519 C   0  0  0  0  0  0  0  0  0  0  0  0
   -6.7307   -7.2354    2.1770 C   0  0  0  0  0  0  0  0  0  0  0  0
   -7.8156   -6.4642    1.7098 N   0  0  0  0  0  0  0  0  0  0  0  0
   -8.8690   -6.1268    2.5841 C   0  0  0  0  0  0  0  0  0  0  0  0
   -8.1260   -6.4992    0.2330 C   0  0  0  0  0  0  0  0  0  0  0  0
   -7.4741   -5.3826   -0.6378 C   0  0  1  0  0  0  0  0  0  0  0  0
   -6.0645   -5.5535   -0.6777 O   0  0  0  0  0  0  0  0  0  0  0  0
   -8.0882   -5.2766   -2.0540 C   0  0  1  0  0  0  0  0  0  0  0  0
   -9.2458   -4.4467   -2.0291 O   0  0  0  0  0  0  0  0  0  0  0  0
   -7.1431   -4.8290   -3.1961 C   0  0  1  0  0  0  0  0  0  0  0  0
   -6.2625   -5.9055   -3.4985 O   0  0  0  0  0  0  0  0  0  0  0  0
   -7.8998   -4.4289   -4.4825 C   0  0  0  0  0  0  0  0  0  0  0  0
   -7.0243   -3.9838   -5.5118 O   0  0  0  0  0  0  0  0  0  0  0  0
   -7.5361   -3.5793   -6.9560 P   0  0  0  0  0  0  0  0  0  0  0  0
   -6.4278   -3.0441   -7.7789 O   0  0  0  0  0  0  0  0  0  0  0  0
   -8.3890   -4.6455   -7.5243 O   0  5  0  0  0  0  0  0  0  0  0  0
   -8.4982   -2.3407   -6.6821 O   0  5  0  0  0  0  0  0  0  0  0  0
  1 18  1  0  0  0  0
  1  2  1  0  0  0  0
  2  4  1  0  0  0  0
  2  3  2  0  0  0  0
  4  5  1  0  0  0  0
  5  7  1  0  0  0  0
  5  6  2  0  0  0  0
  7 18  2  0  0  0  0
  7  8  1  0  0  0  0
  8  9  1  0  0  0  0
  9 10  2  0  0  0  0
  9 16  1  0  0  0  0
 10 11  1  0  0  0  0
 11 12  1  0  0  0  0
 11 13  2  0  0  0  0
 13 14  1  0  0  0  0
 13 15  1  0  0  0  0
 15 16  2  0  0  0  0
 16 17  1  0  0  0  0
 17 19  1  0  0  0  0
 17 18  1  0  0  0  0
 20 19  1  6  0  0  0
 20 22  1  0  0  0  0
 20 21  1  0  0  0  0
 22 24  1  0  0  0  0
 22 23  1  1  0  0  0
 24 26  1  6  0  0  0
 24 25  1  0  0  0  0
 26 27  1  0  0  0  0
 27 28  1  0  0  0  0
 28 30  1  0  0  0  0
 28 29  2  0  0  0  0
 28 31  1  0  0  0  0
M  CHG  2  30  -1  31  -1
M  END
>  <CHROM.1>
-93.38074642,67.15057742,85.41979051,-70.17077745,73.11731977,-60.87862829
178.33821384,-42.17693199,177.04909544,175.00053242,-7.63421579,-5.83220066
-0.26855858,1.59815512,-0.49000566,1.91329698

>  <Name>
1fmn_cryst

>  <RI>
0

>  <Rbt.Current_Directory>
/home/itssahil/PROJECTS/Mol_Feturizer/New_Systems/rnas/1fmn

>  <Rbt.Executable>
rbdock ($Id: //depot/dev/client3/rdock/2013.1/src/exe/rbdock.cxx#4 $)

>  <Rbt.Library>
libRbt.so (2013.1, Build901 2013/11/27)

>  <Rbt.Parameter_File>
/export/apps/rDock/src/rDock_2013.1_src/data/scripts/dock_solv.prm

>  <Rbt.Receptor>
prm/pocket_docking_5.prm

>  <SCORE>
-50.9156

>  <SCORE.INTER>
-44.1277

>  <SCORE.INTER.CONST>
1

>  <SCORE.INTER.POLAR>
-2.0345

>  <SCORE.INTER.ROT>
7

>  <SCORE.INTER.SOLV>
21.4504

>  <SCORE.INTER.VDW>
-38.0536

>  <SCORE.INTER.norm>
-1.42348

>  <SCORE.INTRA>
-7.08884

>  <SCORE.INTRA.DIHEDRAL>
-8.20521

>  <SCORE.INTRA.DIHEDRAL.0>
15.5708

>  <SCORE.INTRA.POLAR>
-0.509742

>  <SCORE.INTRA.POLAR.0>
-0.0677885

>  <SCORE.INTRA.REPUL>
0

>  <SCORE.INTRA.REPUL.0>
0

>  <SCORE.INTRA.SOLV>
-4.56046

>  <SCORE.INTRA.SOLV.lig_0>
-87.6316

>  <SCORE.INTRA.VDW>
1.02712

>  <SCORE.INTRA.VDW.0>
-2.87309

>  <SCORE.INTRA.norm>
-0.228672

>  <SCORE.RESTR>
0.300989

>  <SCORE.RESTR.CAVITY>
0.300989

>  <SCORE.RESTR.norm>
0.00970932

>  <SCORE.SYSTEM>
0

>  <SCORE.SYSTEM.CONST>
0

>  <SCORE.SYSTEM.DIHEDRAL>
0

>  <SCORE.SYSTEM.SOLV>
0

>  <SCORE.SYSTEM.norm>
0

>  <SCORE.heavy>
31

>  <SCORE.norm>
-1.64244

>  <SYMMETRIC_BONDS>
33 34 3

>  <RMSD>
7.881

$$$$
1fmn_cryst
 OpenBabel11021811393D
libRbt.so/2013.1/901 2013/11/27
 31 33  0  0  0  0  0  0  0  0999 V2000
  -10.1564   -4.9789    3.3664 N   0  0  0  0  0  0  0  0  0  0  0  0
   -9.8198   -5.5775    4.5580 C   0  0  0  0  0  0  0  0  0  0  0  0
  -10.3766   -5.2835    5.6163 O   0  0  0  0  0  0  0  0  0  0  0  0
   -8.7897   -6.5490    4.4910 N   0  0  0  0  0  0  0  0  0  0  0  0
   -8.0853   -6.9540    3.3360 C   0  0  0  0  0  0  0  0  0  0  0  0
   -7.2051   -7.8197    3.4199 O   0  0  0  0  0  0  0  0  0  0  0  0
   -8.5015   -6.2699    2.1096 C   0  0  0  0  0  0  0  0  0  0  0  0
   -7.8648   -6.6075    0.9414 N   0  0  0  0  0  0  0  0  0  0  0  0
   -8.1249   -5.8461   -0.1609 C   0  0  0  0  0  0  0  0  0  0  0  0
   -7.3543   -6.0594   -1.2901 C   0  0  0  0  0  0  0  0  0  0  0  0
   -7.5567   -5.3417   -2.4194 C   0  0  0  0  0  0  0  0  0  0  0  0
   -6.6983   -5.6138   -3.6134 C   0  0  0  0  0  0  0  0  0  0  0  0
   -8.5274   -4.3895   -2.4640 C   0  0  0  0  0  0  0  0  0  0  0  0
   -8.7394   -3.5970   -3.7127 C   0  0  0  0  0  0  0  0  0  0  0  0
   -9.3083   -4.1460   -1.3807 C   0  0  0  0  0  0  0  0  0  0  0  0
   -9.1412   -4.8579   -0.1929 C   0  0  0  0  0  0  0  0  0  0  0  0
   -9.9188   -4.6582    0.9670 N   0  0  0  0  0  0  0  0  0  0  0  0
   -9.5527   -5.2821    2.1772 C   0  0  0  0  0  0  0  0  0  0  0  0
  -11.3714   -4.2874    0.7912 C   0  0  0  0  0  0  0  0  0  0  0  0
  -11.6699   -2.7906    0.4738 C   0  0  1  0  0  0  0  0  0  0  0  0
  -12.1604   -2.6601   -0.8529 O   0  0  0  0  0  0  0  0  0  0  0  0
  -12.6057   -2.1223    1.5090 C   0  0  1  0  0  0  0  0  0  0  0  0
  -12.3617   -2.6518    2.8089 O   0  0  0  0  0  0  0  0  0  0  0  0
  -12.6018   -0.5746    1.5610 C   0  0  1  0  0  0  0  0  0  0  0  0
  -12.6061   -0.0803    0.2262 O   0  0  0  0  0  0  0  0  0  0  0  0
  -13.8218    0.0063    2.3105 C   0  0  0  0  0  0  0  0  0  0  0  0
  -13.5467    1.2730    2.8967 O   0  0  0  0  0  0  0  0  0  0  0  0
  -12.9713    1.4305    4.3649 P   0  0  0  0  0  0  0  0  0  0  0  0
  -11.6098    0.8571    4.4633 O   0  0  0  0  0  0  0  0  0  0  0  0
  -13.2005    2.8012    4.8704 O   0  5  0  0  0  0  0  0  0  0  0  0
  -13.8986    0.4752    5.2380 O   0  5  0  0  0  0  0  0  0  0  0  0
  1 18  1  0  0  0  0
  1  2  1  0  0  0  0
  2  4  1  0  0  0  0
  2  3  2  0  0  0  0
  4  5  1  0  0  0  0
  5  7  1  0  0  0  0
  5  6  2  0  0  0  0
  7 18  2  0  0  0  0
  7  8  1  0  0  0  0
  8  9  1  0  0  0  0
  9 10  2  0  0  0  0
  9 16  1  0  0  0  0
 10 11  1  0  0  0  0
 11 12  1  0  0  0  0
 11 13  2  0  0  0  0
 13 14  1  0  0  0  0
 13 15  1  0  0  0  0
 15 16  2  0  0  0  0
 16 17  1  0  0  0  0
 17 19  1  0  0  0  0
 17 18  1  0  0  0  0
 20 19  1  1  0  0  0
 20 22  1  0  0  0  0
 20 21  1  0  0  0  0
 22 24  1  0  0  0  0
 22 23  1  1  0  0  0
 24 26  1  1  0  0  0
 24 25  1  0  0  0  0
 26 27  1  0  0  0  0
 27 28  1  0  0  0  0
 28 30  1  0  0  0  0
 28 29  2  0  0  0  0
 28 31  1  0  0  0  0
M  CHG  2  30  -1  31  -1
M  END
>  <CHROM.1>
-80.22580535,111.68011313,34.32240936,56.07474469,43.03953690,73.23002484
152.55909116,-51.67058812,-89.53110684,64.96547891,-10.53159478,-3.17048334
1.68890346,-0.21557754,-0.97831353,1.83364206

>  <Name>
1fmn_cryst

>  <RI>
0

>  <Rbt.Current_Directory>
/home/itssahil/PROJECTS/Mol_Feturizer/New_Systems/rnas/1fmn

>  <Rbt.Executable>
rbdock ($Id: //depot/dev/client3/rdock/2013.1/src/exe/rbdock.cxx#4 $)

>  <Rbt.Library>
libRbt.so (2013.1, Build901 2013/11/27)

>  <Rbt.Parameter_File>
/export/apps/rDock/src/rDock_2013.1_src/data/scripts/dock_solv.prm

>  <Rbt.Receptor>
prm/blind_docking_100.prm

>  <SCORE>
-31.1848

>  <SCORE.INTER>
-32.7647

>  <SCORE.INTER.CONST>
1

>  <SCORE.INTER.POLAR>
-2.52489

>  <SCORE.INTER.ROT>
7

>  <SCORE.INTER.SOLV>
32.1277

>  <SCORE.INTER.VDW>
-32.4027

>  <SCORE.INTER.norm>
-1.05693

>  <SCORE.INTRA>
-1.10924

>  <SCORE.INTRA.DIHEDRAL>
1.9061

>  <SCORE.INTRA.DIHEDRAL.0>
15.5708

>  <SCORE.INTRA.POLAR>
-0.570232

>  <SCORE.INTRA.POLAR.0>
-0.0677885

>  <SCORE.INTRA.REPUL>
0

>  <SCORE.INTRA.REPUL.0>
0

>  <SCORE.INTRA.SOLV>
-1.86366

>  <SCORE.INTRA.SOLV.lig_0>
-87.6316

>  <SCORE.INTRA.VDW>
0.808331

>  <SCORE.INTRA.VDW.0>
-2.87309

>  <SCORE.INTRA.norm>
-0.0357819

>  <SCORE.RESTR>
2.68912

>  <SCORE.RESTR.CAVITY>
2.68912

>  <SCORE.RESTR.norm>
0.0867456

>  <SCORE.SYSTEM>
0

>  <SCORE.SYSTEM.CONST>
0

>  <SCORE.SYSTEM.DIHEDRAL>
0

>  <SCORE.SYSTEM.SOLV>
0

>  <SCORE.SYSTEM.norm>
0

>  <SCORE.heavy>
31

>  <SCORE.norm>
-1.00596

>  <SYMMETRIC_BONDS>
33 34 3

>  <RMSD>
7.886

$$$$
1fmn_cryst
 OpenBabel11021811393D
libRbt.so/2013.1/901 2013/11/27
 31 33  0  0  0  0  0  0  0  0999 V2000
   -4.1343  -10.5475    0.7614 N   0  0  0  0  0  0  0  0  0  0  0  0
   -3.1200  -11.4647    0.6152 C   0  0  0  0  0  0  0  0  0  0  0  0
   -2.8480  -11.9688   -0.4750 O   0  0  0  0  0  0  0  0  0  0  0  0
   -2.4124  -11.7958    1.7980 N   0  0  0  0  0  0  0  0  0  0  0  0
   -2.6464  -11.2833    3.0929 C   0  0  0  0  0  0  0  0  0  0  0  0
   -1.9480  -11.6596    4.0427 O   0  0  0  0  0  0  0  0  0  0  0  0
   -3.7422  -10.3142    3.1649 C   0  0  0  0  0  0  0  0  0  0  0  0
   -4.0335   -9.7681    4.3901 N   0  0  0  0  0  0  0  0  0  0  0  0
   -5.1630   -9.0084    4.4889 C   0  0  0  0  0  0  0  0  0  0  0  0
   -5.5644   -8.6086    5.7512 C   0  0  0  0  0  0  0  0  0  0  0  0
   -6.6740   -7.8535    5.9246 C   0  0  0  0  0  0  0  0  0  0  0  0
   -7.0624   -7.4454    7.3099 C   0  0  0  0  0  0  0  0  0  0  0  0
   -7.4208   -7.4729    4.8530 C   0  0  0  0  0  0  0  0  0  0  0  0
   -8.6481   -6.6451    5.0541 C   0  0  0  0  0  0  0  0  0  0  0  0
   -7.0651   -7.8410    3.5957 C   0  0  0  0  0  0  0  0  0  0  0  0
   -5.9307   -8.6183    3.3625 C   0  0  0  0  0  0  0  0  0  0  0  0
   -5.5028   -9.0324    2.0836 N   0  0  0  0  0  0  0  0  0  0  0  0
   -4.4614   -9.9748    1.9596 C   0  0  0  0  0  0  0  0  0  0  0  0
   -5.7302   -8.0953    0.9224 C   0  0  0  0  0  0  0  0  0  0  0  0
   -4.8576   -6.8039    0.8942 C   0  0  1  0  0  0  0  0  0  0  0  0
   -4.0174   -6.8059   -0.2512 O   0  0  0  0  0  0  0  0  0  0  0  0
   -5.6886   -5.5034    1.0044 C   0  0  1  0  0  0  0  0  0  0  0  0
   -4.8281   -4.3810    1.1759 O   0  0  0  0  0  0  0  0  0  0  0  0
   -6.7029   -5.2214   -0.1311 C   0  0  1  0  0  0  0  0  0  0  0  0
   -6.1450   -5.6825   -1.3567 O   0  0  0  0  0  0  0  0  0  0  0  0
   -8.0638   -5.9192    0.0896 C   0  0  0  0  0  0  0  0  0  0  0  0
   -9.1327   -4.9917    0.2358 O   0  0  0  0  0  0  0  0  0  0  0  0
   -9.9621   -4.8455    1.5782 P   0  0  0  0  0  0  0  0  0  0  0  0
  -11.0492   -5.8487    1.6398 O   0  0  0  0  0  0  0  0  0  0  0  0
   -9.0556   -4.7117    2.7390 O   0  5  0  0  0  0  0  0  0  0  0  0
  -10.6908   -3.4388    1.4202 O   0  5  0  0  0  0  0  0  0  0  0  0
  1 18  1  0  0  0  0
  1  2  1  0  0  0  0
  2  4  1  0  0  0  0
  2  3  2  0  0  0  0
  4  5  1  0  0  0  0
  5  7  1  0  0  0  0
  5  6  2  0  0  0  0
  7 18  2  0  0  0  0
  7  8  1  0  0  0  0
  8  9  1  0  0  0  0
  9 10  2  0  0  0  0
  9 16  1  0  0  0  0
 10 11  1  0  0  0  0
 11 12  1  0  0  0  0
 11 13  2  0  0  0  0
 13 14  1  0  0  0  0
 13 15  1  0  0  0  0
 15 16  2  0  0  0  0
 16 17  1  0  0  0  0
 17 19  1  0  0  0  0
 17 18  1  0  0  0  0
 20 19  1  6  0  0  0
 20 22  1  0  0  0  0
 20 21  1  0  0  0  0
 22 24  1  0  0  0  0
 22 23  1  6  0  0  0
 24 26  1  1  0  0  0
 24 25  1  0  0  0  0
 26 27  1  0  0  0  0
 27 28  1  0  0  0  0
 28 30  1  0  0  0  0
 28 29  2  0  0  0  0
 28 31  1  0  0  0  0
M  CHG  2  30  -1  31  -1
M  END
>  <CHROM.1>
70.40387906,116.65825735,171.24656295,54.20490207,-35.70981619,171.81952379
117.01071245,-179.91557299,-115.42378189,-84.25001682,-6.14627545,-7.64929124
2.19491048,-0.33242475,0.73069661,-1.23374918

>  <Name>
1fmn_cryst

>  <RI>
0

>  <Rbt.Current_Directory>
/home/itssahil/PROJECTS/Mol_Feturizer/New_Systems/rnas/1fmn

>  <Rbt.Executable>
rbdock ($Id: //depot/dev/client3/rdock/2013.1/src/exe/rbdock.cxx#4 $)

>  <Rbt.Library>
libRbt.so (2013.1, Build901 2013/11/27)

>  <Rbt.Parameter_File>
/export/apps/rDock/src/rDock_2013.1_src/data/scripts/dock_solv.prm

>  <Rbt.Receptor>
prm/pocket_docking_8.prm

>  <SCORE>
-36.5425

>  <SCORE.INTER>
-37.8816

>  <SCORE.INTER.CONST>
1

>  <SCORE.INTER.POLAR>
-3.93932

>  <SCORE.INTER.ROT>
7

>  <SCORE.INTER.SOLV>
35.1482

>  <SCORE.INTER.VDW>
-32.106

>  <SCORE.INTER.norm>
-1.22199

>  <SCORE.INTRA>
1.33905

>  <SCORE.INTRA.DIHEDRAL>
6.22818

>  <SCORE.INTRA.DIHEDRAL.0>
15.5708

>  <SCORE.INTRA.POLAR>
-0.304616

>  <SCORE.INTRA.POLAR.0>
-0.0677885

>  <SCORE.INTRA.REPUL>
0

>  <SCORE.INTRA.REPUL.0>
0

>  <SCORE.INTRA.SOLV>
-1.07146

>  <SCORE.INTRA.SOLV.lig_0>
-87.6316

>  <SCORE.INTRA.VDW>
-0.203616

>  <SCORE.INTRA.VDW.0>
-2.87309

>  <SCORE.INTRA.norm>
0.0431951

>  <SCORE.RESTR>
0

>  <SCORE.RESTR.CAVITY>
0

>  <SCORE.RESTR.norm>
0

>  <SCORE.SYSTEM>
0

>  <SCORE.SYSTEM.CONST>
0

>  <SCORE.SYSTEM.DIHEDRAL>
0

>  <SCORE.SYSTEM.SOLV>
0

>  <SCORE.SYSTEM.norm>
0

>  <SCORE.heavy>
31

>  <SCORE.norm>
-1.17879

>  <SYMMETRIC_BONDS>
33 34 3

>  <RMSD>
7.894

$$$$
1fmn_cryst
 OpenBabel11021811393D
libRbt.so/2013.1/901 2013/11/27
 31 33  0  0  0  0  0  0  0  0999 V2000
   -9.3109   -4.8563    1.1732 N   0  0  0  0  0  0  0  0  0  0  0  0
   -8.7746   -5.3785    2.3270 C   0  0  0  0  0  0  0  0  0  0  0  0
   -9.3020   -5.2091    3.4268 O   0  0  0  0  0  0  0  0  0  0  0  0
   -7.5757   -6.1184    2.1701 N   0  0  0  0  0  0  0  0  0  0  0  0
   -6.8886   -6.3658    0.9615 C   0  0  0  0  0  0  0  0  0  0  0  0
   -5.8467   -7.0335    0.9676 O   0  0  0  0  0  0  0  0  0  0  0  0
   -7.5225   -5.7761   -0.2198 C   0  0  0  0  0  0  0  0  0  0  0  0
   -6.9161   -5.9713   -1.4357 N   0  0  0  0  0  0  0  0  0  0  0  0
   -7.4046   -5.2745   -2.5026 C   0  0  0  0  0  0  0  0  0  0  0  0
   -6.6900   -5.3209   -3.6865 C   0  0  0  0  0  0  0  0  0  0  0  0
   -7.1150   -4.6549   -4.7852 C   0  0  0  0  0  0  0  0  0  0  0  0
   -6.3074   -4.7405   -6.0410 C   0  0  0  0  0  0  0  0  0  0  0  0
   -8.2600   -3.9212   -4.7442 C   0  0  0  0  0  0  0  0  0  0  0  0
   -8.7183   -3.1835   -5.9599 C   0  0  0  0  0  0  0  0  0  0  0  0
   -8.9942   -3.8472   -3.6048 C   0  0  0  0  0  0  0  0  0  0  0  0
   -8.6005   -4.5149   -2.4452 C   0  0  0  0  0  0  0  0  0  0  0  0
   -9.3170   -4.4836   -1.2305 N   0  0  0  0  0  0  0  0  0  0  0  0
   -8.7453   -5.0245   -0.0606 C   0  0  0  0  0  0  0  0  0  0  0  0
  -10.8234   -4.4170   -1.2977 C   0  0  0  0  0  0  0  0  0  0  0  0
  -11.4612   -3.0032   -1.1409 C   0  0  1  0  0  0  0  0  0  0  0  0
  -12.2561   -2.6961   -2.2775 O   0  0  0  0  0  0  0  0  0  0  0  0
  -12.2453   -2.8309    0.1818 C   0  0  1  0  0  0  0  0  0  0  0  0
  -11.6333   -3.5896    1.2207 O   0  0  0  0  0  0  0  0  0  0  0  0
  -12.4949   -1.3810    0.6648 C   0  0  1  0  0  0  0  0  0  0  0  0
  -13.4506   -0.7774   -0.2002 O   0  0  0  0  0  0  0  0  0  0  0  0
  -13.0231   -1.3115    2.1153 C   0  0  0  0  0  0  0  0  0  0  0  0
  -12.3853   -0.2937    2.8778 O   0  0  0  0  0  0  0  0  0  0  0  0
  -12.0213    1.1263    2.2757 P   0  0  0  0  0  0  0  0  0  0  0  0
  -10.6824    1.1051    1.6439 O   0  0  0  0  0  0  0  0  0  0  0  0
  -13.1590    1.6731    1.5054 O   0  5  0  0  0  0  0  0  0  0  0  0
  -11.8697    2.0535    3.5610 O   0  5  0  0  0  0  0  0  0  0  0  0
  1 18  1  0  0  0  0
  1  2  1  0  0  0  0
  2  4  1  0  0  0  0
  2  3  2  0  0  0  0
  4  5  1  0  0  0  0
  5  7  1  0  0  0  0
  5  6  2  0  0  0  0
  7 18  2  0  0  0  0
  7  8  1  0  0  0  0
  8  9  1  0  0  0  0
  9 10  2  0  0  0  0
  9 16  1  0  0  0  0
 10 11  1  0  0  0  0
 11 12  1  0  0  0  0
 11 13  2  0  0  0  0
 13 14  1  0  0  0  0
 13 15  1  0  0  0  0
 15 16  2  0  0  0  0
 16 17  1  0  0  0  0
 17 19  1  0  0  0  0
 17 18  1  0  0  0  0
 20 19  1  6  0  0  0
 20 22  1  0  0  0  0
 20 21  1  0  0  0  0
 22 24  1  0  0  0  0
 22 23  1  1  0  0  0
 24 26  1  1  0  0  0
 24 25  1  0  0  0  0
 26 27  1  0  0  0  0
 27 28  1  0  0  0  0
 28 30  1  0  0  0  0
 28 29  2  0  0  0  0
 28 31  1  0  0  0  0
M  CHG  2  30  -1  31  -1
M  END
>  <CHROM.1>
-97.71618000,122.39959696,33.12364217,41.94809150,71.04040335,111.50498579
136.35541158,-177.09777426,39.35178472,-88.07127613,-9.86829610,-3.13286112
-0.26241706,-0.44065574,-0.89268202,1.71832730

>  <Name>
1fmn_cryst

>  <RI>
0

>  <Rbt.Current_Directory>
/home/itssahil/PROJECTS/Mol_Feturizer/New_Systems/rnas/1fmn

>  <Rbt.Executable>
rbdock ($Id: //depot/dev/client3/rdock/2013.1/src/exe/rbdock.cxx#4 $)

>  <Rbt.Library>
libRbt.so (2013.1, Build901 2013/11/27)

>  <Rbt.Parameter_File>
/export/apps/rDock/src/rDock_2013.1_src/data/scripts/dock_solv.prm

>  <Rbt.Receptor>
prm/blind_docking_100.prm

>  <SCORE>
-28.3521

>  <SCORE.INTER>
-36.3339

>  <SCORE.INTER.CONST>
1

>  <SCORE.INTER.POLAR>
-1.96941

>  <SCORE.INTER.ROT>
7

>  <SCORE.INTER.SOLV>
26.7191

>  <SCORE.INTER.VDW>
-34.831

>  <SCORE.INTER.norm>
-1.17206

>  <SCORE.INTRA>
2.50682

>  <SCORE.INTRA.DIHEDRAL>
9.45904

>  <SCORE.INTRA.DIHEDRAL.0>
15.5708

>  <SCORE.INTRA.POLAR>
-1.6536

>  <SCORE.INTRA.POLAR.0>
-0.0677885

>  <SCORE.INTRA.REPUL>
0

>  <SCORE.INTRA.REPUL.0>
0

>  <SCORE.INTRA.SOLV>
1.21094

>  <SCORE.INTRA.SOLV.lig_0>
-87.6316

>  <SCORE.INTRA.VDW>
2.79406

>  <SCORE.INTRA.VDW.0>
-2.87309

>  <SCORE.INTRA.norm>
0.080865

>  <SCORE.RESTR>
5.47502

>  <SCORE.RESTR.CAVITY>
5.47502

>  <SCORE.RESTR.norm>
0.176613

>  <SCORE.SYSTEM>
0

>  <SCORE.SYSTEM.CONST>
0

>  <SCORE.SYSTEM.DIHEDRAL>
0

>  <SCORE.SYSTEM.SOLV>
0

>  <SCORE.SYSTEM.norm>
0

>  <SCORE.heavy>
31

>  <SCORE.norm>
-0.914583

>  <SYMMETRIC_BONDS>
33 34 3

>  <RMSD>
7.943

$$$$
1fmn_cryst
 OpenBabel11021811393D
libRbt.so/2013.1/901 2013/11/27
 31 33  0  0  0  0  0  0  0  0999 V2000
  -11.8590   -2.6827    0.9693 N   0  0  0  0  0  0  0  0  0  0  0  0
  -12.8962   -1.8149    1.2198 C   0  0  0  0  0  0  0  0  0  0  0  0
  -13.2717   -0.9889    0.3872 O   0  0  0  0  0  0  0  0  0  0  0  0
  -13.5007   -1.9285    2.4970 N   0  0  0  0  0  0  0  0  0  0  0  0
  -13.1448   -2.8324    3.5219 C   0  0  0  0  0  0  0  0  0  0  0  0
  -13.7615   -2.8254    4.5947 O   0  0  0  0  0  0  0  0  0  0  0  0
  -12.0323   -3.7207    3.1778 C   0  0  0  0  0  0  0  0  0  0  0  0
  -11.6248   -4.6305    4.1215 N   0  0  0  0  0  0  0  0  0  0  0  0
  -10.4796   -5.3290    3.8703 C   0  0  0  0  0  0  0  0  0  0  0  0
   -9.9615   -6.1085    4.8893 C   0  0  0  0  0  0  0  0  0  0  0  0
   -8.8296   -6.8284    4.7112 C   0  0  0  0  0  0  0  0  0  0  0  0
   -8.3133   -7.6573    5.8438 C   0  0  0  0  0  0  0  0  0  0  0  0
   -8.1753   -6.7968    3.5187 C   0  0  0  0  0  0  0  0  0  0  0  0
   -6.9225   -7.5893    3.3330 C   0  0  0  0  0  0  0  0  0  0  0  0
   -8.6469   -6.0468    2.4902 C   0  0  0  0  0  0  0  0  0  0  0  0
   -9.8093   -5.2871    2.6216 C   0  0  0  0  0  0  0  0  0  0  0  0
  -10.3555   -4.4899    1.5939 N   0  0  0  0  0  0  0  0  0  0  0  0
  -11.4180   -3.6069    1.8759 C   0  0  0  0  0  0  0  0  0  0  0  0
  -10.2180   -4.9754    0.1713 C   0  0  0  0  0  0  0  0  0  0  0  0
   -8.7799   -4.9568   -0.4301 C   0  0  1  0  0  0  0  0  0  0  0  0
   -8.0718   -6.1254   -0.0413 O   0  0  0  0  0  0  0  0  0  0  0  0
   -8.7623   -4.7483   -1.9632 C   0  0  1  0  0  0  0  0  0  0  0  0
   -9.5463   -3.6123   -2.3157 O   0  0  0  0  0  0  0  0  0  0  0  0
   -7.3736   -4.6619   -2.6428 C   0  0  1  0  0  0  0  0  0  0  0  0
   -6.6094   -5.7964   -2.2494 O   0  0  0  0  0  0  0  0  0  0  0  0
   -7.4586   -4.6300   -4.1854 C   0  0  0  0  0  0  0  0  0  0  0  0
   -7.8633   -3.3594   -4.6812 O   0  0  0  0  0  0  0  0  0  0  0  0
   -8.1271   -3.0848   -6.2194 P   0  0  0  0  0  0  0  0  0  0  0  0
   -6.9597   -3.4875   -7.0362 O   0  0  0  0  0  0  0  0  0  0  0  0
   -9.4676   -3.5697   -6.6131 O   0  5  0  0  0  0  0  0  0  0  0  0
   -8.1845   -1.4966   -6.3147 O   0  5  0  0  0  0  0  0  0  0  0  0
  1 18  1  0  0  0  0
  1  2  1  0  0  0  0
  2  4  1  0  0  0  0
  2  3  2  0  0  0  0
  4  5  1  0  0  0  0
  5  7  1  0  0  0  0
  5  6  2  0  0  0  0
  7 18  2  0  0  0  0
  7  8  1  0  0  0  0
  8  9  1  0  0  0  0
  9 10  2  0  0  0  0
  9 16  1  0  0  0  0
 10 11  1  0  0  0  0
 11 12  1  0  0  0  0
 11 13  2  0  0  0  0
 13 14  1  0  0  0  0
 13 15  1  0  0  0  0
 15 16  2  0  0  0  0
 16 17  1  0  0  0  0
 17 19  1  0  0  0  0
 17 18  1  0  0  0  0
 20 19  1  6  0  0  0
 20 22  1  0  0  0  0
 20 21  1  0  0  0  0
 22 24  1  0  0  0  0
 22 23  1  1  0  0  0
 24 26  1  6  0  0  0
 24 25  1  0  0  0  0
 26 27  1  0  0  0  0
 27 28  1  0  0  0  0
 28 30  1  0  0  0  0
 28 29  2  0  0  0  0
 28 31  1  0  0  0  0
M  CHG  2  30  -1  31  -1
M  END
>  <CHROM.1>
-69.44367545,83.11743443,51.27020724,61.59314853,52.24591295,-62.60781445
76.32137123,-58.43991667,-175.62145604,-53.46207557,-9.65145994,-4.28987320
-0.09120036,1.94304616,-0.66484804,1.96245791

>  <Name>
1fmn_cryst

>  <RI>
0

>  <Rbt.Current_Directory>
/home/itssahil/PROJECTS/Mol_Feturizer/New_Systems/rnas/1fmn

>  <Rbt.Executable>
rbdock ($Id: //depot/dev/client3/rdock/2013.1/src/exe/rbdock.cxx#4 $)

>  <Rbt.Library>
libRbt.so (2013.1, Build901 2013/11/27)

>  <Rbt.Parameter_File>
/export/apps/rDock/src/rDock_2013.1_src/data/scripts/dock_solv.prm

>  <Rbt.Receptor>
prm/blind_docking_80.prm

>  <SCORE>
-54.3995

>  <SCORE.INTER>
-50.7744

>  <SCORE.INTER.CONST>
1

>  <SCORE.INTER.POLAR>
-2.80853

>  <SCORE.INTER.ROT>
7

>  <SCORE.INTER.SOLV>
23.6562

>  <SCORE.INTER.VDW>
-40.6399

>  <SCORE.INTER.norm>
-1.63788

>  <SCORE.INTRA>
-5.96563

>  <SCORE.INTRA.DIHEDRAL>
-10.059

>  <SCORE.INTRA.DIHEDRAL.0>
15.5708

>  <SCORE.INTRA.POLAR>
-0.234329

>  <SCORE.INTRA.POLAR.0>
-0.0677885

>  <SCORE.INTRA.REPUL>
0

>  <SCORE.INTRA.REPUL.0>
0

>  <SCORE.INTRA.SOLV>
-4.1023

>  <SCORE.INTRA.SOLV.lig_0>
-87.6316

>  <SCORE.INTRA.VDW>
1.91174

>  <SCORE.INTRA.VDW.0>
-2.87309

>  <SCORE.INTRA.norm>
-0.19244

>  <SCORE.RESTR>
2.34053

>  <SCORE.RESTR.CAVITY>
2.34053

>  <SCORE.RESTR.norm>
0.075501

>  <SCORE.SYSTEM>
0

>  <SCORE.SYSTEM.CONST>
0

>  <SCORE.SYSTEM.DIHEDRAL>
0

>  <SCORE.SYSTEM.SOLV>
0

>  <SCORE.SYSTEM.norm>
0

>  <SCORE.heavy>
31

>  <SCORE.norm>
-1.75482

>  <SYMMETRIC_BONDS>
33 34 3

>  <RMSD>
7.958

$$$$
1fmn_cryst
 OpenBabel11021811393D
libRbt.so/2013.1/901 2013/11/27
 31 33  0  0  0  0  0  0  0  0999 V2000
  -12.2007   -2.2776    0.4879 N   0  0  0  0  0  0  0  0  0  0  0  0
  -13.1889   -1.4362    0.9430 C   0  0  0  0  0  0  0  0  0  0  0  0
  -13.6919   -0.5716    0.2248 O   0  0  0  0  0  0  0  0  0  0  0  0
  -13.5869   -1.6242    2.2905 N   0  0  0  0  0  0  0  0  0  0  0  0
  -13.0729   -2.5770    3.1973 C   0  0  0  0  0  0  0  0  0  0  0  0
  -13.5151   -2.6338    4.3516 O   0  0  0  0  0  0  0  0  0  0  0  0
  -12.0249   -3.4331    2.6370 C   0  0  0  0  0  0  0  0  0  0  0  0
  -11.4727   -4.3868    3.4554 N   0  0  0  0  0  0  0  0  0  0  0  0
  -10.3784   -5.0579    2.9919 C   0  0  0  0  0  0  0  0  0  0  0  0
   -9.7057   -5.8843    3.8744 C   0  0  0  0  0  0  0  0  0  0  0  0
   -8.6131   -6.5808    3.4840 C   0  0  0  0  0  0  0  0  0  0  0  0
   -7.9243   -7.4626    4.4762 C   0  0  0  0  0  0  0  0  0  0  0  0
   -8.1525   -6.4786    2.2078 C   0  0  0  0  0  0  0  0  0  0  0  0
   -6.9415   -7.2458    1.7872 C   0  0  0  0  0  0  0  0  0  0  0  0
   -8.7808   -5.6806    1.3071 C   0  0  0  0  0  0  0  0  0  0  0  0
   -9.9109   -4.9423    1.6584 C   0  0  0  0  0  0  0  0  0  0  0  0
  -10.6128   -4.0980    0.7727 N   0  0  0  0  0  0  0  0  0  0  0  0
  -11.6211   -3.2434    1.2636 C   0  0  0  0  0  0  0  0  0  0  0  0
  -10.6970   -4.5058   -0.6782 C   0  0  0  0  0  0  0  0  0  0  0  0
   -9.5120   -4.0656   -1.5905 C   0  0  1  0  0  0  0  0  0  0  0  0
   -8.3013   -4.6554   -1.1387 O   0  0  0  0  0  0  0  0  0  0  0  0
   -9.7659   -4.3351   -3.0928 C   0  0  1  0  0  0  0  0  0  0  0  0
  -11.0047   -3.7581   -3.4952 O   0  0  0  0  0  0  0  0  0  0  0  0
   -8.6460   -3.9197   -4.0784 C   0  0  1  0  0  0  0  0  0  0  0  0
   -7.4529   -4.6074   -3.7185 O   0  0  0  0  0  0  0  0  0  0  0  0
   -8.9854   -4.2488   -5.5495 C   0  0  0  0  0  0  0  0  0  0  0  0
   -7.9211   -3.9282   -6.4375 O   0  0  0  0  0  0  0  0  0  0  0  0
   -6.6583   -4.8652   -6.6343 P   0  0  0  0  0  0  0  0  0  0  0  0
   -6.6903   -6.0017   -5.6859 O   0  0  0  0  0  0  0  0  0  0  0  0
   -6.4365   -5.1466   -8.0691 O   0  5  0  0  0  0  0  0  0  0  0  0
   -5.4376   -3.9563   -6.1669 O   0  5  0  0  0  0  0  0  0  0  0  0
  1 18  1  0  0  0  0
  1  2  1  0  0  0  0
  2  4  1  0  0  0  0
  2  3  2  0  0  0  0
  4  5  1  0  0  0  0
  5  7  1  0  0  0  0
  5  6  2  0  0  0  0
  7 18  2  0  0  0  0
  7  8  1  0  0  0  0
  8  9  1  0  0  0  0
  9 10  2  0  0  0  0
  9 16  1  0  0  0  0
 10 11  1  0  0  0  0
 11 12  1  0  0  0  0
 11 13  2  0  0  0  0
 13 14  1  0  0  0  0
 13 15  1  0  0  0  0
 15 16  2  0  0  0  0
 16 17  1  0  0  0  0
 17 19  1  0  0  0  0
 17 18  1  0  0  0  0
 20 19  1  1  0  0  0
 20 22  1  0  0  0  0
 20 21  1  0  0  0  0
 22 24  1  0  0  0  0
 22 23  1  6  0  0  0
 24 26  1  6  0  0  0
 24 25  1  0  0  0  0
 26 27  1  0  0  0  0
 27 28  1  0  0  0  0
 28 30  1  0  0  0  0
 28 29  2  0  0  0  0
 28 31  1  0  0  0  0
M  CHG  2  30  -1  31  -1
M  END
>  <CHROM.1>
-86.36450711,62.07806668,53.07806725,175.06208889,58.52868639,-138.36824147
-176.87005483,76.15981260,79.83293426,-5.79202481,-9.59229854,-4.31874515
-0.90237529,2.17289145,-0.67365908,1.87731446

>  <Name>
1fmn_cryst

>  <RI>
0

>  <Rbt.Current_Directory>
/home/itssahil/PROJECTS/Mol_Feturizer/New_Systems/rnas/1fmn

>  <Rbt.Executable>
rbdock ($Id: //depot/dev/client3/rdock/2013.1/src/exe/rbdock.cxx#4 $)

>  <Rbt.Library>
libRbt.so (2013.1, Build901 2013/11/27)

>  <Rbt.Parameter_File>
/export/apps/rDock/src/rDock_2013.1_src/data/scripts/dock_solv.prm

>  <Rbt.Receptor>
prm/blind_docking_60.prm

>  <SCORE>
-34.7951

>  <SCORE.INTER>
-34.2704

>  <SCORE.INTER.CONST>
1

>  <SCORE.INTER.POLAR>
-0.601612

>  <SCORE.INTER.ROT>
7

>  <SCORE.INTER.SOLV>
27.4795

>  <SCORE.INTER.VDW>
-38.268

>  <SCORE.INTER.norm>
-1.1055

>  <SCORE.INTRA>
-1.98991

>  <SCORE.INTRA.DIHEDRAL>
-2.18719

>  <SCORE.INTRA.DIHEDRAL.0>
15.5708

>  <SCORE.INTRA.POLAR>
-0.855369

>  <SCORE.INTRA.POLAR.0>
-0.0677885

>  <SCORE.INTRA.REPUL>
0

>  <SCORE.INTRA.REPUL.0>
0

>  <SCORE.INTRA.SOLV>
0.927386

>  <SCORE.INTRA.SOLV.lig_0>
-87.6316

>  <SCORE.INTRA.VDW>
1.54825

>  <SCORE.INTRA.VDW.0>
-2.87309

>  <SCORE.INTRA.norm>
-0.0641906

>  <SCORE.RESTR>
1.46513

>  <SCORE.RESTR.CAVITY>
1.46513

>  <SCORE.RESTR.norm>
0.0472623

>  <SCORE.SYSTEM>
0

>  <SCORE.SYSTEM.CONST>
0

>  <SCORE.SYSTEM.DIHEDRAL>
0

>  <SCORE.SYSTEM.SOLV>
0

>  <SCORE.SYSTEM.norm>
0

>  <SCORE.heavy>
31

>  <SCORE.norm>
-1.12242

>  <SYMMETRIC_BONDS>
33 34 3

>  <RMSD>
7.975

$$$$
1fmn_cryst
 OpenBabel11021811393D
libRbt.so/2013.1/901 2013/11/27
 31 33  0  0  0  0  0  0  0  0999 V2000
   -9.8404   -5.6020    3.6538 N   0  0  0  0  0  0  0  0  0  0  0  0
   -9.1488   -6.2399    4.6569 C   0  0  0  0  0  0  0  0  0  0  0  0
   -9.5053   -6.1821    5.8343 O   0  0  0  0  0  0  0  0  0  0  0  0
   -7.9990   -6.9625    4.2505 N   0  0  0  0  0  0  0  0  0  0  0  0
   -7.5019   -7.0871    2.9346 C   0  0  0  0  0  0  0  0  0  0  0  0
   -6.4821   -7.7541    2.7190 O   0  0  0  0  0  0  0  0  0  0  0  0
   -8.2930   -6.3790    1.9256 C   0  0  0  0  0  0  0  0  0  0  0  0
   -7.8759   -6.4508    0.6198 N   0  0  0  0  0  0  0  0  0  0  0  0
   -8.5043   -5.6481   -0.2875 C   0  0  0  0  0  0  0  0  0  0  0  0
   -7.9730   -5.5753   -1.5630 C   0  0  0  0  0  0  0  0  0  0  0  0
   -8.5440   -4.8002   -2.5141 C   0  0  0  0  0  0  0  0  0  0  0  0
   -7.9319   -4.7594   -3.8779 C   0  0  0  0  0  0  0  0  0  0  0  0
   -9.6577   -4.0721   -2.2302 C   0  0  0  0  0  0  0  0  0  0  0  0
  -10.2775   -3.2137   -3.2842 C   0  0  0  0  0  0  0  0  0  0  0  0
  -10.2144   -4.1129   -0.9928 C   0  0  0  0  0  0  0  0  0  0  0  0
   -9.6655   -4.8959    0.0227 C   0  0  0  0  0  0  0  0  0  0  0  0
  -10.1944   -4.9867    1.3273 N   0  0  0  0  0  0  0  0  0  0  0  0
   -9.4658   -5.6450    2.3391 C   0  0  0  0  0  0  0  0  0  0  0  0
  -11.6929   -4.9106    1.4913 C   0  0  0  0  0  0  0  0  0  0  0  0
  -12.2418   -3.6777    2.2717 C   0  0  1  0  0  0  0  0  0  0  0  0
  -11.8680   -3.7584    3.6398 O   0  0  0  0  0  0  0  0  0  0  0  0
  -11.8392   -2.3252    1.6369 C   0  0  1  0  0  0  0  0  0  0  0  0
  -11.9240   -2.4019    0.2169 O   0  0  0  0  0  0  0  0  0  0  0  0
  -12.5834   -1.0647    2.1421 C   0  0  1  0  0  0  0  0  0  0  0  0
  -12.6640   -1.1294    3.5617 O   0  0  0  0  0  0  0  0  0  0  0  0
  -11.8788    0.2514    1.7434 C   0  0  0  0  0  0  0  0  0  0  0  0
  -12.1602    0.6337    0.4022 O   0  0  0  0  0  0  0  0  0  0  0  0
  -11.8801    2.0928   -0.1491 P   0  0  0  0  0  0  0  0  0  0  0  0
  -11.8234    3.0743    0.9579 O   0  0  0  0  0  0  0  0  0  0  0  0
  -10.7791    2.0746   -1.1362 O   0  5  0  0  0  0  0  0  0  0  0  0
  -13.2007    2.4480   -0.9644 O   0  5  0  0  0  0  0  0  0  0  0  0
  1 18  1  0  0  0  0
  1  2  1  0  0  0  0
  2  4  1  0  0  0  0
  2  3  2  0  0  0  0
  4  5  1  0  0  0  0
  5  7  1  0  0  0  0
  5  6  2  0  0  0  0
  7 18  2  0  0  0  0
  7  8  1  0  0  0  0
  8  9  1  0  0  0  0
  9 10  2  0  0  0  0
  9 16  1  0  0  0  0
 10 11  1  0  0  0  0
 11 12  1  0  0  0  0
 11 13  2  0  0  0  0
 13 14  1  0  0  0  0
 13 15  1  0  0  0  0
 15 16  2  0  0  0  0
 16 17  1  0  0  0  0
 17 19  1  0  0  0  0
 17 18  1  0  0  0  0
 20 19  1  6  0  0  0
 20 22  1  0  0  0  0
 20 21  1  0  0  0  0
 22 24  1  0  0  0  0
 22 23  1  6  0  0  0
 24 26  1  1  0  0  0
 24 25  1  0  0  0  0
 26 27  1  0  0  0  0
 27 28  1  0  0  0  0
 28 30  1  0  0  0  0
 28 29  2  0  0  0  0
 28 31  1  0  0  0  0
M  CHG  2  30  -1  31  -1
M  END
>  <CHROM.1>
-115.09792454,-68.20836991,40.33376950,-77.32077997,44.21112544,175.74256162
80.34427906,174.69213091,164.18872704,-22.29164044,-10.31893503,-3.16953101
1.00730044,0.66753925,-1.02226836,2.04214925

>  <Name>
1fmn_cryst

>  <RI>
0

>  <Rbt.Current_Directory>
/home/itssahil/PROJECTS/Mol_Feturizer/New_Systems/rnas/1fmn

>  <Rbt.Executable>
rbdock ($Id: //depot/dev/client3/rdock/2013.1/src/exe/rbdock.cxx#4 $)

>  <Rbt.Library>
libRbt.so (2013.1, Build901 2013/11/27)

>  <Rbt.Parameter_File>
/export/apps/rDock/src/rDock_2013.1_src/data/scripts/dock_solv.prm

>  <Rbt.Receptor>
prm/blind_docking_60.prm

>  <SCORE>
-43.1729

>  <SCORE.INTER>
-40.6465

>  <SCORE.INTER.CONST>
1

>  <SCORE.INTER.POLAR>
-2.83237

>  <SCORE.INTER.ROT>
7

>  <SCORE.INTER.SOLV>
27.6048

>  <SCORE.INTER.VDW>
-35.1247

>  <SCORE.INTER.norm>
-1.31118

>  <SCORE.INTRA>
-5.98196

>  <SCORE.INTRA.DIHEDRAL>
-4.44289

>  <SCORE.INTRA.DIHEDRAL.0>
15.5708

>  <SCORE.INTRA.POLAR>
-1.00607

>  <SCORE.INTRA.POLAR.0>
-0.0677885

>  <SCORE.INTRA.REPUL>
0

>  <SCORE.INTRA.REPUL.0>
0

>  <SCORE.INTRA.SOLV>
-2.94089

>  <SCORE.INTRA.SOLV.lig_0>
-87.6316

>  <SCORE.INTRA.VDW>
1.13056

>  <SCORE.INTRA.VDW.0>
-2.87309

>  <SCORE.INTRA.norm>
-0.192967

>  <SCORE.RESTR>
3.45549

>  <SCORE.RESTR.CAVITY>
3.45549

>  <SCORE.RESTR.norm>
0.111467

>  <SCORE.SYSTEM>
0

>  <SCORE.SYSTEM.CONST>
0

>  <SCORE.SYSTEM.DIHEDRAL>
0

>  <SCORE.SYSTEM.SOLV>
0

>  <SCORE.SYSTEM.norm>
0

>  <SCORE.heavy>
31

>  <SCORE.norm>
-1.39268

>  <SYMMETRIC_BONDS>
33 34 3

>  <RMSD>
7.986

$$$$
1fmn_cryst
 OpenBabel11021811393D
libRbt.so/2013.1/901 2013/11/27
 31 33  0  0  0  0  0  0  0  0999 V2000
   -9.9505   -5.4555    3.6303 N   0  0  0  0  0  0  0  0  0  0  0  0
   -9.4244   -6.0053    4.7760 C   0  0  0  0  0  0  0  0  0  0  0  0
   -9.9485   -5.8424    5.8784 O   0  0  0  0  0  0  0  0  0  0  0  0
   -8.2400   -6.7658    4.6077 N   0  0  0  0  0  0  0  0  0  0  0  0
   -7.5577   -7.0082    3.3953 C   0  0  0  0  0  0  0  0  0  0  0  0
   -6.5289   -7.6959    3.3911 O   0  0  0  0  0  0  0  0  0  0  0  0
   -8.1801   -6.3886    2.2231 C   0  0  0  0  0  0  0  0  0  0  0  0
   -7.5775   -6.5772    1.0043 N   0  0  0  0  0  0  0  0  0  0  0  0
   -8.0523   -5.8549   -0.0519 C   0  0  0  0  0  0  0  0  0  0  0  0
   -7.3387   -5.8973   -1.2365 C   0  0  0  0  0  0  0  0  0  0  0  0
   -7.7508   -5.2067   -2.3249 C   0  0  0  0  0  0  0  0  0  0  0  0
   -6.9449   -5.2890   -3.5820 C   0  0  0  0  0  0  0  0  0  0  0  0
   -8.8814   -4.4517   -2.2726 C   0  0  0  0  0  0  0  0  0  0  0  0
   -9.3253   -3.6870   -3.4769 C   0  0  0  0  0  0  0  0  0  0  0  0
   -9.6140   -4.3808   -1.1320 C   0  0  0  0  0  0  0  0  0  0  0  0
   -9.2333   -5.0734    0.0173 C   0  0  0  0  0  0  0  0  0  0  0  0
   -9.9492   -5.0465    1.2326 N   0  0  0  0  0  0  0  0  0  0  0  0
   -9.3881   -5.6160    2.3940 C   0  0  0  0  0  0  0  0  0  0  0  0
  -11.4540   -4.9498    1.1667 C   0  0  0  0  0  0  0  0  0  0  0  0
  -12.0976   -3.7023    1.8447 C   0  0  1  0  0  0  0  0  0  0  0  0
  -11.7365   -3.6508    3.2176 O   0  0  0  0  0  0  0  0  0  0  0  0
  -11.7824   -2.3777    1.1097 C   0  0  1  0  0  0  0  0  0  0  0  0
  -12.3335   -2.3992   -0.2039 O   0  0  0  0  0  0  0  0  0  0  0  0
  -12.1824   -1.0654    1.8277 C   0  0  1  0  0  0  0  0  0  0  0  0
  -10.9981   -0.3267    2.1063 O   0  0  0  0  0  0  0  0  0  0  0  0
  -13.1323   -0.1836    0.9865 C   0  0  0  0  0  0  0  0  0  0  0  0
  -14.1645    0.4040    1.7698 O   0  0  0  0  0  0  0  0  0  0  0  0
  -13.9122    1.6369    2.7329 P   0  0  0  0  0  0  0  0  0  0  0  0
  -13.5147    2.8371    1.9622 O   0  0  0  0  0  0  0  0  0  0  0  0
  -15.0064    1.7598    3.7200 O   0  5  0  0  0  0  0  0  0  0  0  0
  -12.6173    1.2133    3.5568 O   0  5  0  0  0  0  0  0  0  0  0  0
  1 18  1  0  0  0  0
  1  2  1  0  0  0  0
  2  4  1  0  0  0  0
  2  3  2  0  0  0  0
  4  5  1  0  0  0  0
  5  7  1  0  0  0  0
  5  6  2  0  0  0  0
  7 18  2  0  0  0  0
  7  8  1  0  0  0  0
  8  9  1  0  0  0  0
  9 10  2  0  0  0  0
  9 16  1  0  0  0  0
 10 11  1  0  0  0  0
 11 12  1  0  0  0  0
 11 13  2  0  0  0  0
 13 14  1  0  0  0  0
 13 15  1  0  0  0  0
 15 16  2  0  0  0  0
 16 17  1  0  0  0  0
 17 19  1  0  0  0  0
 17 18  1  0  0  0  0
 20 19  1  6  0  0  0
 20 22  1  0  0  0  0
 20 21  1  0  0  0  0
 22 24  1  0  0  0  0
 22 23  1  6  0  0  0
 24 26  1  6  0  0  0
 24 25  1  0  0  0  0
 26 27  1  0  0  0  0
 27 28  1  0  0  0  0
 28 30  1  0  0  0  0
 28 29  2  0  0  0  0
 28 31  1  0  0  0  0
M  CHG  2  30  -1  31  -1
M  END
>  <CHROM.1>
-119.62072094,-57.96999754,63.10024890,-169.81175968,116.52776458,-52.85175482
139.15233263,-71.76839646,75.76945905,64.40842196,-10.52584928,-3.31001106
1.54966822,0.07894379,-0.92142587,1.87599982

>  <Name>
1fmn_cryst

>  <RI>
0

>  <Rbt.Current_Directory>
/home/itssahil/PROJECTS/Mol_Feturizer/New_Systems/rnas/1fmn

>  <Rbt.Executable>
rbdock ($Id: //depot/dev/client3/rdock/2013.1/src/exe/rbdock.cxx#4 $)

>  <Rbt.Library>
libRbt.so (2013.1, Build901 2013/11/27)

>  <Rbt.Parameter_File>
/export/apps/rDock/src/rDock_2013.1_src/data/scripts/dock_solv.prm

>  <Rbt.Receptor>
prm/blind_docking_60.prm

>  <SCORE>
-36.2451

>  <SCORE.INTER>
-37.133

>  <SCORE.INTER.CONST>
1

>  <SCORE.INTER.POLAR>
-1.97686

>  <SCORE.INTER.ROT>
7

>  <SCORE.INTER.SOLV>
22.3617

>  <SCORE.INTER.VDW>
-33.8864

>  <SCORE.INTER.norm>
-1.19784

>  <SCORE.INTRA>
-2.07923

>  <SCORE.INTRA.DIHEDRAL>
-1.02659

>  <SCORE.INTRA.DIHEDRAL.0>
15.5708

>  <SCORE.INTRA.POLAR>
-0.905536

>  <SCORE.INTRA.POLAR.0>
-0.0677885

>  <SCORE.INTRA.REPUL>
0

>  <SCORE.INTRA.REPUL.0>
0

>  <SCORE.INTRA.SOLV>
0.408242

>  <SCORE.INTRA.SOLV.lig_0>
-87.6316

>  <SCORE.INTRA.VDW>
1.30877

>  <SCORE.INTRA.VDW.0>
-2.87309

>  <SCORE.INTRA.norm>
-0.067072

>  <SCORE.RESTR>
2.96715

>  <SCORE.RESTR.CAVITY>
2.96715

>  <SCORE.RESTR.norm>
0.0957145

>  <SCORE.SYSTEM>
0

>  <SCORE.SYSTEM.CONST>
0

>  <SCORE.SYSTEM.DIHEDRAL>
0

>  <SCORE.SYSTEM.SOLV>
0

>  <SCORE.SYSTEM.norm>
0

>  <SCORE.heavy>
31

>  <SCORE.norm>
-1.1692

>  <SYMMETRIC_BONDS>
33 34 3

>  <RMSD>
8.020

$$$$
1fmn_cryst
 OpenBabel11021811393D
libRbt.so/2013.1/901 2013/11/27
 31 33  0  0  0  0  0  0  0  0999 V2000
  -10.1747   -5.3033    3.7184 N   0  0  0  0  0  0  0  0  0  0  0  0
   -9.6991   -5.8746    4.8755 C   0  0  0  0  0  0  0  0  0  0  0  0
  -10.2301   -5.6742    5.9685 O   0  0  0  0  0  0  0  0  0  0  0  0
   -8.5581   -6.7032    4.7307 N   0  0  0  0  0  0  0  0  0  0  0  0
   -7.8722   -6.9929    3.5308 C   0  0  0  0  0  0  0  0  0  0  0  0
   -6.8848   -7.7387    3.5471 O   0  0  0  0  0  0  0  0  0  0  0  0
   -8.4394   -6.3465    2.3452 C   0  0  0  0  0  0  0  0  0  0  0  0
   -7.8298   -6.5778    1.1373 N   0  0  0  0  0  0  0  0  0  0  0  0
   -8.2456   -5.8367    0.0694 C   0  0  0  0  0  0  0  0  0  0  0  0
   -7.5173   -5.9283   -1.1034 C   0  0  0  0  0  0  0  0  0  0  0  0
   -7.8718   -5.2226   -2.2024 C   0  0  0  0  0  0  0  0  0  0  0  0
   -7.0525   -5.3598   -3.4459 C   0  0  0  0  0  0  0  0  0  0  0  0
   -8.9576   -4.4034   -2.1726 C   0  0  0  0  0  0  0  0  0  0  0  0
   -9.3378   -3.6227   -3.3884 C   0  0  0  0  0  0  0  0  0  0  0  0
   -9.7026   -4.2825   -1.0443 C   0  0  0  0  0  0  0  0  0  0  0  0
   -9.3805   -4.9880    0.1151 C   0  0  0  0  0  0  0  0  0  0  0  0
  -10.1124   -4.9116    1.3186 N   0  0  0  0  0  0  0  0  0  0  0  0
   -9.6033   -5.5044    2.4922 C   0  0  0  0  0  0  0  0  0  0  0  0
  -11.6080   -4.7288    1.2281 C   0  0  0  0  0  0  0  0  0  0  0  0
  -12.1901   -3.4465    1.8968 C   0  0  1  0  0  0  0  0  0  0  0  0
  -11.8735   -3.4300    3.2815 O   0  0  0  0  0  0  0  0  0  0  0  0
  -11.7627   -2.1402    1.1862 C   0  0  1  0  0  0  0  0  0  0  0  0
  -12.6127   -1.8838    0.0720 O   0  0  0  0  0  0  0  0  0  0  0  0
  -11.6473   -0.8701    2.0645 C   0  0  1  0  0  0  0  0  0  0  0  0
  -11.0696    0.1676    1.2800 O   0  0  0  0  0  0  0  0  0  0  0  0
  -13.0113   -0.3848    2.6045 C   0  0  0  0  0  0  0  0  0  0  0  0
  -12.8782    0.6803    3.5383 O   0  0  0  0  0  0  0  0  0  0  0  0
  -14.1163    1.5189    4.0629 P   0  0  0  0  0  0  0  0  0  0  0  0
  -15.0826    1.7744    2.9707 O   0  0  0  0  0  0  0  0  0  0  0  0
  -14.6194    0.9637    5.3379 O   0  5  0  0  0  0  0  0  0  0  0  0
  -13.4881    2.9389    4.4150 O   0  5  0  0  0  0  0  0  0  0  0  0
  1 18  1  0  0  0  0
  1  2  1  0  0  0  0
  2  4  1  0  0  0  0
  2  3  2  0  0  0  0
  4  5  1  0  0  0  0
  5  7  1  0  0  0  0
  5  6  2  0  0  0  0
  7 18  2  0  0  0  0
  7  8  1  0  0  0  0
  8  9  1  0  0  0  0
  9 10  2  0  0  0  0
  9 16  1  0  0  0  0
 10 11  1  0  0  0  0
 11 12  1  0  0  0  0
 11 13  2  0  0  0  0
 13 14  1  0  0  0  0
 13 15  1  0  0  0  0
 15 16  2  0  0  0  0
 16 17  1  0  0  0  0
 17 19  1  0  0  0  0
 17 18  1  0  0  0  0
 20 19  1  6  0  0  0
 20 22  1  0  0  0  0
 20 21  1  0  0  0  0
 22 24  1  0  0  0  0
 22 23  1  6  0  0  0
 24 26  1  6  0  0  0
 24 25  1  0  0  0  0
 26 27  1  0  0  0  0
 27 28  1  0  0  0  0
 28 30  1  0  0  0  0
 28 29  2  0  0  0  0
 28 31  1  0  0  0  0
M  CHG  2  30  -1  31  -1
M  END
>  <CHROM.1>
-120.02210641,-59.20351688,83.25621783,-112.05279634,171.98821349,59.99580585
172.81270612,63.75740086,169.71767778,-39.20385139,-10.68556178,-3.21650229
1.92659298,-0.05825052,-0.94782607,1.90646190

>  <Name>
1fmn_cryst

>  <RI>
0

>  <Rbt.Current_Directory>
/home/itssahil/PROJECTS/Mol_Feturizer/New_Systems/rnas/1fmn

>  <Rbt.Executable>
rbdock ($Id: //depot/dev/client3/rdock/2013.1/src/exe/rbdock.cxx#4 $)

>  <Rbt.Library>
libRbt.so (2013.1, Build901 2013/11/27)

>  <Rbt.Parameter_File>
/export/apps/rDock/src/rDock_2013.1_src/data/scripts/dock_solv.prm

>  <Rbt.Receptor>
prm/blind_docking_60.prm

>  <SCORE>
-29.9335

>  <SCORE.INTER>
-26.3615

>  <SCORE.INTER.CONST>
1

>  <SCORE.INTER.POLAR>
-1.0872

>  <SCORE.INTER.ROT>
7

>  <SCORE.INTER.SOLV>
27.0228

>  <SCORE.INTER.VDW>
-31.2246

>  <SCORE.INTER.norm>
-0.85037

>  <SCORE.INTRA>
-6.00599

>  <SCORE.INTRA.DIHEDRAL>
-2.75591

>  <SCORE.INTRA.DIHEDRAL.0>
15.5708

>  <SCORE.INTRA.POLAR>
-0.910065

>  <SCORE.INTRA.POLAR.0>
-0.0677885

>  <SCORE.INTRA.REPUL>
0

>  <SCORE.INTRA.REPUL.0>
0

>  <SCORE.INTRA.SOLV>
-3.88426

>  <SCORE.INTRA.SOLV.lig_0>
-87.6316

>  <SCORE.INTRA.VDW>
0.408321

>  <SCORE.INTRA.VDW.0>
-2.87309

>  <SCORE.INTRA.norm>
-0.193741

>  <SCORE.RESTR>
2.43392

>  <SCORE.RESTR.CAVITY>
2.43392

>  <SCORE.RESTR.norm>
0.0785135

>  <SCORE.SYSTEM>
0

>  <SCORE.SYSTEM.CONST>
0

>  <SCORE.SYSTEM.DIHEDRAL>
0

>  <SCORE.SYSTEM.SOLV>
0

>  <SCORE.SYSTEM.norm>
0

>  <SCORE.heavy>
31

>  <SCORE.norm>
-0.965598

>  <SYMMETRIC_BONDS>
33 34 3

>  <RMSD>
8.024

$$$$
1fmn_cryst
 OpenBabel11021811393D
libRbt.so/2013.1/901 2013/11/27
 31 33  0  0  0  0  0  0  0  0999 V2000
  -10.3161   -4.8571    1.7986 N   0  0  0  0  0  0  0  0  0  0  0  0
   -9.9425   -5.4979    2.9568 C   0  0  0  0  0  0  0  0  0  0  0  0
  -10.5374   -5.3229    4.0207 O   0  0  0  0  0  0  0  0  0  0  0  0
   -8.8278   -6.3670    2.8488 N   0  0  0  0  0  0  0  0  0  0  0  0
   -8.0745   -6.6329    1.6843 C   0  0  0  0  0  0  0  0  0  0  0  0
   -7.1207   -7.4199    1.7307 O   0  0  0  0  0  0  0  0  0  0  0  0
   -8.5348   -5.9120    0.4953 C   0  0  0  0  0  0  0  0  0  0  0  0
   -7.8548   -6.1161   -0.6796 N   0  0  0  0  0  0  0  0  0  0  0  0
   -8.1683   -5.3123   -1.7370 C   0  0  0  0  0  0  0  0  0  0  0  0
   -7.3668   -5.3834   -2.8626 C   0  0  0  0  0  0  0  0  0  0  0  0
   -7.6185   -4.6162   -3.9485 C   0  0  0  0  0  0  0  0  0  0  0  0
   -6.7234   -4.7337   -5.1408 C   0  0  0  0  0  0  0  0  0  0  0  0
   -8.6708   -3.7538   -3.9520 C   0  0  0  0  0  0  0  0  0  0  0  0
   -8.9372   -2.9055   -5.1526 C   0  0  0  0  0  0  0  0  0  0  0  0
   -9.4847   -3.6507   -2.8705 C   0  0  0  0  0  0  0  0  0  0  0  0
   -9.2694   -4.4190   -1.7265 C   0  0  0  0  0  0  0  0  0  0  0  0
  -10.0771   -4.3641   -0.5712 N   0  0  0  0  0  0  0  0  0  0  0  0
   -9.6719   -5.0286    0.6045 C   0  0  0  0  0  0  0  0  0  0  0  0
  -11.5548   -4.1144   -0.7509 C   0  0  0  0  0  0  0  0  0  0  0  0
  -12.0107   -2.6237   -0.7422 C   0  0  1  0  0  0  0  0  0  0  0  0
  -13.0935   -2.4379   -1.6427 O   0  0  0  0  0  0  0  0  0  0  0  0
  -12.3340   -2.0927    0.6747 C   0  0  1  0  0  0  0  0  0  0  0  0
  -11.1439   -2.0072    1.4530 O   0  0  0  0  0  0  0  0  0  0  0  0
  -13.1178   -0.7601    0.7618 C   0  0  1  0  0  0  0  0  0  0  0  0
  -14.0012   -0.8303    1.8756 O   0  0  0  0  0  0  0  0  0  0  0  0
  -12.1982    0.4698    0.9331 C   0  0  0  0  0  0  0  0  0  0  0  0
  -11.7760    0.6493    2.2798 O   0  0  0  0  0  0  0  0  0  0  0  0
  -12.3855    1.7641    3.2270 P   0  0  0  0  0  0  0  0  0  0  0  0
  -11.8180    1.6669    4.5910 O   0  0  0  0  0  0  0  0  0  0  0  0
  -12.3840    3.0797    2.5517 O   0  5  0  0  0  0  0  0  0  0  0  0
  -13.9137    1.3418    3.3718 O   0  5  0  0  0  0  0  0  0  0  0  0
  1 18  1  0  0  0  0
  1  2  1  0  0  0  0
  2  4  1  0  0  0  0
  2  3  2  0  0  0  0
  4  5  1  0  0  0  0
  5  7  1  0  0  0  0
  5  6  2  0  0  0  0
  7 18  2  0  0  0  0
  7  8  1  0  0  0  0
  8  9  1  0  0  0  0
  9 10  2  0  0  0  0
  9 16  1  0  0  0  0
 10 11  1  0  0  0  0
 11 12  1  0  0  0  0
 11 13  2  0  0  0  0
 13 14  1  0  0  0  0
 13 15  1  0  0  0  0
 15 16  2  0  0  0  0
 16 17  1  0  0  0  0
 17 19  1  0  0  0  0
 17 18  1  0  0  0  0
 20 19  1  1  0  0  0
 20 22  1  0  0  0  0
 20 21  1  0  0  0  0
 22 24  1  0  0  0  0
 22 23  1  1  0  0  0
 24 26  1  1  0  0  0
 24 25  1  0  0  0  0
 26 27  1  0  0  0  0
 27 28  1  0  0  0  0
 28 30  1  0  0  0  0
 28 29  2  0  0  0  0
 28 31  1  0  0  0  0
M  CHG  2  30  -1  31  -1
M  END
>  <CHROM.1>
-90.05881145,145.15973308,68.18013471,-57.37474324,144.22628994,-79.93429314
-80.71401203,-62.04226429,-104.20794022,176.62827841,-10.46802878,-2.85865640
0.42011199,-0.23999134,-1.02711811,1.90821141

>  <Name>
1fmn_cryst

>  <RI>
0

>  <Rbt.Current_Directory>
/home/itssahil/PROJECTS/Mol_Feturizer/New_Systems/rnas/1fmn

>  <Rbt.Executable>
rbdock ($Id: //depot/dev/client3/rdock/2013.1/src/exe/rbdock.cxx#4 $)

>  <Rbt.Library>
libRbt.so (2013.1, Build901 2013/11/27)

>  <Rbt.Parameter_File>
/export/apps/rDock/src/rDock_2013.1_src/data/scripts/dock_solv.prm

>  <Rbt.Receptor>
prm/blind_docking_80.prm

>  <SCORE>
-25.8698

>  <SCORE.INTER>
-35.7157

>  <SCORE.INTER.CONST>
1

>  <SCORE.INTER.POLAR>
-1.48983

>  <SCORE.INTER.ROT>
7

>  <SCORE.INTER.SOLV>
27.4123

>  <SCORE.INTER.VDW>
-36.2485

>  <SCORE.INTER.norm>
-1.15212

>  <SCORE.INTRA>
8.69306

>  <SCORE.INTRA.DIHEDRAL>
3.17127

>  <SCORE.INTRA.DIHEDRAL.0>
15.5708

>  <SCORE.INTRA.POLAR>
0.0677885

>  <SCORE.INTRA.POLAR.0>
-0.0677885

>  <SCORE.INTRA.REPUL>
0.0635818

>  <SCORE.INTRA.REPUL.0>
0

>  <SCORE.INTRA.SOLV>
-0.736792

>  <SCORE.INTRA.SOLV.lig_0>
-87.6316

>  <SCORE.INTRA.VDW>
6.92744

>  <SCORE.INTRA.VDW.0>
-2.87309

>  <SCORE.INTRA.norm>
0.280421

>  <SCORE.RESTR>
1.15285

>  <SCORE.RESTR.CAVITY>
1.15285

>  <SCORE.RESTR.norm>
0.0371886

>  <SCORE.SYSTEM>
0

>  <SCORE.SYSTEM.CONST>
0

>  <SCORE.SYSTEM.DIHEDRAL>
0

>  <SCORE.SYSTEM.SOLV>
0

>  <SCORE.SYSTEM.norm>
0

>  <SCORE.heavy>
31

>  <SCORE.norm>
-0.834511

>  <SYMMETRIC_BONDS>
33 34 3

>  <RMSD>
8.034

$$$$
1fmn_cryst
 OpenBabel11021811393D
libRbt.so/2013.1/901 2013/11/27
 31 33  0  0  0  0  0  0  0  0999 V2000
  -10.2233   -5.0098    3.5410 N   0  0  0  0  0  0  0  0  0  0  0  0
   -9.8385   -5.6293    4.7071 C   0  0  0  0  0  0  0  0  0  0  0  0
  -10.3536   -5.3565    5.7919 O   0  0  0  0  0  0  0  0  0  0  0  0
   -8.8097   -6.5964    4.5814 N   0  0  0  0  0  0  0  0  0  0  0  0
   -8.1507   -6.9779    3.3922 C   0  0  0  0  0  0  0  0  0  0  0  0
   -7.2659   -7.8425    3.4252 O   0  0  0  0  0  0  0  0  0  0  0  0
   -8.6165   -6.2726    2.1961 C   0  0  0  0  0  0  0  0  0  0  0  0
   -8.0258   -6.5867    0.9975 N   0  0  0  0  0  0  0  0  0  0  0  0
   -8.3310   -5.8058   -0.0793 C   0  0  0  0  0  0  0  0  0  0  0  0
   -7.6052   -5.9961   -1.2418 C   0  0  0  0  0  0  0  0  0  0  0  0
   -7.8537   -5.2582   -2.3487 C   0  0  0  0  0  0  0  0  0  0  0  0
   -7.0426   -5.5057   -3.5805 C   0  0  0  0  0  0  0  0  0  0  0  0
   -8.8275   -4.3082   -2.3373 C   0  0  0  0  0  0  0  0  0  0  0  0
   -9.0905   -3.4934   -3.5617 C   0  0  0  0  0  0  0  0  0  0  0  0
   -9.5655   -4.0870   -1.2196 C   0  0  0  0  0  0  0  0  0  0  0  0
   -9.3499   -4.8202   -0.0528 C   0  0  0  0  0  0  0  0  0  0  0  0
  -10.0815   -4.6442    1.1405 N   0  0  0  0  0  0  0  0  0  0  0  0
   -9.6664   -5.2893    2.3235 C   0  0  0  0  0  0  0  0  0  0  0  0
  -11.5407   -4.2745    1.0291 C   0  0  0  0  0  0  0  0  0  0  0  0
  -11.8577   -2.7615    0.8277 C   0  0  1  0  0  0  0  0  0  0  0  0
  -12.6811   -2.5821   -0.3158 O   0  0  0  0  0  0  0  0  0  0  0  0
  -12.4559   -2.0905    2.0871 C   0  0  1  0  0  0  0  0  0  0  0  0
  -12.4552   -3.0040    3.1803 O   0  0  0  0  0  0  0  0  0  0  0  0
  -11.8328   -0.7426    2.5260 C   0  0  1  0  0  0  0  0  0  0  0  0
  -10.9623   -0.2927    1.4937 O   0  0  0  0  0  0  0  0  0  0  0  0
  -12.8907    0.3508    2.7962 C   0  0  0  0  0  0  0  0  0  0  0  0
  -13.3096    0.3775    4.1556 O   0  0  0  0  0  0  0  0  0  0  0  0
  -14.1152    1.5911    4.7797 P   0  0  0  0  0  0  0  0  0  0  0  0
  -14.4298    1.3398    6.2045 O   0  0  0  0  0  0  0  0  0  0  0  0
  -13.4883    2.8783    4.4095 O   0  5  0  0  0  0  0  0  0  0  0  0
  -15.5144    1.5450    4.0214 O   0  5  0  0  0  0  0  0  0  0  0  0
  1 18  1  0  0  0  0
  1  2  1  0  0  0  0
  2  4  1  0  0  0  0
  2  3  2  0  0  0  0
  4  5  1  0  0  0  0
  5  7  1  0  0  0  0
  5  6  2  0  0  0  0
  7 18  2  0  0  0  0
  7  8  1  0  0  0  0
  8  9  1  0  0  0  0
  9 10  2  0  0  0  0
  9 16  1  0  0  0  0
 10 11  1  0  0  0  0
 11 12  1  0  0  0  0
 11 13  2  0  0  0  0
 13 14  1  0  0  0  0
 13 15  1  0  0  0  0
 15 16  2  0  0  0  0
 16 17  1  0  0  0  0
 17 19  1  0  0  0  0
 17 18  1  0  0  0  0
 20 19  1  1  0  0  0
 20 22  1  0  0  0  0
 20 21  1  0  0  0  0
 22 24  1  0  0  0  0
 22 23  1  1  0  0  0
 24 26  1  6  0  0  0
 24 25  1  0  0  0  0
 26 27  1  0  0  0  0
 27 28  1  0  0  0  0
 28 30  1  0  0  0  0
 28 29  2  0  0  0  0
 28 31  1  0  0  0  0
M  CHG  2  30  -1  31  -1
M  END
>  <CHROM.1>
-83.38407289,126.28035863,5.49401595,-54.71132155,10.25717697,165.89393771
91.33117098,-170.42747066,165.36096113,179.35341193,-10.77057224,-3.13106163
1.97911668,-0.18686938,-0.95936665,1.89979123

>  <Name>
1fmn_cryst

>  <RI>
0

>  <Rbt.Current_Directory>
/home/itssahil/PROJECTS/Mol_Feturizer/New_Systems/rnas/1fmn

>  <Rbt.Executable>
rbdock ($Id: //depot/dev/client3/rdock/2013.1/src/exe/rbdock.cxx#4 $)

>  <Rbt.Library>
libRbt.so (2013.1, Build901 2013/11/27)

>  <Rbt.Parameter_File>
/export/apps/rDock/src/rDock_2013.1_src/data/scripts/dock_solv.prm

>  <Rbt.Receptor>
prm/blind_docking_100.prm

>  <SCORE>
-38.941

>  <SCORE.INTER>
-40.5792

>  <SCORE.INTER.CONST>
1

>  <SCORE.INTER.POLAR>
-2.7465

>  <SCORE.INTER.ROT>
7

>  <SCORE.INTER.SOLV>
29.2239

>  <SCORE.INTER.VDW>
-35.9058

>  <SCORE.INTER.norm>
-1.30901

>  <SCORE.INTRA>
-0.212681

>  <SCORE.INTRA.DIHEDRAL>
7.0952

>  <SCORE.INTRA.DIHEDRAL.0>
15.5708

>  <SCORE.INTRA.POLAR>
-0.932211

>  <SCORE.INTRA.POLAR.0>
-0.0677885

>  <SCORE.INTRA.REPUL>
0

>  <SCORE.INTRA.REPUL.0>
0

>  <SCORE.INTRA.SOLV>
-4.29189

>  <SCORE.INTRA.SOLV.lig_0>
-87.6316

>  <SCORE.INTRA.VDW>
1.55518

>  <SCORE.INTRA.VDW.0>
-2.87309

>  <SCORE.INTRA.norm>
-0.00686068

>  <SCORE.RESTR>
1.85092

>  <SCORE.RESTR.CAVITY>
1.85092

>  <SCORE.RESTR.norm>
0.0597071

>  <SCORE.SYSTEM>
0

>  <SCORE.SYSTEM.CONST>
0

>  <SCORE.SYSTEM.DIHEDRAL>
0

>  <SCORE.SYSTEM.SOLV>
0

>  <SCORE.SYSTEM.norm>
0

>  <SCORE.heavy>
31

>  <SCORE.norm>
-1.25616

>  <SYMMETRIC_BONDS>
33 34 3

>  <RMSD>
8.042

$$$$
1fmn_cryst
 OpenBabel11021811393D
libRbt.so/2013.1/901 2013/11/27
 31 33  0  0  0  0  0  0  0  0999 V2000
  -10.0449   -4.9128    2.4637 N   0  0  0  0  0  0  0  0  0  0  0  0
   -9.6063   -5.5502    3.6008 C   0  0  0  0  0  0  0  0  0  0  0  0
  -10.1092   -5.3359    4.7043 O   0  0  0  0  0  0  0  0  0  0  0  0
   -8.5373   -6.4638    3.4225 N   0  0  0  0  0  0  0  0  0  0  0  0
   -7.8881   -6.7767    2.2081 C   0  0  0  0  0  0  0  0  0  0  0  0
   -6.9641   -7.5997    2.1946 O   0  0  0  0  0  0  0  0  0  0  0  0
   -8.4123   -6.0565    1.0454 C   0  0  0  0  0  0  0  0  0  0  0  0
   -7.8346   -6.3050   -0.1747 N   0  0  0  0  0  0  0  0  0  0  0  0
   -8.1991   -5.5056   -1.2190 C   0  0  0  0  0  0  0  0  0  0  0  0
   -7.4914   -5.6252   -2.4019 C   0  0  0  0  0  0  0  0  0  0  0  0
   -7.7980   -4.8652   -3.4789 C   0  0  0  0  0  0  0  0  0  0  0  0
   -7.0040   -5.0358   -4.7347 C   0  0  0  0  0  0  0  0  0  0  0  0
   -8.8139   -3.9624   -3.4164 C   0  0  0  0  0  0  0  0  0  0  0  0
   -9.1411   -3.1226   -4.6080 C   0  0  0  0  0  0  0  0  0  0  0  0
   -9.5362   -3.8110   -2.2770 C   0  0  0  0  0  0  0  0  0  0  0  0
   -9.2613   -4.5698   -1.1394 C   0  0  0  0  0  0  0  0  0  0  0  0
   -9.9735   -4.4657    0.0738 N   0  0  0  0  0  0  0  0  0  0  0  0
   -9.5031   -5.1276    1.2265 C   0  0  0  0  0  0  0  0  0  0  0  0
  -11.4502   -4.1610    0.0049 C   0  0  0  0  0  0  0  0  0  0  0  0
  -11.8440   -2.6534   -0.0451 C   0  0  1  0  0  0  0  0  0  0  0  0
  -12.8357   -2.4394   -1.0394 O   0  0  0  0  0  0  0  0  0  0  0  0
  -12.2678   -2.0876    1.3313 C   0  0  1  0  0  0  0  0  0  0  0  0
  -11.9467   -3.0132    2.3655 O   0  0  0  0  0  0  0  0  0  0  0  0
  -11.7417   -0.6793    1.7022 C   0  0  1  0  0  0  0  0  0  0  0  0
  -12.2064    0.2457    0.7253 O   0  0  0  0  0  0  0  0  0  0  0  0
  -12.2120   -0.2082    3.0967 C   0  0  0  0  0  0  0  0  0  0  0  0
  -13.5543    0.2632    3.0868 O   0  0  0  0  0  0  0  0  0  0  0  0
  -14.1798    1.0919    4.2841 P   0  0  0  0  0  0  0  0  0  0  0  0
  -15.5687    1.5012    3.9749 O   0  0  0  0  0  0  0  0  0  0  0  0
  -13.9090    0.4259    5.5764 O   0  5  0  0  0  0  0  0  0  0  0  0
  -13.3321    2.4395    4.2935 O   0  5  0  0  0  0  0  0  0  0  0  0
  1 18  1  0  0  0  0
  1  2  1  0  0  0  0
  2  4  1  0  0  0  0
  2  3  2  0  0  0  0
  4  5  1  0  0  0  0
  5  7  1  0  0  0  0
  5  6  2  0  0  0  0
  7 18  2  0  0  0  0
  7  8  1  0  0  0  0
  8  9  1  0  0  0  0
  9 10  2  0  0  0  0
  9 16  1  0  0  0  0
 10 11  1  0  0  0  0
 11 12  1  0  0  0  0
 11 13  2  0  0  0  0
 13 14  1  0  0  0  0
 13 15  1  0  0  0  0
 15 16  2  0  0  0  0
 16 17  1  0  0  0  0
 17 19  1  0  0  0  0
 17 18  1  0  0  0  0
 20 19  1  1  0  0  0
 20 22  1  0  0  0  0
 20 21  1  0  0  0  0
 22 24  1  0  0  0  0
 22 23  1  1  0  0  0
 24 26  1  1  0  0  0
 24 25  1  0  0  0  0
 26 27  1  0  0  0  0
 27 28  1  0  0  0  0
 28 30  1  0  0  0  0
 28 29  2  0  0  0  0
 28 31  1  0  0  0  0
M  CHG  2  30  -1  31  -1
M  END
>  <CHROM.1>
-87.31435416,134.77091274,11.37935995,-179.81057957,59.74555507,-71.95590774
-78.48703140,-69.06457100,-166.13011929,177.42762541,-10.68774652,-3.07449475
1.10110998,-0.32155933,-0.92031405,1.85761247

>  <Name>
1fmn_cryst

>  <RI>
0

>  <Rbt.Current_Directory>
/home/itssahil/PROJECTS/Mol_Feturizer/New_Systems/rnas/1fmn

>  <Rbt.Executable>
rbdock ($Id: //depot/dev/client3/rdock/2013.1/src/exe/rbdock.cxx#4 $)

>  <Rbt.Library>
libRbt.so (2013.1, Build901 2013/11/27)

>  <Rbt.Parameter_File>
/export/apps/rDock/src/rDock_2013.1_src/data/scripts/dock_solv.prm

>  <Rbt.Receptor>
prm/blind_docking_100.prm

>  <SCORE>
-35.2566

>  <SCORE.INTER>
-34.0642

>  <SCORE.INTER.CONST>
1

>  <SCORE.INTER.POLAR>
-0.950879

>  <SCORE.INTER.ROT>
7

>  <SCORE.INTER.SOLV>
26.4417

>  <SCORE.INTER.VDW>
-36.6205

>  <SCORE.INTER.norm>
-1.09885

>  <SCORE.INTRA>
-3.61038

>  <SCORE.INTRA.DIHEDRAL>
-0.769952

>  <SCORE.INTRA.DIHEDRAL.0>
15.5708

>  <SCORE.INTRA.POLAR>
-0.932211

>  <SCORE.INTRA.POLAR.0>
-0.0677885

>  <SCORE.INTRA.REPUL>
0

>  <SCORE.INTRA.REPUL.0>
0

>  <SCORE.INTRA.SOLV>
-3.33378

>  <SCORE.INTRA.SOLV.lig_0>
-87.6316

>  <SCORE.INTRA.VDW>
1.61101

>  <SCORE.INTRA.VDW.0>
-2.87309

>  <SCORE.INTRA.norm>
-0.116464

>  <SCORE.RESTR>
2.41798

>  <SCORE.RESTR.CAVITY>
2.41798

>  <SCORE.RESTR.norm>
0.0779993

>  <SCORE.SYSTEM>
0

>  <SCORE.SYSTEM.CONST>
0

>  <SCORE.SYSTEM.DIHEDRAL>
0

>  <SCORE.SYSTEM.SOLV>
0

>  <SCORE.SYSTEM.norm>
0

>  <SCORE.heavy>
31

>  <SCORE.norm>
-1.13731

>  <SYMMETRIC_BONDS>
33 34 3

>  <RMSD>
8.042

$$$$
1fmn_cryst
 OpenBabel11021811393D
libRbt.so/2013.1/901 2013/11/27
 31 33  0  0  0  0  0  0  0  0999 V2000
  -10.2404   -5.0149    3.3732 N   0  0  0  0  0  0  0  0  0  0  0  0
   -9.8825   -5.6095    4.5607 C   0  0  0  0  0  0  0  0  0  0  0  0
  -10.4382   -5.3307    5.6237 O   0  0  0  0  0  0  0  0  0  0  0  0
   -8.8320   -6.5581    4.4836 N   0  0  0  0  0  0  0  0  0  0  0  0
   -8.1270   -6.9443    3.3225 C   0  0  0  0  0  0  0  0  0  0  0  0
   -7.2275   -7.7908    3.3978 O   0  0  0  0  0  0  0  0  0  0  0  0
   -8.5665   -6.2659    2.1011 C   0  0  0  0  0  0  0  0  0  0  0  0
   -7.9307   -6.5862    0.9275 N   0  0  0  0  0  0  0  0  0  0  0  0
   -8.2151   -5.8274   -0.1706 C   0  0  0  0  0  0  0  0  0  0  0  0
   -7.4479   -6.0207   -1.3058 C   0  0  0  0  0  0  0  0  0  0  0  0
   -7.6737   -5.3043   -2.4315 C   0  0  0  0  0  0  0  0  0  0  0  0
   -6.8180   -5.5541   -3.6321 C   0  0  0  0  0  0  0  0  0  0  0  0
   -8.6653   -4.3733   -2.4665 C   0  0  0  0  0  0  0  0  0  0  0  0
   -8.9032   -3.5821   -3.7112 C   0  0  0  0  0  0  0  0  0  0  0  0
   -9.4438   -4.1500   -1.3770 C   0  0  0  0  0  0  0  0  0  0  0  0
   -9.2528   -4.8616   -0.1926 C   0  0  0  0  0  0  0  0  0  0  0  0
  -10.0266   -4.6823    0.9732 N   0  0  0  0  0  0  0  0  0  0  0  0
   -9.6385   -5.3015    2.1790 C   0  0  0  0  0  0  0  0  0  0  0  0
  -11.4881   -4.3427    0.8086 C   0  0  0  0  0  0  0  0  0  0  0  0
  -11.8135   -2.8864    0.3575 C   0  0  1  0  0  0  0  0  0  0  0  0
  -12.6093   -2.9048   -0.8190 O   0  0  0  0  0  0  0  0  0  0  0  0
  -12.4494   -2.0285    1.4772 C   0  0  1  0  0  0  0  0  0  0  0  0
  -12.3501   -2.6999    2.7298 O   0  0  0  0  0  0  0  0  0  0  0  0
  -11.9423   -0.5722    1.6180 C   0  0  1  0  0  0  0  0  0  0  0  0
  -12.5611    0.2185    0.6092 O   0  0  0  0  0  0  0  0  0  0  0  0
  -12.2594    0.0455    2.9984 C   0  0  0  0  0  0  0  0  0  0  0  0
  -13.6152    0.4621    3.1089 O   0  0  0  0  0  0  0  0  0  0  0  0
  -14.1276    1.4112    4.2699 P   0  0  0  0  0  0  0  0  0  0  0  0
  -13.4526    2.7277    4.2131 O   0  0  0  0  0  0  0  0  0  0  0  0
  -15.6034    1.3756    4.3592 O   0  5  0  0  0  0  0  0  0  0  0  0
  -13.5863    0.7132    5.5945 O   0  5  0  0  0  0  0  0  0  0  0  0
  1 18  1  0  0  0  0
  1  2  1  0  0  0  0
  2  4  1  0  0  0  0
  2  3  2  0  0  0  0
  4  5  1  0  0  0  0
  5  7  1  0  0  0  0
  5  6  2  0  0  0  0
  7 18  2  0  0  0  0
  7  8  1  0  0  0  0
  8  9  1  0  0  0  0
  9 10  2  0  0  0  0
  9 16  1  0  0  0  0
 10 11  1  0  0  0  0
 11 12  1  0  0  0  0
 11 13  2  0  0  0  0
 13 14  1  0  0  0  0
 13 15  1  0  0  0  0
 15 16  2  0  0  0  0
 16 17  1  0  0  0  0
 17 19  1  0  0  0  0
 17 18  1  0  0  0  0
 20 19  1  1  0  0  0
 20 22  1  0  0  0  0
 20 21  1  0  0  0  0
 22 24  1  0  0  0  0
 22 23  1  1  0  0  0
 24 26  1  1  0  0  0
 24 25  1  0  0  0  0
 26 27  1  0  0  0  0
 27 28  1  0  0  0  0
 28 30  1  0  0  0  0
 28 29  2  0  0  0  0
 28 31  1  0  0  0  0
M  CHG  2  30  -1  31  -1
M  END
>  <CHROM.1>
-74.28693482,124.53719984,11.16334968,-54.96669368,78.47051705,83.36690071
-77.88451024,-178.80252672,-165.79909686,61.90719729,-10.74663612,-3.17180694
1.70465371,-0.17364579,-0.93754841,1.87654033

>  <Name>
1fmn_cryst

>  <RI>
0

>  <Rbt.Current_Directory>
/home/itssahil/PROJECTS/Mol_Feturizer/New_Systems/rnas/1fmn

>  <Rbt.Executable>
rbdock ($Id: //depot/dev/client3/rdock/2013.1/src/exe/rbdock.cxx#4 $)

>  <Rbt.Library>
libRbt.so (2013.1, Build901 2013/11/27)

>  <Rbt.Parameter_File>
/export/apps/rDock/src/rDock_2013.1_src/data/scripts/dock_solv.prm

>  <Rbt.Receptor>
prm/blind_docking_100.prm

>  <SCORE>
-32.818

>  <SCORE.INTER>
-35.0214

>  <SCORE.INTER.CONST>
1

>  <SCORE.INTER.POLAR>
-1.35433

>  <SCORE.INTER.ROT>
7

>  <SCORE.INTER.SOLV>
27.7908

>  <SCORE.INTER.VDW>
-36.3634

>  <SCORE.INTER.norm>
-1.12972

>  <SCORE.INTRA>
-0.392413

>  <SCORE.INTRA.DIHEDRAL>
1.83623

>  <SCORE.INTRA.DIHEDRAL.0>
15.5708

>  <SCORE.INTRA.POLAR>
-0.429739

>  <SCORE.INTRA.POLAR.0>
-0.0677885

>  <SCORE.INTRA.REPUL>
0

>  <SCORE.INTRA.REPUL.0>
0

>  <SCORE.INTRA.SOLV>
-4.24227

>  <SCORE.INTRA.SOLV.lig_0>
-87.6316

>  <SCORE.INTRA.VDW>
2.27172

>  <SCORE.INTRA.VDW.0>
-2.87309

>  <SCORE.INTRA.norm>
-0.0126585

>  <SCORE.RESTR>
2.59578

>  <SCORE.RESTR.CAVITY>
2.59578

>  <SCORE.RESTR.norm>
0.0837348

>  <SCORE.SYSTEM>
0

>  <SCORE.SYSTEM.CONST>
0

>  <SCORE.SYSTEM.DIHEDRAL>
0

>  <SCORE.SYSTEM.SOLV>
0

>  <SCORE.SYSTEM.norm>
0

>  <SCORE.heavy>
31

>  <SCORE.norm>
-1.05864

>  <SYMMETRIC_BONDS>
33 34 3

>  <RMSD>
8.048

$$$$
1fmn_cryst
 OpenBabel11021811393D
libRbt.so/2013.1/901 2013/11/27
 31 33  0  0  0  0  0  0  0  0999 V2000
  -10.1969   -5.0656    3.4336 N   0  0  0  0  0  0  0  0  0  0  0  0
   -9.8230   -5.6475    4.6223 C   0  0  0  0  0  0  0  0  0  0  0  0
  -10.3806   -5.3753    5.6861 O   0  0  0  0  0  0  0  0  0  0  0  0
   -8.7537   -6.5750    4.5457 N   0  0  0  0  0  0  0  0  0  0  0  0
   -8.0451   -6.9520    3.3839 C   0  0  0  0  0  0  0  0  0  0  0  0
   -7.1284   -7.7798    3.4596 O   0  0  0  0  0  0  0  0  0  0  0  0
   -8.5025   -6.2881    2.1611 C   0  0  0  0  0  0  0  0  0  0  0  0
   -7.8644   -6.6007    0.9866 N   0  0  0  0  0  0  0  0  0  0  0  0
   -8.1678   -5.8527   -0.1138 C   0  0  0  0  0  0  0  0  0  0  0  0
   -7.4008   -6.0354   -1.2508 C   0  0  0  0  0  0  0  0  0  0  0  0
   -7.6449   -5.3287   -2.3788 C   0  0  0  0  0  0  0  0  0  0  0  0
   -6.7884   -5.5666   -3.5814 C   0  0  0  0  0  0  0  0  0  0  0  0
   -8.6553   -4.4182   -2.4144 C   0  0  0  0  0  0  0  0  0  0  0  0
   -8.9134   -3.6374   -3.6617 C   0  0  0  0  0  0  0  0  0  0  0  0
   -9.4343   -4.2058   -1.3232 C   0  0  0  0  0  0  0  0  0  0  0  0
   -9.2250   -4.9081   -0.1364 C   0  0  0  0  0  0  0  0  0  0  0  0
   -9.9981   -4.7393    1.0314 N   0  0  0  0  0  0  0  0  0  0  0  0
   -9.5935   -5.3452    2.2385 C   0  0  0  0  0  0  0  0  0  0  0  0
  -11.4668   -4.4301    0.8705 C   0  0  0  0  0  0  0  0  0  0  0  0
  -11.8392   -2.9311    0.6597 C   0  0  1  0  0  0  0  0  0  0  0  0
  -12.6107   -2.7803   -0.5235 O   0  0  0  0  0  0  0  0  0  0  0  0
  -12.5294   -2.2951    1.8899 C   0  0  1  0  0  0  0  0  0  0  0  0
  -12.1096   -2.9488    3.0840 O   0  0  0  0  0  0  0  0  0  0  0  0
  -12.3954   -0.7612    2.0536 C   0  0  1  0  0  0  0  0  0  0  0  0
  -11.0117   -0.4276    2.0452 O   0  0  0  0  0  0  0  0  0  0  0  0
  -13.1043    0.0289    0.9307 C   0  0  0  0  0  0  0  0  0  0  0  0
  -13.6368    1.2659    1.3895 O   0  0  0  0  0  0  0  0  0  0  0  0
  -12.7270    2.4302    1.9621 P   0  0  0  0  0  0  0  0  0  0  0  0
  -11.5690    1.8805    2.7030 O   0  0  0  0  0  0  0  0  0  0  0  0
  -12.4822    3.4575    0.9268 O   0  5  0  0  0  0  0  0  0  0  0  0
  -13.6466    3.1208    3.0631 O   0  5  0  0  0  0  0  0  0  0  0  0
  1 18  1  0  0  0  0
  1  2  1  0  0  0  0
  2  4  1  0  0  0  0
  2  3  2  0  0  0  0
  4  5  1  0  0  0  0
  5  7  1  0  0  0  0
  5  6  2  0  0  0  0
  7 18  2  0  0  0  0
  7  8  1  0  0  0  0
  8  9  1  0  0  0  0
  9 10  2  0  0  0  0
  9 16  1  0  0  0  0
 10 11  1  0  0  0  0
 11 12  1  0  0  0  0
 11 13  2  0  0  0  0
 13 14  1  0  0  0  0
 13 15  1  0  0  0  0
 15 16  2  0  0  0  0
 16 17  1  0  0  0  0
 17 19  1  0  0  0  0
 17 18  1  0  0  0  0
 20 19  1  1  0  0  0
 20 22  1  0  0  0  0
 20 21  1  0  0  0  0
 22 24  1  0  0  0  0
 22 23  1  1  0  0  0
 24 26  1  6  0  0  0
 24 25  1  0  0  0  0
 26 27  1  0  0  0  0
 27 28  1  0  0  0  0
 28 30  1  0  0  0  0
 28 29  2  0  0  0  0
 28 31  1  0  0  0  0
M  CHG  2  30  -1  31  -1
M  END
>  <CHROM.1>
-84.61257458,125.29418879,27.94841992,-60.43126973,-55.03552587,163.91022575
147.03619517,-65.81837836,62.69646151,-34.57199285,-10.43118644,-3.01097021
1.30748807,0.25203407,-1.02551001,1.99721398

>  <Name>
1fmn_cryst

>  <RI>
0

>  <Rbt.Current_Directory>
/home/itssahil/PROJECTS/Mol_Feturizer/New_Systems/rnas/1fmn

>  <Rbt.Executable>
rbdock ($Id: //depot/dev/client3/rdock/2013.1/src/exe/rbdock.cxx#4 $)

>  <Rbt.Library>
libRbt.so (2013.1, Build901 2013/11/27)

>  <Rbt.Parameter_File>
/export/apps/rDock/src/rDock_2013.1_src/data/scripts/dock_solv.prm

>  <Rbt.Receptor>
prm/blind_docking_20.prm

>  <SCORE>
-41.5966

>  <SCORE.INTER>
-43.1901

>  <SCORE.INTER.CONST>
1

>  <SCORE.INTER.POLAR>
-3.60615

>  <SCORE.INTER.ROT>
7

>  <SCORE.INTER.SOLV>
26.6613

>  <SCORE.INTER.VDW>
-33.9267

>  <SCORE.INTER.norm>
-1.39323

>  <SCORE.INTRA>
-1.49654

>  <SCORE.INTRA.DIHEDRAL>
0.559416

>  <SCORE.INTRA.DIHEDRAL.0>
15.5708

>  <SCORE.INTRA.POLAR>
-0.932211

>  <SCORE.INTRA.POLAR.0>
-0.0677885

>  <SCORE.INTRA.REPUL>
0

>  <SCORE.INTRA.REPUL.0>
0

>  <SCORE.INTRA.SOLV>
0.39669

>  <SCORE.INTRA.SOLV.lig_0>
-87.6316

>  <SCORE.INTRA.VDW>
1.19493

>  <SCORE.INTRA.VDW.0>
-2.87309

>  <SCORE.INTRA.norm>
-0.0482755

>  <SCORE.RESTR>
3.09005

>  <SCORE.RESTR.CAVITY>
3.09005

>  <SCORE.RESTR.norm>
0.0996791

>  <SCORE.SYSTEM>
0

>  <SCORE.SYSTEM.CONST>
0

>  <SCORE.SYSTEM.DIHEDRAL>
0

>  <SCORE.SYSTEM.SOLV>
0

>  <SCORE.SYSTEM.norm>
0

>  <SCORE.heavy>
31

>  <SCORE.norm>
-1.34183

>  <SYMMETRIC_BONDS>
33 34 3

>  <RMSD>
8.058

$$$$
1fmn_cryst
 OpenBabel11021811393D
libRbt.so/2013.1/901 2013/11/27
 31 33  0  0  0  0  0  0  0  0999 V2000
  -10.0324   -4.8317    2.2535 N   0  0  0  0  0  0  0  0  0  0  0  0
   -9.6132   -5.4745    3.3948 C   0  0  0  0  0  0  0  0  0  0  0  0
  -10.1178   -5.2469    4.4948 O   0  0  0  0  0  0  0  0  0  0  0  0
   -8.5619   -6.4101    3.2250 N   0  0  0  0  0  0  0  0  0  0  0  0
   -7.9123   -6.7395    2.0152 C   0  0  0  0  0  0  0  0  0  0  0  0
   -7.0051   -7.5810    2.0093 O   0  0  0  0  0  0  0  0  0  0  0  0
   -8.4153   -6.0122    0.8476 C   0  0  0  0  0  0  0  0  0  0  0  0
   -7.8359   -6.2758   -0.3685 N   0  0  0  0  0  0  0  0  0  0  0  0
   -8.1784   -5.4722   -1.4171 C   0  0  0  0  0  0  0  0  0  0  0  0
   -7.4666   -5.6095   -2.5956 C   0  0  0  0  0  0  0  0  0  0  0  0
   -7.7517   -4.8466   -3.6764 C   0  0  0  0  0  0  0  0  0  0  0  0
   -6.9543   -5.0368   -4.9272 C   0  0  0  0  0  0  0  0  0  0  0  0
   -8.7495   -3.9233   -3.6222 C   0  0  0  0  0  0  0  0  0  0  0  0
   -9.0529   -3.0805   -4.8179 C   0  0  0  0  0  0  0  0  0  0  0  0
   -9.4750   -3.7541   -2.4874 C   0  0  0  0  0  0  0  0  0  0  0  0
   -9.2219   -4.5150   -1.3461 C   0  0  0  0  0  0  0  0  0  0  0  0
   -9.9386   -4.3930   -0.1372 N   0  0  0  0  0  0  0  0  0  0  0  0
   -9.4881   -5.0610    1.0199 C   0  0  0  0  0  0  0  0  0  0  0  0
  -11.4085   -4.0587   -0.2154 C   0  0  0  0  0  0  0  0  0  0  0  0
  -11.7856   -2.5549   -0.0529 C   0  0  1  0  0  0  0  0  0  0  0  0
  -12.5256   -2.1113   -1.1813 O   0  0  0  0  0  0  0  0  0  0  0  0
  -12.5134   -2.2487    1.2778 C   0  0  1  0  0  0  0  0  0  0  0  0
  -11.8733   -2.9234    2.3569 O   0  0  0  0  0  0  0  0  0  0  0  0
  -12.7193   -0.7565    1.6368 C   0  0  1  0  0  0  0  0  0  0  0  0
  -13.3155   -0.6830    2.9272 O   0  0  0  0  0  0  0  0  0  0  0  0
  -11.3996    0.0472    1.6520 C   0  0  0  0  0  0  0  0  0  0  0  0
  -11.5609    1.3664    1.1442 O   0  0  0  0  0  0  0  0  0  0  0  0
  -12.3741    2.4872    1.9148 P   0  0  0  0  0  0  0  0  0  0  0  0
  -12.4899    3.7144    1.0948 O   0  0  0  0  0  0  0  0  0  0  0  0
  -13.5997    1.9204    2.5179 O   0  5  0  0  0  0  0  0  0  0  0  0
  -11.4214    2.8766    3.1296 O   0  5  0  0  0  0  0  0  0  0  0  0
  1 18  1  0  0  0  0
  1  2  1  0  0  0  0
  2  4  1  0  0  0  0
  2  3  2  0  0  0  0
  4  5  1  0  0  0  0
  5  7  1  0  0  0  0
  5  6  2  0  0  0  0
  7 18  2  0  0  0  0
  7  8  1  0  0  0  0
  8  9  1  0  0  0  0
  9 10  2  0  0  0  0
  9 16  1  0  0  0  0
 10 11  1  0  0  0  0
 11 12  1  0  0  0  0
 11 13  2  0  0  0  0
 13 14  1  0  0  0  0
 13 15  1  0  0  0  0
 15 16  2  0  0  0  0
 16 17  1  0  0  0  0
 17 19  1  0  0  0  0
 17 18  1  0  0  0  0
 20 19  1  6  0  0  0
 20 22  1  0  0  0  0
 20 21  1  0  0  0  0
 22 24  1  0  0  0  0
 22 23  1  1  0  0  0
 24 26  1  1  0  0  0
 24 25  1  0  0  0  0
 26 27  1  0  0  0  0
 27 28  1  0  0  0  0
 28 30  1  0  0  0  0
 28 29  2  0  0  0  0
 28 31  1  0  0  0  0
M  CHG  2  30  -1  31  -1
M  END
>  <CHROM.1>
-96.33081132,123.53261978,43.70853274,69.29285854,-175.97010882,179.93225491
142.68890693,-63.16123806,69.52869140,-174.40426900,-10.33771296,-2.78469629
0.54133734,0.08160742,-1.06246514,2.04076486

>  <Name>
1fmn_cryst

>  <RI>
0

>  <Rbt.Current_Directory>
/home/itssahil/PROJECTS/Mol_Feturizer/New_Systems/rnas/1fmn

>  <Rbt.Executable>
rbdock ($Id: //depot/dev/client3/rdock/2013.1/src/exe/rbdock.cxx#4 $)

>  <Rbt.Library>
libRbt.so (2013.1, Build901 2013/11/27)

>  <Rbt.Parameter_File>
/export/apps/rDock/src/rDock_2013.1_src/data/scripts/dock_solv.prm

>  <Rbt.Receptor>
prm/blind_docking_20.prm

>  <SCORE>
-32.9327

>  <SCORE.INTER>
-31.3275

>  <SCORE.INTER.CONST>
1

>  <SCORE.INTER.POLAR>
-1.13878

>  <SCORE.INTER.ROT>
7

>  <SCORE.INTER.SOLV>
26.1647

>  <SCORE.INTER.VDW>
-34.0773

>  <SCORE.INTER.norm>
-1.01057

>  <SCORE.INTRA>
-3.84754

>  <SCORE.INTRA.DIHEDRAL>
-1.99902

>  <SCORE.INTRA.DIHEDRAL.0>
15.5708

>  <SCORE.INTRA.POLAR>
-0.93939

>  <SCORE.INTRA.POLAR.0>
-0.0677885

>  <SCORE.INTRA.REPUL>
0

>  <SCORE.INTRA.REPUL.0>
0

>  <SCORE.INTRA.SOLV>
0.188281

>  <SCORE.INTRA.SOLV.lig_0>
-87.6316

>  <SCORE.INTRA.VDW>
0.25175

>  <SCORE.INTRA.VDW.0>
-2.87309

>  <SCORE.INTRA.norm>
-0.124114

>  <SCORE.RESTR>
2.24241

>  <SCORE.RESTR.CAVITY>
2.24241

>  <SCORE.RESTR.norm>
0.0723357

>  <SCORE.SYSTEM>
0

>  <SCORE.SYSTEM.CONST>
0

>  <SCORE.SYSTEM.DIHEDRAL>
0

>  <SCORE.SYSTEM.SOLV>
0

>  <SCORE.SYSTEM.norm>
0

>  <SCORE.heavy>
31

>  <SCORE.norm>
-1.06234

>  <SYMMETRIC_BONDS>
33 34 3

>  <RMSD>
8.060

$$$$
1fmn_cryst
 OpenBabel11021811393D
libRbt.so/2013.1/901 2013/11/27
 31 33  0  0  0  0  0  0  0  0999 V2000
  -10.2466   -4.7986    1.8543 N   0  0  0  0  0  0  0  0  0  0  0  0
   -9.8568   -5.4190    3.0182 C   0  0  0  0  0  0  0  0  0  0  0  0
  -10.4292   -5.2160    4.0895 O   0  0  0  0  0  0  0  0  0  0  0  0
   -8.7530   -6.3015    2.9070 N   0  0  0  0  0  0  0  0  0  0  0  0
   -8.0252   -6.5992    1.7341 C   0  0  0  0  0  0  0  0  0  0  0  0
   -7.0784   -7.3947    1.7786 O   0  0  0  0  0  0  0  0  0  0  0  0
   -8.5014   -5.8985    0.5393 C   0  0  0  0  0  0  0  0  0  0  0  0
   -7.8464   -6.1339   -0.6438 N   0  0  0  0  0  0  0  0  0  0  0  0
   -8.1725   -5.3490   -1.7116 C   0  0  0  0  0  0  0  0  0  0  0  0
   -7.3938   -5.4516   -2.8507 C   0  0  0  0  0  0  0  0  0  0  0  0
   -7.6590   -4.7045   -3.9475 C   0  0  0  0  0  0  0  0  0  0  0  0
   -6.7884   -4.8559   -5.1540 C   0  0  0  0  0  0  0  0  0  0  0  0
   -8.7026   -3.8317   -3.9488 C   0  0  0  0  0  0  0  0  0  0  0  0
   -8.9840   -3.0058   -5.1615 C   0  0  0  0  0  0  0  0  0  0  0  0
   -9.4943   -3.6979   -2.8542 C   0  0  0  0  0  0  0  0  0  0  0  0
   -9.2643   -4.4445   -1.6987 C   0  0  0  0  0  0  0  0  0  0  0  0
  -10.0489   -4.3574   -0.5295 N   0  0  0  0  0  0  0  0  0  0  0  0
   -9.6274   -5.0015    0.6519 C   0  0  0  0  0  0  0  0  0  0  0  0
  -11.5273   -4.0964   -0.6859 C   0  0  0  0  0  0  0  0  0  0  0  0
  -11.9633   -2.6010   -0.7465 C   0  0  1  0  0  0  0  0  0  0  0  0
  -13.0829   -2.4522   -1.6081 O   0  0  0  0  0  0  0  0  0  0  0  0
  -12.2161   -1.9821    0.6489 C   0  0  1  0  0  0  0  0  0  0  0  0
  -11.2322   -2.4341    1.5748 O   0  0  0  0  0  0  0  0  0  0  0  0
  -12.3379   -0.4400    0.7201 C   0  0  1  0  0  0  0  0  0  0  0  0
  -13.5812   -0.0602    0.1406 O   0  0  0  0  0  0  0  0  0  0  0  0
  -12.2761    0.1033    2.1653 C   0  0  0  0  0  0  0  0  0  0  0  0
  -13.5444    0.0796    2.8094 O   0  0  0  0  0  0  0  0  0  0  0  0
  -13.8555    0.9160    4.1190 P   0  0  0  0  0  0  0  0  0  0  0  0
  -14.8959    1.9369    3.8595 O   0  0  0  0  0  0  0  0  0  0  0  0
  -14.0184    0.0194    5.2837 O   0  5  0  0  0  0  0  0  0  0  0  0
  -12.5128    1.7330    4.3728 O   0  5  0  0  0  0  0  0  0  0  0  0
  1 18  1  0  0  0  0
  1  2  1  0  0  0  0
  2  4  1  0  0  0  0
  2  3  2  0  0  0  0
  4  5  1  0  0  0  0
  5  7  1  0  0  0  0
  5  6  2  0  0  0  0
  7 18  2  0  0  0  0
  7  8  1  0  0  0  0
  8  9  1  0  0  0  0
  9 10  2  0  0  0  0
  9 16  1  0  0  0  0
 10 11  1  0  0  0  0
 11 12  1  0  0  0  0
 11 13  2  0  0  0  0
 13 14  1  0  0  0  0
 13 15  1  0  0  0  0
 15 16  2  0  0  0  0
 16 17  1  0  0  0  0
 17 19  1  0  0  0  0
 17 18  1  0  0  0  0
 20 19  1  1  0  0  0
 20 22  1  0  0  0  0
 20 21  1  0  0  0  0
 22 24  1  0  0  0  0
 22 23  1  1  0  0  0
 24 26  1  1  0  0  0
 24 25  1  0  0  0  0
 26 27  1  0  0  0  0
 27 28  1  0  0  0  0
 28 30  1  0  0  0  0
 28 29  2  0  0  0  0
 28 31  1  0  0  0  0
M  CHG  2  30  -1  31  -1
M  END
>  <CHROM.1>
-88.12786174,146.31623265,40.10365797,-54.60419589,72.06033611,-172.52530725
-84.96892280,56.68202193,-163.14796720,115.84583953,-10.69888137,-3.00711001
0.60326033,-0.40156692,-0.91033347,1.83020652

>  <Name>
1fmn_cryst

>  <RI>
0

>  <Rbt.Current_Directory>
/home/itssahil/PROJECTS/Mol_Feturizer/New_Systems/rnas/1fmn

>  <Rbt.Executable>
rbdock ($Id: //depot/dev/client3/rdock/2013.1/src/exe/rbdock.cxx#4 $)

>  <Rbt.Library>
libRbt.so (2013.1, Build901 2013/11/27)

>  <Rbt.Parameter_File>
/export/apps/rDock/src/rDock_2013.1_src/data/scripts/dock_solv.prm

>  <Rbt.Receptor>
prm/blind_docking_80.prm

>  <SCORE>
-37.44

>  <SCORE.INTER>
-37.119

>  <SCORE.INTER.CONST>
1

>  <SCORE.INTER.POLAR>
-1.58528

>  <SCORE.INTER.ROT>
7

>  <SCORE.INTER.SOLV>
25.9125

>  <SCORE.INTER.VDW>
-36.3659

>  <SCORE.INTER.norm>
-1.19739

>  <SCORE.INTRA>
-2.35343

>  <SCORE.INTRA.DIHEDRAL>
-2.08804

>  <SCORE.INTRA.DIHEDRAL.0>
15.5708

>  <SCORE.INTRA.POLAR>
-0.598349

>  <SCORE.INTRA.POLAR.0>
-0.0677885

>  <SCORE.INTRA.REPUL>
0.0070414

>  <SCORE.INTRA.REPUL.0>
0

>  <SCORE.INTRA.SOLV>
-3.38064

>  <SCORE.INTRA.SOLV.lig_0>
-87.6316

>  <SCORE.INTRA.VDW>
2.38009

>  <SCORE.INTRA.VDW.0>
-2.87309

>  <SCORE.INTRA.norm>
-0.0759171

>  <SCORE.RESTR>
2.03241

>  <SCORE.RESTR.CAVITY>
2.03241

>  <SCORE.RESTR.norm>
0.0655616

>  <SCORE.SYSTEM>
0

>  <SCORE.SYSTEM.CONST>
0

>  <SCORE.SYSTEM.DIHEDRAL>
0

>  <SCORE.SYSTEM.SOLV>
0

>  <SCORE.SYSTEM.norm>
0

>  <SCORE.heavy>
31

>  <SCORE.norm>
-1.20774

>  <SYMMETRIC_BONDS>
33 34 3

>  <RMSD>
8.107

$$$$
1fmn_cryst
 OpenBabel11021811393D
libRbt.so/2013.1/901 2013/11/27
 31 33  0  0  0  0  0  0  0  0999 V2000
  -10.2556   -4.7161    2.3997 N   0  0  0  0  0  0  0  0  0  0  0  0
   -9.8195   -5.3756    3.5250 C   0  0  0  0  0  0  0  0  0  0  0  0
  -10.2908   -5.1469    4.6395 O   0  0  0  0  0  0  0  0  0  0  0  0
   -8.7912   -6.3298    3.3211 N   0  0  0  0  0  0  0  0  0  0  0  0
   -8.1798   -6.6623    2.0924 C   0  0  0  0  0  0  0  0  0  0  0  0
   -7.2895   -7.5210    2.0567 O   0  0  0  0  0  0  0  0  0  0  0  0
   -8.6988   -5.9165    0.9436 C   0  0  0  0  0  0  0  0  0  0  0  0
   -8.1563   -6.1817   -0.2891 N   0  0  0  0  0  0  0  0  0  0  0  0
   -8.5102   -5.3636   -1.3225 C   0  0  0  0  0  0  0  0  0  0  0  0
   -7.8321   -5.5054   -2.5202 C   0  0  0  0  0  0  0  0  0  0  0  0
   -8.1303   -4.7288   -3.5876 C   0  0  0  0  0  0  0  0  0  0  0  0
   -7.3695   -4.9246   -4.8601 C   0  0  0  0  0  0  0  0  0  0  0  0
   -9.1082   -3.7869   -3.5007 C   0  0  0  0  0  0  0  0  0  0  0  0
   -9.4262   -2.9292   -4.6820 C   0  0  0  0  0  0  0  0  0  0  0  0
   -9.8006   -3.6126   -2.3461 C   0  0  0  0  0  0  0  0  0  0  0  0
   -9.5328   -4.3870   -1.2174 C   0  0  0  0  0  0  0  0  0  0  0  0
  -10.2154   -4.2607    0.0107 N   0  0  0  0  0  0  0  0  0  0  0  0
   -9.7480   -4.9462    1.1508 C   0  0  0  0  0  0  0  0  0  0  0  0
  -11.6800   -3.8977   -0.0267 C   0  0  0  0  0  0  0  0  0  0  0  0
  -12.0147   -2.3757   -0.0696 C   0  0  1  0  0  0  0  0  0  0  0  0
  -13.0564   -2.1299   -1.0036 O   0  0  0  0  0  0  0  0  0  0  0  0
  -12.3295   -1.7807    1.3236 C   0  0  1  0  0  0  0  0  0  0  0  0
  -12.0109   -2.7211    2.3452 O   0  0  0  0  0  0  0  0  0  0  0  0
  -11.6995   -0.4061    1.6573 C   0  0  1  0  0  0  0  0  0  0  0  0
  -12.0803    0.5201    0.6459 O   0  0  0  0  0  0  0  0  0  0  0  0
  -12.1469    0.1446    3.0300 C   0  0  0  0  0  0  0  0  0  0  0  0
  -13.5310    0.4724    3.0591 O   0  0  0  0  0  0  0  0  0  0  0  0
  -14.2095    1.2154    4.2833 P   0  0  0  0  0  0  0  0  0  0  0  0
  -15.6232    1.5405    3.9868 O   0  0  0  0  0  0  0  0  0  0  0  0
  -13.8930    0.5252    5.5524 O   0  5  0  0  0  0  0  0  0  0  0  0
  -13.4546    2.6160    4.3401 O   0  5  0  0  0  0  0  0  0  0  0  0
  1 18  1  0  0  0  0
  1  2  1  0  0  0  0
  2  4  1  0  0  0  0
  2  3  2  0  0  0  0
  4  5  1  0  0  0  0
  5  7  1  0  0  0  0
  5  6  2  0  0  0  0
  7 18  2  0  0  0  0
  7  8  1  0  0  0  0
  8  9  1  0  0  0  0
  9 10  2  0  0  0  0
  9 16  1  0  0  0  0
 10 11  1  0  0  0  0
 11 12  1  0  0  0  0
 11 13  2  0  0  0  0
 13 14  1  0  0  0  0
 13 15  1  0  0  0  0
 15 16  2  0  0  0  0
 16 17  1  0  0  0  0
 17 19  1  0  0  0  0
 17 18  1  0  0  0  0
 20 19  1  1  0  0  0
 20 22  1  0  0  0  0
 20 21  1  0  0  0  0
 22 24  1  0  0  0  0
 22 23  1  1  0  0  0
 24 26  1  1  0  0  0
 24 25  1  0  0  0  0
 26 27  1  0  0  0  0
 27 28  1  0  0  0  0
 28 30  1  0  0  0  0
 28 29  2  0  0  0  0
 28 31  1  0  0  0  0
M  CHG  2  30  -1  31  -1
M  END
>  <CHROM.1>
-87.02705547,137.12614315,10.08053624,85.72526011,55.59787609,-79.99735780
-66.75830221,-173.72484593,-172.49493375,174.60806659,-10.86147732,-2.88904756
1.04737659,-0.33440667,-0.94950971,1.86063557

>  <Name>
1fmn_cryst

>  <RI>
0

>  <Rbt.Current_Directory>
/home/itssahil/PROJECTS/Mol_Feturizer/New_Systems/rnas/1fmn

>  <Rbt.Executable>
rbdock ($Id: //depot/dev/client3/rdock/2013.1/src/exe/rbdock.cxx#4 $)

>  <Rbt.Library>
libRbt.so (2013.1, Build901 2013/11/27)

>  <Rbt.Parameter_File>
/export/apps/rDock/src/rDock_2013.1_src/data/scripts/dock_solv.prm

>  <Rbt.Receptor>
prm/blind_docking_80.prm

>  <SCORE>
-27.7652

>  <SCORE.INTER>
-25.6578

>  <SCORE.INTER.CONST>
1

>  <SCORE.INTER.POLAR>
-0.0618753

>  <SCORE.INTER.ROT>
7

>  <SCORE.INTER.SOLV>
26.1228

>  <SCORE.INTER.VDW>
-33.8732

>  <SCORE.INTER.norm>
-0.827672

>  <SCORE.INTRA>
-2.92995

>  <SCORE.INTRA.DIHEDRAL>
1.01039

>  <SCORE.INTRA.DIHEDRAL.0>
15.5708

>  <SCORE.INTRA.POLAR>
-0.932211

>  <SCORE.INTRA.POLAR.0>
-0.0677885

>  <SCORE.INTRA.REPUL>
0

>  <SCORE.INTRA.REPUL.0>
0

>  <SCORE.INTRA.SOLV>
-3.60404

>  <SCORE.INTRA.SOLV.lig_0>
-87.6316

>  <SCORE.INTRA.VDW>
1.5364

>  <SCORE.INTRA.VDW.0>
-2.87309

>  <SCORE.INTRA.norm>
-0.0945144

>  <SCORE.RESTR>
0.822591

>  <SCORE.RESTR.CAVITY>
0.822591

>  <SCORE.RESTR.norm>
0.0265352

>  <SCORE.SYSTEM>
0

>  <SCORE.SYSTEM.CONST>
0

>  <SCORE.SYSTEM.DIHEDRAL>
0

>  <SCORE.SYSTEM.SOLV>
0

>  <SCORE.SYSTEM.norm>
0

>  <SCORE.heavy>
31

>  <SCORE.norm>
-0.895652

>  <SYMMETRIC_BONDS>
33 34 3

>  <RMSD>
8.139

$$$$
1fmn_cryst
 OpenBabel11021811393D
libRbt.so/2013.1/901 2013/11/27
 31 33  0  0  0  0  0  0  0  0999 V2000
  -10.2994   -4.6938    1.5366 N   0  0  0  0  0  0  0  0  0  0  0  0
   -9.9411   -5.3118    2.7119 C   0  0  0  0  0  0  0  0  0  0  0  0
  -10.5422   -5.1064    3.7669 O   0  0  0  0  0  0  0  0  0  0  0  0
   -8.8349   -6.1946    2.6323 N   0  0  0  0  0  0  0  0  0  0  0  0
   -8.0758   -6.4948    1.4800 C   0  0  0  0  0  0  0  0  0  0  0  0
   -7.1306   -7.2903    1.5517 O   0  0  0  0  0  0  0  0  0  0  0  0
   -8.5195   -5.7966    0.2714 C   0  0  0  0  0  0  0  0  0  0  0  0
   -7.8330   -6.0345   -0.8932 N   0  0  0  0  0  0  0  0  0  0  0  0
   -8.1301   -5.2519   -1.9710 C   0  0  0  0  0  0  0  0  0  0  0  0
   -7.3209   -5.3570   -3.0885 C   0  0  0  0  0  0  0  0  0  0  0  0
   -7.5564   -4.6122   -4.1936 C   0  0  0  0  0  0  0  0  0  0  0  0
   -6.6537   -4.7661   -5.3758 C   0  0  0  0  0  0  0  0  0  0  0  0
   -8.5995   -3.7392   -4.2248 C   0  0  0  0  0  0  0  0  0  0  0  0
   -8.8480   -2.9159   -5.4465 C   0  0  0  0  0  0  0  0  0  0  0  0
   -9.4204   -3.6031   -3.1522 C   0  0  0  0  0  0  0  0  0  0  0  0
   -9.2217   -4.3473   -1.9894 C   0  0  0  0  0  0  0  0  0  0  0  0
  -10.0374   -4.2576   -0.8420 N   0  0  0  0  0  0  0  0  0  0  0  0
   -9.6481   -4.8992    0.3517 C   0  0  0  0  0  0  0  0  0  0  0  0
  -11.5111   -3.9968   -1.0387 C   0  0  0  0  0  0  0  0  0  0  0  0
  -11.9648   -2.5068   -0.9732 C   0  0  1  0  0  0  0  0  0  0  0  0
  -12.6872   -2.1632   -2.1471 O   0  0  0  0  0  0  0  0  0  0  0  0
  -12.7504   -2.1643    0.3151 C   0  0  1  0  0  0  0  0  0  0  0  0
  -12.2479   -2.9180    1.4146 O   0  0  0  0  0  0  0  0  0  0  0  0
  -12.8449   -0.6677    0.7013 C   0  0  1  0  0  0  0  0  0  0  0  0
  -14.0668   -0.4606    1.4013 O   0  0  0  0  0  0  0  0  0  0  0  0
  -11.6742   -0.2009    1.5952 C   0  0  0  0  0  0  0  0  0  0  0  0
  -11.5002    1.2109    1.5696 O   0  0  0  0  0  0  0  0  0  0  0  0
  -12.3621    2.1964    2.4624 P   0  0  0  0  0  0  0  0  0  0  0  0
  -13.5658    1.5150    2.9906 O   0  0  0  0  0  0  0  0  0  0  0  0
  -11.4968    2.9371    3.4055 O   0  5  0  0  0  0  0  0  0  0  0  0
  -12.9052    3.2714    1.4212 O   0  5  0  0  0  0  0  0  0  0  0  0
  1 18  1  0  0  0  0
  1  2  1  0  0  0  0
  2  4  1  0  0  0  0
  2  3  2  0  0  0  0
  4  5  1  0  0  0  0
  5  7  1  0  0  0  0
  5  6  2  0  0  0  0
  7 18  2  0  0  0  0
  7  8  1  0  0  0  0
  8  9  1  0  0  0  0
  9 10  2  0  0  0  0
  9 16  1  0  0  0  0
 10 11  1  0  0  0  0
 11 12  1  0  0  0  0
 11 13  2  0  0  0  0
 13 14  1  0  0  0  0
 13 15  1  0  0  0  0
 15 16  2  0  0  0  0
 16 17  1  0  0  0  0
 17 19  1  0  0  0  0
 17 18  1  0  0  0  0
 20 19  1  6  0  0  0
 20 22  1  0  0  0  0
 20 21  1  0  0  0  0
 22 24  1  0  0  0  0
 22 23  1  1  0  0  0
 24 26  1  1  0  0  0
 24 25  1  0  0  0  0
 26 27  1  0  0  0  0
 27 28  1  0  0  0  0
 28 30  1  0  0  0  0
 28 29  2  0  0  0  0
 28 31  1  0  0  0  0
M  CHG  2  30  -1  31  -1
M  END
>  <CHROM.1>
-93.97184884,125.88104884,34.25465068,45.94934241,150.25968229,176.19546942
159.69920116,55.43739886,82.26221565,-16.01317369,-10.45069521,-2.72462179
0.07911091,-0.09728178,-1.04360691,1.99874121

>  <Name>
1fmn_cryst

>  <RI>
0

>  <Rbt.Current_Directory>
/home/itssahil/PROJECTS/Mol_Feturizer/New_Systems/rnas/1fmn

>  <Rbt.Executable>
rbdock ($Id: //depot/dev/client3/rdock/2013.1/src/exe/rbdock.cxx#4 $)

>  <Rbt.Library>
libRbt.so (2013.1, Build901 2013/11/27)

>  <Rbt.Parameter_File>
/export/apps/rDock/src/rDock_2013.1_src/data/scripts/dock_solv.prm

>  <Rbt.Receptor>
prm/blind_docking_80.prm

>  <SCORE>
-29.8412

>  <SCORE.INTER>
-31.9552

>  <SCORE.INTER.CONST>
1

>  <SCORE.INTER.POLAR>
-1.47555

>  <SCORE.INTER.ROT>
7

>  <SCORE.INTER.SOLV>
24.747

>  <SCORE.INTER.VDW>
-32.9006

>  <SCORE.INTER.norm>
-1.03081

>  <SCORE.INTRA>
0.142654

>  <SCORE.INTRA.DIHEDRAL>
3.62849

>  <SCORE.INTRA.DIHEDRAL.0>
15.5708

>  <SCORE.INTRA.POLAR>
-0.901529

>  <SCORE.INTRA.POLAR.0>
-0.0677885

>  <SCORE.INTRA.REPUL>
0

>  <SCORE.INTRA.REPUL.0>
0

>  <SCORE.INTRA.SOLV>
-0.0244999

>  <SCORE.INTRA.SOLV.lig_0>
-87.6316

>  <SCORE.INTRA.VDW>
1.40586

>  <SCORE.INTRA.VDW.0>
-2.87309

>  <SCORE.INTRA.norm>
0.00460174

>  <SCORE.RESTR>
1.97133

>  <SCORE.RESTR.CAVITY>
1.97133

>  <SCORE.RESTR.norm>
0.0635912

>  <SCORE.SYSTEM>
0

>  <SCORE.SYSTEM.CONST>
0

>  <SCORE.SYSTEM.DIHEDRAL>
0

>  <SCORE.SYSTEM.SOLV>
0

>  <SCORE.SYSTEM.norm>
0

>  <SCORE.heavy>
31

>  <SCORE.norm>
-0.96262

>  <SYMMETRIC_BONDS>
33 34 3

>  <RMSD>
8.184

$$$$
1fmn_cryst
 OpenBabel11021811393D
libRbt.so/2013.1/901 2013/11/27
 31 33  0  0  0  0  0  0  0  0999 V2000
  -10.1151   -5.2458    3.6682 N   0  0  0  0  0  0  0  0  0  0  0  0
   -9.5469   -5.8741    4.7517 C   0  0  0  0  0  0  0  0  0  0  0  0
   -9.9818   -5.7259    5.8943 O   0  0  0  0  0  0  0  0  0  0  0  0
   -8.4278   -6.6975    4.4704 N   0  0  0  0  0  0  0  0  0  0  0  0
   -7.8481   -6.9300    3.2039 C   0  0  0  0  0  0  0  0  0  0  0  0
   -6.8679   -7.6782    3.1000 O   0  0  0  0  0  0  0  0  0  0  0  0
   -8.5095   -6.2251    2.1035 C   0  0  0  0  0  0  0  0  0  0  0  0
   -8.0062   -6.3987    0.8384 N   0  0  0  0  0  0  0  0  0  0  0  0
   -8.5061   -5.6053   -0.1532 C   0  0  0  0  0  0  0  0  0  0  0  0
   -7.8805   -5.6413   -1.3867 C   0  0  0  0  0  0  0  0  0  0  0  0
   -8.3223   -4.8820   -2.4161 C   0  0  0  0  0  0  0  0  0  0  0  0
   -7.6124   -4.9603   -3.7300 C   0  0  0  0  0  0  0  0  0  0  0  0
   -9.3962   -4.0624   -2.2544 C   0  0  0  0  0  0  0  0  0  0  0  0
   -9.8729   -3.2224   -3.3942 C   0  0  0  0  0  0  0  0  0  0  0  0
  -10.0420   -3.9949   -1.0622 C   0  0  0  0  0  0  0  0  0  0  0  0
   -9.6274   -4.7570    0.0299 C   0  0  0  0  0  0  0  0  0  0  0  0
  -10.2540   -4.7375    1.2936 N   0  0  0  0  0  0  0  0  0  0  0  0
   -9.6512   -5.3882    2.3896 C   0  0  0  0  0  0  0  0  0  0  0  0
  -11.7506   -4.5468    1.3397 C   0  0  0  0  0  0  0  0  0  0  0  0
  -12.2648   -3.2915    2.1078 C   0  0  1  0  0  0  0  0  0  0  0  0
  -11.9316   -3.3901    3.4852 O   0  0  0  0  0  0  0  0  0  0  0  0
  -11.7859   -1.9576    1.4869 C   0  0  1  0  0  0  0  0  0  0  0  0
  -12.4787   -1.7038    0.2682 O   0  0  0  0  0  0  0  0  0  0  0  0
  -11.8382   -0.7036    2.3939 C   0  0  1  0  0  0  0  0  0  0  0  0
  -11.2226    0.3773    1.7021 O   0  0  0  0  0  0  0  0  0  0  0  0
  -13.2789   -0.2947    2.7744 C   0  0  0  0  0  0  0  0  0  0  0  0
  -13.3175    0.8886    3.5633 O   0  0  0  0  0  0  0  0  0  0  0  0
  -14.6724    1.6033    3.9693 P   0  0  0  0  0  0  0  0  0  0  0  0
  -14.4232    2.9910    4.4213 O   0  0  0  0  0  0  0  0  0  0  0  0
  -15.7130    1.3684    2.9451 O   0  5  0  0  0  0  0  0  0  0  0  0
  -15.1421    0.8115    5.2683 O   0  5  0  0  0  0  0  0  0  0  0  0
  1 18  1  0  0  0  0
  1  2  1  0  0  0  0
  2  4  1  0  0  0  0
  2  3  2  0  0  0  0
  4  5  1  0  0  0  0
  5  7  1  0  0  0  0
  5  6  2  0  0  0  0
  7 18  2  0  0  0  0
  7  8  1  0  0  0  0
  8  9  1  0  0  0  0
  9 10  2  0  0  0  0
  9 16  1  0  0  0  0
 10 11  1  0  0  0  0
 11 12  1  0  0  0  0
 11 13  2  0  0  0  0
 13 14  1  0  0  0  0
 13 15  1  0  0  0  0
 15 16  2  0  0  0  0
 16 17  1  0  0  0  0
 17 19  1  0  0  0  0
 17 18  1  0  0  0  0
 20 19  1  6  0  0  0
 20 22  1  0  0  0  0
 20 21  1  0  0  0  0
 22 24  1  0  0  0  0
 22 23  1  6  0  0  0
 24 26  1  6  0  0  0
 24 25  1  0  0  0  0
 26 27  1  0  0  0  0
 27 28  1  0  0  0  0
 28 30  1  0  0  0  0
 28 29  2  0  0  0  0
 28 31  1  0  0  0  0
M  CHG  2  30  -1  31  -1
M  END
>  <CHROM.1>
-119.58669719,-64.30786682,72.84400581,-179.11308756,173.51589244,61.06534769
-177.65465578,-67.21049787,173.87994387,-162.93027143,-10.91707352,-3.08710206
1.88812529,-0.09337803,-0.91543566,1.87340572

>  <Name>
1fmn_cryst

>  <RI>
0

>  <Rbt.Current_Directory>
/home/itssahil/PROJECTS/Mol_Feturizer/New_Systems/rnas/1fmn

>  <Rbt.Executable>
rbdock ($Id: //depot/dev/client3/rdock/2013.1/src/exe/rbdock.cxx#4 $)

>  <Rbt.Library>
libRbt.so (2013.1, Build901 2013/11/27)

>  <Rbt.Parameter_File>
/export/apps/rDock/src/rDock_2013.1_src/data/scripts/dock_solv.prm

>  <Rbt.Receptor>
prm/blind_docking_40.prm

>  <SCORE>
-36.7645

>  <SCORE.INTER>
-28.9807

>  <SCORE.INTER.CONST>
1

>  <SCORE.INTER.POLAR>
-1.72438

>  <SCORE.INTER.ROT>
7

>  <SCORE.INTER.SOLV>
26.5011

>  <SCORE.INTER.VDW>
-30.6729

>  <SCORE.INTER.norm>
-0.934862

>  <SCORE.INTRA>
-10.1081

>  <SCORE.INTRA.DIHEDRAL>
-10.9494

>  <SCORE.INTRA.DIHEDRAL.0>
15.5708

>  <SCORE.INTRA.POLAR>
-0.932211

>  <SCORE.INTRA.POLAR.0>
-0.0677885

>  <SCORE.INTRA.REPUL>
0

>  <SCORE.INTRA.REPUL.0>
0

>  <SCORE.INTRA.SOLV>
-3.66952

>  <SCORE.INTRA.SOLV.lig_0>
-87.6316

>  <SCORE.INTRA.VDW>
0.370869

>  <SCORE.INTRA.VDW.0>
-2.87309

>  <SCORE.INTRA.norm>
-0.326069

>  <SCORE.RESTR>
2.32437

>  <SCORE.RESTR.CAVITY>
2.32437

>  <SCORE.RESTR.norm>
0.0749797

>  <SCORE.SYSTEM>
0

>  <SCORE.SYSTEM.CONST>
0

>  <SCORE.SYSTEM.DIHEDRAL>
0

>  <SCORE.SYSTEM.SOLV>
0

>  <SCORE.SYSTEM.norm>
0

>  <SCORE.heavy>
31

>  <SCORE.norm>
-1.18595

>  <SYMMETRIC_BONDS>
33 34 3

>  <RMSD>
8.219

$$$$
1fmn_cryst
 OpenBabel11021811393D
libRbt.so/2013.1/901 2013/11/27
 31 33  0  0  0  0  0  0  0  0999 V2000
  -10.1937   -5.1835    3.3799 N   0  0  0  0  0  0  0  0  0  0  0  0
   -9.7741   -5.7337    4.5684 C   0  0  0  0  0  0  0  0  0  0  0  0
  -10.3534   -5.5100    5.6318 O   0  0  0  0  0  0  0  0  0  0  0  0
   -8.6314   -6.5691    4.4920 N   0  0  0  0  0  0  0  0  0  0  0  0
   -7.8926   -6.8846    3.3306 C   0  0  0  0  0  0  0  0  0  0  0  0
   -6.9105   -7.6335    3.4065 O   0  0  0  0  0  0  0  0  0  0  0  0
   -8.4023   -6.2596    2.1080 C   0  0  0  0  0  0  0  0  0  0  0  0
   -7.7392   -6.5167    0.9339 N   0  0  0  0  0  0  0  0  0  0  0  0
   -8.1025   -5.7952   -0.1661 C   0  0  0  0  0  0  0  0  0  0  0  0
   -7.3218   -5.9123   -1.3024 C   0  0  0  0  0  0  0  0  0  0  0  0
   -7.6226   -5.2270   -2.4299 C   0  0  0  0  0  0  0  0  0  0  0  0
   -6.7480   -5.3915   -3.6317 C   0  0  0  0  0  0  0  0  0  0  0  0
   -8.7050   -4.4035   -2.4656 C   0  0  0  0  0  0  0  0  0  0  0  0
   -9.0258   -3.6454   -3.7124 C   0  0  0  0  0  0  0  0  0  0  0  0
   -9.5002   -4.2578   -1.3751 C   0  0  0  0  0  0  0  0  0  0  0  0
   -9.2345   -4.9416   -0.1888 C   0  0  0  0  0  0  0  0  0  0  0  0
  -10.0202   -4.8390    0.9783 N   0  0  0  0  0  0  0  0  0  0  0  0
   -9.5679   -5.4106    2.1852 C   0  0  0  0  0  0  0  0  0  0  0  0
  -11.5093   -4.6527    0.8160 C   0  0  0  0  0  0  0  0  0  0  0  0
  -12.1193   -3.3676    1.4535 C   0  0  1  0  0  0  0  0  0  0  0  0
  -11.7077   -3.2506    2.8081 O   0  0  0  0  0  0  0  0  0  0  0  0
  -11.8228   -2.0840    0.6420 C   0  0  1  0  0  0  0  0  0  0  0  0
  -12.5106   -2.1189   -0.6052 O   0  0  0  0  0  0  0  0  0  0  0  0
  -12.0830   -0.7315    1.3497 C   0  0  1  0  0  0  0  0  0  0  0  0
  -10.9993   -0.4721    2.2353 O   0  0  0  0  0  0  0  0  0  0  0  0
  -12.2124    0.4502    0.3625 C   0  0  0  0  0  0  0  0  0  0  0  0
  -12.1001    1.7128    1.0085 O   0  0  0  0  0  0  0  0  0  0  0  0
  -12.0043    3.0780    0.2096 P   0  0  0  0  0  0  0  0  0  0  0  0
  -11.9122    4.2281    1.1374 O   0  0  0  0  0  0  0  0  0  0  0  0
  -11.0176    2.9722   -0.8868 O   0  5  0  0  0  0  0  0  0  0  0  0
  -13.4297    3.2079   -0.4877 O   0  5  0  0  0  0  0  0  0  0  0  0
  1 18  1  0  0  0  0
  1  2  1  0  0  0  0
  2  4  1  0  0  0  0
  2  3  2  0  0  0  0
  4  5  1  0  0  0  0
  5  7  1  0  0  0  0
  5  6  2  0  0  0  0
  7 18  2  0  0  0  0
  7  8  1  0  0  0  0
  8  9  1  0  0  0  0
  9 10  2  0  0  0  0
  9 16  1  0  0  0  0
 10 11  1  0  0  0  0
 11 12  1  0  0  0  0
 11 13  2  0  0  0  0
 13 14  1  0  0  0  0
 13 15  1  0  0  0  0
 15 16  2  0  0  0  0
 16 17  1  0  0  0  0
 17 19  1  0  0  0  0
 17 18  1  0  0  0  0
 20 19  1  6  0  0  0
 20 22  1  0  0  0  0
 20 21  1  0  0  0  0
 22 24  1  0  0  0  0
 22 23  1  6  0  0  0
 24 26  1  6  0  0  0
 24 25  1  0  0  0  0
 26 27  1  0  0  0  0
 27 28  1  0  0  0  0
 28 30  1  0  0  0  0
 28 29  2  0  0  0  0
 28 31  1  0  0  0  0
M  CHG  2  30  -1  31  -1
M  END
>  <CHROM.1>
-121.03576644,-50.85054304,67.78738517,-172.27339674,78.26075576,64.01451052
-164.60061370,-178.94070995,171.67959142,179.33523396,-10.19642981,-2.86074484
0.84636517,0.64556978,-1.04500006,2.12895436

>  <Name>
1fmn_cryst

>  <RI>
0

>  <Rbt.Current_Directory>
/home/itssahil/PROJECTS/Mol_Feturizer/New_Systems/rnas/1fmn

>  <Rbt.Executable>
rbdock ($Id: //depot/dev/client3/rdock/2013.1/src/exe/rbdock.cxx#4 $)

>  <Rbt.Library>
libRbt.so (2013.1, Build901 2013/11/27)

>  <Rbt.Parameter_File>
/export/apps/rDock/src/rDock_2013.1_src/data/scripts/dock_solv.prm

>  <Rbt.Receptor>
prm/blind_docking_60.prm

>  <SCORE>
-38.7565

>  <SCORE.INTER>
-33.2141

>  <SCORE.INTER.CONST>
1

>  <SCORE.INTER.POLAR>
-3.29861

>  <SCORE.INTER.ROT>
7

>  <SCORE.INTER.SOLV>
30.4474

>  <SCORE.INTER.VDW>
-29.5632

>  <SCORE.INTER.norm>
-1.07142

>  <SCORE.INTRA>
-8.26341

>  <SCORE.INTRA.DIHEDRAL>
-9.9689

>  <SCORE.INTRA.DIHEDRAL.0>
15.5708

>  <SCORE.INTRA.POLAR>
-0.792167

>  <SCORE.INTRA.POLAR.0>
-0.0677885

>  <SCORE.INTRA.REPUL>
0

>  <SCORE.INTRA.REPUL.0>
0

>  <SCORE.INTRA.SOLV>
-3.31617

>  <SCORE.INTRA.SOLV.lig_0>
-87.6316

>  <SCORE.INTRA.VDW>
1.0725

>  <SCORE.INTRA.VDW.0>
-2.87309

>  <SCORE.INTRA.norm>
-0.266561

>  <SCORE.RESTR>
2.72106

>  <SCORE.RESTR.CAVITY>
2.72106

>  <SCORE.RESTR.norm>
0.0877761

>  <SCORE.SYSTEM>
0

>  <SCORE.SYSTEM.CONST>
0

>  <SCORE.SYSTEM.DIHEDRAL>
0

>  <SCORE.SYSTEM.SOLV>
0

>  <SCORE.SYSTEM.norm>
0

>  <SCORE.heavy>
31

>  <SCORE.norm>
-1.25021

>  <SYMMETRIC_BONDS>
33 34 3

>  <RMSD>
8.222

$$$$
1fmn_cryst
 OpenBabel11021811393D
libRbt.so/2013.1/901 2013/11/27
 31 33  0  0  0  0  0  0  0  0999 V2000
  -10.4110   -4.6357    2.2408 N   0  0  0  0  0  0  0  0  0  0  0  0
  -10.0502   -5.2540    3.4151 C   0  0  0  0  0  0  0  0  0  0  0  0
  -10.6082   -5.0023    4.4836 O   0  0  0  0  0  0  0  0  0  0  0  0
   -8.9937   -6.1942    3.3179 N   0  0  0  0  0  0  0  0  0  0  0  0
   -8.2857   -6.5503    2.1491 C   0  0  0  0  0  0  0  0  0  0  0  0
   -7.3810   -7.3927    2.2064 O   0  0  0  0  0  0  0  0  0  0  0  0
   -8.7287   -5.8479    0.9427 C   0  0  0  0  0  0  0  0  0  0  0  0
   -8.0902   -6.1382   -0.2372 N   0  0  0  0  0  0  0  0  0  0  0  0
   -8.3786   -5.3572   -1.3186 C   0  0  0  0  0  0  0  0  0  0  0  0
   -7.6095   -5.5206   -2.4572 C   0  0  0  0  0  0  0  0  0  0  0  0
   -7.8391   -4.7809   -3.5669 C   0  0  0  0  0  0  0  0  0  0  0  0
   -6.9811   -4.9989   -4.7722 C   0  0  0  0  0  0  0  0  0  0  0  0
   -8.8364   -3.8556   -3.5821 C   0  0  0  0  0  0  0  0  0  0  0  0
   -9.0785   -3.0385   -4.8093 C   0  0  0  0  0  0  0  0  0  0  0  0
   -9.6169   -3.6612   -2.4886 C   0  0  0  0  0  0  0  0  0  0  0  0
   -9.4223   -4.3975   -1.3200 C   0  0  0  0  0  0  0  0  0  0  0  0
  -10.1978   -4.2488   -0.1511 N   0  0  0  0  0  0  0  0  0  0  0  0
   -9.8066   -4.8920    1.0410 C   0  0  0  0  0  0  0  0  0  0  0  0
  -11.6613   -3.9147   -0.3093 C   0  0  0  0  0  0  0  0  0  0  0  0
  -12.0658   -2.4333   -0.0410 C   0  0  1  0  0  0  0  0  0  0  0  0
  -13.3514   -2.1708   -0.5853 O   0  0  0  0  0  0  0  0  0  0  0  0
  -11.9733   -2.0363    1.4516 C   0  0  1  0  0  0  0  0  0  0  0  0
  -11.0009   -1.0106    1.6301 O   0  0  0  0  0  0  0  0  0  0  0  0
  -13.2946   -1.6380    2.1541 C   0  0  1  0  0  0  0  0  0  0  0  0
  -13.4415   -2.4383    3.3220 O   0  0  0  0  0  0  0  0  0  0  0  0
  -13.3342   -0.1486    2.5636 C   0  0  0  0  0  0  0  0  0  0  0  0
  -13.0958    0.7235    1.4651 O   0  0  0  0  0  0  0  0  0  0  0  0
  -12.9210    2.2891    1.6368 P   0  0  0  0  0  0  0  0  0  0  0  0
  -14.1221    2.8899    2.2603 O   0  0  0  0  0  0  0  0  0  0  0  0
  -11.5938    2.6061    2.2070 O   0  5  0  0  0  0  0  0  0  0  0  0
  -12.9021    2.8330    0.1406 O   0  5  0  0  0  0  0  0  0  0  0  0
  1 18  1  0  0  0  0
  1  2  1  0  0  0  0
  2  4  1  0  0  0  0
  2  3  2  0  0  0  0
  4  5  1  0  0  0  0
  5  7  1  0  0  0  0
  5  6  2  0  0  0  0
  7 18  2  0  0  0  0
  7  8  1  0  0  0  0
  8  9  1  0  0  0  0
  9 10  2  0  0  0  0
  9 16  1  0  0  0  0
 10 11  1  0  0  0  0
 11 12  1  0  0  0  0
 11 13  2  0  0  0  0
 13 14  1  0  0  0  0
 13 15  1  0  0  0  0
 15 16  2  0  0  0  0
 16 17  1  0  0  0  0
 17 19  1  0  0  0  0
 17 18  1  0  0  0  0
 20 19  1  1  0  0  0
 20 22  1  0  0  0  0
 20 21  1  0  0  0  0
 22 24  1  0  0  0  0
 22 23  1  6  0  0  0
 24 26  1  1  0  0  0
 24 25  1  0  0  0  0
 26 27  1  0  0  0  0
 27 28  1  0  0  0  0
 28 30  1  0  0  0  0
 28 29  2  0  0  0  0
 28 31  1  0  0  0  0
M  CHG  2  30  -1  31  -1
M  END
>  <CHROM.1>
-102.93208220,163.25969963,117.04995492,-61.69996466,126.07065482,-169.56932678
55.29492719,66.36434233,-172.99122906,-58.96198148,-10.67621809,-2.76402564
0.55025620,0.12867430,-0.99461795,2.09718837

>  <Name>
1fmn_cryst

>  <RI>
0

>  <Rbt.Current_Directory>
/home/itssahil/PROJECTS/Mol_Feturizer/New_Systems/rnas/1fmn

>  <Rbt.Executable>
rbdock ($Id: //depot/dev/client3/rdock/2013.1/src/exe/rbdock.cxx#4 $)

>  <Rbt.Library>
libRbt.so (2013.1, Build901 2013/11/27)

>  <Rbt.Parameter_File>
/export/apps/rDock/src/rDock_2013.1_src/data/scripts/dock_solv.prm

>  <Rbt.Receptor>
prm/blind_docking_60.prm

>  <SCORE>
-36.5271

>  <SCORE.INTER>
-38.4625

>  <SCORE.INTER.CONST>
1

>  <SCORE.INTER.POLAR>
-2.30758

>  <SCORE.INTER.ROT>
7

>  <SCORE.INTER.SOLV>
23.551

>  <SCORE.INTER.VDW>
-34.0668

>  <SCORE.INTER.norm>
-1.24073

>  <SCORE.INTRA>
0.613784

>  <SCORE.INTRA.DIHEDRAL>
-0.529859

>  <SCORE.INTRA.DIHEDRAL.0>
15.5708

>  <SCORE.INTRA.POLAR>
0.0677885

>  <SCORE.INTRA.POLAR.0>
-0.0677885

>  <SCORE.INTRA.REPUL>
0

>  <SCORE.INTRA.REPUL.0>
0

>  <SCORE.INTRA.SOLV>
-3.36958

>  <SCORE.INTRA.SOLV.lig_0>
-87.6316

>  <SCORE.INTRA.VDW>
2.33302

>  <SCORE.INTRA.VDW.0>
-2.87309

>  <SCORE.INTRA.norm>
0.0197995

>  <SCORE.RESTR>
1.32164

>  <SCORE.RESTR.CAVITY>
1.32164

>  <SCORE.RESTR.norm>
0.0426335

>  <SCORE.SYSTEM>
0

>  <SCORE.SYSTEM.CONST>
0

>  <SCORE.SYSTEM.DIHEDRAL>
0

>  <SCORE.SYSTEM.SOLV>
0

>  <SCORE.SYSTEM.norm>
0

>  <SCORE.heavy>
31

>  <SCORE.norm>
-1.17829

>  <SYMMETRIC_BONDS>
33 34 3

>  <RMSD>
8.232

$$$$
1fmn_cryst
 OpenBabel11021811393D
libRbt.so/2013.1/901 2013/11/27
 31 33  0  0  0  0  0  0  0  0999 V2000
  -11.5005   -3.9752    2.1670 N   0  0  0  0  0  0  0  0  0  0  0  0
  -11.4672   -4.4318    3.4639 C   0  0  0  0  0  0  0  0  0  0  0  0
  -12.2284   -3.9967    4.3287 O   0  0  0  0  0  0  0  0  0  0  0  0
  -10.4994   -5.4295    3.7421 N   0  0  0  0  0  0  0  0  0  0  0  0
   -9.5789   -5.9902    2.8296 C   0  0  0  0  0  0  0  0  0  0  0  0
   -8.7850   -6.8607    3.2080 O   0  0  0  0  0  0  0  0  0  0  0  0
   -9.6776   -5.4511    1.4714 C   0  0  0  0  0  0  0  0  0  0  0  0
   -8.8165   -5.9449    0.5232 N   0  0  0  0  0  0  0  0  0  0  0  0
   -8.7867   -5.3177   -0.6885 C   0  0  0  0  0  0  0  0  0  0  0  0
   -7.7975   -5.6867   -1.5828 C   0  0  0  0  0  0  0  0  0  0  0  0
   -7.7076   -5.1077   -2.8027 C   0  0  0  0  0  0  0  0  0  0  0  0
   -6.6217   -5.5451   -3.7331 C   0  0  0  0  0  0  0  0  0  0  0  0
   -8.5939   -4.1442   -3.1732 C   0  0  0  0  0  0  0  0  0  0  0  0
   -8.4831   -3.5054   -4.5193 C   0  0  0  0  0  0  0  0  0  0  0  0
   -9.5815   -3.7506   -2.3291 C   0  0  0  0  0  0  0  0  0  0  0  0
   -9.7182   -4.3159   -1.0613 C   0  0  0  0  0  0  0  0  0  0  0  0
  -10.7218   -3.9565   -0.1373 N   0  0  0  0  0  0  0  0  0  0  0  0
  -10.6652   -4.4366    1.1872 C   0  0  0  0  0  0  0  0  0  0  0  0
  -12.0783   -3.5739   -0.6775 C   0  0  0  0  0  0  0  0  0  0  0  0
  -12.2239   -2.1174   -1.2137 C   0  0  1  0  0  0  0  0  0  0  0  0
  -12.7119   -2.1335   -2.5476 O   0  0  0  0  0  0  0  0  0  0  0  0
  -13.0750   -1.2106   -0.2932 C   0  0  1  0  0  0  0  0  0  0  0  0
  -14.3484   -1.8040   -0.0565 O   0  0  0  0  0  0  0  0  0  0  0  0
  -12.4367   -0.7790    1.0501 C   0  0  1  0  0  0  0  0  0  0  0  0
  -11.5849    0.3347    0.8055 O   0  0  0  0  0  0  0  0  0  0  0  0
  -13.4838   -0.3803    2.1142 C   0  0  0  0  0  0  0  0  0  0  0  0
  -12.9298    0.4285    3.1452 O   0  0  0  0  0  0  0  0  0  0  0  0
  -13.8141    1.3694    4.0640 P   0  0  0  0  0  0  0  0  0  0  0  0
  -15.2079    1.4334    3.5688 O   0  0  0  0  0  0  0  0  0  0  0  0
  -13.5838    1.0680    5.4934 O   0  5  0  0  0  0  0  0  0  0  0  0
  -13.2073    2.8198    3.8134 O   0  5  0  0  0  0  0  0  0  0  0  0
  1 18  1  0  0  0  0
  1  2  1  0  0  0  0
  2  4  1  0  0  0  0
  2  3  2  0  0  0  0
  4  5  1  0  0  0  0
  5  7  1  0  0  0  0
  5  6  2  0  0  0  0
  7 18  2  0  0  0  0
  7  8  1  0  0  0  0
  8  9  1  0  0  0  0
  9 10  2  0  0  0  0
  9 16  1  0  0  0  0
 10 11  1  0  0  0  0
 11 12  1  0  0  0  0
 11 13  2  0  0  0  0
 13 14  1  0  0  0  0
 13 15  1  0  0  0  0
 15 16  2  0  0  0  0
 16 17  1  0  0  0  0
 17 19  1  0  0  0  0
 17 18  1  0  0  0  0
 20 19  1  1  0  0  0
 20 22  1  0  0  0  0
 20 21  1  0  0  0  0
 22 24  1  0  0  0  0
 22 23  1  1  0  0  0
 24 26  1  1  0  0  0
 24 25  1  0  0  0  0
 26 27  1  0  0  0  0
 27 28  1  0  0  0  0
 28 30  1  0  0  0  0
 28 29  2  0  0  0  0
 28 31  1  0  0  0  0
M  CHG  2  30  -1  31  -1
M  END
>  <CHROM.1>
-80.60139138,125.54476642,-54.59508092,40.14105632,82.13973203,-62.79485943
-159.78921060,-47.96748826,158.63727643,-8.48067760,-11.24584472,-2.68770556
0.92041685,-0.30343162,-0.96448027,1.91511086

>  <Name>
1fmn_cryst

>  <RI>
0

>  <Rbt.Current_Directory>
/home/itssahil/PROJECTS/Mol_Feturizer/New_Systems/rnas/1fmn

>  <Rbt.Executable>
rbdock ($Id: //depot/dev/client3/rdock/2013.1/src/exe/rbdock.cxx#4 $)

>  <Rbt.Library>
libRbt.so (2013.1, Build901 2013/11/27)

>  <Rbt.Parameter_File>
/export/apps/rDock/src/rDock_2013.1_src/data/scripts/dock_solv.prm

>  <Rbt.Receptor>
prm/blind_docking_40.prm

>  <SCORE>
-21.3167

>  <SCORE.INTER>
-22.1986

>  <SCORE.INTER.CONST>
1

>  <SCORE.INTER.POLAR>
-1.17103

>  <SCORE.INTER.ROT>
7

>  <SCORE.INTER.SOLV>
26.3707

>  <SCORE.INTER.VDW>
-27.9526

>  <SCORE.INTER.norm>
-0.716085

>  <SCORE.INTRA>
-0.216003

>  <SCORE.INTRA.DIHEDRAL>
1.52729

>  <SCORE.INTRA.DIHEDRAL.0>
15.5708

>  <SCORE.INTRA.POLAR>
0.0677885

>  <SCORE.INTRA.POLAR.0>
-0.0677885

>  <SCORE.INTRA.REPUL>
0

>  <SCORE.INTRA.REPUL.0>
0

>  <SCORE.INTRA.SOLV>
-4.59144

>  <SCORE.INTRA.SOLV.lig_0>
-87.6316

>  <SCORE.INTRA.VDW>
1.08559

>  <SCORE.INTRA.VDW.0>
-2.87309

>  <SCORE.INTRA.norm>
-0.00696784

>  <SCORE.RESTR>
1.09798

>  <SCORE.RESTR.CAVITY>
1.09798

>  <SCORE.RESTR.norm>
0.0354186

>  <SCORE.SYSTEM>
0

>  <SCORE.SYSTEM.CONST>
0

>  <SCORE.SYSTEM.DIHEDRAL>
0

>  <SCORE.SYSTEM.SOLV>
0

>  <SCORE.SYSTEM.norm>
0

>  <SCORE.heavy>
31

>  <SCORE.norm>
-0.687634

>  <SYMMETRIC_BONDS>
33 34 3

>  <RMSD>
8.295

$$$$
1fmn_cryst
 OpenBabel11021811393D
libRbt.so/2013.1/901 2013/11/27
 31 33  0  0  0  0  0  0  0  0999 V2000
  -10.3447   -4.8053    2.0625 N   0  0  0  0  0  0  0  0  0  0  0  0
  -11.3170   -4.5523    3.0017 C   0  0  0  0  0  0  0  0  0  0  0  0
  -12.2932   -3.8430    2.7558 O   0  0  0  0  0  0  0  0  0  0  0  0
  -11.1214   -5.1549    4.2698 N   0  0  0  0  0  0  0  0  0  0  0  0
  -10.0397   -5.9763    4.6562 C   0  0  0  0  0  0  0  0  0  0  0  0
   -9.9943   -6.4412    5.8021 O   0  0  0  0  0  0  0  0  0  0  0  0
   -9.0479   -6.1967    3.6012 C   0  0  0  0  0  0  0  0  0  0  0  0
   -7.9642   -6.9855    3.8969 N   0  0  0  0  0  0  0  0  0  0  0  0
   -6.9564   -7.0418    2.9783 C   0  0  0  0  0  0  0  0  0  0  0  0
   -5.7847   -7.6810    3.3429 C   0  0  0  0  0  0  0  0  0  0  0  0
   -4.7441   -7.7755    2.4830 C   0  0  0  0  0  0  0  0  0  0  0  0
   -3.5012   -8.4796    2.9256 C   0  0  0  0  0  0  0  0  0  0  0  0
   -4.8317   -7.2381    1.2362 C   0  0  0  0  0  0  0  0  0  0  0  0
   -3.6754   -7.3410    0.2956 C   0  0  0  0  0  0  0  0  0  0  0  0
   -5.9618   -6.6024    0.8343 C   0  0  0  0  0  0  0  0  0  0  0  0
   -7.0628   -6.4780    1.6816 C   0  0  0  0  0  0  0  0  0  0  0  0
   -8.2669   -5.8343    1.3273 N   0  0  0  0  0  0  0  0  0  0  0  0
   -9.2483   -5.5850    2.3085 C   0  0  0  0  0  0  0  0  0  0  0  0
   -8.7311   -5.9381   -0.1052 C   0  0  0  0  0  0  0  0  0  0  0  0
   -8.9103   -4.5936   -0.8737 C   0  0  1  0  0  0  0  0  0  0  0  0
   -7.7740   -4.3401   -1.6876 O   0  0  0  0  0  0  0  0  0  0  0  0
  -10.2303   -4.5215   -1.6777 C   0  0  1  0  0  0  0  0  0  0  0  0
  -11.3459   -4.4848   -0.7924 O   0  0  0  0  0  0  0  0  0  0  0  0
  -10.3515   -3.3881   -2.7258 C   0  0  1  0  0  0  0  0  0  0  0  0
   -9.2004   -3.4245   -3.5622 O   0  0  0  0  0  0  0  0  0  0  0  0
  -11.6126   -3.5168   -3.6094 C   0  0  0  0  0  0  0  0  0  0  0  0
  -11.7255   -2.4580   -4.5529 O   0  0  0  0  0  0  0  0  0  0  0  0
  -12.1185   -0.9798   -4.1384 P   0  0  0  0  0  0  0  0  0  0  0  0
  -12.7801   -0.2746   -5.2596 O   0  0  0  0  0  0  0  0  0  0  0  0
  -12.7698   -0.9664   -2.8108 O   0  5  0  0  0  0  0  0  0  0  0  0
  -10.7137   -0.2545   -3.9505 O   0  5  0  0  0  0  0  0  0  0  0  0
  1 18  1  0  0  0  0
  1  2  1  0  0  0  0
  2  4  1  0  0  0  0
  2  3  2  0  0  0  0
  4  5  1  0  0  0  0
  5  7  1  0  0  0  0
  5  6  2  0  0  0  0
  7 18  2  0  0  0  0
  7  8  1  0  0  0  0
  8  9  1  0  0  0  0
  9 10  2  0  0  0  0
  9 16  1  0  0  0  0
 10 11  1  0  0  0  0
 11 12  1  0  0  0  0
 11 13  2  0  0  0  0
 13 14  1  0  0  0  0
 13 15  1  0  0  0  0
 15 16  2  0  0  0  0
 16 17  1  0  0  0  0
 17 19  1  0  0  0  0
 17 18  1  0  0  0  0
 20 19  1  6  0  0  0
 20 22  1  0  0  0  0
 20 21  1  0  0  0  0
 22 24  1  0  0  0  0
 22 23  1  1  0  0  0
 24 26  1  6  0  0  0
 24 25  1  0  0  0  0
 26 27  1  0  0  0  0
 27 28  1  0  0  0  0
 28 30  1  0  0  0  0
 28 29  2  0  0  0  0
 28 31  1  0  0  0  0
M  CHG  2  30  -1  31  -1
M  END
>  <CHROM.1>
-120.96798429,99.07354502,67.44330133,-59.45079064,51.32841651,-170.57750469
178.99138132,-159.38903796,-72.69877077,-152.82240099,-9.26829900,-4.67109936
0.12908585,0.98838496,-0.45234413,1.95849350

>  <Name>
1fmn_cryst

>  <RI>
0

>  <Rbt.Current_Directory>
/home/itssahil/PROJECTS/Mol_Feturizer/New_Systems/rnas/1fmn

>  <Rbt.Executable>
rbdock ($Id: //depot/dev/client3/rdock/2013.1/src/exe/rbdock.cxx#4 $)

>  <Rbt.Library>
libRbt.so (2013.1, Build901 2013/11/27)

>  <Rbt.Parameter_File>
/export/apps/rDock/src/rDock_2013.1_src/data/scripts/dock_solv.prm

>  <Rbt.Receptor>
prm/pocket_docking_7.prm

>  <SCORE>
-47.5435

>  <SCORE.INTER>
-42.4499

>  <SCORE.INTER.CONST>
1

>  <SCORE.INTER.POLAR>
-2.83275

>  <SCORE.INTER.ROT>
7

>  <SCORE.INTER.SOLV>
22.8983

>  <SCORE.INTER.VDW>
-34.7569

>  <SCORE.INTER.norm>
-1.36935

>  <SCORE.INTRA>
-5.09353

>  <SCORE.INTRA.DIHEDRAL>
-4.44544

>  <SCORE.INTRA.DIHEDRAL.0>
15.5708

>  <SCORE.INTRA.POLAR>
-0.897448

>  <SCORE.INTRA.POLAR.0>
-0.0677885

>  <SCORE.INTRA.REPUL>
0

>  <SCORE.INTRA.REPUL.0>
0

>  <SCORE.INTRA.SOLV>
-0.506946

>  <SCORE.INTRA.SOLV.lig_0>
-87.6316

>  <SCORE.INTRA.VDW>
0.43399

>  <SCORE.INTRA.VDW.0>
-2.87309

>  <SCORE.INTRA.norm>
-0.164307

>  <SCORE.RESTR>
0

>  <SCORE.RESTR.CAVITY>
0

>  <SCORE.RESTR.norm>
0

>  <SCORE.SYSTEM>
0

>  <SCORE.SYSTEM.CONST>
0

>  <SCORE.SYSTEM.DIHEDRAL>
0

>  <SCORE.SYSTEM.SOLV>
0

>  <SCORE.SYSTEM.norm>
0

>  <SCORE.heavy>
31

>  <SCORE.norm>
-1.53366

>  <SYMMETRIC_BONDS>
33 34 3

>  <RMSD>
8.302

$$$$
1fmn_cryst
 OpenBabel11021811393D
libRbt.so/2013.1/901 2013/11/27
 31 33  0  0  0  0  0  0  0  0999 V2000
  -12.0019   -3.3087    1.9121 N   0  0  0  0  0  0  0  0  0  0  0  0
  -12.1080   -3.6307    3.2450 C   0  0  0  0  0  0  0  0  0  0  0  0
  -12.9158   -3.0733    3.9888 O   0  0  0  0  0  0  0  0  0  0  0  0
  -11.2265   -4.6398    3.7078 N   0  0  0  0  0  0  0  0  0  0  0  0
  -10.2633   -5.3345    2.9438 C   0  0  0  0  0  0  0  0  0  0  0  0
   -9.5562   -6.1986    3.4774 O   0  0  0  0  0  0  0  0  0  0  0  0
  -10.2122   -4.9336    1.5360 C   0  0  0  0  0  0  0  0  0  0  0  0
   -9.3011   -5.5627    0.7245 N   0  0  0  0  0  0  0  0  0  0  0  0
   -9.1300   -5.0653   -0.5348 C   0  0  0  0  0  0  0  0  0  0  0  0
   -8.0891   -5.5711   -1.2932 C   0  0  0  0  0  0  0  0  0  0  0  0
   -7.8603   -5.1253   -2.5503 C   0  0  0  0  0  0  0  0  0  0  0  0
   -6.7239   -5.7073   -3.3290 C   0  0  0  0  0  0  0  0  0  0  0  0
   -8.6546   -4.1636   -3.0939 C   0  0  0  0  0  0  0  0  0  0  0  0
   -8.3906   -3.6723   -4.4799 C   0  0  0  0  0  0  0  0  0  0  0  0
   -9.6881   -3.6387   -2.3873 C   0  0  0  0  0  0  0  0  0  0  0  0
   -9.9669   -4.0636   -1.0884 C   0  0  0  0  0  0  0  0  0  0  0  0
  -11.0252   -3.5638   -0.3010 N   0  0  0  0  0  0  0  0  0  0  0  0
  -11.1119   -3.9075    1.0637 C   0  0  0  0  0  0  0  0  0  0  0  0
  -12.3055   -3.1742   -0.9992 C   0  0  0  0  0  0  0  0  0  0  0  0
  -12.2254   -1.9468   -1.9569 C   0  0  1  0  0  0  0  0  0  0  0  0
  -12.3233   -2.3733   -3.3083 O   0  0  0  0  0  0  0  0  0  0  0  0
  -13.2540   -0.8413   -1.6192 C   0  0  1  0  0  0  0  0  0  0  0  0
  -14.5118   -1.1378   -2.2190 O   0  0  0  0  0  0  0  0  0  0  0  0
  -13.4512   -0.5013   -0.1215 C   0  0  1  0  0  0  0  0  0  0  0  0
  -14.1676   -1.5680    0.4909 O   0  0  0  0  0  0  0  0  0  0  0  0
  -12.1170   -0.3011    0.6318 C   0  0  0  0  0  0  0  0  0  0  0  0
  -12.0674    0.9378    1.3295 O   0  0  0  0  0  0  0  0  0  0  0  0
  -12.8233    1.1790    2.7012 P   0  0  0  0  0  0  0  0  0  0  0  0
  -14.0046    0.2939    2.8166 O   0  0  0  0  0  0  0  0  0  0  0  0
  -11.8625    1.2274    3.8244 O   0  5  0  0  0  0  0  0  0  0  0  0
  -13.4092    2.6522    2.5551 O   0  5  0  0  0  0  0  0  0  0  0  0
  1 18  1  0  0  0  0
  1  2  1  0  0  0  0
  2  4  1  0  0  0  0
  2  3  2  0  0  0  0
  4  5  1  0  0  0  0
  5  7  1  0  0  0  0
  5  6  2  0  0  0  0
  7 18  2  0  0  0  0
  7  8  1  0  0  0  0
  8  9  1  0  0  0  0
  9 10  2  0  0  0  0
  9 16  1  0  0  0  0
 10 11  1  0  0  0  0
 11 12  1  0  0  0  0
 11 13  2  0  0  0  0
 13 14  1  0  0  0  0
 13 15  1  0  0  0  0
 15 16  2  0  0  0  0
 16 17  1  0  0  0  0
 17 19  1  0  0  0  0
 17 18  1  0  0  0  0
 20 19  1  1  0  0  0
 20 22  1  0  0  0  0
 20 21  1  0  0  0  0
 22 24  1  0  0  0  0
 22 23  1  1  0  0  0
 24 26  1  1  0  0  0
 24 25  1  0  0  0  0
 26 27  1  0  0  0  0
 27 28  1  0  0  0  0
 28 30  1  0  0  0  0
 28 29  2  0  0  0  0
 28 31  1  0  0  0  0
M  CHG  2  30  -1  31  -1
M  END
>  <CHROM.1>
-66.86655099,108.58999972,-84.19520016,-50.05304961,-72.82311002,-177.98123933
126.99660802,-41.12139171,76.87267558,-26.53955978,-11.35071296,-2.53637243
0.38782597,-2.78800031,0.94817491,-1.35261599

>  <Name>
1fmn_cryst

>  <RI>
0

>  <Rbt.Current_Directory>
/home/itssahil/PROJECTS/Mol_Feturizer/New_Systems/rnas/1fmn

>  <Rbt.Executable>
rbdock ($Id: //depot/dev/client3/rdock/2013.1/src/exe/rbdock.cxx#4 $)

>  <Rbt.Library>
libRbt.so (2013.1, Build901 2013/11/27)

>  <Rbt.Parameter_File>
/export/apps/rDock/src/rDock_2013.1_src/data/scripts/dock_solv.prm

>  <Rbt.Receptor>
prm/blind_docking_20.prm

>  <SCORE>
-14.1922

>  <SCORE.INTER>
-15.8804

>  <SCORE.INTER.CONST>
1

>  <SCORE.INTER.POLAR>
-0.541979

>  <SCORE.INTER.ROT>
7

>  <SCORE.INTER.SOLV>
23.0989

>  <SCORE.INTER.VDW>
-24.7466

>  <SCORE.INTER.norm>
-0.512271

>  <SCORE.INTRA>
0.235819

>  <SCORE.INTRA.DIHEDRAL>
3.68319

>  <SCORE.INTRA.DIHEDRAL.0>
15.5708

>  <SCORE.INTRA.POLAR>
-0.932211

>  <SCORE.INTRA.POLAR.0>
-0.0677885

>  <SCORE.INTRA.REPUL>
0

>  <SCORE.INTRA.REPUL.0>
0

>  <SCORE.INTRA.SOLV>
0.342974

>  <SCORE.INTRA.SOLV.lig_0>
-87.6316

>  <SCORE.INTRA.VDW>
1.39225

>  <SCORE.INTRA.VDW.0>
-2.87309

>  <SCORE.INTRA.norm>
0.00760705

>  <SCORE.RESTR>
1.4524

>  <SCORE.RESTR.CAVITY>
1.4524

>  <SCORE.RESTR.norm>
0.0468516

>  <SCORE.SYSTEM>
0

>  <SCORE.SYSTEM.CONST>
0

>  <SCORE.SYSTEM.DIHEDRAL>
0

>  <SCORE.SYSTEM.SOLV>
0

>  <SCORE.SYSTEM.norm>
0

>  <SCORE.heavy>
31

>  <SCORE.norm>
-0.457812

>  <SYMMETRIC_BONDS>
33 34 3

>  <RMSD>
8.308

$$$$
1fmn_cryst
 OpenBabel11021811393D
libRbt.so/2013.1/901 2013/11/27
 31 33  0  0  0  0  0  0  0  0999 V2000
  -10.3468   -4.7600    1.8033 N   0  0  0  0  0  0  0  0  0  0  0  0
   -9.9942   -5.3617    2.9887 C   0  0  0  0  0  0  0  0  0  0  0  0
  -10.5980   -5.1390    4.0386 O   0  0  0  0  0  0  0  0  0  0  0  0
   -8.8904   -6.2489    2.9257 N   0  0  0  0  0  0  0  0  0  0  0  0
   -8.1286   -6.5684    1.7804 C   0  0  0  0  0  0  0  0  0  0  0  0
   -7.1861   -7.3657    1.8668 O   0  0  0  0  0  0  0  0  0  0  0  0
   -8.5663   -5.8867    0.5602 C   0  0  0  0  0  0  0  0  0  0  0  0
   -7.8768   -6.1439   -0.5985 N   0  0  0  0  0  0  0  0  0  0  0  0
   -8.1680   -5.3762   -1.6887 C   0  0  0  0  0  0  0  0  0  0  0  0
   -7.3557   -5.5003   -2.8019 C   0  0  0  0  0  0  0  0  0  0  0  0
   -7.5853   -4.7711   -3.9186 C   0  0  0  0  0  0  0  0  0  0  0  0
   -6.6793   -4.9452   -5.0956 C   0  0  0  0  0  0  0  0  0  0  0  0
   -8.6256   -3.8956   -3.9660 C   0  0  0  0  0  0  0  0  0  0  0  0
   -8.8676   -3.0895   -5.2005 C   0  0  0  0  0  0  0  0  0  0  0  0
   -9.4495   -3.7411   -2.8982 C   0  0  0  0  0  0  0  0  0  0  0  0
   -9.2568   -4.4687   -1.7239 C   0  0  0  0  0  0  0  0  0  0  0  0
  -10.0759   -4.3597   -0.5806 N   0  0  0  0  0  0  0  0  0  0  0  0
   -9.6923   -4.9848    0.6236 C   0  0  0  0  0  0  0  0  0  0  0  0
  -11.5481   -4.0973   -0.7859 C   0  0  0  0  0  0  0  0  0  0  0  0
  -11.9974   -2.6052   -0.7438 C   0  0  1  0  0  0  0  0  0  0  0  0
  -13.0339   -2.3794   -1.6886 O   0  0  0  0  0  0  0  0  0  0  0  0
  -12.3876   -2.1252    0.6745 C   0  0  1  0  0  0  0  0  0  0  0  0
  -11.3892   -2.5066    1.6165 O   0  0  0  0  0  0  0  0  0  0  0  0
  -12.7205   -0.6218    0.8387 C   0  0  1  0  0  0  0  0  0  0  0  0
  -13.7251   -0.4907    1.8385 O   0  0  0  0  0  0  0  0  0  0  0  0
  -11.4955    0.2252    1.2505 C   0  0  0  0  0  0  0  0  0  0  0  0
  -11.8564    1.5383    1.6623 O   0  0  0  0  0  0  0  0  0  0  0  0
  -12.0521    2.7331    0.6398 P   0  0  0  0  0  0  0  0  0  0  0  0
  -11.1592    2.5784   -0.5311 O   0  0  0  0  0  0  0  0  0  0  0  0
  -13.4897    2.9881    0.4051 O   0  5  0  0  0  0  0  0  0  0  0  0
  -11.5003    4.0002    1.4301 O   0  5  0  0  0  0  0  0  0  0  0  0
  1 18  1  0  0  0  0
  1  2  1  0  0  0  0
  2  4  1  0  0  0  0
  2  3  2  0  0  0  0
  4  5  1  0  0  0  0
  5  7  1  0  0  0  0
  5  6  2  0  0  0  0
  7 18  2  0  0  0  0
  7  8  1  0  0  0  0
  8  9  1  0  0  0  0
  9 10  2  0  0  0  0
  9 16  1  0  0  0  0
 10 11  1  0  0  0  0
 11 12  1  0  0  0  0
 11 13  2  0  0  0  0
 13 14  1  0  0  0  0
 13 15  1  0  0  0  0
 15 16  2  0  0  0  0
 16 17  1  0  0  0  0
 17 19  1  0  0  0  0
 17 18  1  0  0  0  0
 20 19  1  1  0  0  0
 20 22  1  0  0  0  0
 20 21  1  0  0  0  0
 22 24  1  0  0  0  0
 22 23  1  1  0  0  0
 24 26  1  1  0  0  0
 24 25  1  0  0  0  0
 26 27  1  0  0  0  0
 27 28  1  0  0  0  0
 28 30  1  0  0  0  0
 28 29  2  0  0  0  0
 28 31  1  0  0  0  0
M  CHG  2  30  -1  31  -1
M  END
>  <CHROM.1>
-93.97173258,143.57046526,47.98822389,-56.09885972,146.73657069,174.77374662
-167.97613536,-173.34310956,-85.35486903,-31.34076896,-10.34894158,-2.64851768
-0.06595978,0.33892052,-1.05279218,2.18413021

>  <Name>
1fmn_cryst

>  <RI>
0

>  <Rbt.Current_Directory>
/home/itssahil/PROJECTS/Mol_Feturizer/New_Systems/rnas/1fmn

>  <Rbt.Executable>
rbdock ($Id: //depot/dev/client3/rdock/2013.1/src/exe/rbdock.cxx#4 $)

>  <Rbt.Library>
libRbt.so (2013.1, Build901 2013/11/27)

>  <Rbt.Parameter_File>
/export/apps/rDock/src/rDock_2013.1_src/data/scripts/dock_solv.prm

>  <Rbt.Receptor>
prm/blind_docking_20.prm

>  <SCORE>
-40.1939

>  <SCORE.INTER>
-40.8487

>  <SCORE.INTER.CONST>
1

>  <SCORE.INTER.POLAR>
-2.42458

>  <SCORE.INTER.ROT>
7

>  <SCORE.INTER.SOLV>
27.8759

>  <SCORE.INTER.VDW>
-36.7092

>  <SCORE.INTER.norm>
-1.3177

>  <SCORE.INTRA>
-2.12775

>  <SCORE.INTRA.DIHEDRAL>
-0.594856

>  <SCORE.INTRA.DIHEDRAL.0>
15.5708

>  <SCORE.INTRA.POLAR>
-0.675854

>  <SCORE.INTRA.POLAR.0>
-0.0677885

>  <SCORE.INTRA.REPUL>
0

>  <SCORE.INTRA.REPUL.0>
0

>  <SCORE.INTRA.SOLV>
-1.50178

>  <SCORE.INTRA.SOLV.lig_0>
-87.6316

>  <SCORE.INTRA.VDW>
1.21847

>  <SCORE.INTRA.VDW.0>
-2.87309

>  <SCORE.INTRA.norm>
-0.0686371

>  <SCORE.RESTR>
2.78247

>  <SCORE.RESTR.CAVITY>
2.78247

>  <SCORE.RESTR.norm>
0.089757

>  <SCORE.SYSTEM>
0

>  <SCORE.SYSTEM.CONST>
0

>  <SCORE.SYSTEM.DIHEDRAL>
0

>  <SCORE.SYSTEM.SOLV>
0

>  <SCORE.SYSTEM.norm>
0

>  <SCORE.heavy>
31

>  <SCORE.norm>
-1.29658

>  <SYMMETRIC_BONDS>
33 34 3

>  <RMSD>
8.309

$$$$
1fmn_cryst
 OpenBabel11021811393D
libRbt.so/2013.1/901 2013/11/27
 31 33  0  0  0  0  0  0  0  0999 V2000
  -10.3867   -4.7550    1.6719 N   0  0  0  0  0  0  0  0  0  0  0  0
  -10.0383   -5.3234    2.8748 C   0  0  0  0  0  0  0  0  0  0  0  0
  -10.6791   -5.1145    3.9054 O   0  0  0  0  0  0  0  0  0  0  0  0
   -8.8937   -6.1595    2.8535 N   0  0  0  0  0  0  0  0  0  0  0  0
   -8.0880   -6.4590    1.7331 C   0  0  0  0  0  0  0  0  0  0  0  0
   -7.1126   -7.2106    1.8556 O   0  0  0  0  0  0  0  0  0  0  0  0
   -8.5242   -5.8152    0.4919 C   0  0  0  0  0  0  0  0  0  0  0  0
   -7.7933   -6.0560   -0.6447 N   0  0  0  0  0  0  0  0  0  0  0  0
   -8.0906   -5.3178   -1.7533 C   0  0  0  0  0  0  0  0  0  0  0  0
   -7.2444   -5.4193   -2.8433 C   0  0  0  0  0  0  0  0  0  0  0  0
   -7.4777   -4.7170   -3.9763 C   0  0  0  0  0  0  0  0  0  0  0  0
   -6.5339   -4.8652   -5.1268 C   0  0  0  0  0  0  0  0  0  0  0  0
   -8.5554   -3.8913   -4.0635 C   0  0  0  0  0  0  0  0  0  0  0  0
   -8.8016   -3.1143   -5.3157 C   0  0  0  0  0  0  0  0  0  0  0  0
   -9.4134   -3.7604   -3.0197 C   0  0  0  0  0  0  0  0  0  0  0  0
   -9.2186   -4.4621   -1.8301 C   0  0  0  0  0  0  0  0  0  0  0  0
  -10.0717   -4.3754   -0.7100 N   0  0  0  0  0  0  0  0  0  0  0  0
   -9.6917   -4.9655    0.5129 C   0  0  0  0  0  0  0  0  0  0  0  0
  -11.5485   -4.1843   -0.9569 C   0  0  0  0  0  0  0  0  0  0  0  0
  -12.2027   -2.9298   -0.3025 C   0  0  1  0  0  0  0  0  0  0  0  0
  -11.3470   -2.3978    0.6988 O   0  0  0  0  0  0  0  0  0  0  0  0
  -12.6308   -1.8575   -1.3325 C   0  0  1  0  0  0  0  0  0  0  0  0
  -12.8924   -2.4629   -2.5953 O   0  0  0  0  0  0  0  0  0  0  0  0
  -13.8100   -0.9356   -0.9355 C   0  0  1  0  0  0  0  0  0  0  0  0
  -14.3030   -1.3570    0.3315 O   0  0  0  0  0  0  0  0  0  0  0  0
  -13.4061    0.5530   -0.8420 C   0  0  0  0  0  0  0  0  0  0  0  0
  -12.5293    0.8107    0.2484 O   0  0  0  0  0  0  0  0  0  0  0  0
  -11.7610    2.1857    0.4229 P   0  0  0  0  0  0  0  0  0  0  0  0
  -10.9396    2.4875   -0.7713 O   0  0  0  0  0  0  0  0  0  0  0  0
  -12.6723    3.2304    0.9378 O   0  5  0  0  0  0  0  0  0  0  0  0
  -10.7200    1.8905    1.5908 O   0  5  0  0  0  0  0  0  0  0  0  0
  1 18  1  0  0  0  0
  1  2  1  0  0  0  0
  2  4  1  0  0  0  0
  2  3  2  0  0  0  0
  4  5  1  0  0  0  0
  5  7  1  0  0  0  0
  5  6  2  0  0  0  0
  7 18  2  0  0  0  0
  7  8  1  0  0  0  0
  8  9  1  0  0  0  0
  9 10  2  0  0  0  0
  9 16  1  0  0  0  0
 10 11  1  0  0  0  0
 11 12  1  0  0  0  0
 11 13  2  0  0  0  0
 13 14  1  0  0  0  0
 13 15  1  0  0  0  0
 15 16  2  0  0  0  0
 16 17  1  0  0  0  0
 17 19  1  0  0  0  0
 17 18  1  0  0  0  0
 20 19  1  6  0  0  0
 20 22  1  0  0  0  0
 20 21  1  0  0  0  0
 22 24  1  0  0  0  0
 22 23  1  6  0  0  0
 24 26  1  1  0  0  0
 24 25  1  0  0  0  0
 26 27  1  0  0  0  0
 27 28  1  0  0  0  0
 28 30  1  0  0  0  0
 28 29  2  0  0  0  0
 28 31  1  0  0  0  0
M  CHG  2  30  -1  31  -1
M  END
>  <CHROM.1>
-122.76942653,-15.62429360,26.17909389,172.71084473,-3.16511645,-72.96454312
-68.35544142,62.47737883,168.80142993,-56.63068827,-10.38221551,-2.79016726
-0.44638611,0.29794750,-0.99373646,2.05817809

>  <Name>
1fmn_cryst

>  <RI>
0

>  <Rbt.Current_Directory>
/home/itssahil/PROJECTS/Mol_Feturizer/New_Systems/rnas/1fmn

>  <Rbt.Executable>
rbdock ($Id: //depot/dev/client3/rdock/2013.1/src/exe/rbdock.cxx#4 $)

>  <Rbt.Library>
libRbt.so (2013.1, Build901 2013/11/27)

>  <Rbt.Parameter_File>
/export/apps/rDock/src/rDock_2013.1_src/data/scripts/dock_solv.prm

>  <Rbt.Receptor>
prm/blind_docking_20.prm

>  <SCORE>
-36.1337

>  <SCORE.INTER>
-38.6649

>  <SCORE.INTER.CONST>
1

>  <SCORE.INTER.POLAR>
-2.34361

>  <SCORE.INTER.ROT>
7

>  <SCORE.INTER.SOLV>
30.1275

>  <SCORE.INTER.VDW>
-36.2737

>  <SCORE.INTER.norm>
-1.24725

>  <SCORE.INTRA>
-0.940522

>  <SCORE.INTRA.DIHEDRAL>
1.41169

>  <SCORE.INTRA.DIHEDRAL.0>
15.5708

>  <SCORE.INTRA.POLAR>
-0.424265

>  <SCORE.INTRA.POLAR.0>
-0.0677885

>  <SCORE.INTRA.REPUL>
0

>  <SCORE.INTRA.REPUL.0>
0

>  <SCORE.INTRA.SOLV>
-3.42233

>  <SCORE.INTRA.SOLV.lig_0>
-87.6316

>  <SCORE.INTRA.VDW>
1.5073

>  <SCORE.INTRA.VDW.0>
-2.87309

>  <SCORE.INTRA.norm>
-0.0303394

>  <SCORE.RESTR>
3.4717

>  <SCORE.RESTR.CAVITY>
3.4717

>  <SCORE.RESTR.norm>
0.11199

>  <SCORE.SYSTEM>
0

>  <SCORE.SYSTEM.CONST>
0

>  <SCORE.SYSTEM.DIHEDRAL>
0

>  <SCORE.SYSTEM.SOLV>
0

>  <SCORE.SYSTEM.norm>
0

>  <SCORE.heavy>
31

>  <SCORE.norm>
-1.1656

>  <SYMMETRIC_BONDS>
33 34 3

>  <RMSD>
8.364

$$$$
1fmn_cryst
 OpenBabel11021811393D
libRbt.so/2013.1/901 2013/11/27
 31 33  0  0  0  0  0  0  0  0999 V2000
  -11.4649   -4.0708    2.1567 N   0  0  0  0  0  0  0  0  0  0  0  0
  -11.4699   -4.5185    3.4571 C   0  0  0  0  0  0  0  0  0  0  0  0
  -12.2526   -4.0740    4.2974 O   0  0  0  0  0  0  0  0  0  0  0  0
  -10.5150   -5.5188    3.7688 N   0  0  0  0  0  0  0  0  0  0  0  0
   -9.5722   -6.0900    2.8861 C   0  0  0  0  0  0  0  0  0  0  0  0
   -8.7933   -6.9616    3.2922 O   0  0  0  0  0  0  0  0  0  0  0  0
   -9.6305   -5.5599    1.5220 C   0  0  0  0  0  0  0  0  0  0  0  0
   -8.7459   -6.0641    0.6015 N   0  0  0  0  0  0  0  0  0  0  0  0
   -8.6793   -5.4455   -0.6132 C   0  0  0  0  0  0  0  0  0  0  0  0
   -7.6675   -5.8252   -1.4771 C   0  0  0  0  0  0  0  0  0  0  0  0
   -7.5410   -5.2551   -2.6979 C   0  0  0  0  0  0  0  0  0  0  0  0
   -6.4317   -5.7039   -3.5948 C   0  0  0  0  0  0  0  0  0  0  0  0
   -8.4120   -4.2901   -3.0994 C   0  0  0  0  0  0  0  0  0  0  0  0
   -8.2608   -3.6610   -4.4461 C   0  0  0  0  0  0  0  0  0  0  0  0
   -9.4207   -3.8861   -2.2857 C   0  0  0  0  0  0  0  0  0  0  0  0
   -9.5953   -4.4419   -1.0184 C   0  0  0  0  0  0  0  0  0  0  0  0
  -10.6224   -4.0716   -0.1251 N   0  0  0  0  0  0  0  0  0  0  0  0
  -10.6049   -4.5427    1.2036 C   0  0  0  0  0  0  0  0  0  0  0  0
  -11.9615   -3.6864   -0.7054 C   0  0  0  0  0  0  0  0  0  0  0  0
  -12.2901   -2.1628   -0.7359 C   0  0  1  0  0  0  0  0  0  0  0  0
  -13.3458   -1.9081   -1.6515 O   0  0  0  0  0  0  0  0  0  0  0  0
  -12.5792   -1.5729    0.6650 C   0  0  1  0  0  0  0  0  0  0  0  0
  -11.3621   -1.1975    1.3032 O   0  0  0  0  0  0  0  0  0  0  0  0
  -13.5945   -0.4059    0.7381 C   0  0  1  0  0  0  0  0  0  0  0  0
  -13.9058   -0.1663    2.1062 O   0  0  0  0  0  0  0  0  0  0  0  0
  -13.0561    0.9012    0.1141 C   0  0  0  0  0  0  0  0  0  0  0  0
  -12.1445    1.5775    0.9718 O   0  0  0  0  0  0  0  0  0  0  0  0
  -11.5002    2.9777    0.6034 P   0  0  0  0  0  0  0  0  0  0  0  0
  -10.7244    2.8881   -0.6545 O   0  0  0  0  0  0  0  0  0  0  0  0
  -12.4948    4.0628    0.7460 O   0  5  0  0  0  0  0  0  0  0  0  0
  -10.4221    3.2108    1.7515 O   0  5  0  0  0  0  0  0  0  0  0  0
  1 18  1  0  0  0  0
  1  2  1  0  0  0  0
  2  4  1  0  0  0  0
  2  3  2  0  0  0  0
  4  5  1  0  0  0  0
  5  7  1  0  0  0  0
  5  6  2  0  0  0  0
  7 18  2  0  0  0  0
  7  8  1  0  0  0  0
  8  9  1  0  0  0  0
  9 10  2  0  0  0  0
  9 16  1  0  0  0  0
 10 11  1  0  0  0  0
 11 12  1  0  0  0  0
 11 13  2  0  0  0  0
 13 14  1  0  0  0  0
 13 15  1  0  0  0  0
 15 16  2  0  0  0  0
 16 17  1  0  0  0  0
 17 19  1  0  0  0  0
 17 18  1  0  0  0  0
 20 19  1  1  0  0  0
 20 22  1  0  0  0  0
 20 21  1  0  0  0  0
 22 24  1  0  0  0  0
 22 23  1  6  0  0  0
 24 26  1  1  0  0  0
 24 25  1  0  0  0  0
 26 27  1  0  0  0  0
 27 28  1  0  0  0  0
 28 30  1  0  0  0  0
 28 29  2  0  0  0  0
 28 31  1  0  0  0  0
M  CHG  2  30  -1  31  -1
M  END
>  <CHROM.1>
-103.84026667,161.98713885,85.48421136,78.44143582,169.66780385,-137.50945363
-77.62687577,-70.31298303,-176.95160248,-59.56727139,-10.72801202,-2.38482953
0.35969380,0.73697298,-1.00330846,2.52401248

>  <Name>
1fmn_cryst

>  <RI>
0

>  <Rbt.Current_Directory>
/home/itssahil/PROJECTS/Mol_Feturizer/New_Systems/rnas/1fmn

>  <Rbt.Executable>
rbdock ($Id: //depot/dev/client3/rdock/2013.1/src/exe/rbdock.cxx#4 $)

>  <Rbt.Library>
libRbt.so (2013.1, Build901 2013/11/27)

>  <Rbt.Parameter_File>
/export/apps/rDock/src/rDock_2013.1_src/data/scripts/dock_solv.prm

>  <Rbt.Receptor>
prm/blind_docking_20.prm

>  <SCORE>
-37.6096

>  <SCORE.INTER>
-37.7407

>  <SCORE.INTER.CONST>
1

>  <SCORE.INTER.POLAR>
-3.49144

>  <SCORE.INTER.ROT>
7

>  <SCORE.INTER.SOLV>
36.0602

>  <SCORE.INTER.VDW>
-33.809

>  <SCORE.INTER.norm>
-1.21744

>  <SCORE.INTRA>
-1.16011

>  <SCORE.INTRA.DIHEDRAL>
-0.90477

>  <SCORE.INTRA.DIHEDRAL.0>
15.5708

>  <SCORE.INTRA.POLAR>
0.0677885

>  <SCORE.INTRA.POLAR.0>
-0.0677885

>  <SCORE.INTRA.REPUL>
0

>  <SCORE.INTRA.REPUL.0>
0

>  <SCORE.INTRA.SOLV>
-3.79995

>  <SCORE.INTRA.SOLV.lig_0>
-87.6316

>  <SCORE.INTRA.VDW>
0.961765

>  <SCORE.INTRA.VDW.0>
-2.87309

>  <SCORE.INTRA.norm>
-0.0374229

>  <SCORE.RESTR>
1.2912

>  <SCORE.RESTR.CAVITY>
1.2912

>  <SCORE.RESTR.norm>
0.0416516

>  <SCORE.SYSTEM>
0

>  <SCORE.SYSTEM.CONST>
0

>  <SCORE.SYSTEM.DIHEDRAL>
0

>  <SCORE.SYSTEM.SOLV>
0

>  <SCORE.SYSTEM.norm>
0

>  <SCORE.heavy>
31

>  <SCORE.norm>
-1.21321

>  <SYMMETRIC_BONDS>
33 34 3

>  <RMSD>
8.404

$$$$
1fmn_cryst
 OpenBabel11021811393D
libRbt.so/2013.1/901 2013/11/27
 31 33  0  0  0  0  0  0  0  0999 V2000
   -4.2274   -4.6110    5.0107 N   0  0  0  0  0  0  0  0  0  0  0  0
   -4.0647   -3.3290    5.4814 C   0  0  0  0  0  0  0  0  0  0  0  0
   -4.0750   -2.3522    4.7315 O   0  0  0  0  0  0  0  0  0  0  0  0
   -3.8799   -3.2047    6.8813 N   0  0  0  0  0  0  0  0  0  0  0  0
   -3.8456   -4.2549    7.8248 C   0  0  0  0  0  0  0  0  0  0  0  0
   -3.6775   -4.0034    9.0247 O   0  0  0  0  0  0  0  0  0  0  0  0
   -4.0253   -5.5877    7.2446 C   0  0  0  0  0  0  0  0  0  0  0  0
   -4.0049   -6.6640    8.0963 N   0  0  0  0  0  0  0  0  0  0  0  0
   -3.9906   -7.9092    7.5380 C   0  0  0  0  0  0  0  0  0  0  0  0
   -3.7841   -8.9907    8.3760 C   0  0  0  0  0  0  0  0  0  0  0  0
   -3.7582  -10.2541    7.8919 C   0  0  0  0  0  0  0  0  0  0  0  0
   -3.5346  -11.3882    8.8407 C   0  0  0  0  0  0  0  0  0  0  0  0
   -3.9343  -10.4847    6.5626 C   0  0  0  0  0  0  0  0  0  0  0  0
   -3.8974  -11.8823    6.0358 C   0  0  0  0  0  0  0  0  0  0  0  0
   -4.1408   -9.4547    5.7029 C   0  0  0  0  0  0  0  0  0  0  0  0
   -4.1770   -8.1342    6.1505 C   0  0  0  0  0  0  0  0  0  0  0  0
   -4.3903   -7.0190    5.3133 N   0  0  0  0  0  0  0  0  0  0  0  0
   -4.2162   -5.7144    5.8189 C   0  0  0  0  0  0  0  0  0  0  0  0
   -5.3157   -7.1860    4.1326 C   0  0  0  0  0  0  0  0  0  0  0  0
   -4.6362   -7.3850    2.7437 C   0  0  1  0  0  0  0  0  0  0  0  0
   -4.4405   -8.7687    2.4885 O   0  0  0  0  0  0  0  0  0  0  0  0
   -5.3887   -6.6808    1.5897 C   0  0  1  0  0  0  0  0  0  0  0  0
   -4.7570   -6.9625    0.3443 O   0  0  0  0  0  0  0  0  0  0  0  0
   -6.9105   -6.9457    1.4807 C   0  0  1  0  0  0  0  0  0  0  0  0
   -7.5185   -6.5885    2.7171 O   0  0  0  0  0  0  0  0  0  0  0  0
   -7.5824   -6.1412    0.3454 C   0  0  0  0  0  0  0  0  0  0  0  0
   -9.0027   -6.2015    0.4035 O   0  0  0  0  0  0  0  0  0  0  0  0
   -9.8758   -5.1156    1.1583 P   0  0  0  0  0  0  0  0  0  0  0  0
   -9.2247   -4.6984    2.4209 O   0  0  0  0  0  0  0  0  0  0  0  0
  -10.3335   -4.0696    0.2185 O   0  5  0  0  0  0  0  0  0  0  0  0
  -11.1789   -5.9181    1.5975 O   0  5  0  0  0  0  0  0  0  0  0  0
  1 18  1  0  0  0  0
  1  2  1  0  0  0  0
  2  4  1  0  0  0  0
  2  3  2  0  0  0  0
  4  5  1  0  0  0  0
  5  7  1  0  0  0  0
  5  6  2  0  0  0  0
  7 18  2  0  0  0  0
  7  8  1  0  0  0  0
  8  9  1  0  0  0  0
  9 10  2  0  0  0  0
  9 16  1  0  0  0  0
 10 11  1  0  0  0  0
 11 12  1  0  0  0  0
 11 13  2  0  0  0  0
 13 14  1  0  0  0  0
 13 15  1  0  0  0  0
 15 16  2  0  0  0  0
 16 17  1  0  0  0  0
 17 19  1  0  0  0  0
 17 18  1  0  0  0  0
 20 19  1  1  0  0  0
 20 22  1  0  0  0  0
 20 21  1  0  0  0  0
 22 24  1  0  0  0  0
 22 23  1  6  0  0  0
 24 26  1  6  0  0  0
 24 25  1  0  0  0  0
 26 27  1  0  0  0  0
 27 28  1  0  0  0  0
 28 30  1  0  0  0  0
 28 29  2  0  0  0  0
 28 31  1  0  0  0  0
M  CHG  2  30  -1  31  -1
M  END
>  <CHROM.1>
-101.18669153,90.74783031,-176.87104969,-179.53968507,56.35179047,-57.45676656
-169.39129575,-168.87433103,92.94215984,-39.20603490,-5.68372584,-6.59133861
4.38032043,-0.16233769,-0.91500451,0.17328028

>  <Name>
1fmn_cryst

>  <RI>
0

>  <Rbt.Current_Directory>
/home/itssahil/PROJECTS/Mol_Feturizer/New_Systems/rnas/1fmn

>  <Rbt.Executable>
rbdock ($Id: //depot/dev/client3/rdock/2013.1/src/exe/rbdock.cxx#4 $)

>  <Rbt.Library>
libRbt.so (2013.1, Build901 2013/11/27)

>  <Rbt.Parameter_File>
/export/apps/rDock/src/rDock_2013.1_src/data/scripts/dock_solv.prm

>  <Rbt.Receptor>
prm/pocket_docking_6.prm

>  <SCORE>
-15.0357

>  <SCORE.INTER>
-14.5203

>  <SCORE.INTER.CONST>
1

>  <SCORE.INTER.POLAR>
-1.99784

>  <SCORE.INTER.ROT>
7

>  <SCORE.INTER.SOLV>
27.2207

>  <SCORE.INTER.VDW>
-20.3609

>  <SCORE.INTER.norm>
-0.468396

>  <SCORE.INTRA>
-0.515453

>  <SCORE.INTRA.DIHEDRAL>
-3.83591

>  <SCORE.INTRA.DIHEDRAL.0>
15.5708

>  <SCORE.INTRA.POLAR>
0.0677885

>  <SCORE.INTRA.POLAR.0>
-0.0677885

>  <SCORE.INTRA.REPUL>
0

>  <SCORE.INTRA.REPUL.0>
0

>  <SCORE.INTRA.SOLV>
-0.298541

>  <SCORE.INTRA.SOLV.lig_0>
-87.6316

>  <SCORE.INTRA.VDW>
1.32129

>  <SCORE.INTRA.VDW.0>
-2.87309

>  <SCORE.INTRA.norm>
-0.0166275

>  <SCORE.RESTR>
0

>  <SCORE.RESTR.CAVITY>
0

>  <SCORE.RESTR.norm>
0

>  <SCORE.SYSTEM>
0

>  <SCORE.SYSTEM.CONST>
0

>  <SCORE.SYSTEM.DIHEDRAL>
0

>  <SCORE.SYSTEM.SOLV>
0

>  <SCORE.SYSTEM.norm>
0

>  <SCORE.heavy>
31

>  <SCORE.norm>
-0.485023

>  <SYMMETRIC_BONDS>
33 34 3

>  <RMSD>
8.408

$$$$
1fmn_cryst
 OpenBabel11021811393D
libRbt.so/2013.1/901 2013/11/27
 31 33  0  0  0  0  0  0  0  0999 V2000
  -10.3718   -4.7003    1.8206 N   0  0  0  0  0  0  0  0  0  0  0  0
  -10.0156   -5.2895    3.0112 C   0  0  0  0  0  0  0  0  0  0  0  0
  -10.6151   -5.0545    4.0609 O   0  0  0  0  0  0  0  0  0  0  0  0
   -8.9133   -6.1790    2.9537 N   0  0  0  0  0  0  0  0  0  0  0  0
   -8.1562   -6.5120    1.8092 C   0  0  0  0  0  0  0  0  0  0  0  0
   -7.2146   -7.3096    1.9008 O   0  0  0  0  0  0  0  0  0  0  0  0
   -8.5976   -5.8431    0.5832 C   0  0  0  0  0  0  0  0  0  0  0  0
   -7.9128   -6.1139   -0.5752 N   0  0  0  0  0  0  0  0  0  0  0  0
   -8.2071   -5.3578   -1.6726 C   0  0  0  0  0  0  0  0  0  0  0  0
   -7.3991   -5.4952   -2.7874 C   0  0  0  0  0  0  0  0  0  0  0  0
   -7.6320   -4.7780   -3.9111 C   0  0  0  0  0  0  0  0  0  0  0  0
   -6.7307   -4.9662   -5.0895 C   0  0  0  0  0  0  0  0  0  0  0  0
   -8.6712   -3.9015   -3.9643 C   0  0  0  0  0  0  0  0  0  0  0  0
   -8.9168   -3.1087   -5.2065 C   0  0  0  0  0  0  0  0  0  0  0  0
   -9.4909   -3.7342   -2.8951 C   0  0  0  0  0  0  0  0  0  0  0  0
   -9.2948   -4.4492   -1.7137 C   0  0  0  0  0  0  0  0  0  0  0  0
  -10.1094   -4.3265   -0.5685 N   0  0  0  0  0  0  0  0  0  0  0  0
   -9.7221   -4.9389    0.6410 C   0  0  0  0  0  0  0  0  0  0  0  0
  -11.5820   -4.0643   -0.7711 C   0  0  0  0  0  0  0  0  0  0  0  0
  -12.0394   -2.5770   -0.6763 C   0  0  1  0  0  0  0  0  0  0  0  0
  -13.1248   -2.3415   -1.5620 O   0  0  0  0  0  0  0  0  0  0  0  0
  -12.3595   -2.1281    0.7694 C   0  0  1  0  0  0  0  0  0  0  0  0
  -11.1988   -2.2367    1.5882 O   0  0  0  0  0  0  0  0  0  0  0  0
  -12.9983   -0.7282    0.9434 C   0  0  1  0  0  0  0  0  0  0  0  0
  -13.4094   -0.5872    2.2987 O   0  0  0  0  0  0  0  0  0  0  0  0
  -12.0293    0.4239    0.5950 C   0  0  0  0  0  0  0  0  0  0  0  0
  -12.6799    1.4978   -0.0739 O   0  0  0  0  0  0  0  0  0  0  0  0
  -11.9129    2.7996   -0.5514 P   0  0  0  0  0  0  0  0  0  0  0  0
  -12.7061    3.5413   -1.5577 O   0  0  0  0  0  0  0  0  0  0  0  0
  -11.3703    3.5399    0.6082 O   0  5  0  0  0  0  0  0  0  0  0  0
  -10.6540    2.2276   -1.3406 O   0  5  0  0  0  0  0  0  0  0  0  0
  1 18  1  0  0  0  0
  1  2  1  0  0  0  0
  2  4  1  0  0  0  0
  2  3  2  0  0  0  0
  4  5  1  0  0  0  0
  5  7  1  0  0  0  0
  5  6  2  0  0  0  0
  7 18  2  0  0  0  0
  7  8  1  0  0  0  0
  8  9  1  0  0  0  0
  9 10  2  0  0  0  0
  9 16  1  0  0  0  0
 10 11  1  0  0  0  0
 11 12  1  0  0  0  0
 11 13  2  0  0  0  0
 13 14  1  0  0  0  0
 13 15  1  0  0  0  0
 15 16  2  0  0  0  0
 16 17  1  0  0  0  0
 17 19  1  0  0  0  0
 17 18  1  0  0  0  0
 20 19  1  1  0  0  0
 20 22  1  0  0  0  0
 20 21  1  0  0  0  0
 22 24  1  0  0  0  0
 22 23  1  1  0  0  0
 24 26  1  1  0  0  0
 24 25  1  0  0  0  0
 26 27  1  0  0  0  0
 27 28  1  0  0  0  0
 28 30  1  0  0  0  0
 28 29  2  0  0  0  0
 28 31  1  0  0  0  0
M  CHG  2  30  -1  31  -1
M  END
>  <CHROM.1>
-96.77841939,146.93698527,61.34258476,-171.14458182,170.85314406,176.42694540
141.85290692,-68.25527967,-179.57047865,162.55712695,-10.34942176,-2.62590139
-0.31428259,0.55210629,-1.00847612,2.22776918

>  <Name>
1fmn_cryst

>  <RI>
0

>  <Rbt.Current_Directory>
/home/itssahil/PROJECTS/Mol_Feturizer/New_Systems/rnas/1fmn

>  <Rbt.Executable>
rbdock ($Id: //depot/dev/client3/rdock/2013.1/src/exe/rbdock.cxx#4 $)

>  <Rbt.Library>
libRbt.so (2013.1, Build901 2013/11/27)

>  <Rbt.Parameter_File>
/export/apps/rDock/src/rDock_2013.1_src/data/scripts/dock_solv.prm

>  <Rbt.Receptor>
prm/blind_docking_20.prm

>  <SCORE>
-45.862

>  <SCORE.INTER>
-43.102

>  <SCORE.INTER.CONST>
1

>  <SCORE.INTER.POLAR>
-3.38689

>  <SCORE.INTER.ROT>
7

>  <SCORE.INTER.SOLV>
29.7008

>  <SCORE.INTER.VDW>
-35.612

>  <SCORE.INTER.norm>
-1.39039

>  <SCORE.INTRA>
-5.32945

>  <SCORE.INTRA.DIHEDRAL>
-4.7668

>  <SCORE.INTRA.DIHEDRAL.0>
15.5708

>  <SCORE.INTRA.POLAR>
-0.368962

>  <SCORE.INTRA.POLAR.0>
-0.0677885

>  <SCORE.INTRA.REPUL>
0.0153333

>  <SCORE.INTRA.REPUL.0>
0

>  <SCORE.INTRA.SOLV>
-3.88684

>  <SCORE.INTRA.SOLV.lig_0>
-87.6316

>  <SCORE.INTRA.VDW>
0.17518

>  <SCORE.INTRA.VDW.0>
-2.87309

>  <SCORE.INTRA.norm>
-0.171918

>  <SCORE.RESTR>
2.56951

>  <SCORE.RESTR.CAVITY>
2.56951

>  <SCORE.RESTR.norm>
0.0828875

>  <SCORE.SYSTEM>
0

>  <SCORE.SYSTEM.CONST>
0

>  <SCORE.SYSTEM.DIHEDRAL>
0

>  <SCORE.SYSTEM.SOLV>
0

>  <SCORE.SYSTEM.norm>
0

>  <SCORE.heavy>
31

>  <SCORE.norm>
-1.47942

>  <SYMMETRIC_BONDS>
33 34 3

>  <RMSD>
8.431

$$$$
1fmn_cryst
 OpenBabel11021811393D
libRbt.so/2013.1/901 2013/11/27
 31 33  0  0  0  0  0  0  0  0999 V2000
  -10.1265   -4.8574    1.9920 N   0  0  0  0  0  0  0  0  0  0  0  0
   -9.6816   -5.5003    3.1234 C   0  0  0  0  0  0  0  0  0  0  0  0
  -10.2058   -5.3232    4.2236 O   0  0  0  0  0  0  0  0  0  0  0  0
   -8.5802   -6.3743    2.9435 N   0  0  0  0  0  0  0  0  0  0  0  0
   -7.9050   -6.6431    1.7327 C   0  0  0  0  0  0  0  0  0  0  0  0
   -6.9536   -7.4343    1.7173 O   0  0  0  0  0  0  0  0  0  0  0  0
   -8.4379   -5.9197    0.5760 C   0  0  0  0  0  0  0  0  0  0  0  0
   -7.8362   -6.1264   -0.6403 N   0  0  0  0  0  0  0  0  0  0  0  0
   -8.2138   -5.3207   -1.6751 C   0  0  0  0  0  0  0  0  0  0  0  0
   -7.4870   -5.3949   -2.8502 C   0  0  0  0  0  0  0  0  0  0  0  0
   -7.8049   -4.6261   -3.9175 C   0  0  0  0  0  0  0  0  0  0  0  0
   -6.9893   -4.7471   -5.1652 C   0  0  0  0  0  0  0  0  0  0  0  0
   -8.8514   -3.7590   -3.8529 C   0  0  0  0  0  0  0  0  0  0  0  0
   -9.1911   -2.9090   -5.0337 C   0  0  0  0  0  0  0  0  0  0  0  0
   -9.5932   -3.6528   -2.7210 C   0  0  0  0  0  0  0  0  0  0  0  0
   -9.3078   -4.4225   -1.5934 C   0  0  0  0  0  0  0  0  0  0  0  0
  -10.0390   -4.3646   -0.3884 N   0  0  0  0  0  0  0  0  0  0  0  0
   -9.5616   -5.0313    0.7586 C   0  0  0  0  0  0  0  0  0  0  0  0
  -11.5241   -4.1082   -0.4721 C   0  0  0  0  0  0  0  0  0  0  0  0
  -12.0843   -2.9799    0.4462 C   0  0  1  0  0  0  0  0  0  0  0  0
  -11.1751   -2.7139    1.5048 O   0  0  0  0  0  0  0  0  0  0  0  0
  -12.4674   -1.6965   -0.3286 C   0  0  1  0  0  0  0  0  0  0  0  0
  -13.2613   -2.0246   -1.4650 O   0  0  0  0  0  0  0  0  0  0  0  0
  -13.1481   -0.5657    0.4813 C   0  0  1  0  0  0  0  0  0  0  0  0
  -14.1214   -1.1509    1.3393 O   0  0  0  0  0  0  0  0  0  0  0  0
  -12.1512    0.2447    1.3398 C   0  0  0  0  0  0  0  0  0  0  0  0
  -12.7724    0.8506    2.4673 O   0  0  0  0  0  0  0  0  0  0  0  0
  -13.9006    1.9553    2.3326 P   0  0  0  0  0  0  0  0  0  0  0  0
  -13.5494    2.9452    1.2892 O   0  0  0  0  0  0  0  0  0  0  0  0
  -15.2402    1.3301    2.2931 O   0  5  0  0  0  0  0  0  0  0  0  0
  -13.8210    2.7460    3.7122 O   0  5  0  0  0  0  0  0  0  0  0  0
  1 18  1  0  0  0  0
  1  2  1  0  0  0  0
  2  4  1  0  0  0  0
  2  3  2  0  0  0  0
  4  5  1  0  0  0  0
  5  7  1  0  0  0  0
  5  6  2  0  0  0  0
  7 18  2  0  0  0  0
  7  8  1  0  0  0  0
  8  9  1  0  0  0  0
  9 10  2  0  0  0  0
  9 16  1  0  0  0  0
 10 11  1  0  0  0  0
 11 12  1  0  0  0  0
 11 13  2  0  0  0  0
 13 14  1  0  0  0  0
 13 15  1  0  0  0  0
 15 16  2  0  0  0  0
 16 17  1  0  0  0  0
 17 19  1  0  0  0  0
 17 18  1  0  0  0  0
 20 19  1  6  0  0  0
 20 22  1  0  0  0  0
 20 21  1  0  0  0  0
 22 24  1  0  0  0  0
 22 23  1  6  0  0  0
 24 26  1  1  0  0  0
 24 25  1  0  0  0  0
 26 27  1  0  0  0  0
 27 28  1  0  0  0  0
 28 30  1  0  0  0  0
 28 29  2  0  0  0  0
 28 31  1  0  0  0  0
M  CHG  2  30  -1  31  -1
M  END
>  <CHROM.1>
-130.21169201,-19.67541304,48.34810720,-171.78782880,-43.23754228,-66.28184986
-154.55067137,61.67098957,-63.47215558,-43.48376121,-10.76310235,-2.82919740
0.31399585,-0.09954452,-0.92581332,1.89366778

>  <Name>
1fmn_cryst

>  <RI>
0

>  <Rbt.Current_Directory>
/home/itssahil/PROJECTS/Mol_Feturizer/New_Systems/rnas/1fmn

>  <Rbt.Executable>
rbdock ($Id: //depot/dev/client3/rdock/2013.1/src/exe/rbdock.cxx#4 $)

>  <Rbt.Library>
libRbt.so (2013.1, Build901 2013/11/27)

>  <Rbt.Parameter_File>
/export/apps/rDock/src/rDock_2013.1_src/data/scripts/dock_solv.prm

>  <Rbt.Receptor>
prm/blind_docking_40.prm

>  <SCORE>
-33.7588

>  <SCORE.INTER>
-34.0318

>  <SCORE.INTER.CONST>
1

>  <SCORE.INTER.POLAR>
-1.38156

>  <SCORE.INTER.ROT>
7

>  <SCORE.INTER.SOLV>
20.1374

>  <SCORE.INTER.VDW>
-33.0618

>  <SCORE.INTER.norm>
-1.0978

>  <SCORE.INTRA>
-1.88735

>  <SCORE.INTRA.DIHEDRAL>
-4.83371

>  <SCORE.INTRA.DIHEDRAL.0>
15.5708

>  <SCORE.INTRA.POLAR>
-0.522482

>  <SCORE.INTRA.POLAR.0>
-0.0677885

>  <SCORE.INTRA.REPUL>
0

>  <SCORE.INTRA.REPUL.0>
0

>  <SCORE.INTRA.SOLV>
0.218397

>  <SCORE.INTRA.SOLV.lig_0>
-87.6316

>  <SCORE.INTRA.VDW>
2.19675

>  <SCORE.INTRA.VDW.0>
-2.87309

>  <SCORE.INTRA.norm>
-0.0608822

>  <SCORE.RESTR>
2.16037

>  <SCORE.RESTR.CAVITY>
2.16037

>  <SCORE.RESTR.norm>
0.0696893

>  <SCORE.SYSTEM>
0

>  <SCORE.SYSTEM.CONST>
0

>  <SCORE.SYSTEM.DIHEDRAL>
0

>  <SCORE.SYSTEM.SOLV>
0

>  <SCORE.SYSTEM.norm>
0

>  <SCORE.heavy>
31

>  <SCORE.norm>
-1.08899

>  <SYMMETRIC_BONDS>
33 34 3

>  <RMSD>
8.434

$$$$
1fmn_cryst
 OpenBabel11021811393D
libRbt.so/2013.1/901 2013/11/27
 31 33  0  0  0  0  0  0  0  0999 V2000
  -15.0675    0.8418    2.8763 N   0  0  0  0  0  0  0  0  0  0  0  0
  -15.4427    1.4854    4.0324 C   0  0  0  0  0  0  0  0  0  0  0  0
  -16.2743    1.0078    4.8049 O   0  0  0  0  0  0  0  0  0  0  0  0
  -14.8158    2.7335    4.2748 N   0  0  0  0  0  0  0  0  0  0  0  0
  -13.8588    3.3707    3.4550 C   0  0  0  0  0  0  0  0  0  0  0  0
  -13.3885    4.4655    3.7892 O   0  0  0  0  0  0  0  0  0  0  0  0
  -13.5138    2.6226    2.2440 C   0  0  0  0  0  0  0  0  0  0  0  0
  -12.5891    3.1746    1.3929 N   0  0  0  0  0  0  0  0  0  0  0  0
  -12.4042    2.5683    0.1843 C   0  0  0  0  0  0  0  0  0  0  0  0
  -11.6161    3.2167   -0.7500 C   0  0  0  0  0  0  0  0  0  0  0  0
  -11.3889    2.6743   -1.9689 C   0  0  0  0  0  0  0  0  0  0  0  0
  -10.5269    3.4147   -2.9411 C   0  0  0  0  0  0  0  0  0  0  0  0
  -11.9369    1.4739   -2.3001 C   0  0  0  0  0  0  0  0  0  0  0  0
  -11.6865    0.8857   -3.6504 C   0  0  0  0  0  0  0  0  0  0  0  0
  -12.7163    0.8011   -1.4153 C   0  0  0  0  0  0  0  0  0  0  0  0
  -12.9810    1.3159   -0.1463 C   0  0  0  0  0  0  0  0  0  0  0  0
  -13.7778    0.6686    0.8212 N   0  0  0  0  0  0  0  0  0  0  0  0
  -14.1503    1.3499    1.9981 C   0  0  0  0  0  0  0  0  0  0  0  0
  -13.7400   -0.8393    0.8769 C   0  0  0  0  0  0  0  0  0  0  0  0
  -12.4084   -1.4802    1.3732 C   0  0  1  0  0  0  0  0  0  0  0  0
  -12.4167   -1.5910    2.7894 O   0  0  0  0  0  0  0  0  0  0  0  0
  -12.0866   -2.8283    0.6855 C   0  0  1  0  0  0  0  0  0  0  0  0
  -11.8992   -2.6362   -0.7137 O   0  0  0  0  0  0  0  0  0  0  0  0
  -10.9090   -3.6484    1.2673 C   0  0  1  0  0  0  0  0  0  0  0  0
  -11.3054   -4.1695    2.5311 O   0  0  0  0  0  0  0  0  0  0  0  0
  -10.4839   -4.8221    0.3566 C   0  0  0  0  0  0  0  0  0  0  0  0
   -9.1470   -5.2428    0.6006 O   0  0  0  0  0  0  0  0  0  0  0  0
   -8.6814   -5.8555    1.9860 P   0  0  0  0  0  0  0  0  0  0  0  0
   -7.8378   -7.0541    1.7771 O   0  0  0  0  0  0  0  0  0  0  0  0
   -8.1888   -4.7915    2.8873 O   0  5  0  0  0  0  0  0  0  0  0  0
  -10.0324   -6.3946    2.6332 O   0  5  0  0  0  0  0  0  0  0  0  0
  1 18  1  0  0  0  0
  1  2  1  0  0  0  0
  2  4  1  0  0  0  0
  2  3  2  0  0  0  0
  4  5  1  0  0  0  0
  5  7  1  0  0  0  0
  5  6  2  0  0  0  0
  7 18  2  0  0  0  0
  7  8  1  0  0  0  0
  8  9  1  0  0  0  0
  9 10  2  0  0  0  0
  9 16  1  0  0  0  0
 10 11  1  0  0  0  0
 11 12  1  0  0  0  0
 11 13  2  0  0  0  0
 13 14  1  0  0  0  0
 13 15  1  0  0  0  0
 15 16  2  0  0  0  0
 16 17  1  0  0  0  0
 17 19  1  0  0  0  0
 17 18  1  0  0  0  0
 20 19  1  6  0  0  0
 20 22  1  0  0  0  0
 20 21  1  0  0  0  0
 22 24  1  0  0  0  0
 22 23  1  6  0  0  0
 24 26  1  6  0  0  0
 24 25  1  0  0  0  0
 26 27  1  0  0  0  0
 27 28  1  0  0  0  0
 28 30  1  0  0  0  0
 28 29  2  0  0  0  0
 28 31  1  0  0  0  0
M  CHG  2  30  -1  31  -1
M  END
>  <CHROM.1>
68.96949289,87.39052819,62.92745117,-169.09927503,70.92422345,-59.23792045
157.59548320,65.76899573,63.47974936,135.20030133,-11.97506176,-0.80019868
1.24384358,2.43998240,0.92598083,-0.77996132

>  <Name>
1fmn_cryst

>  <RI>
0

>  <Rbt.Current_Directory>
/home/itssahil/PROJECTS/Mol_Feturizer/New_Systems/rnas/1fmn

>  <Rbt.Executable>
rbdock ($Id: //depot/dev/client3/rdock/2013.1/src/exe/rbdock.cxx#4 $)

>  <Rbt.Library>
libRbt.so (2013.1, Build901 2013/11/27)

>  <Rbt.Parameter_File>
/export/apps/rDock/src/rDock_2013.1_src/data/scripts/dock_solv.prm

>  <Rbt.Receptor>
prm/blind_docking_20.prm

>  <SCORE>
14.3077

>  <SCORE.INTER>
12.2149

>  <SCORE.INTER.CONST>
1

>  <SCORE.INTER.POLAR>
-2.02145

>  <SCORE.INTER.ROT>
7

>  <SCORE.INTER.SOLV>
29.6177

>  <SCORE.INTER.VDW>
-3.25781

>  <SCORE.INTER.norm>
0.394028

>  <SCORE.INTRA>
-2.31812

>  <SCORE.INTRA.DIHEDRAL>
-7.51278

>  <SCORE.INTRA.DIHEDRAL.0>
15.5708

>  <SCORE.INTRA.POLAR>
0.0553827

>  <SCORE.INTRA.POLAR.0>
-0.0677885

>  <SCORE.INTRA.REPUL>
0

>  <SCORE.INTRA.REPUL.0>
0

>  <SCORE.INTRA.SOLV>
0.753749

>  <SCORE.INTRA.SOLV.lig_0>
-87.6316

>  <SCORE.INTRA.VDW>
0.8731

>  <SCORE.INTRA.VDW.0>
-2.87309

>  <SCORE.INTRA.norm>
-0.0747779

>  <SCORE.RESTR>
4.41099

>  <SCORE.RESTR.CAVITY>
4.41099

>  <SCORE.RESTR.norm>
0.14229

>  <SCORE.SYSTEM>
0

>  <SCORE.SYSTEM.CONST>
0

>  <SCORE.SYSTEM.DIHEDRAL>
0

>  <SCORE.SYSTEM.SOLV>
0

>  <SCORE.SYSTEM.norm>
0

>  <SCORE.heavy>
31

>  <SCORE.norm>
0.46154

>  <SYMMETRIC_BONDS>
33 34 3

>  <RMSD>
8.487

$$$$
1fmn_cryst
 OpenBabel11021811393D
libRbt.so/2013.1/901 2013/11/27
 31 33  0  0  0  0  0  0  0  0999 V2000
  -10.1341   -4.8990    2.0380 N   0  0  0  0  0  0  0  0  0  0  0  0
   -9.7322   -5.5103    3.2026 C   0  0  0  0  0  0  0  0  0  0  0  0
  -10.2990   -5.3055    4.2765 O   0  0  0  0  0  0  0  0  0  0  0  0
   -8.6228   -6.3854    3.0889 N   0  0  0  0  0  0  0  0  0  0  0  0
   -7.9006   -6.6843    1.9128 C   0  0  0  0  0  0  0  0  0  0  0  0
   -6.9478   -7.4728    1.9553 O   0  0  0  0  0  0  0  0  0  0  0  0
   -8.3897   -5.9936    0.7174 C   0  0  0  0  0  0  0  0  0  0  0  0
   -7.7408   -6.2307   -0.4688 N   0  0  0  0  0  0  0  0  0  0  0  0
   -8.0796   -5.4540   -1.5386 C   0  0  0  0  0  0  0  0  0  0  0  0
   -7.3077   -5.5573   -2.6822 C   0  0  0  0  0  0  0  0  0  0  0  0
   -7.5854   -4.8182   -3.7812 C   0  0  0  0  0  0  0  0  0  0  0  0
   -6.7218   -4.9699   -4.9927 C   0  0  0  0  0  0  0  0  0  0  0  0
   -8.6353   -3.9528   -3.7804 C   0  0  0  0  0  0  0  0  0  0  0  0
   -8.9306   -3.1356   -4.9957 C   0  0  0  0  0  0  0  0  0  0  0  0
   -9.4208   -3.8187   -2.6813 C   0  0  0  0  0  0  0  0  0  0  0  0
   -9.1778   -4.5573   -1.5233 C   0  0  0  0  0  0  0  0  0  0  0  0
   -9.9552   -4.4695   -0.3495 N   0  0  0  0  0  0  0  0  0  0  0  0
   -9.5214   -5.1040    0.8325 C   0  0  0  0  0  0  0  0  0  0  0  0
  -11.4365   -4.2199   -0.4975 C   0  0  0  0  0  0  0  0  0  0  0  0
  -12.0377   -3.0819    0.3820 C   0  0  1  0  0  0  0  0  0  0  0  0
  -11.1319   -2.7353    1.4200 O   0  0  0  0  0  0  0  0  0  0  0  0
  -12.4833   -1.8477   -0.4380 C   0  0  1  0  0  0  0  0  0  0  0  0
  -13.1991   -2.2590   -1.5991 O   0  0  0  0  0  0  0  0  0  0  0  0
  -13.2835   -0.7571    0.3158 C   0  0  1  0  0  0  0  0  0  0  0  0
  -12.6551   -0.5262    1.5718 O   0  0  0  0  0  0  0  0  0  0  0  0
  -13.3566    0.5790   -0.4570 C   0  0  0  0  0  0  0  0  0  0  0  0
  -12.0766    1.0313   -0.8825 O   0  0  0  0  0  0  0  0  0  0  0  0
  -11.8601    2.4154   -1.6233 P   0  0  0  0  0  0  0  0  0  0  0  0
  -12.4763    2.3965   -2.9694 O   0  0  0  0  0  0  0  0  0  0  0  0
  -12.1686    3.5444   -0.7193 O   0  5  0  0  0  0  0  0  0  0  0  0
  -10.2890    2.4664   -1.8761 O   0  5  0  0  0  0  0  0  0  0  0  0
  1 18  1  0  0  0  0
  1  2  1  0  0  0  0
  2  4  1  0  0  0  0
  2  3  2  0  0  0  0
  4  5  1  0  0  0  0
  5  7  1  0  0  0  0
  5  6  2  0  0  0  0
  7 18  2  0  0  0  0
  7  8  1  0  0  0  0
  8  9  1  0  0  0  0
  9 10  2  0  0  0  0
  9 16  1  0  0  0  0
 10 11  1  0  0  0  0
 11 12  1  0  0  0  0
 11 13  2  0  0  0  0
 13 14  1  0  0  0  0
 13 15  1  0  0  0  0
 15 16  2  0  0  0  0
 16 17  1  0  0  0  0
 17 19  1  0  0  0  0
 17 18  1  0  0  0  0
 20 19  1  6  0  0  0
 20 22  1  0  0  0  0
 20 21  1  0  0  0  0
 22 24  1  0  0  0  0
 22 23  1  6  0  0  0
 24 26  1  6  0  0  0
 24 25  1  0  0  0  0
 26 27  1  0  0  0  0
 27 28  1  0  0  0  0
 28 30  1  0  0  0  0
 28 29  2  0  0  0  0
 28 31  1  0  0  0  0
M  CHG  2  30  -1  31  -1
M  END
>  <CHROM.1>
-131.00134549,-15.68908472,44.63770559,178.97864688,44.03268313,-66.19908192
-51.00359490,-169.64410728,-176.44431398,-67.59936852,-10.26395173,-2.78792618
-0.52859196,0.71981152,-0.93220124,2.17531445

>  <Name>
1fmn_cryst

>  <RI>
0

>  <Rbt.Current_Directory>
/home/itssahil/PROJECTS/Mol_Feturizer/New_Systems/rnas/1fmn

>  <Rbt.Executable>
rbdock ($Id: //depot/dev/client3/rdock/2013.1/src/exe/rbdock.cxx#4 $)

>  <Rbt.Library>
libRbt.so (2013.1, Build901 2013/11/27)

>  <Rbt.Parameter_File>
/export/apps/rDock/src/rDock_2013.1_src/data/scripts/dock_solv.prm

>  <Rbt.Receptor>
prm/blind_docking_20.prm

>  <SCORE>
-42.1121

>  <SCORE.INTER>
-38.6318

>  <SCORE.INTER.CONST>
1

>  <SCORE.INTER.POLAR>
-2.53683

>  <SCORE.INTER.ROT>
7

>  <SCORE.INTER.SOLV>
27.1483

>  <SCORE.INTER.VDW>
-34.6145

>  <SCORE.INTER.norm>
-1.24619

>  <SCORE.INTRA>
-7.04938

>  <SCORE.INTRA.DIHEDRAL>
-6.37593

>  <SCORE.INTRA.DIHEDRAL.0>
15.5708

>  <SCORE.INTRA.POLAR>
-1.19796

>  <SCORE.INTRA.POLAR.0>
-0.0677885

>  <SCORE.INTRA.REPUL>
0

>  <SCORE.INTRA.REPUL.0>
0

>  <SCORE.INTRA.SOLV>
-3.42569

>  <SCORE.INTRA.SOLV.lig_0>
-87.6316

>  <SCORE.INTRA.VDW>
1.92448

>  <SCORE.INTRA.VDW.0>
-2.87309

>  <SCORE.INTRA.norm>
-0.227399

>  <SCORE.RESTR>
3.56912

>  <SCORE.RESTR.CAVITY>
3.56912

>  <SCORE.RESTR.norm>
0.115133

>  <SCORE.SYSTEM>
0

>  <SCORE.SYSTEM.CONST>
0

>  <SCORE.SYSTEM.DIHEDRAL>
0

>  <SCORE.SYSTEM.SOLV>
0

>  <SCORE.SYSTEM.norm>
0

>  <SCORE.heavy>
31

>  <SCORE.norm>
-1.35845

>  <SYMMETRIC_BONDS>
33 34 3

>  <RMSD>
8.528

$$$$
1fmn_cryst
 OpenBabel11021811393D
libRbt.so/2013.1/901 2013/11/27
 31 33  0  0  0  0  0  0  0  0999 V2000
  -10.8612   -4.3919    1.4793 N   0  0  0  0  0  0  0  0  0  0  0  0
  -10.6459   -4.9178    2.7318 C   0  0  0  0  0  0  0  0  0  0  0  0
  -11.3561   -4.6239    3.6939 O   0  0  0  0  0  0  0  0  0  0  0  0
   -9.5535   -5.8140    2.8451 N   0  0  0  0  0  0  0  0  0  0  0  0
   -8.6772   -6.2115    1.8115 C   0  0  0  0  0  0  0  0  0  0  0  0
   -7.7600   -7.0073    2.0499 O   0  0  0  0  0  0  0  0  0  0  0  0
   -8.9723   -5.6076    0.5102 C   0  0  0  0  0  0  0  0  0  0  0  0
   -8.1656   -5.9434   -0.5484 N   0  0  0  0  0  0  0  0  0  0  0  0
   -8.3279   -5.2461   -1.7104 C   0  0  0  0  0  0  0  0  0  0  0  0
   -7.4023   -5.4469   -2.7190 C   0  0  0  0  0  0  0  0  0  0  0  0
   -7.5011   -4.7901   -3.8981 C   0  0  0  0  0  0  0  0  0  0  0  0
   -6.4762   -5.0455   -4.9568 C   0  0  0  0  0  0  0  0  0  0  0  0
   -8.5187   -3.9131   -4.1134 C   0  0  0  0  0  0  0  0  0  0  0  0
   -8.6161   -3.1872   -5.4156 C   0  0  0  0  0  0  0  0  0  0  0  0
   -9.4505   -3.6849   -3.1529 C   0  0  0  0  0  0  0  0  0  0  0  0
   -9.3947   -4.3361   -1.9208 C   0  0  0  0  0  0  0  0  0  0  0  0
  -10.3304   -4.1484   -0.8819 N   0  0  0  0  0  0  0  0  0  0  0  0
  -10.0867   -4.6966    0.3940 C   0  0  0  0  0  0  0  0  0  0  0  0
  -11.7685   -3.8908   -1.2615 C   0  0  0  0  0  0  0  0  0  0  0  0
  -12.2337   -2.4031   -1.2409 C   0  0  1  0  0  0  0  0  0  0  0  0
  -13.1655   -2.1672   -2.2869 O   0  0  0  0  0  0  0  0  0  0  0  0
  -12.7776   -1.9528    0.1359 C   0  0  1  0  0  0  0  0  0  0  0  0
  -11.7034   -1.5679    0.9889 O   0  0  0  0  0  0  0  0  0  0  0  0
  -13.8685   -0.8539    0.1332 C   0  0  1  0  0  0  0  0  0  0  0  0
  -14.9590   -1.3013    0.9311 O   0  0  0  0  0  0  0  0  0  0  0  0
  -13.3651    0.4963    0.6911 C   0  0  0  0  0  0  0  0  0  0  0  0
  -12.3572    1.0801   -0.1259 O   0  0  0  0  0  0  0  0  0  0  0  0
  -11.7530    2.5178    0.1554 P   0  0  0  0  0  0  0  0  0  0  0  0
  -11.4042    2.6740    1.5858 O   0  0  0  0  0  0  0  0  0  0  0  0
  -10.7382    2.8650   -0.8627 O   0  5  0  0  0  0  0  0  0  0  0  0
  -12.9824    3.4987   -0.0915 O   0  5  0  0  0  0  0  0  0  0  0  0
  1 18  1  0  0  0  0
  1  2  1  0  0  0  0
  2  4  1  0  0  0  0
  2  3  2  0  0  0  0
  4  5  1  0  0  0  0
  5  7  1  0  0  0  0
  5  6  2  0  0  0  0
  7 18  2  0  0  0  0
  7  8  1  0  0  0  0
  8  9  1  0  0  0  0
  9 10  2  0  0  0  0
  9 16  1  0  0  0  0
 10 11  1  0  0  0  0
 11 12  1  0  0  0  0
 11 13  2  0  0  0  0
 13 14  1  0  0  0  0
 13 15  1  0  0  0  0
 15 16  2  0  0  0  0
 16 17  1  0  0  0  0
 17 19  1  0  0  0  0
 17 18  1  0  0  0  0
 20 19  1  1  0  0  0
 20 22  1  0  0  0  0
 20 21  1  0  0  0  0
 22 24  1  0  0  0  0
 22 23  1  1  0  0  0
 24 26  1  1  0  0  0
 24 25  1  0  0  0  0
 26 27  1  0  0  0  0
 27 28  1  0  0  0  0
 28 30  1  0  0  0  0
 28 29  2  0  0  0  0
 28 31  1  0  0  0  0
M  CHG  2  30  -1  31  -1
M  END
>  <CHROM.1>
-99.18624007,144.57134832,83.61935107,-57.15673073,129.10981889,70.59438847
65.28220603,66.69920584,174.99842845,46.83625026,-10.62975977,-2.55859050
-0.40295668,0.46122874,-0.97093448,2.32125960

>  <Name>
1fmn_cryst

>  <RI>
0

>  <Rbt.Current_Directory>
/home/itssahil/PROJECTS/Mol_Feturizer/New_Systems/rnas/1fmn

>  <Rbt.Executable>
rbdock ($Id: //depot/dev/client3/rdock/2013.1/src/exe/rbdock.cxx#4 $)

>  <Rbt.Library>
libRbt.so (2013.1, Build901 2013/11/27)

>  <Rbt.Parameter_File>
/export/apps/rDock/src/rDock_2013.1_src/data/scripts/dock_solv.prm

>  <Rbt.Receptor>
prm/blind_docking_60.prm

>  <SCORE>
-40.6032

>  <SCORE.INTER>
-38.5832

>  <SCORE.INTER.CONST>
1

>  <SCORE.INTER.POLAR>
-2.17324

>  <SCORE.INTER.ROT>
7

>  <SCORE.INTER.SOLV>
29.5258

>  <SCORE.INTER.VDW>
-36.5866

>  <SCORE.INTER.norm>
-1.24462

>  <SCORE.INTRA>
-3.06003

>  <SCORE.INTRA.DIHEDRAL>
-1.79054

>  <SCORE.INTRA.DIHEDRAL.0>
15.5708

>  <SCORE.INTRA.POLAR>
-0.735148

>  <SCORE.INTRA.POLAR.0>
-0.0677885

>  <SCORE.INTRA.REPUL>
0

>  <SCORE.INTRA.REPUL.0>
0

>  <SCORE.INTRA.SOLV>
-3.73134

>  <SCORE.INTRA.SOLV.lig_0>
-87.6316

>  <SCORE.INTRA.VDW>
2.20041

>  <SCORE.INTRA.VDW.0>
-2.87309

>  <SCORE.INTRA.norm>
-0.0987107

>  <SCORE.RESTR>
1.04005

>  <SCORE.RESTR.CAVITY>
1.04005

>  <SCORE.RESTR.norm>
0.0335499

>  <SCORE.SYSTEM>
0

>  <SCORE.SYSTEM.CONST>
0

>  <SCORE.SYSTEM.DIHEDRAL>
0

>  <SCORE.SYSTEM.SOLV>
0

>  <SCORE.SYSTEM.norm>
0

>  <SCORE.heavy>
31

>  <SCORE.norm>
-1.30978

>  <SYMMETRIC_BONDS>
33 34 3

>  <RMSD>
8.533

$$$$
1fmn_cryst
 OpenBabel11021811393D
libRbt.so/2013.1/901 2013/11/27
 31 33  0  0  0  0  0  0  0  0999 V2000
  -10.6046   -4.5575   -1.2352 N   0  0  0  0  0  0  0  0  0  0  0  0
  -10.3878   -4.3544   -2.5781 C   0  0  0  0  0  0  0  0  0  0  0  0
  -11.2859   -3.9861   -3.3359 O   0  0  0  0  0  0  0  0  0  0  0  0
   -9.0683   -4.6004   -3.0340 N   0  0  0  0  0  0  0  0  0  0  0  0
   -7.9719   -5.0290   -2.2540 C   0  0  0  0  0  0  0  0  0  0  0  0
   -6.8671   -5.2046   -2.7832 O   0  0  0  0  0  0  0  0  0  0  0  0
   -8.2845   -5.2231   -0.8363 C   0  0  0  0  0  0  0  0  0  0  0  0
   -7.2712   -5.6394   -0.0091 N   0  0  0  0  0  0  0  0  0  0  0  0
   -7.6040   -5.9922    1.2665 C   0  0  0  0  0  0  0  0  0  0  0  0
   -6.6285   -6.5856    2.0481 C   0  0  0  0  0  0  0  0  0  0  0  0
   -6.8872   -6.9608    3.3223 C   0  0  0  0  0  0  0  0  0  0  0  0
   -5.7968   -7.5952    4.1254 C   0  0  0  0  0  0  0  0  0  0  0  0
   -8.1206   -6.7612    3.8607 C   0  0  0  0  0  0  0  0  0  0  0  0
   -8.3996   -7.1848    5.2660 C   0  0  0  0  0  0  0  0  0  0  0  0
   -9.1085   -6.1820    3.1318 C   0  0  0  0  0  0  0  0  0  0  0  0
   -8.8938   -5.7767    1.8145 C   0  0  0  0  0  0  0  0  0  0  0  0
   -9.8734   -5.1665    1.0033 N   0  0  0  0  0  0  0  0  0  0  0  0
   -9.6280   -4.9701   -0.3712 C   0  0  0  0  0  0  0  0  0  0  0  0
  -10.8712   -4.2483    1.6664 C   0  0  0  0  0  0  0  0  0  0  0  0
  -12.2026   -4.9032    2.1446 C   0  0  1  0  0  0  0  0  0  0  0  0
  -12.0958   -6.3189    2.0983 O   0  0  0  0  0  0  0  0  0  0  0  0
  -12.6665   -4.3993    3.5320 C   0  0  1  0  0  0  0  0  0  0  0  0
  -11.5621   -4.3398    4.4300 O   0  0  0  0  0  0  0  0  0  0  0  0
  -13.4471   -3.0624    3.5671 C   0  0  1  0  0  0  0  0  0  0  0  0
  -13.8560   -2.8158    4.9080 O   0  0  0  0  0  0  0  0  0  0  0  0
  -12.6085   -1.8618    3.0741 C   0  0  0  0  0  0  0  0  0  0  0  0
  -13.2316   -0.6132    3.3514 O   0  0  0  0  0  0  0  0  0  0  0  0
  -12.5715    0.7764    2.9714 P   0  0  0  0  0  0  0  0  0  0  0  0
  -11.3984    0.5809    2.0896 O   0  0  0  0  0  0  0  0  0  0  0  0
  -13.6067    1.7518    2.5665 O   0  5  0  0  0  0  0  0  0  0  0  0
  -11.9813    1.3041    4.3527 O   0  5  0  0  0  0  0  0  0  0  0  0
  1 18  1  0  0  0  0
  1  2  1  0  0  0  0
  2  4  1  0  0  0  0
  2  3  2  0  0  0  0
  4  5  1  0  0  0  0
  5  7  1  0  0  0  0
  5  6  2  0  0  0  0
  7 18  2  0  0  0  0
  7  8  1  0  0  0  0
  8  9  1  0  0  0  0
  9 10  2  0  0  0  0
  9 16  1  0  0  0  0
 10 11  1  0  0  0  0
 11 12  1  0  0  0  0
 11 13  2  0  0  0  0
 13 14  1  0  0  0  0
 13 15  1  0  0  0  0
 15 16  2  0  0  0  0
 16 17  1  0  0  0  0
 17 19  1  0  0  0  0
 17 18  1  0  0  0  0
 20 19  1  1  0  0  0
 20 22  1  0  0  0  0
 20 21  1  0  0  0  0
 22 24  1  0  0  0  0
 22 23  1  1  0  0  0
 24 26  1  1  0  0  0
 24 25  1  0  0  0  0
 26 27  1  0  0  0  0
 27 28  1  0  0  0  0
 28 30  1  0  0  0  0
 28 29  2  0  0  0  0
 28 31  1  0  0  0  0
M  CHG  2  30  -1  31  -1
M  END
>  <CHROM.1>
-91.92573594,11.91954193,-43.73711163,65.38993473,176.34416580,-130.15336040
-168.49893092,-70.45927083,178.99415164,10.80799430,-10.35336836,-3.89146364
1.71613862,0.16026735,0.89947755,-1.31233400

>  <Name>
1fmn_cryst

>  <RI>
0

>  <Rbt.Current_Directory>
/home/itssahil/PROJECTS/Mol_Feturizer/New_Systems/rnas/1fmn

>  <Rbt.Executable>
rbdock ($Id: //depot/dev/client3/rdock/2013.1/src/exe/rbdock.cxx#4 $)

>  <Rbt.Library>
libRbt.so (2013.1, Build901 2013/11/27)

>  <Rbt.Parameter_File>
/export/apps/rDock/src/rDock_2013.1_src/data/scripts/dock_solv.prm

>  <Rbt.Receptor>
prm/blind_docking_20.prm

>  <SCORE>
-31.7298

>  <SCORE.INTER>
-36.9488

>  <SCORE.INTER.CONST>
1

>  <SCORE.INTER.POLAR>
-1.98714

>  <SCORE.INTER.ROT>
7

>  <SCORE.INTER.SOLV>
31.5545

>  <SCORE.INTER.VDW>
-36.7935

>  <SCORE.INTER.norm>
-1.1919

>  <SCORE.INTRA>
-0.201897

>  <SCORE.INTRA.DIHEDRAL>
1.74034

>  <SCORE.INTRA.DIHEDRAL.0>
15.5708

>  <SCORE.INTRA.POLAR>
0.0677885

>  <SCORE.INTRA.POLAR.0>
-0.0677885

>  <SCORE.INTRA.REPUL>
0

>  <SCORE.INTRA.REPUL.0>
0

>  <SCORE.INTRA.SOLV>
-4.1727

>  <SCORE.INTRA.SOLV.lig_0>
-87.6316

>  <SCORE.INTRA.VDW>
0.783804

>  <SCORE.INTRA.VDW.0>
-2.87309

>  <SCORE.INTRA.norm>
-0.00651281

>  <SCORE.RESTR>
5.42088

>  <SCORE.RESTR.CAVITY>
5.42088

>  <SCORE.RESTR.norm>
0.174867

>  <SCORE.SYSTEM>
0

>  <SCORE.SYSTEM.CONST>
0

>  <SCORE.SYSTEM.DIHEDRAL>
0

>  <SCORE.SYSTEM.SOLV>
0

>  <SCORE.SYSTEM.norm>
0

>  <SCORE.heavy>
31

>  <SCORE.norm>
-1.02354

>  <SYMMETRIC_BONDS>
33 34 3

>  <RMSD>
8.572

$$$$
1fmn_cryst
 OpenBabel11021811393D
libRbt.so/2013.1/901 2013/11/27
 31 33  0  0  0  0  0  0  0  0999 V2000
  -10.3078   -4.6230   -1.0866 N   0  0  0  0  0  0  0  0  0  0  0  0
  -10.0154   -4.4097   -2.4135 C   0  0  0  0  0  0  0  0  0  0  0  0
  -10.8621   -4.0073   -3.2120 O   0  0  0  0  0  0  0  0  0  0  0  0
   -8.6810   -4.6868   -2.8033 N   0  0  0  0  0  0  0  0  0  0  0  0
   -7.6391   -5.1553   -1.9731 C   0  0  0  0  0  0  0  0  0  0  0  0
   -6.5133   -5.3552   -2.4464 O   0  0  0  0  0  0  0  0  0  0  0  0
   -8.0308   -5.3579   -0.5765 C   0  0  0  0  0  0  0  0  0  0  0  0
   -7.0741   -5.8123    0.2967 N   0  0  0  0  0  0  0  0  0  0  0  0
   -7.4828   -6.1712    1.5484 C   0  0  0  0  0  0  0  0  0  0  0  0
   -6.5662   -6.8011    2.3715 C   0  0  0  0  0  0  0  0  0  0  0  0
   -6.9016   -7.1844    3.6253 C   0  0  0  0  0  0  0  0  0  0  0  0
   -5.8725   -7.8587    4.4755 C   0  0  0  0  0  0  0  0  0  0  0  0
   -8.1557   -6.9570    4.1014 C   0  0  0  0  0  0  0  0  0  0  0  0
   -8.5194   -7.3897    5.4843 C   0  0  0  0  0  0  0  0  0  0  0  0
   -9.0878   -6.3416    3.3299 C   0  0  0  0  0  0  0  0  0  0  0  0
   -8.7933   -5.9264    2.0313 C   0  0  0  0  0  0  0  0  0  0  0  0
   -9.7119   -5.2793    1.1785 N   0  0  0  0  0  0  0  0  0  0  0  0
   -9.3895   -5.0731   -0.1786 C   0  0  0  0  0  0  0  0  0  0  0  0
  -10.7178   -4.3418    1.8011 C   0  0  0  0  0  0  0  0  0  0  0  0
  -12.1061   -4.9545    2.1581 C   0  0  1  0  0  0  0  0  0  0  0  0
  -12.0397   -6.3729    2.1187 O   0  0  0  0  0  0  0  0  0  0  0  0
  -12.6753   -4.4353    3.5000 C   0  0  1  0  0  0  0  0  0  0  0  0
  -11.6388   -4.3433    4.4730 O   0  0  0  0  0  0  0  0  0  0  0  0
  -13.4761   -3.1107    3.4559 C   0  0  1  0  0  0  0  0  0  0  0  0
  -14.0698   -2.9019    4.7326 O   0  0  0  0  0  0  0  0  0  0  0  0
  -12.5984   -1.8871    3.1094 C   0  0  0  0  0  0  0  0  0  0  0  0
  -13.2873   -0.6555    3.2900 O   0  0  0  0  0  0  0  0  0  0  0  0
  -12.5646    0.7517    3.1969 P   0  0  0  0  0  0  0  0  0  0  0  0
  -11.7166    0.9902    4.3869 O   0  0  0  0  0  0  0  0  0  0  0  0
  -11.9730    0.9462    1.8556 O   0  5  0  0  0  0  0  0  0  0  0  0
  -13.7594    1.7978    3.3104 O   0  5  0  0  0  0  0  0  0  0  0  0
  1 18  1  0  0  0  0
  1  2  1  0  0  0  0
  2  4  1  0  0  0  0
  2  3  2  0  0  0  0
  4  5  1  0  0  0  0
  5  7  1  0  0  0  0
  5  6  2  0  0  0  0
  7 18  2  0  0  0  0
  7  8  1  0  0  0  0
  8  9  1  0  0  0  0
  9 10  2  0  0  0  0
  9 16  1  0  0  0  0
 10 11  1  0  0  0  0
 11 12  1  0  0  0  0
 11 13  2  0  0  0  0
 13 14  1  0  0  0  0
 13 15  1  0  0  0  0
 15 16  2  0  0  0  0
 16 17  1  0  0  0  0
 17 19  1  0  0  0  0
 17 18  1  0  0  0  0
 20 19  1  1  0  0  0
 20 22  1  0  0  0  0
 20 21  1  0  0  0  0
 22 24  1  0  0  0  0
 22 23  1  1  0  0  0
 24 26  1  1  0  0  0
 24 25  1  0  0  0  0
 26 27  1  0  0  0  0
 27 28  1  0  0  0  0
 28 30  1  0  0  0  0
 28 29  2  0  0  0  0
 28 31  1  0  0  0  0
M  CHG  2  30  -1  31  -1
M  END
>  <CHROM.1>
-93.82873764,14.17383367,-40.71184904,66.81732957,171.88259496,-113.27185742
-170.11677927,71.10319865,171.46560922,-73.07195513,-10.27678137,-3.97968733
1.87525544,0.06753276,0.89132582,-1.23880309

>  <Name>
1fmn_cryst

>  <RI>
0

>  <Rbt.Current_Directory>
/home/itssahil/PROJECTS/Mol_Feturizer/New_Systems/rnas/1fmn

>  <Rbt.Executable>
rbdock ($Id: //depot/dev/client3/rdock/2013.1/src/exe/rbdock.cxx#4 $)

>  <Rbt.Library>
libRbt.so (2013.1, Build901 2013/11/27)

>  <Rbt.Parameter_File>
/export/apps/rDock/src/rDock_2013.1_src/data/scripts/dock_solv.prm

>  <Rbt.Receptor>
prm/blind_docking_80.prm

>  <SCORE>
-30.7245

>  <SCORE.INTER>
-36.1342

>  <SCORE.INTER.CONST>
1

>  <SCORE.INTER.POLAR>
-2.78283

>  <SCORE.INTER.ROT>
7

>  <SCORE.INTER.SOLV>
30.947

>  <SCORE.INTER.VDW>
-33.3957

>  <SCORE.INTER.norm>
-1.16562

>  <SCORE.INTRA>
-0.796846

>  <SCORE.INTRA.DIHEDRAL>
0.956259

>  <SCORE.INTRA.DIHEDRAL.0>
15.5708

>  <SCORE.INTRA.POLAR>
0.0677885

>  <SCORE.INTRA.POLAR.0>
-0.0677885

>  <SCORE.INTRA.REPUL>
0

>  <SCORE.INTRA.REPUL.0>
0

>  <SCORE.INTRA.SOLV>
-4.4287

>  <SCORE.INTRA.SOLV.lig_0>
-87.6316

>  <SCORE.INTRA.VDW>
0.708896

>  <SCORE.INTRA.VDW.0>
-2.87309

>  <SCORE.INTRA.norm>
-0.0257047

>  <SCORE.RESTR>
6.20657

>  <SCORE.RESTR.CAVITY>
6.20657

>  <SCORE.RESTR.norm>
0.200212

>  <SCORE.SYSTEM>
0

>  <SCORE.SYSTEM.CONST>
0

>  <SCORE.SYSTEM.DIHEDRAL>
0

>  <SCORE.SYSTEM.SOLV>
0

>  <SCORE.SYSTEM.norm>
0

>  <SCORE.heavy>
31

>  <SCORE.norm>
-0.991113

>  <SYMMETRIC_BONDS>
33 34 3

>  <RMSD>
8.606

$$$$
1fmn_cryst
 OpenBabel11021811393D
libRbt.so/2013.1/901 2013/11/27
 31 33  0  0  0  0  0  0  0  0999 V2000
  -10.3365   -4.7373    1.5986 N   0  0  0  0  0  0  0  0  0  0  0  0
   -9.9989   -5.3334    2.7912 C   0  0  0  0  0  0  0  0  0  0  0  0
  -10.6239   -5.1157    3.8297 O   0  0  0  0  0  0  0  0  0  0  0  0
   -8.8847   -6.2087    2.7496 N   0  0  0  0  0  0  0  0  0  0  0  0
   -8.0989   -6.5216    1.6188 C   0  0  0  0  0  0  0  0  0  0  0  0
   -7.1496   -7.3085    1.7235 O   0  0  0  0  0  0  0  0  0  0  0  0
   -8.5218   -5.8465    0.3897 C   0  0  0  0  0  0  0  0  0  0  0  0
   -7.8087   -6.0978   -0.7559 N   0  0  0  0  0  0  0  0  0  0  0  0
   -8.0885   -5.3350   -1.8525 C   0  0  0  0  0  0  0  0  0  0  0  0
   -7.2549   -5.4519   -2.9506 C   0  0  0  0  0  0  0  0  0  0  0  0
   -7.4721   -4.7269   -4.0724 C   0  0  0  0  0  0  0  0  0  0  0  0
   -6.5432   -4.8929   -5.2326 C   0  0  0  0  0  0  0  0  0  0  0  0
   -8.5208   -3.8628   -4.1401 C   0  0  0  0  0  0  0  0  0  0  0  0
   -8.7492   -3.0612   -5.3801 C   0  0  0  0  0  0  0  0  0  0  0  0
   -9.3655   -3.7157   -3.0876 C   0  0  0  0  0  0  0  0  0  0  0  0
   -9.1862   -4.4394   -1.9088 C   0  0  0  0  0  0  0  0  0  0  0  0
  -10.0269   -4.3376   -0.7807 N   0  0  0  0  0  0  0  0  0  0  0  0
   -9.6585   -4.9567    0.4313 C   0  0  0  0  0  0  0  0  0  0  0  0
  -11.4980   -4.0915   -1.0129 C   0  0  0  0  0  0  0  0  0  0  0  0
  -11.9777   -2.6123   -0.9034 C   0  0  1  0  0  0  0  0  0  0  0  0
  -12.9886   -2.3531   -1.8672 O   0  0  0  0  0  0  0  0  0  0  0  0
  -12.4213   -2.2189    0.5258 C   0  0  1  0  0  0  0  0  0  0  0  0
  -11.3165   -2.2905    1.4225 O   0  0  0  0  0  0  0  0  0  0  0  0
  -13.1431   -0.8584    0.6861 C   0  0  1  0  0  0  0  0  0  0  0  0
  -13.5004   -0.6978    2.0545 O   0  0  0  0  0  0  0  0  0  0  0  0
  -12.2697    0.3415    0.2559 C   0  0  0  0  0  0  0  0  0  0  0  0
  -13.0134    1.5513    0.1685 O   0  0  0  0  0  0  0  0  0  0  0  0
  -12.4389    2.8624   -0.5112 P   0  0  0  0  0  0  0  0  0  0  0  0
  -11.0138    3.0586   -0.1609 O   0  0  0  0  0  0  0  0  0  0  0  0
  -12.8333    2.9271   -1.9351 O   0  5  0  0  0  0  0  0  0  0  0  0
  -13.2219    4.0404    0.2196 O   0  5  0  0  0  0  0  0  0  0  0  0
  1 18  1  0  0  0  0
  1  2  1  0  0  0  0
  2  4  1  0  0  0  0
  2  3  2  0  0  0  0
  4  5  1  0  0  0  0
  5  7  1  0  0  0  0
  5  6  2  0  0  0  0
  7 18  2  0  0  0  0
  7  8  1  0  0  0  0
  8  9  1  0  0  0  0
  9 10  2  0  0  0  0
  9 16  1  0  0  0  0
 10 11  1  0  0  0  0
 11 12  1  0  0  0  0
 11 13  2  0  0  0  0
 13 14  1  0  0  0  0
 13 15  1  0  0  0  0
 15 16  2  0  0  0  0
 16 17  1  0  0  0  0
 17 19  1  0  0  0  0
 17 18  1  0  0  0  0
 20 19  1  1  0  0  0
 20 22  1  0  0  0  0
 20 21  1  0  0  0  0
 22 24  1  0  0  0  0
 22 23  1  1  0  0  0
 24 26  1  1  0  0  0
 24 25  1  0  0  0  0
 26 27  1  0  0  0  0
 27 28  1  0  0  0  0
 28 30  1  0  0  0  0
 28 29  2  0  0  0  0
 28 31  1  0  0  0  0
M  CHG  2  30  -1  31  -1
M  END
>  <CHROM.1>
-97.23931608,143.32941626,63.94464273,-48.95136117,178.39502721,170.73488822
169.02347448,-170.51647272,-167.92865126,-40.46608287,-10.44001272,-2.60865026
-0.45744586,0.46488377,-0.97277478,2.19285216

>  <Name>
1fmn_cryst

>  <RI>
0

>  <Rbt.Current_Directory>
/home/itssahil/PROJECTS/Mol_Feturizer/New_Systems/rnas/1fmn

>  <Rbt.Executable>
rbdock ($Id: //depot/dev/client3/rdock/2013.1/src/exe/rbdock.cxx#4 $)

>  <Rbt.Library>
libRbt.so (2013.1, Build901 2013/11/27)

>  <Rbt.Parameter_File>
/export/apps/rDock/src/rDock_2013.1_src/data/scripts/dock_solv.prm

>  <Rbt.Receptor>
prm/blind_docking_60.prm

>  <SCORE>
-43.9807

>  <SCORE.INTER>
-38.6719

>  <SCORE.INTER.CONST>
1

>  <SCORE.INTER.POLAR>
-2.4098

>  <SCORE.INTER.ROT>
7

>  <SCORE.INTER.SOLV>
22.6806

>  <SCORE.INTER.VDW>
-33.5754

>  <SCORE.INTER.norm>
-1.24748

>  <SCORE.INTRA>
-6.53706

>  <SCORE.INTRA.DIHEDRAL>
-5.79411

>  <SCORE.INTRA.DIHEDRAL.0>
15.5708

>  <SCORE.INTRA.POLAR>
-0.62759

>  <SCORE.INTRA.POLAR.0>
-0.0677885

>  <SCORE.INTRA.REPUL>
0.00582383

>  <SCORE.INTRA.REPUL.0>
0

>  <SCORE.INTRA.SOLV>
-4.10364

>  <SCORE.INTRA.SOLV.lig_0>
-87.6316

>  <SCORE.INTRA.VDW>
0.516503

>  <SCORE.INTRA.VDW.0>
-2.87309

>  <SCORE.INTRA.norm>
-0.210873

>  <SCORE.RESTR>
1.22821

>  <SCORE.RESTR.CAVITY>
1.22821

>  <SCORE.RESTR.norm>
0.0396197

>  <SCORE.SYSTEM>
0

>  <SCORE.SYSTEM.CONST>
0

>  <SCORE.SYSTEM.DIHEDRAL>
0

>  <SCORE.SYSTEM.SOLV>
0

>  <SCORE.SYSTEM.norm>
0

>  <SCORE.heavy>
31

>  <SCORE.norm>
-1.41873

>  <SYMMETRIC_BONDS>
33 34 3

>  <RMSD>
8.622

$$$$
1fmn_cryst
 OpenBabel11021811393D
libRbt.so/2013.1/901 2013/11/27
 31 33  0  0  0  0  0  0  0  0999 V2000
  -10.2774   -4.3470   -1.1497 N   0  0  0  0  0  0  0  0  0  0  0  0
  -10.1267   -4.2305   -2.5118 C   0  0  0  0  0  0  0  0  0  0  0  0
  -10.9560   -3.6498   -3.2129 O   0  0  0  0  0  0  0  0  0  0  0  0
   -8.9606   -4.8247   -3.0564 N   0  0  0  0  0  0  0  0  0  0  0  0
   -7.9548   -5.5157   -2.3459 C   0  0  0  0  0  0  0  0  0  0  0  0
   -6.9827   -5.9862   -2.9500 O   0  0  0  0  0  0  0  0  0  0  0  0
   -8.1890   -5.5969   -0.9024 C   0  0  0  0  0  0  0  0  0  0  0  0
   -7.2559   -6.2533   -0.1390 N   0  0  0  0  0  0  0  0  0  0  0  0
   -7.5629   -6.4845    1.1706 C   0  0  0  0  0  0  0  0  0  0  0  0
   -6.7165   -7.3023    1.8980 C   0  0  0  0  0  0  0  0  0  0  0  0
   -6.9583   -7.5748    3.2013 C   0  0  0  0  0  0  0  0  0  0  0  0
   -6.0104   -8.4622    3.9431 C   0  0  0  0  0  0  0  0  0  0  0  0
   -8.0471   -7.0468    3.8234 C   0  0  0  0  0  0  0  0  0  0  0  0
   -8.3102   -7.3584    5.2606 C   0  0  0  0  0  0  0  0  0  0  0  0
   -8.9048   -6.2384    3.1498 C   0  0  0  0  0  0  0  0  0  0  0  0
   -8.7008   -5.9260    1.8058 C   0  0  0  0  0  0  0  0  0  0  0  0
   -9.5493   -5.0914    1.0485 N   0  0  0  0  0  0  0  0  0  0  0  0
   -9.3755   -4.9894   -0.3470 C   0  0  0  0  0  0  0  0  0  0  0  0
  -10.2124   -3.9310    1.7501 C   0  0  0  0  0  0  0  0  0  0  0  0
  -11.6717   -4.1647    2.2460 C   0  0  1  0  0  0  0  0  0  0  0  0
  -11.6614   -4.8259    3.5032 O   0  0  0  0  0  0  0  0  0  0  0  0
  -12.5207   -2.8715    2.2751 C   0  0  1  0  0  0  0  0  0  0  0  0
  -12.5317   -2.3179    3.5877 O   0  0  0  0  0  0  0  0  0  0  0  0
  -12.1619   -1.7741    1.2432 C   0  0  1  0  0  0  0  0  0  0  0  0
  -12.0320   -2.3852   -0.0357 O   0  0  0  0  0  0  0  0  0  0  0  0
  -13.2270   -0.6581    1.1554 C   0  0  0  0  0  0  0  0  0  0  0  0
  -12.7582    0.4864    0.4522 O   0  0  0  0  0  0  0  0  0  0  0  0
  -11.5078    1.3335    0.9319 P   0  0  0  0  0  0  0  0  0  0  0  0
  -10.4496    0.4523    1.4760 O   0  0  0  0  0  0  0  0  0  0  0  0
  -11.1371    2.3388   -0.0874 O   0  5  0  0  0  0  0  0  0  0  0  0
  -12.0626    2.1514    2.1801 O   0  5  0  0  0  0  0  0  0  0  0  0
  1 18  1  0  0  0  0
  1  2  1  0  0  0  0
  2  4  1  0  0  0  0
  2  3  2  0  0  0  0
  4  5  1  0  0  0  0
  5  7  1  0  0  0  0
  5  6  2  0  0  0  0
  7 18  2  0  0  0  0
  7  8  1  0  0  0  0
  8  9  1  0  0  0  0
  9 10  2  0  0  0  0
  9 16  1  0  0  0  0
 10 11  1  0  0  0  0
 11 12  1  0  0  0  0
 11 13  2  0  0  0  0
 13 14  1  0  0  0  0
 13 15  1  0  0  0  0
 15 16  2  0  0  0  0
 16 17  1  0  0  0  0
 17 19  1  0  0  0  0
 17 18  1  0  0  0  0
 20 19  1  1  0  0  0
 20 22  1  0  0  0  0
 20 21  1  0  0  0  0
 22 24  1  0  0  0  0
 22 23  1  1  0  0  0
 24 26  1  6  0  0  0
 24 25  1  0  0  0  0
 26 27  1  0  0  0  0
 27 28  1  0  0  0  0
 28 30  1  0  0  0  0
 28 29  2  0  0  0  0
 28 31  1  0  0  0  0
M  CHG  2  30  -1  31  -1
M  END
>  <CHROM.1>
-96.91089886,83.00131821,-97.02805981,-171.43681062,47.76786518,-61.09178279
166.31690087,55.43781883,-60.62204661,38.17585926,-9.99226838,-3.62509121
0.94298487,-0.32068367,1.00323076,-1.28837903

>  <Name>
1fmn_cryst

>  <RI>
0

>  <Rbt.Current_Directory>
/home/itssahil/PROJECTS/Mol_Feturizer/New_Systems/rnas/1fmn

>  <Rbt.Executable>
rbdock ($Id: //depot/dev/client3/rdock/2013.1/src/exe/rbdock.cxx#4 $)

>  <Rbt.Library>
libRbt.so (2013.1, Build901 2013/11/27)

>  <Rbt.Parameter_File>
/export/apps/rDock/src/rDock_2013.1_src/data/scripts/dock_solv.prm

>  <Rbt.Receptor>
prm/blind_docking_20.prm

>  <SCORE>
-29.1155

>  <SCORE.INTER>
-29.3309

>  <SCORE.INTER.CONST>
1

>  <SCORE.INTER.POLAR>
-1.69898

>  <SCORE.INTER.ROT>
7

>  <SCORE.INTER.SOLV>
33.2993

>  <SCORE.INTER.VDW>
-33.257

>  <SCORE.INTER.norm>
-0.946157

>  <SCORE.INTRA>
-5.23288

>  <SCORE.INTRA.DIHEDRAL>
-5.66137

>  <SCORE.INTRA.DIHEDRAL.0>
15.5708

>  <SCORE.INTRA.POLAR>
-0.932211

>  <SCORE.INTRA.POLAR.0>
-0.0677885

>  <SCORE.INTRA.REPUL>
0

>  <SCORE.INTRA.REPUL.0>
0

>  <SCORE.INTRA.SOLV>
0.137689

>  <SCORE.INTRA.SOLV.lig_0>
-87.6316

>  <SCORE.INTRA.VDW>
0.69848

>  <SCORE.INTRA.VDW.0>
-2.87309

>  <SCORE.INTRA.norm>
-0.168803

>  <SCORE.RESTR>
5.44828

>  <SCORE.RESTR.CAVITY>
5.44828

>  <SCORE.RESTR.norm>
0.175751

>  <SCORE.SYSTEM>
0

>  <SCORE.SYSTEM.CONST>
0

>  <SCORE.SYSTEM.DIHEDRAL>
0

>  <SCORE.SYSTEM.SOLV>
0

>  <SCORE.SYSTEM.norm>
0

>  <SCORE.heavy>
31

>  <SCORE.norm>
-0.939208

>  <SYMMETRIC_BONDS>
33 34 3

>  <RMSD>
8.782

$$$$
1fmn_cryst
 OpenBabel11021811393D
libRbt.so/2013.1/901 2013/11/27
 31 33  0  0  0  0  0  0  0  0999 V2000
  -12.3330   -3.1290    2.3095 N   0  0  0  0  0  0  0  0  0  0  0  0
  -12.4884   -3.4906    3.6273 C   0  0  0  0  0  0  0  0  0  0  0  0
  -13.2633   -2.8987    4.3795 O   0  0  0  0  0  0  0  0  0  0  0  0
  -11.6976   -4.5827    4.0647 N   0  0  0  0  0  0  0  0  0  0  0  0
  -10.7782   -5.3229    3.2896 C   0  0  0  0  0  0  0  0  0  0  0  0
  -10.1511   -6.2595    3.8005 O   0  0  0  0  0  0  0  0  0  0  0  0
  -10.6700   -4.8757    1.8991 C   0  0  0  0  0  0  0  0  0  0  0  0
   -9.7966   -5.5447    1.0782 N   0  0  0  0  0  0  0  0  0  0  0  0
   -9.5639   -5.0164   -0.1585 C   0  0  0  0  0  0  0  0  0  0  0  0
   -8.5523   -5.5748   -0.9197 C   0  0  0  0  0  0  0  0  0  0  0  0
   -8.2663   -5.1025   -2.1552 C   0  0  0  0  0  0  0  0  0  0  0  0
   -7.1652   -5.7436   -2.9380 C   0  0  0  0  0  0  0  0  0  0  0  0
   -8.9724   -4.0615   -2.6737 C   0  0  0  0  0  0  0  0  0  0  0  0
   -8.6454   -3.5420   -4.0358 C   0  0  0  0  0  0  0  0  0  0  0  0
   -9.9742   -3.4827   -1.9635 C   0  0  0  0  0  0  0  0  0  0  0  0
  -10.3092   -3.9318   -0.6862 C   0  0  0  0  0  0  0  0  0  0  0  0
  -11.3391   -3.3790    0.1035 N   0  0  0  0  0  0  0  0  0  0  0  0
  -11.4774   -3.7649    1.4526 C   0  0  0  0  0  0  0  0  0  0  0  0
  -12.5718   -2.8637   -0.5989 C   0  0  0  0  0  0  0  0  0  0  0  0
  -12.6918   -1.3159   -0.7397 C   0  0  1  0  0  0  0  0  0  0  0  0
  -13.3200   -0.9836   -1.9697 O   0  0  0  0  0  0  0  0  0  0  0  0
  -13.3870   -0.6452    0.4690 C   0  0  1  0  0  0  0  0  0  0  0  0
  -14.3713   -1.5167    1.0180 O   0  0  0  0  0  0  0  0  0  0  0  0
  -12.4703   -0.1089    1.5959 C   0  0  1  0  0  0  0  0  0  0  0  0
  -11.1273   -0.1165    1.1245 O   0  0  0  0  0  0  0  0  0  0  0  0
  -12.8345    1.3265    2.0370 C   0  0  0  0  0  0  0  0  0  0  0  0
  -12.0519    2.3134    1.3755 O   0  0  0  0  0  0  0  0  0  0  0  0
  -12.6943    3.5198    0.5735 P   0  0  0  0  0  0  0  0  0  0  0  0
  -12.5904    3.2988   -0.8868 O   0  0  0  0  0  0  0  0  0  0  0  0
  -14.0102    3.8823    1.1428 O   0  5  0  0  0  0  0  0  0  0  0  0
  -11.7233    4.7416    0.8882 O   0  5  0  0  0  0  0  0  0  0  0  0
  1 18  1  0  0  0  0
  1  2  1  0  0  0  0
  2  4  1  0  0  0  0
  2  3  2  0  0  0  0
  4  5  1  0  0  0  0
  5  7  1  0  0  0  0
  5  6  2  0  0  0  0
  7 18  2  0  0  0  0
  7  8  1  0  0  0  0
  8  9  1  0  0  0  0
  9 10  2  0  0  0  0
  9 16  1  0  0  0  0
 10 11  1  0  0  0  0
 11 12  1  0  0  0  0
 11 13  2  0  0  0  0
 13 14  1  0  0  0  0
 13 15  1  0  0  0  0
 15 16  2  0  0  0  0
 16 17  1  0  0  0  0
 17 19  1  0  0  0  0
 17 18  1  0  0  0  0
 20 19  1  1  0  0  0
 20 22  1  0  0  0  0
 20 21  1  0  0  0  0
 22 24  1  0  0  0  0
 22 23  1  1  0  0  0
 24 26  1  6  0  0  0
 24 25  1  0  0  0  0
 26 27  1  0  0  0  0
 27 28  1  0  0  0  0
 28 30  1  0  0  0  0
 28 29  2  0  0  0  0
 28 31  1  0  0  0  0
M  CHG  2  30  -1  31  -1
M  END
>  <CHROM.1>
-103.62141855,145.22870843,-32.68113298,-172.20651595,11.90926187,-178.04038875
-95.29551398,-179.41284713,125.52569663,-104.79885863,-11.45851653,-1.82422652
0.56476880,0.74402529,-1.01965658,2.49909499

>  <Name>
1fmn_cryst

>  <RI>
0

>  <Rbt.Current_Directory>
/home/itssahil/PROJECTS/Mol_Feturizer/New_Systems/rnas/1fmn

>  <Rbt.Executable>
rbdock ($Id: //depot/dev/client3/rdock/2013.1/src/exe/rbdock.cxx#4 $)

>  <Rbt.Library>
libRbt.so (2013.1, Build901 2013/11/27)

>  <Rbt.Parameter_File>
/export/apps/rDock/src/rDock_2013.1_src/data/scripts/dock_solv.prm

>  <Rbt.Receptor>
prm/blind_docking_60.prm

>  <SCORE>
-12.3213

>  <SCORE.INTER>
-18.0766

>  <SCORE.INTER.CONST>
1

>  <SCORE.INTER.POLAR>
-2.24269

>  <SCORE.INTER.ROT>
7

>  <SCORE.INTER.SOLV>
24.834

>  <SCORE.INTER.VDW>
-21.1201

>  <SCORE.INTER.norm>
-0.583116

>  <SCORE.INTRA>
4.59015

>  <SCORE.INTRA.DIHEDRAL>
9.71252

>  <SCORE.INTRA.DIHEDRAL.0>
15.5708

>  <SCORE.INTRA.POLAR>
-0.24611

>  <SCORE.INTRA.POLAR.0>
-0.0677885

>  <SCORE.INTRA.REPUL>
0

>  <SCORE.INTRA.REPUL.0>
0

>  <SCORE.INTRA.SOLV>
-1.55976

>  <SCORE.INTRA.SOLV.lig_0>
-87.6316

>  <SCORE.INTRA.VDW>
1.35054

>  <SCORE.INTRA.VDW.0>
-2.87309

>  <SCORE.INTRA.norm>
0.148069

>  <SCORE.RESTR>
1.16516

>  <SCORE.RESTR.CAVITY>
1.16516

>  <SCORE.RESTR.norm>
0.0375858

>  <SCORE.SYSTEM>
0

>  <SCORE.SYSTEM.CONST>
0

>  <SCORE.SYSTEM.DIHEDRAL>
0

>  <SCORE.SYSTEM.SOLV>
0

>  <SCORE.SYSTEM.norm>
0

>  <SCORE.heavy>
31

>  <SCORE.norm>
-0.39746

>  <SYMMETRIC_BONDS>
33 34 3

>  <RMSD>
8.880

$$$$
1fmn_cryst
 OpenBabel11021811393D
libRbt.so/2013.1/901 2013/11/27
 31 33  0  0  0  0  0  0  0  0999 V2000
  -10.4099   -4.2759   -1.3606 N   0  0  0  0  0  0  0  0  0  0  0  0
  -10.2071   -4.1837   -2.7178 C   0  0  0  0  0  0  0  0  0  0  0  0
  -11.0180   -3.6328   -3.4630 O   0  0  0  0  0  0  0  0  0  0  0  0
   -9.0097   -4.7666   -3.2035 N   0  0  0  0  0  0  0  0  0  0  0  0
   -8.0207   -5.4243   -2.4396 C   0  0  0  0  0  0  0  0  0  0  0  0
   -7.0170   -5.8884   -2.9949 O   0  0  0  0  0  0  0  0  0  0  0  0
   -8.3109   -5.4811   -1.0051 C   0  0  0  0  0  0  0  0  0  0  0  0
   -7.3974   -6.1045   -0.1919 N   0  0  0  0  0  0  0  0  0  0  0  0
   -7.7523   -6.3153    1.1089 C   0  0  0  0  0  0  0  0  0  0  0  0
   -6.9210   -7.1024    1.8859 C   0  0  0  0  0  0  0  0  0  0  0  0
   -7.2098   -7.3533    3.1840 C   0  0  0  0  0  0  0  0  0  0  0  0
   -6.2764   -8.2078    3.9809 C   0  0  0  0  0  0  0  0  0  0  0  0
   -8.3318   -6.8336    3.7515 C   0  0  0  0  0  0  0  0  0  0  0  0
   -8.6465   -7.1214    5.1834 C   0  0  0  0  0  0  0  0  0  0  0  0
   -9.1764   -6.0551    3.0280 C   0  0  0  0  0  0  0  0  0  0  0  0
   -8.9245   -5.7658    1.6870 C   0  0  0  0  0  0  0  0  0  0  0  0
   -9.7570   -4.9625    0.8796 N   0  0  0  0  0  0  0  0  0  0  0  0
   -9.5294   -4.8851   -0.5097 C   0  0  0  0  0  0  0  0  0  0  0  0
  -10.4683   -3.8011    1.5303 C   0  0  0  0  0  0  0  0  0  0  0  0
  -11.9167   -4.0736    2.0382 C   0  0  1  0  0  0  0  0  0  0  0  0
  -11.9028   -5.0815    3.0391 O   0  0  0  0  0  0  0  0  0  0  0  0
  -12.6486   -2.7946    2.5101 C   0  0  1  0  0  0  0  0  0  0  0  0
  -12.6565   -2.7271    3.9331 O   0  0  0  0  0  0  0  0  0  0  0  0
  -12.1584   -1.4489    1.9213 C   0  0  1  0  0  0  0  0  0  0  0  0
  -12.2989   -1.5000    0.5058 O   0  0  0  0  0  0  0  0  0  0  0  0
  -12.9486   -0.2335    2.4561 C   0  0  0  0  0  0  0  0  0  0  0  0
  -12.5891    0.1039    3.7906 O   0  0  0  0  0  0  0  0  0  0  0  0
  -13.3001    1.2650    4.6015 P   0  0  0  0  0  0  0  0  0  0  0  0
  -13.2797    2.5329    3.8372 O   0  0  0  0  0  0  0  0  0  0  0  0
  -14.5859    0.7972    5.1626 O   0  5  0  0  0  0  0  0  0  0  0  0
  -12.3343    1.5031    5.8447 O   0  5  0  0  0  0  0  0  0  0  0  0
  1 18  1  0  0  0  0
  1  2  1  0  0  0  0
  2  4  1  0  0  0  0
  2  3  2  0  0  0  0
  4  5  1  0  0  0  0
  5  7  1  0  0  0  0
  5  6  2  0  0  0  0
  7 18  2  0  0  0  0
  7  8  1  0  0  0  0
  8  9  1  0  0  0  0
  9 10  2  0  0  0  0
  9 16  1  0  0  0  0
 10 11  1  0  0  0  0
 11 12  1  0  0  0  0
 11 13  2  0  0  0  0
 13 14  1  0  0  0  0
 13 15  1  0  0  0  0
 15 16  2  0  0  0  0
 16 17  1  0  0  0  0
 17 19  1  0  0  0  0
 17 18  1  0  0  0  0
 20 19  1  1  0  0  0
 20 22  1  0  0  0  0
 20 21  1  0  0  0  0
 22 24  1  0  0  0  0
 22 23  1  1  0  0  0
 24 26  1  1  0  0  0
 24 25  1  0  0  0  0
 26 27  1  0  0  0  0
 27 28  1  0  0  0  0
 28 30  1  0  0  0  0
 28 29  2  0  0  0  0
 28 31  1  0  0  0  0
M  CHG  2  30  -1  31  -1
M  END
>  <CHROM.1>
-93.90258695,61.62557842,-102.44462817,-66.55821704,59.52648842,-62.71083983
75.05401300,-155.97780667,-176.87371419,-53.21694176,-10.45539784,-3.53298889
1.71499229,0.38872648,0.94099584,-1.49438259

>  <Name>
1fmn_cryst

>  <RI>
0

>  <Rbt.Current_Directory>
/home/itssahil/PROJECTS/Mol_Feturizer/New_Systems/rnas/1fmn

>  <Rbt.Executable>
rbdock ($Id: //depot/dev/client3/rdock/2013.1/src/exe/rbdock.cxx#4 $)

>  <Rbt.Library>
libRbt.so (2013.1, Build901 2013/11/27)

>  <Rbt.Parameter_File>
/export/apps/rDock/src/rDock_2013.1_src/data/scripts/dock_solv.prm

>  <Rbt.Receptor>
prm/blind_docking_100.prm

>  <SCORE>
-28.6647

>  <SCORE.INTER>
-30.1899

>  <SCORE.INTER.CONST>
1

>  <SCORE.INTER.POLAR>
-0.870429

>  <SCORE.INTER.ROT>
7

>  <SCORE.INTER.SOLV>
28.2274

>  <SCORE.INTER.VDW>
-34.9009

>  <SCORE.INTER.norm>
-0.973866

>  <SCORE.INTRA>
-3.17106

>  <SCORE.INTRA.DIHEDRAL>
-4.84212

>  <SCORE.INTRA.DIHEDRAL.0>
15.5708

>  <SCORE.INTRA.POLAR>
0.0677885

>  <SCORE.INTRA.POLAR.0>
-0.0677885

>  <SCORE.INTRA.REPUL>
0.0147722

>  <SCORE.INTRA.REPUL.0>
0

>  <SCORE.INTRA.SOLV>
-4.16442

>  <SCORE.INTRA.SOLV.lig_0>
-87.6316

>  <SCORE.INTRA.VDW>
1.02786

>  <SCORE.INTRA.VDW.0>
-2.87309

>  <SCORE.INTRA.norm>
-0.102292

>  <SCORE.RESTR>
4.69624

>  <SCORE.RESTR.CAVITY>
4.69624

>  <SCORE.RESTR.norm>
0.151492

>  <SCORE.SYSTEM>
0

>  <SCORE.SYSTEM.CONST>
0

>  <SCORE.SYSTEM.DIHEDRAL>
0

>  <SCORE.SYSTEM.SOLV>
0

>  <SCORE.SYSTEM.norm>
0

>  <SCORE.heavy>
31

>  <SCORE.norm>
-0.924667

>  <SYMMETRIC_BONDS>
33 34 3

>  <RMSD>
8.891

$$$$
1fmn_cryst
 OpenBabel11021811393D
libRbt.so/2013.1/901 2013/11/27
 31 33  0  0  0  0  0  0  0  0999 V2000
  -10.1312   -4.3844   -1.8948 N   0  0  0  0  0  0  0  0  0  0  0  0
   -9.7927   -4.3603   -3.2276 C   0  0  0  0  0  0  0  0  0  0  0  0
  -10.5288   -3.8607   -4.0791 O   0  0  0  0  0  0  0  0  0  0  0  0
   -8.5471   -4.9506   -3.5585 N   0  0  0  0  0  0  0  0  0  0  0  0
   -7.6348   -5.5533   -2.6648 C   0  0  0  0  0  0  0  0  0  0  0  0
   -6.5758   -6.0314   -3.0907 O   0  0  0  0  0  0  0  0  0  0  0  0
   -8.0683   -5.5393   -1.2659 C   0  0  0  0  0  0  0  0  0  0  0  0
   -7.2363   -6.1062   -0.3328 N   0  0  0  0  0  0  0  0  0  0  0  0
   -7.7192   -6.2539    0.9351 C   0  0  0  0  0  0  0  0  0  0  0  0
   -6.9639   -6.9874    1.8328 C   0  0  0  0  0  0  0  0  0  0  0  0
   -7.3805   -7.1744    3.1067 C   0  0  0  0  0  0  0  0  0  0  0  0
   -6.5251   -7.9727    4.0381 C   0  0  0  0  0  0  0  0  0  0  0  0
   -8.5589   -6.6418    3.5298 C   0  0  0  0  0  0  0  0  0  0  0  0
   -9.0145   -6.8590    4.9360 C   0  0  0  0  0  0  0  0  0  0  0  0
   -9.3327   -5.9143    2.6844 C   0  0  0  0  0  0  0  0  0  0  0  0
   -8.9489   -5.6918    1.3620 C   0  0  0  0  0  0  0  0  0  0  0  0
   -9.7024   -4.9437    0.4332 N   0  0  0  0  0  0  0  0  0  0  0  0
   -9.3360   -4.9357   -0.9283 C   0  0  0  0  0  0  0  0  0  0  0  0
  -10.4864   -3.7602    0.9460 C   0  0  0  0  0  0  0  0  0  0  0  0
  -11.8808   -4.0716    1.5696 C   0  0  1  0  0  0  0  0  0  0  0  0
  -11.7979   -5.2164    2.4065 O   0  0  0  0  0  0  0  0  0  0  0  0
  -12.5066   -2.8600    2.3007 C   0  0  1  0  0  0  0  0  0  0  0  0
  -12.2642   -2.9500    3.7016 O   0  0  0  0  0  0  0  0  0  0  0  0
  -12.1147   -1.4527    1.7872 C   0  0  1  0  0  0  0  0  0  0  0  0
  -12.2730   -1.4302    0.3728 O   0  0  0  0  0  0  0  0  0  0  0  0
  -12.9748   -0.3258    2.4019 C   0  0  0  0  0  0  0  0  0  0  0  0
  -12.6544   -0.0803    3.7661 O   0  0  0  0  0  0  0  0  0  0  0  0
  -13.1621    1.2013    4.5478 P   0  0  0  0  0  0  0  0  0  0  0  0
  -12.7705    1.1400    5.9743 O   0  0  0  0  0  0  0  0  0  0  0  0
  -12.8616    2.4311    3.7834 O   0  5  0  0  0  0  0  0  0  0  0  0
  -14.7467    1.0477    4.5355 O   0  5  0  0  0  0  0  0  0  0  0  0
  1 18  1  0  0  0  0
  1  2  1  0  0  0  0
  2  4  1  0  0  0  0
  2  3  2  0  0  0  0
  4  5  1  0  0  0  0
  5  7  1  0  0  0  0
  5  6  2  0  0  0  0
  7 18  2  0  0  0  0
  7  8  1  0  0  0  0
  8  9  1  0  0  0  0
  9 10  2  0  0  0  0
  9 16  1  0  0  0  0
 10 11  1  0  0  0  0
 11 12  1  0  0  0  0
 11 13  2  0  0  0  0
 13 14  1  0  0  0  0
 13 15  1  0  0  0  0
 15 16  2  0  0  0  0
 16 17  1  0  0  0  0
 17 19  1  0  0  0  0
 17 18  1  0  0  0  0
 20 19  1  1  0  0  0
 20 22  1  0  0  0  0
 20 21  1  0  0  0  0
 22 24  1  0  0  0  0
 22 23  1  1  0  0  0
 24 26  1  1  0  0  0
 24 25  1  0  0  0  0
 26 27  1  0  0  0  0
 27 28  1  0  0  0  0
 28 30  1  0  0  0  0
 28 29  2  0  0  0  0
 28 31  1  0  0  0  0
M  CHG  2  30  -1  31  -1
M  END
>  <CHROM.1>
-82.74450533,43.02894880,-97.81416617,-69.29804086,49.00504752,170.31815107
72.69448177,-151.41466266,167.08930454,175.37064513,-10.36937286,-3.55798322
1.46279993,0.41621104,0.93862758,-1.45539141

>  <Name>
1fmn_cryst

>  <RI>
0

>  <Rbt.Current_Directory>
/home/itssahil/PROJECTS/Mol_Feturizer/New_Systems/rnas/1fmn

>  <Rbt.Executable>
rbdock ($Id: //depot/dev/client3/rdock/2013.1/src/exe/rbdock.cxx#4 $)

>  <Rbt.Library>
libRbt.so (2013.1, Build901 2013/11/27)

>  <Rbt.Parameter_File>
/export/apps/rDock/src/rDock_2013.1_src/data/scripts/dock_solv.prm

>  <Rbt.Receptor>
prm/blind_docking_100.prm

>  <SCORE>
-28.6802

>  <SCORE.INTER>
-29.6852

>  <SCORE.INTER.CONST>
1

>  <SCORE.INTER.POLAR>
-1.26336

>  <SCORE.INTER.ROT>
7

>  <SCORE.INTER.SOLV>
27.9746

>  <SCORE.INTER.VDW>
-33.1704

>  <SCORE.INTER.norm>
-0.957586

>  <SCORE.INTRA>
-3.00714

>  <SCORE.INTRA.DIHEDRAL>
-2.55424

>  <SCORE.INTRA.DIHEDRAL.0>
15.5708

>  <SCORE.INTRA.POLAR>
-0.762622

>  <SCORE.INTRA.POLAR.0>
-0.0677885

>  <SCORE.INTRA.REPUL>
0

>  <SCORE.INTRA.REPUL.0>
0

>  <SCORE.INTRA.SOLV>
-4.14981

>  <SCORE.INTRA.SOLV.lig_0>
-87.6316

>  <SCORE.INTRA.VDW>
2.9378

>  <SCORE.INTRA.VDW.0>
-2.87309

>  <SCORE.INTRA.norm>
-0.0970044

>  <SCORE.RESTR>
4.01205

>  <SCORE.RESTR.CAVITY>
4.01205

>  <SCORE.RESTR.norm>
0.129421

>  <SCORE.SYSTEM>
0

>  <SCORE.SYSTEM.CONST>
0

>  <SCORE.SYSTEM.DIHEDRAL>
0

>  <SCORE.SYSTEM.SOLV>
0

>  <SCORE.SYSTEM.norm>
0

>  <SCORE.heavy>
31

>  <SCORE.norm>
-0.925169

>  <SYMMETRIC_BONDS>
33 34 3

>  <RMSD>
8.900

$$$$
1fmn_cryst
 OpenBabel11021811393D
libRbt.so/2013.1/901 2013/11/27
 31 33  0  0  0  0  0  0  0  0999 V2000
   -9.9848   -4.3982   -3.2484 N   0  0  0  0  0  0  0  0  0  0  0  0
   -9.5167   -4.4940   -4.5380 C   0  0  0  0  0  0  0  0  0  0  0  0
  -10.1763   -4.1051   -5.5024 O   0  0  0  0  0  0  0  0  0  0  0  0
   -8.2310   -5.0724   -4.6862 N   0  0  0  0  0  0  0  0  0  0  0  0
   -7.3979   -5.5539   -3.6526 C   0  0  0  0  0  0  0  0  0  0  0  0
   -6.2911   -6.0362   -3.9241 O   0  0  0  0  0  0  0  0  0  0  0  0
   -7.9680   -5.4169   -2.3104 C   0  0  0  0  0  0  0  0  0  0  0  0
   -7.2196   -5.8616   -1.2492 N   0  0  0  0  0  0  0  0  0  0  0  0
   -7.8221   -5.8999   -0.0252 C   0  0  0  0  0  0  0  0  0  0  0  0
   -7.1425   -6.5163    1.0105 C   0  0  0  0  0  0  0  0  0  0  0  0
   -7.6788   -6.5909    2.2507 C   0  0  0  0  0  0  0  0  0  0  0  0
   -6.9014   -7.2651    3.3359 C   0  0  0  0  0  0  0  0  0  0  0  0
   -8.9053   -6.0586    2.5025 C   0  0  0  0  0  0  0  0  0  0  0  0
   -9.4927   -6.1515    3.8731 C   0  0  0  0  0  0  0  0  0  0  0  0
   -9.6084   -5.4437    1.5175 C   0  0  0  0  0  0  0  0  0  0  0  0
   -9.1008   -5.3395    0.2225 C   0  0  0  0  0  0  0  0  0  0  0  0
   -9.7758   -4.7117   -0.8453 N   0  0  0  0  0  0  0  0  0  0  0  0
   -9.2767   -4.8254   -2.1591 C   0  0  0  0  0  0  0  0  0  0  0  0
  -10.6341   -3.5101   -0.5325 C   0  0  0  0  0  0  0  0  0  0  0  0
  -11.8277   -3.7471    0.4418 C   0  0  1  0  0  0  0  0  0  0  0  0
  -11.8462   -5.1006    0.8727 O   0  0  0  0  0  0  0  0  0  0  0  0
  -11.8506   -2.7572    1.6308 C   0  0  1  0  0  0  0  0  0  0  0  0
  -10.5552   -2.6579    2.2153 O   0  0  0  0  0  0  0  0  0  0  0  0
  -12.4137   -1.3416    1.3534 C   0  0  1  0  0  0  0  0  0  0  0  0
  -13.8321   -1.4298    1.2741 O   0  0  0  0  0  0  0  0  0  0  0  0
  -12.0393   -0.3188    2.4494 C   0  0  0  0  0  0  0  0  0  0  0  0
  -12.9453   -0.3415    3.5462 O   0  0  0  0  0  0  0  0  0  0  0  0
  -13.0496    0.8415    4.5954 P   0  0  0  0  0  0  0  0  0  0  0  0
  -14.0257    0.5186    5.6608 O   0  0  0  0  0  0  0  0  0  0  0  0
  -11.7031    1.3108    4.9874 O   0  5  0  0  0  0  0  0  0  0  0  0
  -13.7075    2.0280    3.7621 O   0  5  0  0  0  0  0  0  0  0  0  0
  1 18  1  0  0  0  0
  1  2  1  0  0  0  0
  2  4  1  0  0  0  0
  2  3  2  0  0  0  0
  4  5  1  0  0  0  0
  5  7  1  0  0  0  0
  5  6  2  0  0  0  0
  7 18  2  0  0  0  0
  7  8  1  0  0  0  0
  8  9  1  0  0  0  0
  9 10  2  0  0  0  0
  9 16  1  0  0  0  0
 10 11  1  0  0  0  0
 11 12  1  0  0  0  0
 11 13  2  0  0  0  0
 13 14  1  0  0  0  0
 13 15  1  0  0  0  0
 15 16  2  0  0  0  0
 16 17  1  0  0  0  0
 17 19  1  0  0  0  0
 17 18  1  0  0  0  0
 20 19  1  1  0  0  0
 20 22  1  0  0  0  0
 20 21  1  0  0  0  0
 22 24  1  0  0  0  0
 22 23  1  6  0  0  0
 24 26  1  1  0  0  0
 24 25  1  0  0  0  0
 26 27  1  0  0  0  0
 27 28  1  0  0  0  0
 28 30  1  0  0  0  0
 28 29  2  0  0  0  0
 28 31  1  0  0  0  0
M  CHG  2  30  -1  31  -1
M  END
>  <CHROM.1>
-61.06512153,1.14063737,-47.09198680,169.63824469,75.59338534,-62.52594369
-85.27370630,73.92114941,-162.45657186,-177.27596943,-10.31298982,-3.45651760
0.71106271,0.67976015,0.89144810,-1.54902499

>  <Name>
1fmn_cryst

>  <RI>
0

>  <Rbt.Current_Directory>
/home/itssahil/PROJECTS/Mol_Feturizer/New_Systems/rnas/1fmn

>  <Rbt.Executable>
rbdock ($Id: //depot/dev/client3/rdock/2013.1/src/exe/rbdock.cxx#4 $)

>  <Rbt.Library>
libRbt.so (2013.1, Build901 2013/11/27)

>  <Rbt.Parameter_File>
/export/apps/rDock/src/rDock_2013.1_src/data/scripts/dock_solv.prm

>  <Rbt.Receptor>
prm/blind_docking_100.prm

>  <SCORE>
-10.8756

>  <SCORE.INTER>
-19.1688

>  <SCORE.INTER.CONST>
1

>  <SCORE.INTER.POLAR>
-2.01273

>  <SCORE.INTER.ROT>
7

>  <SCORE.INTER.SOLV>
31.6033

>  <SCORE.INTER.VDW>
-24.8712

>  <SCORE.INTER.norm>
-0.618348

>  <SCORE.INTRA>
4.15475

>  <SCORE.INTRA.DIHEDRAL>
-2.45495

>  <SCORE.INTRA.DIHEDRAL.0>
15.5708

>  <SCORE.INTRA.POLAR>
-0.039156

>  <SCORE.INTRA.POLAR.0>
-0.0677885

>  <SCORE.INTRA.REPUL>
0

>  <SCORE.INTRA.REPUL.0>
0

>  <SCORE.INTRA.SOLV>
-3.27463

>  <SCORE.INTRA.SOLV.lig_0>
-87.6316

>  <SCORE.INTRA.VDW>
7.15267

>  <SCORE.INTRA.VDW.0>
-2.87309

>  <SCORE.INTRA.norm>
0.134024

>  <SCORE.RESTR>
4.13841

>  <SCORE.RESTR.CAVITY>
4.13841

>  <SCORE.RESTR.norm>
0.133497

>  <SCORE.SYSTEM>
0

>  <SCORE.SYSTEM.CONST>
0

>  <SCORE.SYSTEM.DIHEDRAL>
0

>  <SCORE.SYSTEM.SOLV>
0

>  <SCORE.SYSTEM.norm>
0

>  <SCORE.heavy>
31

>  <SCORE.norm>
-0.350826

>  <SYMMETRIC_BONDS>
33 34 3

>  <RMSD>
8.905

$$$$
1fmn_cryst
 OpenBabel11021811393D
libRbt.so/2013.1/901 2013/11/27
 31 33  0  0  0  0  0  0  0  0999 V2000
  -10.9892   -4.0748   -1.9194 N   0  0  0  0  0  0  0  0  0  0  0  0
  -10.4606   -3.9241   -3.1802 C   0  0  0  0  0  0  0  0  0  0  0  0
  -11.1487   -3.5707   -4.1384 O   0  0  0  0  0  0  0  0  0  0  0  0
   -9.0772   -4.2059   -3.3068 N   0  0  0  0  0  0  0  0  0  0  0  0
   -8.2029   -4.6217   -2.2787 C   0  0  0  0  0  0  0  0  0  0  0  0
   -7.0095   -4.8326   -2.5290 O   0  0  0  0  0  0  0  0  0  0  0  0
   -8.8418   -4.7593   -0.9680 C   0  0  0  0  0  0  0  0  0  0  0  0
   -8.0591   -5.1598    0.0862 N   0  0  0  0  0  0  0  0  0  0  0  0
   -8.6881   -5.4608    1.2594 C   0  0  0  0  0  0  0  0  0  0  0  0
   -7.9355   -6.0395    2.2660 C   0  0  0  0  0  0  0  0  0  0  0  0
   -8.4927   -6.3640    3.4557 C   0  0  0  0  0  0  0  0  0  0  0  0
   -7.6344   -6.9845    4.5116 C   0  0  0  0  0  0  0  0  0  0  0  0
   -9.8128   -6.1268    3.6841 C   0  0  0  0  0  0  0  0  0  0  0  0
  -10.4212   -6.4946    4.9981 C   0  0  0  0  0  0  0  0  0  0  0  0
  -10.5900   -5.5602    2.7262 C   0  0  0  0  0  0  0  0  0  0  0  0
  -10.0648   -5.2065    1.4833 C   0  0  0  0  0  0  0  0  0  0  0  0
  -10.8141   -4.6121    0.4464 N   0  0  0  0  0  0  0  0  0  0  0  0
  -10.2506   -4.4697   -0.8382 C   0  0  0  0  0  0  0  0  0  0  0  0
  -11.9179   -3.6558    0.8279 C   0  0  0  0  0  0  0  0  0  0  0  0
  -11.8539   -2.2351    0.1894 C   0  0  1  0  0  0  0  0  0  0  0  0
  -12.0685   -2.3185   -1.2123 O   0  0  0  0  0  0  0  0  0  0  0  0
  -12.8056   -1.2192    0.8648 C   0  0  1  0  0  0  0  0  0  0  0  0
  -14.1591   -1.5148    0.5327 O   0  0  0  0  0  0  0  0  0  0  0  0
  -12.6659   -1.0391    2.3965 C   0  0  1  0  0  0  0  0  0  0  0  0
  -12.4077   -2.3127    2.9770 O   0  0  0  0  0  0  0  0  0  0  0  0
  -11.5250   -0.0734    2.7881 C   0  0  0  0  0  0  0  0  0  0  0  0
  -11.6004    0.3331    4.1494 O   0  0  0  0  0  0  0  0  0  0  0  0
  -12.8258    1.1516    4.7322 P   0  0  0  0  0  0  0  0  0  0  0  0
  -14.0732    0.3570    4.6625 O   0  0  0  0  0  0  0  0  0  0  0  0
  -12.4634    1.7891    6.0164 O   0  5  0  0  0  0  0  0  0  0  0  0
  -13.0187    2.3373    3.6874 O   0  5  0  0  0  0  0  0  0  0  0  0
  1 18  1  0  0  0  0
  1  2  1  0  0  0  0
  2  4  1  0  0  0  0
  2  3  2  0  0  0  0
  4  5  1  0  0  0  0
  5  7  1  0  0  0  0
  5  6  2  0  0  0  0
  7 18  2  0  0  0  0
  7  8  1  0  0  0  0
  8  9  1  0  0  0  0
  9 10  2  0  0  0  0
  9 16  1  0  0  0  0
 10 11  1  0  0  0  0
 11 12  1  0  0  0  0
 11 13  2  0  0  0  0
 13 14  1  0  0  0  0
 13 15  1  0  0  0  0
 15 16  2  0  0  0  0
 16 17  1  0  0  0  0
 17 19  1  0  0  0  0
 17 18  1  0  0  0  0
 20 19  1  1  0  0  0
 20 22  1  0  0  0  0
 20 21  1  0  0  0  0
 22 24  1  0  0  0  0
 22 23  1  1  0  0  0
 24 26  1  6  0  0  0
 24 25  1  0  0  0  0
 26 27  1  0  0  0  0
 27 28  1  0  0  0  0
 28 30  1  0  0  0  0
 28 29  2  0  0  0  0
 28 31  1  0  0  0  0
M  CHG  2  30  -1  31  -1
M  END
>  <CHROM.1>
125.09273114,66.97563974,-71.80072877,-169.98213484,-38.29805061,177.75936478
166.05513870,-170.03664095,-62.30272088,63.82296166,-10.87564059,-2.95166411
1.40122422,0.63668972,0.97680936,-1.57864217

>  <Name>
1fmn_cryst

>  <RI>
0

>  <Rbt.Current_Directory>
/home/itssahil/PROJECTS/Mol_Feturizer/New_Systems/rnas/1fmn

>  <Rbt.Executable>
rbdock ($Id: //depot/dev/client3/rdock/2013.1/src/exe/rbdock.cxx#4 $)

>  <Rbt.Library>
libRbt.so (2013.1, Build901 2013/11/27)

>  <Rbt.Parameter_File>
/export/apps/rDock/src/rDock_2013.1_src/data/scripts/dock_solv.prm

>  <Rbt.Receptor>
prm/blind_docking_20.prm

>  <SCORE>
-27.8386

>  <SCORE.INTER>
-32.2591

>  <SCORE.INTER.CONST>
1

>  <SCORE.INTER.POLAR>
-1.24694

>  <SCORE.INTER.ROT>
7

>  <SCORE.INTER.SOLV>
28.8526

>  <SCORE.INTER.VDW>
-35.2338

>  <SCORE.INTER.norm>
-1.04062

>  <SCORE.INTRA>
2.90993

>  <SCORE.INTRA.DIHEDRAL>
-8.93958

>  <SCORE.INTRA.DIHEDRAL.0>
15.5708

>  <SCORE.INTRA.POLAR>
-0.0515339

>  <SCORE.INTRA.POLAR.0>
-0.0677885

>  <SCORE.INTRA.REPUL>
0

>  <SCORE.INTRA.REPUL.0>
0

>  <SCORE.INTRA.SOLV>
0.618784

>  <SCORE.INTRA.SOLV.lig_0>
-87.6316

>  <SCORE.INTRA.VDW>
7.24554

>  <SCORE.INTRA.VDW.0>
-2.87309

>  <SCORE.INTRA.norm>
0.0938686

>  <SCORE.RESTR>
1.51055

>  <SCORE.RESTR.CAVITY>
1.51055

>  <SCORE.RESTR.norm>
0.0487275

>  <SCORE.SYSTEM>
0

>  <SCORE.SYSTEM.CONST>
0

>  <SCORE.SYSTEM.DIHEDRAL>
0

>  <SCORE.SYSTEM.SOLV>
0

>  <SCORE.SYSTEM.norm>
0

>  <SCORE.heavy>
31

>  <SCORE.norm>
-0.89802

>  <SYMMETRIC_BONDS>
33 34 3

>  <RMSD>
8.925

$$$$
1fmn_cryst
 OpenBabel11021811393D
libRbt.so/2013.1/901 2013/11/27
 31 33  0  0  0  0  0  0  0  0999 V2000
  -13.0941    1.4888    1.8450 N   0  0  0  0  0  0  0  0  0  0  0  0
  -13.6964    2.4633    2.6060 C   0  0  0  0  0  0  0  0  0  0  0  0
  -13.7954    3.6274    2.2166 O   0  0  0  0  0  0  0  0  0  0  0  0
  -14.1904    2.0440    3.8668 N   0  0  0  0  0  0  0  0  0  0  0  0
  -14.1231    0.7419    4.4091 C   0  0  0  0  0  0  0  0  0  0  0  0
  -14.5991    0.5123    5.5280 O   0  0  0  0  0  0  0  0  0  0  0  0
  -13.4671   -0.2366    3.5387 C   0  0  0  0  0  0  0  0  0  0  0  0
  -13.3615   -1.5275    3.9933 N   0  0  0  0  0  0  0  0  0  0  0  0
  -12.5951   -2.3911    3.2657 C   0  0  0  0  0  0  0  0  0  0  0  0
  -12.3317   -3.6360    3.8089 C   0  0  0  0  0  0  0  0  0  0  0  0
  -11.5797   -4.5433    3.1435 C   0  0  0  0  0  0  0  0  0  0  0  0
  -11.3273   -5.8758    3.7736 C   0  0  0  0  0  0  0  0  0  0  0  0
  -11.0642   -4.2443    1.9204 C   0  0  0  0  0  0  0  0  0  0  0  0
  -10.2293   -5.2493    1.1958 C   0  0  0  0  0  0  0  0  0  0  0  0
  -11.2970   -3.0356    1.3478 C   0  0  0  0  0  0  0  0  0  0  0  0
  -12.0657   -2.0658    1.9912 C   0  0  0  0  0  0  0  0  0  0  0  0
  -12.3490   -0.7931    1.4526 N   0  0  0  0  0  0  0  0  0  0  0  0
  -12.9662    0.1898    2.2532 C   0  0  0  0  0  0  0  0  0  0  0  0
  -12.5258   -0.6795   -0.0421 C   0  0  0  0  0  0  0  0  0  0  0  0
  -13.4011   -1.7767   -0.7207 C   0  0  1  0  0  0  0  0  0  0  0  0
  -14.7562   -1.3548   -0.7791 O   0  0  0  0  0  0  0  0  0  0  0  0
  -12.8669   -2.2132   -2.1056 C   0  0  1  0  0  0  0  0  0  0  0  0
  -12.7468   -1.0844   -2.9664 O   0  0  0  0  0  0  0  0  0  0  0  0
  -11.5528   -3.0321   -2.1237 C   0  0  1  0  0  0  0  0  0  0  0  0
  -11.5867   -3.9600   -1.0449 O   0  0  0  0  0  0  0  0  0  0  0  0
  -11.3457   -3.8102   -3.4426 C   0  0  0  0  0  0  0  0  0  0  0  0
  -10.2797   -4.7487   -3.3582 O   0  0  0  0  0  0  0  0  0  0  0  0
   -8.7571   -4.3127   -3.3049 P   0  0  0  0  0  0  0  0  0  0  0  0
   -8.4321   -3.3904   -4.4166 O   0  0  0  0  0  0  0  0  0  0  0  0
   -8.3731   -3.9272   -1.9298 O   0  5  0  0  0  0  0  0  0  0  0  0
   -7.9681   -5.6581   -3.6249 O   0  5  0  0  0  0  0  0  0  0  0  0
  1 18  1  0  0  0  0
  1  2  1  0  0  0  0
  2  4  1  0  0  0  0
  2  3  2  0  0  0  0
  4  5  1  0  0  0  0
  5  7  1  0  0  0  0
  5  6  2  0  0  0  0
  7 18  2  0  0  0  0
  7  8  1  0  0  0  0
  8  9  1  0  0  0  0
  9 10  2  0  0  0  0
  9 16  1  0  0  0  0
 10 11  1  0  0  0  0
 11 12  1  0  0  0  0
 11 13  2  0  0  0  0
 13 14  1  0  0  0  0
 13 15  1  0  0  0  0
 15 16  2  0  0  0  0
 16 17  1  0  0  0  0
 17 19  1  0  0  0  0
 17 18  1  0  0  0  0
 20 19  1  6  0  0  0
 20 22  1  0  0  0  0
 20 21  1  0  0  0  0
 22 24  1  0  0  0  0
 22 23  1  6  0  0  0
 24 26  1  6  0  0  0
 24 25  1  0  0  0  0
 26 27  1  0  0  0  0
 27 28  1  0  0  0  0
 28 30  1  0  0  0  0
 28 29  2  0  0  0  0
 28 31  1  0  0  0  0
M  CHG  2  30  -1  31  -1
M  END
>  <CHROM.1>
44.49372962,91.49520691,-56.27590980,63.15247666,40.26396124,-65.81174907
-168.87966642,55.90763492,-71.64677994,-51.99524593,-11.86705855,-2.12368402
0.43590209,2.72751422,-1.04050003,2.00978932

>  <Name>
1fmn_cryst

>  <RI>
0

>  <Rbt.Current_Directory>
/home/itssahil/PROJECTS/Mol_Feturizer/New_Systems/rnas/1fmn

>  <Rbt.Executable>
rbdock ($Id: //depot/dev/client3/rdock/2013.1/src/exe/rbdock.cxx#4 $)

>  <Rbt.Library>
libRbt.so (2013.1, Build901 2013/11/27)

>  <Rbt.Parameter_File>
/export/apps/rDock/src/rDock_2013.1_src/data/scripts/dock_solv.prm

>  <Rbt.Receptor>
prm/blind_docking_60.prm

>  <SCORE>
-7.62569

>  <SCORE.INTER>
-6.99685

>  <SCORE.INTER.CONST>
1

>  <SCORE.INTER.POLAR>
-0.807743

>  <SCORE.INTER.ROT>
7

>  <SCORE.INTER.SOLV>
32.4205

>  <SCORE.INTER.VDW>
-21.0456

>  <SCORE.INTER.norm>
-0.225705

>  <SCORE.INTRA>
-3.18323

>  <SCORE.INTRA.DIHEDRAL>
-7.52022

>  <SCORE.INTRA.DIHEDRAL.0>
15.5708

>  <SCORE.INTRA.POLAR>
0.0677885

>  <SCORE.INTRA.POLAR.0>
-0.0677885

>  <SCORE.INTRA.REPUL>
0

>  <SCORE.INTRA.REPUL.0>
0

>  <SCORE.INTRA.SOLV>
-1.15114

>  <SCORE.INTRA.SOLV.lig_0>
-87.6316

>  <SCORE.INTRA.VDW>
0.92197

>  <SCORE.INTRA.VDW.0>
-2.87309

>  <SCORE.INTRA.norm>
-0.102685

>  <SCORE.RESTR>
2.55438

>  <SCORE.RESTR.CAVITY>
2.55438

>  <SCORE.RESTR.norm>
0.0823995

>  <SCORE.SYSTEM>
0

>  <SCORE.SYSTEM.CONST>
0

>  <SCORE.SYSTEM.DIHEDRAL>
0

>  <SCORE.SYSTEM.SOLV>
0

>  <SCORE.SYSTEM.norm>
0

>  <SCORE.heavy>
31

>  <SCORE.norm>
-0.24599

>  <SYMMETRIC_BONDS>
33 34 3

>  <RMSD>
8.932

$$$$
1fmn_cryst
 OpenBabel11021811393D
libRbt.so/2013.1/901 2013/11/27
 31 33  0  0  0  0  0  0  0  0999 V2000
  -10.5031   -4.1314   -1.4158 N   0  0  0  0  0  0  0  0  0  0  0  0
  -10.2831   -4.0454   -2.7707 C   0  0  0  0  0  0  0  0  0  0  0  0
  -11.0718   -3.4749   -3.5251 O   0  0  0  0  0  0  0  0  0  0  0  0
   -9.0954   -4.6584   -3.2430 N   0  0  0  0  0  0  0  0  0  0  0  0
   -8.1316   -5.3401   -2.4679 C   0  0  0  0  0  0  0  0  0  0  0  0
   -7.1338   -5.8296   -3.0120 O   0  0  0  0  0  0  0  0  0  0  0  0
   -8.4389   -5.3886   -1.0367 C   0  0  0  0  0  0  0  0  0  0  0  0
   -7.5502   -6.0340   -0.2133 N   0  0  0  0  0  0  0  0  0  0  0  0
   -7.9245   -6.2350    1.0836 C   0  0  0  0  0  0  0  0  0  0  0  0
   -7.1217   -7.0421    1.8701 C   0  0  0  0  0  0  0  0  0  0  0  0
   -7.4309   -7.2848    3.1651 C   0  0  0  0  0  0  0  0  0  0  0  0
   -6.5281   -8.1618    3.9726 C   0  0  0  0  0  0  0  0  0  0  0  0
   -8.5458   -6.7367    3.7200 C   0  0  0  0  0  0  0  0  0  0  0  0
   -8.8833   -7.0155    5.1484 C   0  0  0  0  0  0  0  0  0  0  0  0
   -9.3626   -5.9379    2.9869 C   0  0  0  0  0  0  0  0  0  0  0  0
   -9.0889   -5.6559    1.6486 C   0  0  0  0  0  0  0  0  0  0  0  0
   -9.8921   -4.8326    0.8317 N   0  0  0  0  0  0  0  0  0  0  0  0
   -9.6475   -4.7619   -0.5550 C   0  0  0  0  0  0  0  0  0  0  0  0
  -10.5812   -3.6533    1.4740 C   0  0  0  0  0  0  0  0  0  0  0  0
  -11.8602   -3.9690    2.3076 C   0  0  1  0  0  0  0  0  0  0  0  0
  -11.5038   -4.5903    3.5343 O   0  0  0  0  0  0  0  0  0  0  0  0
  -12.7687   -2.7351    2.5222 C   0  0  1  0  0  0  0  0  0  0  0  0
  -13.1652   -2.6458    3.8876 O   0  0  0  0  0  0  0  0  0  0  0  0
  -12.2201   -1.3688    2.0422 C   0  0  1  0  0  0  0  0  0  0  0  0
  -12.3311   -1.3132    0.6243 O   0  0  0  0  0  0  0  0  0  0  0  0
  -12.9802   -0.1677    2.6482 C   0  0  0  0  0  0  0  0  0  0  0  0
  -12.7386   -0.0191    4.0423 O   0  0  0  0  0  0  0  0  0  0  0  0
  -13.5040    1.0427    4.9357 P   0  0  0  0  0  0  0  0  0  0  0  0
  -12.5778    1.7006    5.8850 O   0  0  0  0  0  0  0  0  0  0  0  0
  -14.3820    1.8905    4.1006 O   0  5  0  0  0  0  0  0  0  0  0  0
  -14.4713    0.1526    5.8340 O   0  5  0  0  0  0  0  0  0  0  0  0
  1 18  1  0  0  0  0
  1  2  1  0  0  0  0
  2  4  1  0  0  0  0
  2  3  2  0  0  0  0
  4  5  1  0  0  0  0
  5  7  1  0  0  0  0
  5  6  2  0  0  0  0
  7 18  2  0  0  0  0
  7  8  1  0  0  0  0
  8  9  1  0  0  0  0
  9 10  2  0  0  0  0
  9 16  1  0  0  0  0
 10 11  1  0  0  0  0
 11 12  1  0  0  0  0
 11 13  2  0  0  0  0
 13 14  1  0  0  0  0
 13 15  1  0  0  0  0
 15 16  2  0  0  0  0
 16 17  1  0  0  0  0
 17 19  1  0  0  0  0
 17 18  1  0  0  0  0
 20 19  1  1  0  0  0
 20 22  1  0  0  0  0
 20 21  1  0  0  0  0
 22 24  1  0  0  0  0
 22 23  1  1  0  0  0
 24 26  1  1  0  0  0
 24 25  1  0  0  0  0
 26 27  1  0  0  0  0
 27 28  1  0  0  0  0
 28 30  1  0  0  0  0
 28 29  2  0  0  0  0
 28 31  1  0  0  0  0
M  CHG  2  30  -1  31  -1
M  END
>  <CHROM.1>
-77.66003199,73.30213964,-133.32754198,-175.58718602,76.04073975,88.35975339
69.32876861,-157.09280454,-173.80424436,-138.43430267,-10.61057822,-3.49147616
1.80160555,0.42263667,0.91963477,-1.45906147

>  <Name>
1fmn_cryst

>  <RI>
0

>  <Rbt.Current_Directory>
/home/itssahil/PROJECTS/Mol_Feturizer/New_Systems/rnas/1fmn

>  <Rbt.Executable>
rbdock ($Id: //depot/dev/client3/rdock/2013.1/src/exe/rbdock.cxx#4 $)

>  <Rbt.Library>
libRbt.so (2013.1, Build901 2013/11/27)

>  <Rbt.Parameter_File>
/export/apps/rDock/src/rDock_2013.1_src/data/scripts/dock_solv.prm

>  <Rbt.Receptor>
prm/blind_docking_100.prm

>  <SCORE>
-27.0264

>  <SCORE.INTER>
-32.7977

>  <SCORE.INTER.CONST>
1

>  <SCORE.INTER.POLAR>
-1.64434

>  <SCORE.INTER.ROT>
7

>  <SCORE.INTER.SOLV>
28.3904

>  <SCORE.INTER.VDW>
-34.1142

>  <SCORE.INTER.norm>
-1.05799

>  <SCORE.INTRA>
1.73283

>  <SCORE.INTRA.DIHEDRAL>
0.542471

>  <SCORE.INTRA.DIHEDRAL.0>
15.5708

>  <SCORE.INTRA.POLAR>
-0.151444

>  <SCORE.INTRA.POLAR.0>
-0.0677885

>  <SCORE.INTRA.REPUL>
0

>  <SCORE.INTRA.REPUL.0>
0

>  <SCORE.INTRA.SOLV>
-2.93255

>  <SCORE.INTRA.SOLV.lig_0>
-87.6316

>  <SCORE.INTRA.VDW>
3.44278

>  <SCORE.INTRA.VDW.0>
-2.87309

>  <SCORE.INTRA.norm>
0.0558977

>  <SCORE.RESTR>
4.03854

>  <SCORE.RESTR.CAVITY>
4.03854

>  <SCORE.RESTR.norm>
0.130276

>  <SCORE.SYSTEM>
0

>  <SCORE.SYSTEM.CONST>
0

>  <SCORE.SYSTEM.DIHEDRAL>
0

>  <SCORE.SYSTEM.SOLV>
0

>  <SCORE.SYSTEM.norm>
0

>  <SCORE.heavy>
31

>  <SCORE.norm>
-0.871818

>  <SYMMETRIC_BONDS>
33 34 3

>  <RMSD>
8.934

$$$$
1fmn_cryst
 OpenBabel11021811393D
libRbt.so/2013.1/901 2013/11/27
 31 33  0  0  0  0  0  0  0  0999 V2000
  -10.9359   -4.4480   -1.7749 N   0  0  0  0  0  0  0  0  0  0  0  0
  -10.4775   -4.2035   -3.0483 C   0  0  0  0  0  0  0  0  0  0  0  0
  -11.2404   -3.9292   -3.9753 O   0  0  0  0  0  0  0  0  0  0  0  0
   -9.0739   -4.2921   -3.2262 N   0  0  0  0  0  0  0  0  0  0  0  0
   -8.1158   -4.6042   -2.2369 C   0  0  0  0  0  0  0  0  0  0  0  0
   -6.9144   -4.6461   -2.5305 O   0  0  0  0  0  0  0  0  0  0  0  0
   -8.6835   -4.8516   -0.9096 C   0  0  0  0  0  0  0  0  0  0  0  0
   -7.8172   -5.1615    0.1090 N   0  0  0  0  0  0  0  0  0  0  0  0
   -8.3578   -5.5670    1.2947 C   0  0  0  0  0  0  0  0  0  0  0  0
   -7.4989   -6.0565    2.2627 C   0  0  0  0  0  0  0  0  0  0  0  0
   -7.9647   -6.4758    3.4620 C   0  0  0  0  0  0  0  0  0  0  0  0
   -6.9937   -6.9933    4.4748 C   0  0  0  0  0  0  0  0  0  0  0  0
   -9.2959   -6.4247    3.7385 C   0  0  0  0  0  0  0  0  0  0  0  0
   -9.8023   -6.8961    5.0627 C   0  0  0  0  0  0  0  0  0  0  0  0
  -10.1759   -5.9513    2.8197 C   0  0  0  0  0  0  0  0  0  0  0  0
   -9.7476   -5.5065    1.5690 C   0  0  0  0  0  0  0  0  0  0  0  0
  -10.6065   -5.0004    0.5709 N   0  0  0  0  0  0  0  0  0  0  0  0
  -10.1131   -4.7589   -0.7276 C   0  0  0  0  0  0  0  0  0  0  0  0
  -11.8153   -4.2104    1.0101 C   0  0  0  0  0  0  0  0  0  0  0  0
  -11.6806   -2.6579    0.9662 C   0  0  1  0  0  0  0  0  0  0  0  0
  -12.0956   -2.1664   -0.3004 O   0  0  0  0  0  0  0  0  0  0  0  0
  -12.4088   -1.9490    2.1329 C   0  0  1  0  0  0  0  0  0  0  0  0
  -12.4402   -2.7928    3.2804 O   0  0  0  0  0  0  0  0  0  0  0  0
  -11.8965   -0.5419    2.5272 C   0  0  1  0  0  0  0  0  0  0  0  0
  -10.7814   -0.2223    1.7023 O   0  0  0  0  0  0  0  0  0  0  0  0
  -12.9690    0.5581    2.3618 C   0  0  0  0  0  0  0  0  0  0  0  0
  -13.8330    0.6485    3.4885 O   0  0  0  0  0  0  0  0  0  0  0  0
  -13.3710    1.2614    4.8750 P   0  0  0  0  0  0  0  0  0  0  0  0
  -14.0400    0.5769    6.0046 O   0  0  0  0  0  0  0  0  0  0  0  0
  -11.9009    1.4172    4.9121 O   0  5  0  0  0  0  0  0  0  0  0  0
  -13.9727    2.7353    4.8551 O   0  5  0  0  0  0  0  0  0  0  0  0
  1 18  1  0  0  0  0
  1  2  1  0  0  0  0
  2  4  1  0  0  0  0
  2  3  2  0  0  0  0
  4  5  1  0  0  0  0
  5  7  1  0  0  0  0
  5  6  2  0  0  0  0
  7 18  2  0  0  0  0
  7  8  1  0  0  0  0
  8  9  1  0  0  0  0
  9 10  2  0  0  0  0
  9 16  1  0  0  0  0
 10 11  1  0  0  0  0
 11 12  1  0  0  0  0
 11 13  2  0  0  0  0
 13 14  1  0  0  0  0
 13 15  1  0  0  0  0
 15 16  2  0  0  0  0
 16 17  1  0  0  0  0
 17 19  1  0  0  0  0
 17 18  1  0  0  0  0
 20 19  1  6  0  0  0
 20 22  1  0  0  0  0
 20 21  1  0  0  0  0
 22 24  1  0  0  0  0
 22 23  1  1  0  0  0
 24 26  1  6  0  0  0
 24 25  1  0  0  0  0
 26 27  1  0  0  0  0
 27 28  1  0  0  0  0
 28 30  1  0  0  0  0
 28 29  2  0  0  0  0
 28 31  1  0  0  0  0
M  CHG  2  30  -1  31  -1
M  END
>  <CHROM.1>
98.44590839,90.18488573,29.40308823,56.70055141,-1.81636649,158.36910067
83.89229452,-175.98010293,73.02205473,-146.62358504,-10.74719536,-3.00239983
1.61512683,0.50782025,0.97037475,-1.51492363

>  <Name>
1fmn_cryst

>  <RI>
0

>  <Rbt.Current_Directory>
/home/itssahil/PROJECTS/Mol_Feturizer/New_Systems/rnas/1fmn

>  <Rbt.Executable>
rbdock ($Id: //depot/dev/client3/rdock/2013.1/src/exe/rbdock.cxx#4 $)

>  <Rbt.Library>
libRbt.so (2013.1, Build901 2013/11/27)

>  <Rbt.Parameter_File>
/export/apps/rDock/src/rDock_2013.1_src/data/scripts/dock_solv.prm

>  <Rbt.Receptor>
prm/blind_docking_100.prm

>  <SCORE>
-33.1554

>  <SCORE.INTER>
-38.1466

>  <SCORE.INTER.CONST>
1

>  <SCORE.INTER.POLAR>
-2.2654

>  <SCORE.INTER.ROT>
7

>  <SCORE.INTER.SOLV>
31.7814

>  <SCORE.INTER.VDW>
-36.7402

>  <SCORE.INTER.norm>
-1.23054

>  <SCORE.INTRA>
2.21178

>  <SCORE.INTRA.DIHEDRAL>
2.96765

>  <SCORE.INTRA.DIHEDRAL.0>
15.5708

>  <SCORE.INTRA.POLAR>
0.0677885

>  <SCORE.INTRA.POLAR.0>
-0.0677885

>  <SCORE.INTRA.REPUL>
0

>  <SCORE.INTRA.REPUL.0>
0

>  <SCORE.INTRA.SOLV>
-1.59551

>  <SCORE.INTRA.SOLV.lig_0>
-87.6316

>  <SCORE.INTRA.VDW>
1.29523

>  <SCORE.INTRA.VDW.0>
-2.87309

>  <SCORE.INTRA.norm>
0.0713477

>  <SCORE.RESTR>
2.77947

>  <SCORE.RESTR.CAVITY>
2.77947

>  <SCORE.RESTR.norm>
0.0896603

>  <SCORE.SYSTEM>
0

>  <SCORE.SYSTEM.CONST>
0

>  <SCORE.SYSTEM.DIHEDRAL>
0

>  <SCORE.SYSTEM.SOLV>
0

>  <SCORE.SYSTEM.norm>
0

>  <SCORE.heavy>
31

>  <SCORE.norm>
-1.06953

>  <SYMMETRIC_BONDS>
33 34 3

>  <RMSD>
8.993

$$$$
1fmn_cryst
 OpenBabel11021811393D
libRbt.so/2013.1/901 2013/11/27
 31 33  0  0  0  0  0  0  0  0999 V2000
  -10.7060   -4.5271   -2.2658 N   0  0  0  0  0  0  0  0  0  0  0  0
  -10.0876   -4.4601   -3.4924 C   0  0  0  0  0  0  0  0  0  0  0  0
  -10.7033   -4.1705   -4.5189 O   0  0  0  0  0  0  0  0  0  0  0  0
   -8.7000   -4.7500   -3.5003 N   0  0  0  0  0  0  0  0  0  0  0  0
   -7.9040   -5.0972   -2.3868 C   0  0  0  0  0  0  0  0  0  0  0  0
   -6.6967   -5.3245   -2.5362 O   0  0  0  0  0  0  0  0  0  0  0  0
   -8.6360   -5.1478   -1.1192 C   0  0  0  0  0  0  0  0  0  0  0  0
   -7.9330   -5.4781    0.0125 N   0  0  0  0  0  0  0  0  0  0  0  0
   -8.6460   -5.7008    1.1547 C   0  0  0  0  0  0  0  0  0  0  0  0
   -7.9706   -6.2119    2.2487 C   0  0  0  0  0  0  0  0  0  0  0  0
   -8.6133   -6.4571    3.4141 C   0  0  0  0  0  0  0  0  0  0  0  0
   -7.8362   -7.0067    4.5675 C   0  0  0  0  0  0  0  0  0  0  0  0
   -9.9452   -6.2050    3.5308 C   0  0  0  0  0  0  0  0  0  0  0  0
  -10.6483   -6.4851    4.8190 C   0  0  0  0  0  0  0  0  0  0  0  0
  -10.6488   -5.7027    2.4842 C   0  0  0  0  0  0  0  0  0  0  0  0
  -10.0341   -5.4319    1.2618 C   0  0  0  0  0  0  0  0  0  0  0  0
  -10.7040   -4.9071    0.1367 N   0  0  0  0  0  0  0  0  0  0  0  0
  -10.0490   -4.8500   -1.1106 C   0  0  0  0  0  0  0  0  0  0  0  0
  -11.8275   -3.9275    0.3741 C   0  0  0  0  0  0  0  0  0  0  0  0
  -11.6014   -2.8754    1.5020 C   0  0  1  0  0  0  0  0  0  0  0  0
  -10.2735   -2.9677    1.9982 O   0  0  0  0  0  0  0  0  0  0  0  0
  -11.9638   -1.4336    1.0731 C   0  0  1  0  0  0  0  0  0  0  0  0
  -13.3532   -1.3430    0.7717 O   0  0  0  0  0  0  0  0  0  0  0  0
  -11.5581   -0.2924    2.0380 C   0  0  1  0  0  0  0  0  0  0  0  0
  -11.7414    0.9496    1.3673 O   0  0  0  0  0  0  0  0  0  0  0  0
  -12.3886   -0.2813    3.3410 C   0  0  0  0  0  0  0  0  0  0  0  0
  -12.6492    1.0370    3.8081 O   0  0  0  0  0  0  0  0  0  0  0  0
  -13.3170    1.3308    5.2149 P   0  0  0  0  0  0  0  0  0  0  0  0
  -13.7413    2.7458    5.3135 O   0  0  0  0  0  0  0  0  0  0  0  0
  -14.2919    0.2737    5.5600 O   0  5  0  0  0  0  0  0  0  0  0  0
  -12.1122    1.1759    6.2441 O   0  5  0  0  0  0  0  0  0  0  0  0
  1 18  1  0  0  0  0
  1  2  1  0  0  0  0
  2  4  1  0  0  0  0
  2  3  2  0  0  0  0
  4  5  1  0  0  0  0
  5  7  1  0  0  0  0
  5  6  2  0  0  0  0
  7 18  2  0  0  0  0
  7  8  1  0  0  0  0
  8  9  1  0  0  0  0
  9 10  2  0  0  0  0
  9 16  1  0  0  0  0
 10 11  1  0  0  0  0
 11 12  1  0  0  0  0
 11 13  2  0  0  0  0
 13 14  1  0  0  0  0
 13 15  1  0  0  0  0
 15 16  2  0  0  0  0
 16 17  1  0  0  0  0
 17 19  1  0  0  0  0
 17 18  1  0  0  0  0
 20 19  1  6  0  0  0
 20 22  1  0  0  0  0
 20 21  1  0  0  0  0
 22 24  1  0  0  0  0
 22 23  1  1  0  0  0
 24 26  1  1  0  0  0
 24 25  1  0  0  0  0
 26 27  1  0  0  0  0
 27 28  1  0  0  0  0
 28 30  1  0  0  0  0
 28 29  2  0  0  0  0
 28 31  1  0  0  0  0
M  CHG  2  30  -1  31  -1
M  END
>  <CHROM.1>
40.32112642,6.47743803,63.23689163,20.14830729,169.14786676,-69.44040463
-144.23176952,58.77467033,-171.97401327,-167.41186047,-10.74300870,-3.00795553
1.52658213,0.54472008,1.03255329,-1.45205095

>  <Name>
1fmn_cryst

>  <RI>
0

>  <Rbt.Current_Directory>
/home/itssahil/PROJECTS/Mol_Feturizer/New_Systems/rnas/1fmn

>  <Rbt.Executable>
rbdock ($Id: //depot/dev/client3/rdock/2013.1/src/exe/rbdock.cxx#4 $)

>  <Rbt.Library>
libRbt.so (2013.1, Build901 2013/11/27)

>  <Rbt.Parameter_File>
/export/apps/rDock/src/rDock_2013.1_src/data/scripts/dock_solv.prm

>  <Rbt.Receptor>
prm/blind_docking_20.prm

>  <SCORE>
-3.69607

>  <SCORE.INTER>
-10.5474

>  <SCORE.INTER.CONST>
1

>  <SCORE.INTER.POLAR>
-0.919514

>  <SCORE.INTER.ROT>
7

>  <SCORE.INTER.SOLV>
33.3124

>  <SCORE.INTER.VDW>
-23.3374

>  <SCORE.INTER.norm>
-0.340238

>  <SCORE.INTRA>
5.27338

>  <SCORE.INTRA.DIHEDRAL>
2.10449

>  <SCORE.INTRA.DIHEDRAL.0>
15.5708

>  <SCORE.INTRA.POLAR>
0.0676455

>  <SCORE.INTRA.POLAR.0>
-0.0677885

>  <SCORE.INTRA.REPUL>
0

>  <SCORE.INTRA.REPUL.0>
0

>  <SCORE.INTRA.SOLV>
-4.02617

>  <SCORE.INTRA.SOLV.lig_0>
-87.6316

>  <SCORE.INTRA.VDW>
6.00423

>  <SCORE.INTRA.VDW.0>
-2.87309

>  <SCORE.INTRA.norm>
0.170109

>  <SCORE.RESTR>
1.57794

>  <SCORE.RESTR.CAVITY>
1.57794

>  <SCORE.RESTR.norm>
0.0509011

>  <SCORE.SYSTEM>
0

>  <SCORE.SYSTEM.CONST>
0

>  <SCORE.SYSTEM.DIHEDRAL>
0

>  <SCORE.SYSTEM.SOLV>
0

>  <SCORE.SYSTEM.norm>
0

>  <SCORE.heavy>
31

>  <SCORE.norm>
-0.119228

>  <SYMMETRIC_BONDS>
33 34 3

>  <RMSD>
9.017

$$$$
1fmn_cryst
 OpenBabel11021811393D
libRbt.so/2013.1/901 2013/11/27
 31 33  0  0  0  0  0  0  0  0999 V2000
  -10.6594   -4.2858   -1.1281 N   0  0  0  0  0  0  0  0  0  0  0  0
  -10.4920   -4.1706   -2.4884 C   0  0  0  0  0  0  0  0  0  0  0  0
  -11.3351   -3.6320   -3.2065 O   0  0  0  0  0  0  0  0  0  0  0  0
   -9.2918   -4.7150   -3.0104 N   0  0  0  0  0  0  0  0  0  0  0  0
   -8.2676   -5.3558   -2.2794 C   0  0  0  0  0  0  0  0  0  0  0  0
   -7.2656   -5.7857   -2.8648 O   0  0  0  0  0  0  0  0  0  0  0  0
   -8.5213   -5.4390   -0.8393 C   0  0  0  0  0  0  0  0  0  0  0  0
   -7.5722   -6.0482   -0.0568 N   0  0  0  0  0  0  0  0  0  0  0  0
   -7.8897   -6.2852    1.2492 C   0  0  0  0  0  0  0  0  0  0  0  0
   -7.0193   -7.0599    1.9954 C   0  0  0  0  0  0  0  0  0  0  0  0
   -7.2698   -7.3352    3.2965 C   0  0  0  0  0  0  0  0  0  0  0  0
   -6.2951   -8.1747    4.0592 C   0  0  0  0  0  0  0  0  0  0  0  0
   -8.3910   -6.8531    3.8976 C   0  0  0  0  0  0  0  0  0  0  0  0
   -8.6632   -7.1677    5.3326 C   0  0  0  0  0  0  0  0  0  0  0  0
   -9.2732   -6.0881    3.2052 C   0  0  0  0  0  0  0  0  0  0  0  0
   -9.0617   -5.7748    1.8626 C   0  0  0  0  0  0  0  0  0  0  0  0
   -9.9344   -4.9837    1.0863 N   0  0  0  0  0  0  0  0  0  0  0  0
   -9.7427   -4.8822   -0.3069 C   0  0  0  0  0  0  0  0  0  0  0  0
  -10.6602   -3.8502    1.7695 C   0  0  0  0  0  0  0  0  0  0  0  0
  -11.9733   -4.2233    2.5222 C   0  0  1  0  0  0  0  0  0  0  0  0
  -11.6727   -4.9875    3.6813 O   0  0  0  0  0  0  0  0  0  0  0  0
  -12.8600   -2.9975    2.8467 C   0  0  1  0  0  0  0  0  0  0  0  0
  -13.4755   -3.1574    4.1215 O   0  0  0  0  0  0  0  0  0  0  0  0
  -12.1903   -1.6043    2.7556 C   0  0  1  0  0  0  0  0  0  0  0  0
  -11.7073   -1.4239    1.4289 O   0  0  0  0  0  0  0  0  0  0  0  0
  -13.1572   -0.4476    3.0945 C   0  0  0  0  0  0  0  0  0  0  0  0
  -12.4987    0.8122    3.1511 O   0  0  0  0  0  0  0  0  0  0  0  0
  -13.1820    2.1095    3.7523 P   0  0  0  0  0  0  0  0  0  0  0  0
  -12.3851    3.3183    3.4430 O   0  0  0  0  0  0  0  0  0  0  0  0
  -14.6306    2.1212    3.4547 O   0  5  0  0  0  0  0  0  0  0  0  0
  -13.0545    1.9080    5.3264 O   0  5  0  0  0  0  0  0  0  0  0  0
  1 18  1  0  0  0  0
  1  2  1  0  0  0  0
  2  4  1  0  0  0  0
  2  3  2  0  0  0  0
  4  5  1  0  0  0  0
  5  7  1  0  0  0  0
  5  6  2  0  0  0  0
  7 18  2  0  0  0  0
  7  8  1  0  0  0  0
  8  9  1  0  0  0  0
  9 10  2  0  0  0  0
  9 16  1  0  0  0  0
 10 11  1  0  0  0  0
 11 12  1  0  0  0  0
 11 13  2  0  0  0  0
 13 14  1  0  0  0  0
 13 15  1  0  0  0  0
 15 16  2  0  0  0  0
 16 17  1  0  0  0  0
 17 19  1  0  0  0  0
 17 18  1  0  0  0  0
 20 19  1  1  0  0  0
 20 22  1  0  0  0  0
 20 21  1  0  0  0  0
 22 24  1  0  0  0  0
 22 23  1  1  0  0  0
 24 26  1  6  0  0  0
 24 25  1  0  0  0  0
 26 27  1  0  0  0  0
 27 28  1  0  0  0  0
 28 30  1  0  0  0  0
 28 29  2  0  0  0  0
 28 31  1  0  0  0  0
M  CHG  2  30  -1  31  -1
M  END
>  <CHROM.1>
-83.67288353,69.88726413,-142.75265092,63.46487713,59.26389286,78.00503393
173.54746985,60.96348410,-167.57585362,-168.77495076,-10.55118738,-3.38136340
1.77420888,0.21645642,1.00041116,-1.44246216

>  <Name>
1fmn_cryst

>  <RI>
0

>  <Rbt.Current_Directory>
/home/itssahil/PROJECTS/Mol_Feturizer/New_Systems/rnas/1fmn

>  <Rbt.Executable>
rbdock ($Id: //depot/dev/client3/rdock/2013.1/src/exe/rbdock.cxx#4 $)

>  <Rbt.Library>
libRbt.so (2013.1, Build901 2013/11/27)

>  <Rbt.Parameter_File>
/export/apps/rDock/src/rDock_2013.1_src/data/scripts/dock_solv.prm

>  <Rbt.Receptor>
prm/blind_docking_20.prm

>  <SCORE>
-24.5673

>  <SCORE.INTER>
-27.236

>  <SCORE.INTER.CONST>
1

>  <SCORE.INTER.POLAR>
-1.45763

>  <SCORE.INTER.ROT>
7

>  <SCORE.INTER.SOLV>
27.5842

>  <SCORE.INTER.VDW>
-30.76

>  <SCORE.INTER.norm>
-0.87858

>  <SCORE.INTRA>
-1.56069

>  <SCORE.INTRA.DIHEDRAL>
-6.48611

>  <SCORE.INTRA.DIHEDRAL.0>
15.5708

>  <SCORE.INTRA.POLAR>
0.0677885

>  <SCORE.INTRA.POLAR.0>
-0.0677885

>  <SCORE.INTRA.REPUL>
0

>  <SCORE.INTRA.REPUL.0>
0

>  <SCORE.INTRA.SOLV>
-4.29662

>  <SCORE.INTRA.SOLV.lig_0>
-87.6316

>  <SCORE.INTRA.VDW>
3.6002

>  <SCORE.INTRA.VDW.0>
-2.87309

>  <SCORE.INTRA.norm>
-0.0503448

>  <SCORE.RESTR>
4.22939

>  <SCORE.RESTR.CAVITY>
4.22939

>  <SCORE.RESTR.norm>
0.136432

>  <SCORE.SYSTEM>
0

>  <SCORE.SYSTEM.CONST>
0

>  <SCORE.SYSTEM.DIHEDRAL>
0

>  <SCORE.SYSTEM.SOLV>
0

>  <SCORE.SYSTEM.norm>
0

>  <SCORE.heavy>
31

>  <SCORE.norm>
-0.792493

>  <SYMMETRIC_BONDS>
33 34 3

>  <RMSD>
9.018

$$$$
1fmn_cryst
 OpenBabel11021811393D
libRbt.so/2013.1/901 2013/11/27
 31 33  0  0  0  0  0  0  0  0999 V2000
   -9.9266   -4.6666   -2.9952 N   0  0  0  0  0  0  0  0  0  0  0  0
   -9.1666   -4.7245   -4.1400 C   0  0  0  0  0  0  0  0  0  0  0  0
   -9.6310   -4.4479   -5.2464 O   0  0  0  0  0  0  0  0  0  0  0  0
   -7.8186   -5.1270   -3.9658 N   0  0  0  0  0  0  0  0  0  0  0  0
   -7.1909   -5.4705   -2.7483 C   0  0  0  0  0  0  0  0  0  0  0  0
   -5.9994   -5.8045   -2.7392 O   0  0  0  0  0  0  0  0  0  0  0  0
   -8.0666   -5.3845   -1.5775 C   0  0  0  0  0  0  0  0  0  0  0  0
   -7.5317   -5.7025   -0.3540 N   0  0  0  0  0  0  0  0  0  0  0  0
   -8.3893   -5.7970    0.7035 C   0  0  0  0  0  0  0  0  0  0  0  0
   -7.8931   -6.2948    1.8953 C   0  0  0  0  0  0  0  0  0  0  0  0
   -8.6859   -6.4159    2.9853 C   0  0  0  0  0  0  0  0  0  0  0  0
   -8.0995   -6.9569    4.2502 C   0  0  0  0  0  0  0  0  0  0  0  0
   -9.9948   -6.0491    2.9276 C   0  0  0  0  0  0  0  0  0  0  0  0
  -10.8646   -6.1926    4.1338 C   0  0  0  0  0  0  0  0  0  0  0  0
  -10.5250   -5.5548    1.7798 C   0  0  0  0  0  0  0  0  0  0  0  0
   -9.7511   -5.4094    0.6286 C   0  0  0  0  0  0  0  0  0  0  0  0
  -10.2369   -4.9002   -0.5940 N   0  0  0  0  0  0  0  0  0  0  0  0
   -9.4392   -4.9721   -1.7544 C   0  0  0  0  0  0  0  0  0  0  0  0
  -11.2893   -3.8193   -0.5434 C   0  0  0  0  0  0  0  0  0  0  0  0
  -11.5410   -3.1634    0.8482 C   0  0  1  0  0  0  0  0  0  0  0  0
  -10.3371   -3.1370    1.6017 O   0  0  0  0  0  0  0  0  0  0  0  0
  -12.1998   -1.7665    0.7541 C   0  0  1  0  0  0  0  0  0  0  0  0
  -13.5207   -1.8780    0.2323 O   0  0  0  0  0  0  0  0  0  0  0  0
  -12.2130   -0.9096    2.0438 C   0  0  1  0  0  0  0  0  0  0  0  0
  -10.9339   -0.3036    2.1939 O   0  0  0  0  0  0  0  0  0  0  0  0
  -13.2890    0.1993    2.0195 C   0  0  0  0  0  0  0  0  0  0  0  0
  -13.7885    0.5003    3.3172 O   0  0  0  0  0  0  0  0  0  0  0  0
  -12.9683    1.3486    4.3750 P   0  0  0  0  0  0  0  0  0  0  0  0
  -11.5762    0.8562    4.4826 O   0  0  0  0  0  0  0  0  0  0  0  0
  -13.1935    2.7958    4.1700 O   0  5  0  0  0  0  0  0  0  0  0  0
  -13.6558    0.9855    5.7644 O   0  5  0  0  0  0  0  0  0  0  0  0
  1 18  1  0  0  0  0
  1  2  1  0  0  0  0
  2  4  1  0  0  0  0
  2  3  2  0  0  0  0
  4  5  1  0  0  0  0
  5  7  1  0  0  0  0
  5  6  2  0  0  0  0
  7 18  2  0  0  0  0
  7  8  1  0  0  0  0
  8  9  1  0  0  0  0
  9 10  2  0  0  0  0
  9 16  1  0  0  0  0
 10 11  1  0  0  0  0
 11 12  1  0  0  0  0
 11 13  2  0  0  0  0
 13 14  1  0  0  0  0
 13 15  1  0  0  0  0
 15 16  2  0  0  0  0
 16 17  1  0  0  0  0
 17 19  1  0  0  0  0
 17 18  1  0  0  0  0
 20 19  1  6  0  0  0
 20 22  1  0  0  0  0
 20 21  1  0  0  0  0
 22 24  1  0  0  0  0
 22 23  1  1  0  0  0
 24 26  1  6  0  0  0
 24 25  1  0  0  0  0
 26 27  1  0  0  0  0
 27 28  1  0  0  0  0
 28 30  1  0  0  0  0
 28 29  2  0  0  0  0
 28 31  1  0  0  0  0
M  CHG  2  30  -1  31  -1
M  END
>  <CHROM.1>
11.77283619,32.09272114,66.28188948,-164.86927667,79.95845018,-165.47567515
149.17908102,-168.75075161,75.61991822,-47.87211161,-10.49264810,-3.15595775
0.98368929,0.49082728,0.99825609,-1.40264385

>  <Name>
1fmn_cryst

>  <RI>
0

>  <Rbt.Current_Directory>
/home/itssahil/PROJECTS/Mol_Feturizer/New_Systems/rnas/1fmn

>  <Rbt.Executable>
rbdock ($Id: //depot/dev/client3/rdock/2013.1/src/exe/rbdock.cxx#4 $)

>  <Rbt.Library>
libRbt.so (2013.1, Build901 2013/11/27)

>  <Rbt.Parameter_File>
/export/apps/rDock/src/rDock_2013.1_src/data/scripts/dock_solv.prm

>  <Rbt.Receptor>
prm/blind_docking_80.prm

>  <SCORE>
-31.0444

>  <SCORE.INTER>
-34.2662

>  <SCORE.INTER.CONST>
1

>  <SCORE.INTER.POLAR>
-1.08727

>  <SCORE.INTER.ROT>
7

>  <SCORE.INTER.SOLV>
32.7422

>  <SCORE.INTER.VDW>
-38.4006

>  <SCORE.INTER.norm>
-1.10536

>  <SCORE.INTRA>
1.81761

>  <SCORE.INTRA.DIHEDRAL>
-2.14659

>  <SCORE.INTRA.DIHEDRAL.0>
15.5708

>  <SCORE.INTRA.POLAR>
-1.19806

>  <SCORE.INTRA.POLAR.0>
-0.0677885

>  <SCORE.INTRA.REPUL>
0

>  <SCORE.INTRA.REPUL.0>
0

>  <SCORE.INTRA.SOLV>
-0.0401668

>  <SCORE.INTRA.SOLV.lig_0>
-87.6316

>  <SCORE.INTRA.VDW>
6.9844

>  <SCORE.INTRA.VDW.0>
-2.87309

>  <SCORE.INTRA.norm>
0.0586326

>  <SCORE.RESTR>
1.4042

>  <SCORE.RESTR.CAVITY>
1.4042

>  <SCORE.RESTR.norm>
0.0452967

>  <SCORE.SYSTEM>
0

>  <SCORE.SYSTEM.CONST>
0

>  <SCORE.SYSTEM.DIHEDRAL>
0

>  <SCORE.SYSTEM.SOLV>
0

>  <SCORE.SYSTEM.norm>
0

>  <SCORE.heavy>
31

>  <SCORE.norm>
-1.00143

>  <SYMMETRIC_BONDS>
33 34 3

>  <RMSD>
9.020

$$$$
1fmn_cryst
 OpenBabel11021811393D
libRbt.so/2013.1/901 2013/11/27
 31 33  0  0  0  0  0  0  0  0999 V2000
  -10.9115   -4.2744   -1.8461 N   0  0  0  0  0  0  0  0  0  0  0  0
  -10.3922   -4.0632   -3.1020 C   0  0  0  0  0  0  0  0  0  0  0  0
  -11.1018   -3.7439   -4.0564 O   0  0  0  0  0  0  0  0  0  0  0  0
   -8.9915   -4.2411   -3.2282 N   0  0  0  0  0  0  0  0  0  0  0  0
   -8.0919   -4.6103   -2.2043 C   0  0  0  0  0  0  0  0  0  0  0  0
   -6.8856   -4.7292   -2.4537 O   0  0  0  0  0  0  0  0  0  0  0  0
   -8.7223   -4.8174   -0.8986 C   0  0  0  0  0  0  0  0  0  0  0  0
   -7.9152   -5.1785    0.1513 N   0  0  0  0  0  0  0  0  0  0  0  0
   -8.5234   -5.5454    1.3166 C   0  0  0  0  0  0  0  0  0  0  0  0
   -7.7332   -6.0855    2.3158 C   0  0  0  0  0  0  0  0  0  0  0  0
   -8.2682   -6.4709    3.4975 C   0  0  0  0  0  0  0  0  0  0  0  0
   -7.3696   -7.0459    4.5456 C   0  0  0  0  0  0  0  0  0  0  0  0
   -9.6027   -6.3347    3.7250 C   0  0  0  0  0  0  0  0  0  0  0  0
  -10.1860   -6.7692    5.0300 C   0  0  0  0  0  0  0  0  0  0  0  0
  -10.4167   -5.8093    2.7742 C   0  0  0  0  0  0  0  0  0  0  0  0
   -9.9157   -5.3962    1.5398 C   0  0  0  0  0  0  0  0  0  0  0  0
  -10.7037   -4.8397    0.5106 N   0  0  0  0  0  0  0  0  0  0  0  0
  -10.1488   -4.6337   -0.7691 C   0  0  0  0  0  0  0  0  0  0  0  0
  -11.8752   -3.9733    0.9047 C   0  0  0  0  0  0  0  0  0  0  0  0
  -11.7240   -2.4441    0.6425 C   0  0  1  0  0  0  0  0  0  0  0  0
  -12.2334   -2.1151   -0.6421 O   0  0  0  0  0  0  0  0  0  0  0  0
  -12.3460   -1.5695    1.7571 C   0  0  1  0  0  0  0  0  0  0  0  0
  -12.3503   -2.2761    2.9941 O   0  0  0  0  0  0  0  0  0  0  0  0
  -11.7431   -0.1575    1.9586 C   0  0  1  0  0  0  0  0  0  0  0  0
  -11.6277    0.4677    0.6851 O   0  0  0  0  0  0  0  0  0  0  0  0
  -12.6030    0.7395    2.8771 C   0  0  0  0  0  0  0  0  0  0  0  0
  -12.4645    0.4007    4.2519 O   0  0  0  0  0  0  0  0  0  0  0  0
  -13.2787    1.1294    5.3997 P   0  0  0  0  0  0  0  0  0  0  0  0
  -14.6418    0.5643    5.5214 O   0  0  0  0  0  0  0  0  0  0  0  0
  -12.4548    1.2600    6.6208 O   0  5  0  0  0  0  0  0  0  0  0  0
  -13.4796    2.6064    4.8403 O   0  5  0  0  0  0  0  0  0  0  0  0
  1 18  1  0  0  0  0
  1  2  1  0  0  0  0
  2  4  1  0  0  0  0
  2  3  2  0  0  0  0
  4  5  1  0  0  0  0
  5  7  1  0  0  0  0
  5  6  2  0  0  0  0
  7 18  2  0  0  0  0
  7  8  1  0  0  0  0
  8  9  1  0  0  0  0
  9 10  2  0  0  0  0
  9 16  1  0  0  0  0
 10 11  1  0  0  0  0
 11 12  1  0  0  0  0
 11 13  2  0  0  0  0
 13 14  1  0  0  0  0
 13 15  1  0  0  0  0
 15 16  2  0  0  0  0
 16 17  1  0  0  0  0
 17 19  1  0  0  0  0
 17 18  1  0  0  0  0
 20 19  1  1  0  0  0
 20 22  1  0  0  0  0
 20 21  1  0  0  0  0
 22 24  1  0  0  0  0
 22 23  1  1  0  0  0
 24 26  1  1  0  0  0
 24 25  1  0  0  0  0
 26 27  1  0  0  0  0
 27 28  1  0  0  0  0
 28 30  1  0  0  0  0
 28 29  2  0  0  0  0
 28 31  1  0  0  0  0
M  CHG  2  30  -1  31  -1
M  END
>  <CHROM.1>
108.20006812,91.51787930,26.80521124,66.70690897,47.49737431,156.55546630
76.23511010,-172.49151023,-177.64421735,81.78985744,-10.79403738,-2.90773555
1.63240656,0.54239970,1.00480868,-1.46667693

>  <Name>
1fmn_cryst

>  <RI>
0

>  <Rbt.Current_Directory>
/home/itssahil/PROJECTS/Mol_Feturizer/New_Systems/rnas/1fmn

>  <Rbt.Executable>
rbdock ($Id: //depot/dev/client3/rdock/2013.1/src/exe/rbdock.cxx#4 $)

>  <Rbt.Library>
libRbt.so (2013.1, Build901 2013/11/27)

>  <Rbt.Parameter_File>
/export/apps/rDock/src/rDock_2013.1_src/data/scripts/dock_solv.prm

>  <Rbt.Receptor>
prm/blind_docking_80.prm

>  <SCORE>
-34.9132

>  <SCORE.INTER>
-31.7539

>  <SCORE.INTER.CONST>
1

>  <SCORE.INTER.POLAR>
-1.07486

>  <SCORE.INTER.ROT>
7

>  <SCORE.INTER.SOLV>
31.9692

>  <SCORE.INTER.VDW>
-36.5094

>  <SCORE.INTER.norm>
-1.02432

>  <SCORE.INTRA>
-4.22648

>  <SCORE.INTRA.DIHEDRAL>
-2.47489

>  <SCORE.INTRA.DIHEDRAL.0>
15.5708

>  <SCORE.INTRA.POLAR>
-0.870029

>  <SCORE.INTRA.POLAR.0>
-0.0677885

>  <SCORE.INTRA.REPUL>
0

>  <SCORE.INTRA.REPUL.0>
0

>  <SCORE.INTRA.SOLV>
-3.6181

>  <SCORE.INTRA.SOLV.lig_0>
-87.6316

>  <SCORE.INTRA.VDW>
1.77811

>  <SCORE.INTRA.VDW.0>
-2.87309

>  <SCORE.INTRA.norm>
-0.136338

>  <SCORE.RESTR>
1.06718

>  <SCORE.RESTR.CAVITY>
1.06718

>  <SCORE.RESTR.norm>
0.0344251

>  <SCORE.SYSTEM>
0

>  <SCORE.SYSTEM.CONST>
0

>  <SCORE.SYSTEM.DIHEDRAL>
0

>  <SCORE.SYSTEM.SOLV>
0

>  <SCORE.SYSTEM.norm>
0

>  <SCORE.heavy>
31

>  <SCORE.norm>
-1.12623

>  <SYMMETRIC_BONDS>
33 34 3

>  <RMSD>
9.027

$$$$
1fmn_cryst
 OpenBabel11021811393D
libRbt.so/2013.1/901 2013/11/27
 31 33  0  0  0  0  0  0  0  0999 V2000
  -11.2310   -4.4169   -1.4329 N   0  0  0  0  0  0  0  0  0  0  0  0
  -10.9440   -4.1303   -2.7471 C   0  0  0  0  0  0  0  0  0  0  0  0
  -11.8240   -3.8464   -3.5605 O   0  0  0  0  0  0  0  0  0  0  0  0
   -9.5738   -4.1873   -3.1059 N   0  0  0  0  0  0  0  0  0  0  0  0
   -8.4916   -4.5068   -2.2568 C   0  0  0  0  0  0  0  0  0  0  0  0
   -7.3375   -4.5180   -2.7031 O   0  0  0  0  0  0  0  0  0  0  0  0
   -8.8800   -4.7998   -0.8753 C   0  0  0  0  0  0  0  0  0  0  0  0
   -7.8851   -5.1197    0.0146 N   0  0  0  0  0  0  0  0  0  0  0  0
   -8.2623   -5.5664    1.2478 C   0  0  0  0  0  0  0  0  0  0  0  0
   -7.2784   -6.0646    2.0834 C   0  0  0  0  0  0  0  0  0  0  0  0
   -7.5795   -6.5240    3.3201 C   0  0  0  0  0  0  0  0  0  0  0  0
   -6.4783   -7.0492    4.1850 C   0  0  0  0  0  0  0  0  0  0  0  0
   -8.8647   -6.5056    3.7663 C   0  0  0  0  0  0  0  0  0  0  0  0
   -9.1891   -7.0213    5.1305 C   0  0  0  0  0  0  0  0  0  0  0  0
   -9.8629   -6.0253    2.9817 C   0  0  0  0  0  0  0  0  0  0  0  0
   -9.6060   -5.5397    1.6996 C   0  0  0  0  0  0  0  0  0  0  0  0
  -10.5940   -5.0242    0.8346 N   0  0  0  0  0  0  0  0  0  0  0  0
  -10.2755   -4.7392   -0.5090 C   0  0  0  0  0  0  0  0  0  0  0  0
  -11.7485   -4.2692    1.4474 C   0  0  0  0  0  0  0  0  0  0  0  0
  -11.7246   -2.7188    1.2866 C   0  0  1  0  0  0  0  0  0  0  0  0
  -12.1049   -2.3579   -0.0336 O   0  0  0  0  0  0  0  0  0  0  0  0
  -12.5643   -1.9813    2.3567 C   0  0  1  0  0  0  0  0  0  0  0  0
  -12.6142   -2.7457    3.5578 O   0  0  0  0  0  0  0  0  0  0  0  0
  -12.1636   -0.5205    2.6778 C   0  0  1  0  0  0  0  0  0  0  0  0
  -10.9333   -0.2372    2.0206 O   0  0  0  0  0  0  0  0  0  0  0  0
  -13.2209    0.5090    2.2194 C   0  0  0  0  0  0  0  0  0  0  0  0
  -13.1368    1.7323    2.9409 O   0  0  0  0  0  0  0  0  0  0  0  0
  -13.4974    1.8453    4.4799 P   0  0  0  0  0  0  0  0  0  0  0  0
  -13.7785    3.2497    4.8552 O   0  0  0  0  0  0  0  0  0  0  0  0
  -14.4712    0.8011    4.8652 O   0  5  0  0  0  0  0  0  0  0  0  0
  -12.1349    1.4739    5.2150 O   0  5  0  0  0  0  0  0  0  0  0  0
  1 18  1  0  0  0  0
  1  2  1  0  0  0  0
  2  4  1  0  0  0  0
  2  3  2  0  0  0  0
  4  5  1  0  0  0  0
  5  7  1  0  0  0  0
  5  6  2  0  0  0  0
  7 18  2  0  0  0  0
  7  8  1  0  0  0  0
  8  9  1  0  0  0  0
  9 10  2  0  0  0  0
  9 16  1  0  0  0  0
 10 11  1  0  0  0  0
 11 12  1  0  0  0  0
 11 13  2  0  0  0  0
 13 14  1  0  0  0  0
 13 15  1  0  0  0  0
 15 16  2  0  0  0  0
 16 17  1  0  0  0  0
 17 19  1  0  0  0  0
 17 18  1  0  0  0  0
 20 19  1  6  0  0  0
 20 22  1  0  0  0  0
 20 21  1  0  0  0  0
 22 24  1  0  0  0  0
 22 23  1  1  0  0  0
 24 26  1  6  0  0  0
 24 25  1  0  0  0  0
 26 27  1  0  0  0  0
 27 28  1  0  0  0  0
 28 30  1  0  0  0  0
 28 29  2  0  0  0  0
 28 31  1  0  0  0  0
M  CHG  2  30  -1  31  -1
M  END
>  <CHROM.1>
105.21238993,76.36350719,28.48021050,60.51178429,-8.64786465,158.71061284
156.88245330,-178.40860367,-68.00119151,-160.30357874,-10.79482798,-2.90165871
1.63462633,0.49822990,0.96016435,-1.64414967

>  <Name>
1fmn_cryst

>  <RI>
0

>  <Rbt.Current_Directory>
/home/itssahil/PROJECTS/Mol_Feturizer/New_Systems/rnas/1fmn

>  <Rbt.Executable>
rbdock ($Id: //depot/dev/client3/rdock/2013.1/src/exe/rbdock.cxx#4 $)

>  <Rbt.Library>
libRbt.so (2013.1, Build901 2013/11/27)

>  <Rbt.Parameter_File>
/export/apps/rDock/src/rDock_2013.1_src/data/scripts/dock_solv.prm

>  <Rbt.Receptor>
prm/blind_docking_100.prm

>  <SCORE>
-36.2899

>  <SCORE.INTER>
-41.4376

>  <SCORE.INTER.CONST>
1

>  <SCORE.INTER.POLAR>
-2.20147

>  <SCORE.INTER.ROT>
7

>  <SCORE.INTER.SOLV>
30.5914

>  <SCORE.INTER.VDW>
-38.7506

>  <SCORE.INTER.norm>
-1.3367

>  <SCORE.INTRA>
1.28087

>  <SCORE.INTRA.DIHEDRAL>
-0.177045

>  <SCORE.INTRA.DIHEDRAL.0>
15.5708

>  <SCORE.INTRA.POLAR>
0.0677885

>  <SCORE.INTRA.POLAR.0>
-0.0677885

>  <SCORE.INTRA.REPUL>
0

>  <SCORE.INTRA.REPUL.0>
0

>  <SCORE.INTRA.SOLV>
-0.564721

>  <SCORE.INTRA.SOLV.lig_0>
-87.6316

>  <SCORE.INTRA.VDW>
1.42127

>  <SCORE.INTRA.VDW.0>
-2.87309

>  <SCORE.INTRA.norm>
0.0413184

>  <SCORE.RESTR>
3.86681

>  <SCORE.RESTR.CAVITY>
3.86681

>  <SCORE.RESTR.norm>
0.124736

>  <SCORE.SYSTEM>
0

>  <SCORE.SYSTEM.CONST>
0

>  <SCORE.SYSTEM.DIHEDRAL>
0

>  <SCORE.SYSTEM.SOLV>
0

>  <SCORE.SYSTEM.norm>
0

>  <SCORE.heavy>
31

>  <SCORE.norm>
-1.17064

>  <SYMMETRIC_BONDS>
33 34 3

>  <RMSD>
9.084

$$$$
1fmn_cryst
 OpenBabel11021811393D
libRbt.so/2013.1/901 2013/11/27
 31 33  0  0  0  0  0  0  0  0999 V2000
  -10.8017   -4.3376   -2.0381 N   0  0  0  0  0  0  0  0  0  0  0  0
  -10.2397   -4.2171   -3.2876 C   0  0  0  0  0  0  0  0  0  0  0  0
  -10.9033   -3.8938   -4.2733 O   0  0  0  0  0  0  0  0  0  0  0  0
   -8.8517   -4.4930   -3.3689 N   0  0  0  0  0  0  0  0  0  0  0  0
   -8.0035   -4.8756   -2.3066 C   0  0  0  0  0  0  0  0  0  0  0  0
   -6.8025   -5.0852   -2.5185 O   0  0  0  0  0  0  0  0  0  0  0  0
   -8.6773   -4.9824   -1.0105 C   0  0  0  0  0  0  0  0  0  0  0  0
   -7.9214   -5.3496    0.0749 N   0  0  0  0  0  0  0  0  0  0  0  0
   -8.5805   -5.6235    1.2382 C   0  0  0  0  0  0  0  0  0  0  0  0
   -7.8524   -6.1702    2.2800 C   0  0  0  0  0  0  0  0  0  0  0  0
   -8.4401   -6.4666    3.4624 C   0  0  0  0  0  0  0  0  0  0  0  0
   -7.6074   -7.0531    4.5575 C   0  0  0  0  0  0  0  0  0  0  0  0
   -9.7673   -6.2321    3.6483 C   0  0  0  0  0  0  0  0  0  0  0  0
  -10.4094   -6.5689    4.9547 C   0  0  0  0  0  0  0  0  0  0  0  0
  -10.5213   -5.6963    2.6548 C   0  0  0  0  0  0  0  0  0  0  0  0
   -9.9644   -5.3724    1.4177 C   0  0  0  0  0  0  0  0  0  0  0  0
  -10.6884   -4.8107    0.3451 N   0  0  0  0  0  0  0  0  0  0  0  0
  -10.0907   -4.6988   -0.9270 C   0  0  0  0  0  0  0  0  0  0  0  0
  -11.8078   -3.8519    0.6708 C   0  0  0  0  0  0  0  0  0  0  0  0
  -11.8120   -2.5025   -0.1098 C   0  0  1  0  0  0  0  0  0  0  0  0
  -12.4405   -2.6696   -1.3727 O   0  0  0  0  0  0  0  0  0  0  0  0
  -12.4263   -1.3333    0.6962 C   0  0  1  0  0  0  0  0  0  0  0  0
  -13.8476   -1.4312    0.7021 O   0  0  0  0  0  0  0  0  0  0  0  0
  -11.9061   -1.1278    2.1402 C   0  0  1  0  0  0  0  0  0  0  0  0
  -10.8017   -0.2310    2.0965 O   0  0  0  0  0  0  0  0  0  0  0  0
  -12.9787   -0.5500    3.0906 C   0  0  0  0  0  0  0  0  0  0  0  0
  -13.2129    0.8355    2.8676 O   0  0  0  0  0  0  0  0  0  0  0  0
  -12.6004    1.9673    3.7923 P   0  0  0  0  0  0  0  0  0  0  0  0
  -11.8156    1.3773    4.9005 O   0  0  0  0  0  0  0  0  0  0  0  0
  -11.9797    3.0306    2.9731 O   0  5  0  0  0  0  0  0  0  0  0  0
  -13.8771    2.6252    4.4793 O   0  5  0  0  0  0  0  0  0  0  0  0
  1 18  1  0  0  0  0
  1  2  1  0  0  0  0
  2  4  1  0  0  0  0
  2  3  2  0  0  0  0
  4  5  1  0  0  0  0
  5  7  1  0  0  0  0
  5  6  2  0  0  0  0
  7 18  2  0  0  0  0
  7  8  1  0  0  0  0
  8  9  1  0  0  0  0
  9 10  2  0  0  0  0
  9 16  1  0  0  0  0
 10 11  1  0  0  0  0
 11 12  1  0  0  0  0
 11 13  2  0  0  0  0
 13 14  1  0  0  0  0
 13 15  1  0  0  0  0
 15 16  2  0  0  0  0
 16 17  1  0  0  0  0
 17 19  1  0  0  0  0
 17 18  1  0  0  0  0
 20 19  1  1  0  0  0
 20 22  1  0  0  0  0
 20 21  1  0  0  0  0
 22 24  1  0  0  0  0
 22 23  1  1  0  0  0
 24 26  1  1  0  0  0
 24 25  1  0  0  0  0
 26 27  1  0  0  0  0
 27 28  1  0  0  0  0
 28 30  1  0  0  0  0
 28 29  2  0  0  0  0
 28 31  1  0  0  0  0
M  CHG  2  30  -1  31  -1
M  END
>  <CHROM.1>
130.92515293,83.76960591,-76.89568336,-172.11477107,90.61840320,-166.71009677
-74.93495522,64.94730245,-101.21594048,-1.70151194,-10.72997091,-2.85703982
1.14449316,0.47586574,1.04806300,-1.59219027

>  <Name>
1fmn_cryst

>  <RI>
0

>  <Rbt.Current_Directory>
/home/itssahil/PROJECTS/Mol_Feturizer/New_Systems/rnas/1fmn

>  <Rbt.Executable>
rbdock ($Id: //depot/dev/client3/rdock/2013.1/src/exe/rbdock.cxx#4 $)

>  <Rbt.Library>
libRbt.so (2013.1, Build901 2013/11/27)

>  <Rbt.Parameter_File>
/export/apps/rDock/src/rDock_2013.1_src/data/scripts/dock_solv.prm

>  <Rbt.Receptor>
prm/blind_docking_100.prm

>  <SCORE>
-27.2212

>  <SCORE.INTER>
-32.3377

>  <SCORE.INTER.CONST>
1

>  <SCORE.INTER.POLAR>
-1.08123

>  <SCORE.INTER.ROT>
7

>  <SCORE.INTER.SOLV>
31.6343

>  <SCORE.INTER.VDW>
-36.7658

>  <SCORE.INTER.norm>
-1.04315

>  <SCORE.INTRA>
3.02887

>  <SCORE.INTRA.DIHEDRAL>
2.28468

>  <SCORE.INTRA.DIHEDRAL.0>
15.5708

>  <SCORE.INTRA.POLAR>
-0.414384

>  <SCORE.INTRA.POLAR.0>
-0.0677885

>  <SCORE.INTRA.REPUL>
0

>  <SCORE.INTRA.REPUL.0>
0

>  <SCORE.INTRA.SOLV>
-0.182374

>  <SCORE.INTRA.SOLV.lig_0>
-87.6316

>  <SCORE.INTRA.VDW>
3.38662

>  <SCORE.INTRA.VDW.0>
-2.87309

>  <SCORE.INTRA.norm>
0.0977054

>  <SCORE.RESTR>
2.08763

>  <SCORE.RESTR.CAVITY>
2.08763

>  <SCORE.RESTR.norm>
0.067343

>  <SCORE.SYSTEM>
0

>  <SCORE.SYSTEM.CONST>
0

>  <SCORE.SYSTEM.DIHEDRAL>
0

>  <SCORE.SYSTEM.SOLV>
0

>  <SCORE.SYSTEM.norm>
0

>  <SCORE.heavy>
31

>  <SCORE.norm>
-0.878102

>  <SYMMETRIC_BONDS>
33 34 3

>  <RMSD>
9.086

$$$$
1fmn_cryst
 OpenBabel11021811393D
libRbt.so/2013.1/901 2013/11/27
 31 33  0  0  0  0  0  0  0  0999 V2000
  -10.5030   -4.3096   -2.3145 N   0  0  0  0  0  0  0  0  0  0  0  0
   -9.8813   -4.3218   -3.5412 C   0  0  0  0  0  0  0  0  0  0  0  0
  -10.4566   -3.9603   -4.5682 O   0  0  0  0  0  0  0  0  0  0  0  0
   -8.5401   -4.7810   -3.5484 N   0  0  0  0  0  0  0  0  0  0  0  0
   -7.7929   -5.2219   -2.4342 C   0  0  0  0  0  0  0  0  0  0  0  0
   -6.6231   -5.5969   -2.5830 O   0  0  0  0  0  0  0  0  0  0  0  0
   -8.5254   -5.1793   -1.1666 C   0  0  0  0  0  0  0  0  0  0  0  0
   -7.8685   -5.5918   -0.0341 N   0  0  0  0  0  0  0  0  0  0  0  0
   -8.6034   -5.7226    1.1084 C   0  0  0  0  0  0  0  0  0  0  0  0
   -7.9961   -6.3113    2.2034 C   0  0  0  0  0  0  0  0  0  0  0  0
   -8.6641   -6.4729    3.3692 C   0  0  0  0  0  0  0  0  0  0  0  0
   -7.9607   -7.1123    4.5237 C   0  0  0  0  0  0  0  0  0  0  0  0
   -9.9546   -6.0580    3.4853 C   0  0  0  0  0  0  0  0  0  0  0  0
  -10.6868   -6.2467    4.7739 C   0  0  0  0  0  0  0  0  0  0  0  0
  -10.5909   -5.4745    2.4377 C   0  0  0  0  0  0  0  0  0  0  0  0
   -9.9476   -5.2841    1.2148 C   0  0  0  0  0  0  0  0  0  0  0  0
  -10.5476   -4.6826    0.0887 N   0  0  0  0  0  0  0  0  0  0  0  0
   -9.8908   -4.7091   -1.1586 C   0  0  0  0  0  0  0  0  0  0  0  0
  -11.5414   -3.5711    0.3242 C   0  0  0  0  0  0  0  0  0  0  0  0
  -11.6501   -3.0382    1.7851 C   0  0  1  0  0  0  0  0  0  0  0  0
  -10.4136   -2.4693    2.1917 O   0  0  0  0  0  0  0  0  0  0  0  0
  -12.8351   -2.0652    1.9931 C   0  0  1  0  0  0  0  0  0  0  0  0
  -13.1545   -1.9654    3.3778 O   0  0  0  0  0  0  0  0  0  0  0  0
  -12.6954   -0.6496    1.3810 C   0  0  1  0  0  0  0  0  0  0  0  0
  -12.5844   -0.7801   -0.0321 O   0  0  0  0  0  0  0  0  0  0  0  0
  -13.8966    0.2674    1.7030 C   0  0  0  0  0  0  0  0  0  0  0  0
  -14.0306    0.5180    3.0971 O   0  0  0  0  0  0  0  0  0  0  0  0
  -12.9476    1.3198    3.9311 P   0  0  0  0  0  0  0  0  0  0  0  0
  -13.5442    1.8936    5.1586 O   0  0  0  0  0  0  0  0  0  0  0  0
  -11.6977    0.5383    4.0499 O   0  5  0  0  0  0  0  0  0  0  0  0
  -12.6042    2.5670    3.0029 O   0  5  0  0  0  0  0  0  0  0  0  0
  1 18  1  0  0  0  0
  1  2  1  0  0  0  0
  2  4  1  0  0  0  0
  2  3  2  0  0  0  0
  4  5  1  0  0  0  0
  5  7  1  0  0  0  0
  5  6  2  0  0  0  0
  7 18  2  0  0  0  0
  7  8  1  0  0  0  0
  8  9  1  0  0  0  0
  9 10  2  0  0  0  0
  9 16  1  0  0  0  0
 10 11  1  0  0  0  0
 11 12  1  0  0  0  0
 11 13  2  0  0  0  0
 13 14  1  0  0  0  0
 13 15  1  0  0  0  0
 15 16  2  0  0  0  0
 16 17  1  0  0  0  0
 17 19  1  0  0  0  0
 17 18  1  0  0  0  0
 20 19  1  6  0  0  0
 20 22  1  0  0  0  0
 20 21  1  0  0  0  0
 22 24  1  0  0  0  0
 22 23  1  1  0  0  0
 24 26  1  6  0  0  0
 24 25  1  0  0  0  0
 26 27  1  0  0  0  0
 27 28  1  0  0  0  0
 28 30  1  0  0  0  0
 28 29  2  0  0  0  0
 28 31  1  0  0  0  0
M  CHG  2  30  -1  31  -1
M  END
>  <CHROM.1>
9.18377758,62.65200636,160.75988575,145.66838867,62.27617506,-60.66948457
63.19140202,-78.22750095,65.07834459,157.41323998,-10.76603036,-3.04682721
1.23877026,0.37050835,1.00191881,-1.38550919

>  <Name>
1fmn_cryst

>  <RI>
0

>  <Rbt.Current_Directory>
/home/itssahil/PROJECTS/Mol_Feturizer/New_Systems/rnas/1fmn

>  <Rbt.Executable>
rbdock ($Id: //depot/dev/client3/rdock/2013.1/src/exe/rbdock.cxx#4 $)

>  <Rbt.Library>
libRbt.so (2013.1, Build901 2013/11/27)

>  <Rbt.Parameter_File>
/export/apps/rDock/src/rDock_2013.1_src/data/scripts/dock_solv.prm

>  <Rbt.Receptor>
prm/blind_docking_100.prm

>  <SCORE>
-20.6463

>  <SCORE.INTER>
-23.0443

>  <SCORE.INTER.CONST>
1

>  <SCORE.INTER.POLAR>
-2.04605

>  <SCORE.INTER.ROT>
7

>  <SCORE.INTER.SOLV>
28.0774

>  <SCORE.INTER.VDW>
-26.1685

>  <SCORE.INTER.norm>
-0.743365

>  <SCORE.INTRA>
0.265487

>  <SCORE.INTRA.DIHEDRAL>
-5.2891

>  <SCORE.INTRA.DIHEDRAL.0>
15.5708

>  <SCORE.INTRA.POLAR>
0.0677885

>  <SCORE.INTRA.POLAR.0>
-0.0677885

>  <SCORE.INTRA.REPUL>
0

>  <SCORE.INTRA.REPUL.0>
0

>  <SCORE.INTRA.SOLV>
1.14184

>  <SCORE.INTRA.SOLV.lig_0>
-87.6316

>  <SCORE.INTRA.VDW>
2.10864

>  <SCORE.INTRA.VDW.0>
-2.87309

>  <SCORE.INTRA.norm>
0.00856409

>  <SCORE.RESTR>
2.13253

>  <SCORE.RESTR.CAVITY>
2.13253

>  <SCORE.RESTR.norm>
0.0687911

>  <SCORE.SYSTEM>
0

>  <SCORE.SYSTEM.CONST>
0

>  <SCORE.SYSTEM.DIHEDRAL>
0

>  <SCORE.SYSTEM.SOLV>
0

>  <SCORE.SYSTEM.norm>
0

>  <SCORE.heavy>
31

>  <SCORE.norm>
-0.666009

>  <SYMMETRIC_BONDS>
33 34 3

>  <RMSD>
9.096

$$$$
1fmn_cryst
 OpenBabel11021811393D
libRbt.so/2013.1/901 2013/11/27
 31 33  0  0  0  0  0  0  0  0999 V2000
  -10.9537   -4.0638   -1.8161 N   0  0  0  0  0  0  0  0  0  0  0  0
  -10.4389   -3.8998   -3.0809 C   0  0  0  0  0  0  0  0  0  0  0  0
  -11.1341   -3.5230   -4.0249 O   0  0  0  0  0  0  0  0  0  0  0  0
   -9.0606   -4.1964   -3.2290 N   0  0  0  0  0  0  0  0  0  0  0  0
   -8.1791   -4.6390   -2.2185 C   0  0  0  0  0  0  0  0  0  0  0  0
   -6.9916   -4.8605   -2.4868 O   0  0  0  0  0  0  0  0  0  0  0  0
   -8.8036   -4.7894   -0.9022 C   0  0  0  0  0  0  0  0  0  0  0  0
   -8.0131   -5.2160    0.1358 N   0  0  0  0  0  0  0  0  0  0  0  0
   -8.6313   -5.5277    1.3119 C   0  0  0  0  0  0  0  0  0  0  0  0
   -7.8737   -6.1313    2.2999 C   0  0  0  0  0  0  0  0  0  0  0  0
   -8.4203   -6.4676    3.4913 C   0  0  0  0  0  0  0  0  0  0  0  0
   -7.5569   -7.1151    4.5266 C   0  0  0  0  0  0  0  0  0  0  0  0
   -9.7345   -6.2180    3.7397 C   0  0  0  0  0  0  0  0  0  0  0  0
  -10.3313   -6.5989    5.0553 C   0  0  0  0  0  0  0  0  0  0  0  0
  -10.5163   -5.6269    2.8005 C   0  0  0  0  0  0  0  0  0  0  0  0
  -10.0020   -5.2602    1.5568 C   0  0  0  0  0  0  0  0  0  0  0  0
  -10.7565   -4.6404    0.5387 N   0  0  0  0  0  0  0  0  0  0  0  0
  -10.2070   -4.4847   -0.7505 C   0  0  0  0  0  0  0  0  0  0  0  0
  -11.8435   -3.6768    0.9487 C   0  0  0  0  0  0  0  0  0  0  0  0
  -11.7674   -2.2459    0.3350 C   0  0  1  0  0  0  0  0  0  0  0  0
  -12.6959   -2.1214   -0.7329 O   0  0  0  0  0  0  0  0  0  0  0  0
  -11.9336   -1.1218    1.3852 C   0  0  1  0  0  0  0  0  0  0  0  0
  -11.7437    0.1528    0.7779 O   0  0  0  0  0  0  0  0  0  0  0  0
  -13.2435   -1.1224    2.2110 C   0  0  1  0  0  0  0  0  0  0  0  0
  -13.1697   -2.1717    3.1699 O   0  0  0  0  0  0  0  0  0  0  0  0
  -13.4898    0.2114    2.9512 C   0  0  0  0  0  0  0  0  0  0  0  0
  -12.8202    0.2686    4.2052 O   0  0  0  0  0  0  0  0  0  0  0  0
  -13.0941    1.4089    5.2711 P   0  0  0  0  0  0  0  0  0  0  0  0
  -12.1448    1.3134    6.4032 O   0  0  0  0  0  0  0  0  0  0  0  0
  -13.2692    2.7163    4.6024 O   0  5  0  0  0  0  0  0  0  0  0  0
  -14.5163    1.0263    5.8759 O   0  5  0  0  0  0  0  0  0  0  0  0
  1 18  1  0  0  0  0
  1  2  1  0  0  0  0
  2  4  1  0  0  0  0
  2  3  2  0  0  0  0
  4  5  1  0  0  0  0
  5  7  1  0  0  0  0
  5  6  2  0  0  0  0
  7 18  2  0  0  0  0
  7  8  1  0  0  0  0
  8  9  1  0  0  0  0
  9 10  2  0  0  0  0
  9 16  1  0  0  0  0
 10 11  1  0  0  0  0
 11 12  1  0  0  0  0
 11 13  2  0  0  0  0
 13 14  1  0  0  0  0
 13 15  1  0  0  0  0
 15 16  2  0  0  0  0
 16 17  1  0  0  0  0
 17 19  1  0  0  0  0
 17 18  1  0  0  0  0
 20 19  1  1  0  0  0
 20 22  1  0  0  0  0
 20 21  1  0  0  0  0
 22 24  1  0  0  0  0
 22 23  1  6  0  0  0
 24 26  1  1  0  0  0
 24 25  1  0  0  0  0
 26 27  1  0  0  0  0
 27 28  1  0  0  0  0
 28 30  1  0  0  0  0
 28 29  2  0  0  0  0
 28 31  1  0  0  0  0
M  CHG  2  30  -1  31  -1
M  END
>  <CHROM.1>
124.92173143,101.62848765,175.19375766,71.19195221,74.45275091,-34.38677030
-84.80892564,-174.06521447,-169.44772251,-173.07272914,-10.93417951,-2.85999931
1.61791412,0.56242844,0.98889198,-1.49366513

>  <Name>
1fmn_cryst

>  <RI>
0

>  <Rbt.Current_Directory>
/home/itssahil/PROJECTS/Mol_Feturizer/New_Systems/rnas/1fmn

>  <Rbt.Executable>
rbdock ($Id: //depot/dev/client3/rdock/2013.1/src/exe/rbdock.cxx#4 $)

>  <Rbt.Library>
libRbt.so (2013.1, Build901 2013/11/27)

>  <Rbt.Parameter_File>
/export/apps/rDock/src/rDock_2013.1_src/data/scripts/dock_solv.prm

>  <Rbt.Receptor>
prm/blind_docking_100.prm

>  <SCORE>
-35.3142

>  <SCORE.INTER>
-34.6608

>  <SCORE.INTER.CONST>
1

>  <SCORE.INTER.POLAR>
-1.23991

>  <SCORE.INTER.ROT>
7

>  <SCORE.INTER.SOLV>
32.0242

>  <SCORE.INTER.VDW>
-37.9155

>  <SCORE.INTER.norm>
-1.11809

>  <SCORE.INTRA>
-2.60574

>  <SCORE.INTRA.DIHEDRAL>
-2.13568

>  <SCORE.INTRA.DIHEDRAL.0>
15.5708

>  <SCORE.INTRA.POLAR>
-0.336282

>  <SCORE.INTRA.POLAR.0>
-0.0677885

>  <SCORE.INTRA.REPUL>
0

>  <SCORE.INTRA.REPUL.0>
0

>  <SCORE.INTRA.SOLV>
-3.81633

>  <SCORE.INTRA.SOLV.lig_0>
-87.6316

>  <SCORE.INTRA.VDW>
1.51362

>  <SCORE.INTRA.VDW.0>
-2.87309

>  <SCORE.INTRA.norm>
-0.0840562

>  <SCORE.RESTR>
1.95231

>  <SCORE.RESTR.CAVITY>
1.95231

>  <SCORE.RESTR.norm>
0.0629779

>  <SCORE.SYSTEM>
0

>  <SCORE.SYSTEM.CONST>
0

>  <SCORE.SYSTEM.DIHEDRAL>
0

>  <SCORE.SYSTEM.SOLV>
0

>  <SCORE.SYSTEM.norm>
0

>  <SCORE.heavy>
31

>  <SCORE.norm>
-1.13917

>  <SYMMETRIC_BONDS>
33 34 3

>  <RMSD>
9.098

$$$$
1fmn_cryst
 OpenBabel11021811393D
libRbt.so/2013.1/901 2013/11/27
 31 33  0  0  0  0  0  0  0  0999 V2000
  -10.1404   -4.3149   -3.0157 N   0  0  0  0  0  0  0  0  0  0  0  0
   -9.2788   -4.5172   -4.0684 C   0  0  0  0  0  0  0  0  0  0  0  0
   -9.6088   -4.2952   -5.2339 O   0  0  0  0  0  0  0  0  0  0  0  0
   -7.9909   -5.0013   -3.7272 N   0  0  0  0  0  0  0  0  0  0  0  0
   -7.5152   -5.2929   -2.4300 C   0  0  0  0  0  0  0  0  0  0  0  0
   -6.3608   -5.7105   -2.2737 O   0  0  0  0  0  0  0  0  0  0  0  0
   -8.4919   -5.0523   -1.3654 C   0  0  0  0  0  0  0  0  0  0  0  0
   -8.1067   -5.3113   -0.0736 N   0  0  0  0  0  0  0  0  0  0  0  0
   -9.0687   -5.2603    0.8931 C   0  0  0  0  0  0  0  0  0  0  0  0
   -8.7333   -5.6978    2.1622 C   0  0  0  0  0  0  0  0  0  0  0  0
   -9.6363   -5.6754    3.1698 C   0  0  0  0  0  0  0  0  0  0  0  0
   -9.2219   -6.1566    4.5238 C   0  0  0  0  0  0  0  0  0  0  0  0
  -10.8997   -5.2205    2.9508 C   0  0  0  0  0  0  0  0  0  0  0  0
  -11.8923   -5.2057    4.0673 C   0  0  0  0  0  0  0  0  0  0  0  0
  -11.2735   -4.7805    1.7221 C   0  0  0  0  0  0  0  0  0  0  0  0
  -10.3812   -4.7822    0.6501 C   0  0  0  0  0  0  0  0  0  0  0  0
  -10.7025   -4.3365   -0.6492 N   0  0  0  0  0  0  0  0  0  0  0  0
   -9.8030   -4.5567   -1.7125 C   0  0  0  0  0  0  0  0  0  0  0  0
  -11.6649   -3.1817   -0.7846 C   0  0  0  0  0  0  0  0  0  0  0  0
  -12.0692   -2.4594    0.5364 C   0  0  1  0  0  0  0  0  0  0  0  0
  -10.9343   -2.3047    1.3766 O   0  0  0  0  0  0  0  0  0  0  0  0
  -12.8047   -1.1191    0.2986 C   0  0  1  0  0  0  0  0  0  0  0  0
  -13.5312   -1.1654   -0.9260 O   0  0  0  0  0  0  0  0  0  0  0  0
  -13.7231   -0.6118    1.4375 C   0  0  1  0  0  0  0  0  0  0  0  0
  -15.0070   -1.2049    1.2772 O   0  0  0  0  0  0  0  0  0  0  0  0
  -13.1866   -0.9595    2.8442 C   0  0  0  0  0  0  0  0  0  0  0  0
  -12.1127   -0.1147    3.2405 O   0  0  0  0  0  0  0  0  0  0  0  0
  -12.3338    1.3696    3.7498 P   0  0  0  0  0  0  0  0  0  0  0  0
  -11.7260    2.3448    2.8163 O   0  0  0  0  0  0  0  0  0  0  0  0
  -13.7367    1.5726    4.1712 O   0  5  0  0  0  0  0  0  0  0  0  0
  -11.4567    1.4479    5.0762 O   0  5  0  0  0  0  0  0  0  0  0  0
  1 18  1  0  0  0  0
  1  2  1  0  0  0  0
  2  4  1  0  0  0  0
  2  3  2  0  0  0  0
  4  5  1  0  0  0  0
  5  7  1  0  0  0  0
  5  6  2  0  0  0  0
  7 18  2  0  0  0  0
  7  8  1  0  0  0  0
  8  9  1  0  0  0  0
  9 10  2  0  0  0  0
  9 16  1  0  0  0  0
 10 11  1  0  0  0  0
 11 12  1  0  0  0  0
 11 13  2  0  0  0  0
 13 14  1  0  0  0  0
 13 15  1  0  0  0  0
 15 16  2  0  0  0  0
 16 17  1  0  0  0  0
 17 19  1  0  0  0  0
 17 18  1  0  0  0  0
 20 19  1  6  0  0  0
 20 22  1  0  0  0  0
 20 21  1  0  0  0  0
 22 24  1  0  0  0  0
 22 23  1  6  0  0  0
 24 26  1  1  0  0  0
 24 25  1  0  0  0  0
 26 27  1  0  0  0  0
 27 28  1  0  0  0  0
 28 30  1  0  0  0  0
 28 29  2  0  0  0  0
 28 31  1  0  0  0  0
M  CHG  2  30  -1  31  -1
M  END
>  <CHROM.1>
8.01282219,41.29893194,29.83356013,-177.81461665,-86.08769181,-70.29367808
76.59653842,-47.94959158,77.14360833,-115.03006038,-10.88448246,-2.84359799
0.81621906,0.57305859,0.98143027,-1.47164544

>  <Name>
1fmn_cryst

>  <RI>
0

>  <Rbt.Current_Directory>
/home/itssahil/PROJECTS/Mol_Feturizer/New_Systems/rnas/1fmn

>  <Rbt.Executable>
rbdock ($Id: //depot/dev/client3/rdock/2013.1/src/exe/rbdock.cxx#4 $)

>  <Rbt.Library>
libRbt.so (2013.1, Build901 2013/11/27)

>  <Rbt.Parameter_File>
/export/apps/rDock/src/rDock_2013.1_src/data/scripts/dock_solv.prm

>  <Rbt.Receptor>
prm/blind_docking_80.prm

>  <SCORE>
-29.2458

>  <SCORE.INTER>
-34.5757

>  <SCORE.INTER.CONST>
1

>  <SCORE.INTER.POLAR>
-0.757336

>  <SCORE.INTER.ROT>
7

>  <SCORE.INTER.SOLV>
31.6081

>  <SCORE.INTER.VDW>
-39.3287

>  <SCORE.INTER.norm>
-1.11535

>  <SCORE.INTRA>
2.85642

>  <SCORE.INTRA.DIHEDRAL>
-1.3539

>  <SCORE.INTRA.DIHEDRAL.0>
15.5708

>  <SCORE.INTRA.POLAR>
-0.792448

>  <SCORE.INTRA.POLAR.0>
-0.0677885

>  <SCORE.INTRA.REPUL>
0

>  <SCORE.INTRA.REPUL.0>
0

>  <SCORE.INTRA.SOLV>
-2.55782

>  <SCORE.INTRA.SOLV.lig_0>
-87.6316

>  <SCORE.INTRA.VDW>
7.50661

>  <SCORE.INTRA.VDW.0>
-2.87309

>  <SCORE.INTRA.norm>
0.0921427

>  <SCORE.RESTR>
2.47344

>  <SCORE.RESTR.CAVITY>
2.47344

>  <SCORE.RESTR.norm>
0.0797884

>  <SCORE.SYSTEM>
0

>  <SCORE.SYSTEM.CONST>
0

>  <SCORE.SYSTEM.DIHEDRAL>
0

>  <SCORE.SYSTEM.SOLV>
0

>  <SCORE.SYSTEM.norm>
0

>  <SCORE.heavy>
31

>  <SCORE.norm>
-0.943414

>  <SYMMETRIC_BONDS>
33 34 3

>  <RMSD>
9.101

$$$$
1fmn_cryst
 OpenBabel11021811393D
libRbt.so/2013.1/901 2013/11/27
 31 33  0  0  0  0  0  0  0  0999 V2000
  -11.0591   -4.2401   -3.1000 N   0  0  0  0  0  0  0  0  0  0  0  0
  -10.6287   -4.1629   -4.4039 C   0  0  0  0  0  0  0  0  0  0  0  0
  -11.3825   -3.8385   -5.3221 O   0  0  0  0  0  0  0  0  0  0  0  0
   -9.2657   -4.4848   -4.6237 N   0  0  0  0  0  0  0  0  0  0  0  0
   -8.3221   -4.8729   -3.6474 C   0  0  0  0  0  0  0  0  0  0  0  0
   -7.1569   -5.1252   -3.9790 O   0  0  0  0  0  0  0  0  0  0  0  0
   -8.8583   -4.9318   -2.2857 C   0  0  0  0  0  0  0  0  0  0  0  0
   -8.0036   -5.3011   -1.2772 N   0  0  0  0  0  0  0  0  0  0  0  0
   -8.5442   -5.5301   -0.0452 C   0  0  0  0  0  0  0  0  0  0  0  0
   -7.7269   -6.0787    0.9272 C   0  0  0  0  0  0  0  0  0  0  0  0
   -8.1952   -6.3322    2.1713 C   0  0  0  0  0  0  0  0  0  0  0  0
   -7.2696   -6.9229    3.1866 C   0  0  0  0  0  0  0  0  0  0  0  0
   -9.4879   -6.0515    2.4897 C   0  0  0  0  0  0  0  0  0  0  0  0
   -9.9984   -6.3410    3.8636 C   0  0  0  0  0  0  0  0  0  0  0  0
  -10.3261   -5.5120    1.5683 C   0  0  0  0  0  0  0  0  0  0  0  0
   -9.8933   -5.2311    0.2724 C   0  0  0  0  0  0  0  0  0  0  0  0
  -10.7093   -4.6683   -0.7313 N   0  0  0  0  0  0  0  0  0  0  0  0
  -10.2461   -4.6014   -2.0613 C   0  0  0  0  0  0  0  0  0  0  0  0
  -11.7591   -3.6677   -0.3128 C   0  0  0  0  0  0  0  0  0  0  0  0
  -11.7395   -3.2289    1.1830 C   0  0  1  0  0  0  0  0  0  0  0  0
  -10.4088   -2.9477    1.5930 O   0  0  0  0  0  0  0  0  0  0  0  0
  -12.7027   -2.0570    1.4878 C   0  0  1  0  0  0  0  0  0  0  0  0
  -13.0086   -2.0188    2.8787 O   0  0  0  0  0  0  0  0  0  0  0  0
  -12.2707   -0.6508    1.0042 C   0  0  1  0  0  0  0  0  0  0  0  0
  -12.7521   -0.4644   -0.3222 O   0  0  0  0  0  0  0  0  0  0  0  0
  -12.8164    0.4870    1.8959 C   0  0  0  0  0  0  0  0  0  0  0  0
  -12.2741    0.4546    3.2108 O   0  0  0  0  0  0  0  0  0  0  0  0
  -12.8546    1.3286    4.3984 P   0  0  0  0  0  0  0  0  0  0  0  0
  -11.9019    1.3817    5.5305 O   0  0  0  0  0  0  0  0  0  0  0  0
  -13.4164    2.5970    3.8859 O   0  5  0  0  0  0  0  0  0  0  0  0
  -14.0921    0.4761    4.9244 O   0  5  0  0  0  0  0  0  0  0  0  0
  1 18  1  0  0  0  0
  1  2  1  0  0  0  0
  2  4  1  0  0  0  0
  2  3  2  0  0  0  0
  4  5  1  0  0  0  0
  5  7  1  0  0  0  0
  5  6  2  0  0  0  0
  7 18  2  0  0  0  0
  7  8  1  0  0  0  0
  8  9  1  0  0  0  0
  9 10  2  0  0  0  0
  9 16  1  0  0  0  0
 10 11  1  0  0  0  0
 11 12  1  0  0  0  0
 11 13  2  0  0  0  0
 13 14  1  0  0  0  0
 13 15  1  0  0  0  0
 15 16  2  0  0  0  0
 16 17  1  0  0  0  0
 17 19  1  0  0  0  0
 17 18  1  0  0  0  0
 20 19  1  6  0  0  0
 20 22  1  0  0  0  0
 20 21  1  0  0  0  0
 22 24  1  0  0  0  0
 22 23  1  1  0  0  0
 24 26  1  1  0  0  0
 24 25  1  0  0  0  0
 26 27  1  0  0  0  0
 27 28  1  0  0  0  0
 28 30  1  0  0  0  0
 28 29  2  0  0  0  0
 28 31  1  0  0  0  0
M  CHG  2  30  -1  31  -1
M  END
>  <CHROM.1>
6.53065866,45.17183812,159.03852286,-164.43526592,88.86696554,-161.91342941
65.56710626,58.09307008,-168.34225032,-164.72855197,-10.78511647,-2.99040392
0.68348307,0.74370171,0.96885820,-1.61275380

>  <Name>
1fmn_cryst

>  <RI>
0

>  <Rbt.Current_Directory>
/home/itssahil/PROJECTS/Mol_Feturizer/New_Systems/rnas/1fmn

>  <Rbt.Executable>
rbdock ($Id: //depot/dev/client3/rdock/2013.1/src/exe/rbdock.cxx#4 $)

>  <Rbt.Library>
libRbt.so (2013.1, Build901 2013/11/27)

>  <Rbt.Parameter_File>
/export/apps/rDock/src/rDock_2013.1_src/data/scripts/dock_solv.prm

>  <Rbt.Receptor>
prm/blind_docking_20.prm

>  <SCORE>
-27.0652

>  <SCORE.INTER>
-33.1816

>  <SCORE.INTER.CONST>
1

>  <SCORE.INTER.POLAR>
-1.88877

>  <SCORE.INTER.ROT>
7

>  <SCORE.INTER.SOLV>
29.5194

>  <SCORE.INTER.VDW>
-33.9317

>  <SCORE.INTER.norm>
-1.07038

>  <SCORE.INTRA>
2.18267

>  <SCORE.INTRA.DIHEDRAL>
-4.37767

>  <SCORE.INTRA.DIHEDRAL.0>
15.5708

>  <SCORE.INTRA.POLAR>
0.0677885

>  <SCORE.INTRA.POLAR.0>
-0.0677885

>  <SCORE.INTRA.REPUL>
0

>  <SCORE.INTRA.REPUL.0>
0

>  <SCORE.INTRA.SOLV>
-2.17472

>  <SCORE.INTRA.SOLV.lig_0>
-87.6316

>  <SCORE.INTRA.VDW>
5.22838

>  <SCORE.INTRA.VDW.0>
-2.87309

>  <SCORE.INTRA.norm>
0.0704086

>  <SCORE.RESTR>
3.93377

>  <SCORE.RESTR.CAVITY>
3.93377

>  <SCORE.RESTR.norm>
0.126896

>  <SCORE.SYSTEM>
0

>  <SCORE.SYSTEM.CONST>
0

>  <SCORE.SYSTEM.DIHEDRAL>
0

>  <SCORE.SYSTEM.SOLV>
0

>  <SCORE.SYSTEM.norm>
0

>  <SCORE.heavy>
31

>  <SCORE.norm>
-0.873071

>  <SYMMETRIC_BONDS>
33 34 3

>  <RMSD>
9.105

$$$$
1fmn_cryst
 OpenBabel11021811393D
libRbt.so/2013.1/901 2013/11/27
 31 33  0  0  0  0  0  0  0  0999 V2000
  -11.3530   -4.2035   -1.3404 N   0  0  0  0  0  0  0  0  0  0  0  0
  -11.0756   -3.9138   -2.6560 C   0  0  0  0  0  0  0  0  0  0  0  0
  -11.9536   -3.5684   -3.4474 O   0  0  0  0  0  0  0  0  0  0  0  0
   -9.7181   -4.0427   -3.0431 N   0  0  0  0  0  0  0  0  0  0  0  0
   -8.6395   -4.4357   -2.2206 C   0  0  0  0  0  0  0  0  0  0  0  0
   -7.4967   -4.5054   -2.6901 O   0  0  0  0  0  0  0  0  0  0  0  0
   -9.0171   -4.7272   -0.8358 C   0  0  0  0  0  0  0  0  0  0  0  0
   -8.0250   -5.1162    0.0294 N   0  0  0  0  0  0  0  0  0  0  0  0
   -8.4030   -5.5594    1.2635 C   0  0  0  0  0  0  0  0  0  0  0  0
   -7.4331   -6.1250    2.0720 C   0  0  0  0  0  0  0  0  0  0  0  0
   -7.7358   -6.5854    3.3081 C   0  0  0  0  0  0  0  0  0  0  0  0
   -6.6496   -7.1850    4.1430 C   0  0  0  0  0  0  0  0  0  0  0  0
   -9.0090   -6.5012    3.7803 C   0  0  0  0  0  0  0  0  0  0  0  0
   -9.3357   -7.0182    5.1433 C   0  0  0  0  0  0  0  0  0  0  0  0
   -9.9933   -5.9534    3.0227 C   0  0  0  0  0  0  0  0  0  0  0  0
   -9.7341   -5.4637    1.7426 C   0  0  0  0  0  0  0  0  0  0  0  0
  -10.7077   -4.8801    0.9051 N   0  0  0  0  0  0  0  0  0  0  0  0
  -10.3996   -4.5934   -0.4406 C   0  0  0  0  0  0  0  0  0  0  0  0
  -11.8054   -4.0705    1.5516 C   0  0  0  0  0  0  0  0  0  0  0  0
  -11.7898   -2.5368    1.2727 C   0  0  1  0  0  0  0  0  0  0  0  0
  -11.9774   -2.2896   -0.1135 O   0  0  0  0  0  0  0  0  0  0  0  0
  -12.7940   -1.7476    2.1461 C   0  0  1  0  0  0  0  0  0  0  0  0
  -12.5358   -1.9805    3.5276 O   0  0  0  0  0  0  0  0  0  0  0  0
  -12.9094   -0.2264    1.8805 C   0  0  1  0  0  0  0  0  0  0  0  0
  -13.6558   -0.0346    0.6838 O   0  0  0  0  0  0  0  0  0  0  0  0
  -13.6078    0.5347    3.0297 C   0  0  0  0  0  0  0  0  0  0  0  0
  -12.8035    0.6074    4.2010 O   0  0  0  0  0  0  0  0  0  0  0  0
  -13.3295    1.2207    5.5642 P   0  0  0  0  0  0  0  0  0  0  0  0
  -14.6029    0.5855    5.9732 O   0  0  0  0  0  0  0  0  0  0  0  0
  -12.2334    1.3100    6.5529 O   0  5  0  0  0  0  0  0  0  0  0  0
  -13.7061    2.7200    5.1831 O   0  5  0  0  0  0  0  0  0  0  0  0
  1 18  1  0  0  0  0
  1  2  1  0  0  0  0
  2  4  1  0  0  0  0
  2  3  2  0  0  0  0
  4  5  1  0  0  0  0
  5  7  1  0  0  0  0
  5  6  2  0  0  0  0
  7 18  2  0  0  0  0
  7  8  1  0  0  0  0
  8  9  1  0  0  0  0
  9 10  2  0  0  0  0
  9 16  1  0  0  0  0
 10 11  1  0  0  0  0
 11 12  1  0  0  0  0
 11 13  2  0  0  0  0
 13 14  1  0  0  0  0
 13 15  1  0  0  0  0
 15 16  2  0  0  0  0
 16 17  1  0  0  0  0
 17 19  1  0  0  0  0
 17 18  1  0  0  0  0
 20 19  1  6  0  0  0
 20 22  1  0  0  0  0
 20 21  1  0  0  0  0
 22 24  1  0  0  0  0
 22 23  1  1  0  0  0
 24 26  1  1  0  0  0
 24 25  1  0  0  0  0
 26 27  1  0  0  0  0
 27 28  1  0  0  0  0
 28 30  1  0  0  0  0
 28 29  2  0  0  0  0
 28 31  1  0  0  0  0
M  CHG  2  30  -1  31  -1
M  END
>  <CHROM.1>
112.11936300,63.03679766,57.03658483,-153.99378527,75.74185444,-64.20162912
70.64140479,-60.02769011,-174.48679194,52.93682285,-10.98578545,-2.91684933
1.81113761,0.61496964,0.91608231,-1.64729964

>  <Name>
1fmn_cryst

>  <RI>
0

>  <Rbt.Current_Directory>
/home/itssahil/PROJECTS/Mol_Feturizer/New_Systems/rnas/1fmn

>  <Rbt.Executable>
rbdock ($Id: //depot/dev/client3/rdock/2013.1/src/exe/rbdock.cxx#4 $)

>  <Rbt.Library>
libRbt.so (2013.1, Build901 2013/11/27)

>  <Rbt.Parameter_File>
/export/apps/rDock/src/rDock_2013.1_src/data/scripts/dock_solv.prm

>  <Rbt.Receptor>
prm/blind_docking_100.prm

>  <SCORE>
-33.2083

>  <SCORE.INTER>
-34.0312

>  <SCORE.INTER.CONST>
1

>  <SCORE.INTER.POLAR>
-1.30985

>  <SCORE.INTER.ROT>
7

>  <SCORE.INTER.SOLV>
30.9996

>  <SCORE.INTER.VDW>
-36.9212

>  <SCORE.INTER.norm>
-1.09778

>  <SCORE.INTRA>
-3.45262

>  <SCORE.INTRA.DIHEDRAL>
-9.07181

>  <SCORE.INTRA.DIHEDRAL.0>
15.5708

>  <SCORE.INTRA.POLAR>
0.0436531

>  <SCORE.INTRA.POLAR.0>
-0.0677885

>  <SCORE.INTRA.REPUL>
0

>  <SCORE.INTRA.REPUL.0>
0

>  <SCORE.INTRA.SOLV>
-2.79587

>  <SCORE.INTRA.SOLV.lig_0>
-87.6316

>  <SCORE.INTRA.VDW>
2.33281

>  <SCORE.INTRA.VDW.0>
-2.87309

>  <SCORE.INTRA.norm>
-0.111375

>  <SCORE.RESTR>
4.27553

>  <SCORE.RESTR.CAVITY>
4.27553

>  <SCORE.RESTR.norm>
0.13792

>  <SCORE.SYSTEM>
0

>  <SCORE.SYSTEM.CONST>
0

>  <SCORE.SYSTEM.DIHEDRAL>
0

>  <SCORE.SYSTEM.SOLV>
0

>  <SCORE.SYSTEM.norm>
0

>  <SCORE.heavy>
31

>  <SCORE.norm>
-1.07124

>  <SYMMETRIC_BONDS>
33 34 3

>  <RMSD>
9.108

$$$$
1fmn_cryst
 OpenBabel11021811393D
libRbt.so/2013.1/901 2013/11/27
 31 33  0  0  0  0  0  0  0  0999 V2000
  -11.3619   -4.2098   -1.2905 N   0  0  0  0  0  0  0  0  0  0  0  0
  -11.0778   -3.9181   -2.6041 C   0  0  0  0  0  0  0  0  0  0  0  0
  -11.9510   -3.5677   -3.3986 O   0  0  0  0  0  0  0  0  0  0  0  0
   -9.7190   -4.0513   -2.9856 N   0  0  0  0  0  0  0  0  0  0  0  0
   -8.6456   -4.4501   -2.1593 C   0  0  0  0  0  0  0  0  0  0  0  0
   -7.5010   -4.5229   -2.6240 O   0  0  0  0  0  0  0  0  0  0  0  0
   -9.0303   -4.7432   -0.7768 C   0  0  0  0  0  0  0  0  0  0  0  0
   -8.0434   -5.1378    0.0918 N   0  0  0  0  0  0  0  0  0  0  0  0
   -8.4285   -5.5824    1.3233 C   0  0  0  0  0  0  0  0  0  0  0  0
   -7.4642   -6.1534    2.1347 C   0  0  0  0  0  0  0  0  0  0  0  0
   -7.7740   -6.6154    3.3684 C   0  0  0  0  0  0  0  0  0  0  0  0
   -6.6937   -7.2209    4.2068 C   0  0  0  0  0  0  0  0  0  0  0  0
   -9.0489   -6.5275    3.8352 C   0  0  0  0  0  0  0  0  0  0  0  0
   -9.3835   -7.0464    5.1957 C   0  0  0  0  0  0  0  0  0  0  0  0
  -10.0278   -5.9744    3.0746 C   0  0  0  0  0  0  0  0  0  0  0  0
   -9.7612   -5.4828    1.7968 C   0  0  0  0  0  0  0  0  0  0  0  0
  -10.7290   -4.8938    0.9563 N   0  0  0  0  0  0  0  0  0  0  0  0
  -10.4140   -4.6051   -0.3874 C   0  0  0  0  0  0  0  0  0  0  0  0
  -11.8265   -4.0815    1.5998 C   0  0  0  0  0  0  0  0  0  0  0  0
  -11.7330   -2.5347    1.4297 C   0  0  1  0  0  0  0  0  0  0  0  0
  -11.8033   -2.1886    0.0538 O   0  0  0  0  0  0  0  0  0  0  0  0
  -12.7723   -1.7637    2.2779 C   0  0  1  0  0  0  0  0  0  0  0  0
  -13.0332   -2.4612    3.4924 O   0  0  0  0  0  0  0  0  0  0  0  0
  -12.4658   -0.2761    2.5797 C   0  0  1  0  0  0  0  0  0  0  0  0
  -11.8199    0.2890    1.4442 O   0  0  0  0  0  0  0  0  0  0  0  0
  -13.7343    0.5491    2.8923 C   0  0  0  0  0  0  0  0  0  0  0  0
  -14.0310    0.5837    4.2833 O   0  0  0  0  0  0  0  0  0  0  0  0
  -13.3350    1.5978    5.2825 P   0  0  0  0  0  0  0  0  0  0  0  0
  -14.1360    1.7569    6.5175 O   0  0  0  0  0  0  0  0  0  0  0  0
  -11.8922    1.2984    5.4081 O   0  5  0  0  0  0  0  0  0  0  0  0
  -13.4335    2.9971    4.5293 O   0  5  0  0  0  0  0  0  0  0  0  0
  1 18  1  0  0  0  0
  1  2  1  0  0  0  0
  2  4  1  0  0  0  0
  2  3  2  0  0  0  0
  4  5  1  0  0  0  0
  5  7  1  0  0  0  0
  5  6  2  0  0  0  0
  7 18  2  0  0  0  0
  7  8  1  0  0  0  0
  8  9  1  0  0  0  0
  9 10  2  0  0  0  0
  9 16  1  0  0  0  0
 10 11  1  0  0  0  0
 11 12  1  0  0  0  0
 11 13  2  0  0  0  0
 13 14  1  0  0  0  0
 13 15  1  0  0  0  0
 15 16  2  0  0  0  0
 16 17  1  0  0  0  0
 17 19  1  0  0  0  0
 17 18  1  0  0  0  0
 20 19  1  6  0  0  0
 20 22  1  0  0  0  0
 20 21  1  0  0  0  0
 22 24  1  0  0  0  0
 22 23  1  1  0  0  0
 24 26  1  6  0  0  0
 24 25  1  0  0  0  0
 26 27  1  0  0  0  0
 27 28  1  0  0  0  0
 28 30  1  0  0  0  0
 28 29  2  0  0  0  0
 28 31  1  0  0  0  0
M  CHG  2  30  -1  31  -1
M  END
>  <CHROM.1>
106.88655574,61.70799929,32.58277640,67.19939263,35.68842738,-160.03112333
91.59305777,59.04562798,82.78704631,159.88779531,-10.94214031,-2.85390271
1.83993484,0.54301649,0.96548269,-1.61184721

>  <Name>
1fmn_cryst

>  <RI>
0

>  <Rbt.Current_Directory>
/home/itssahil/PROJECTS/Mol_Feturizer/New_Systems/rnas/1fmn

>  <Rbt.Executable>
rbdock ($Id: //depot/dev/client3/rdock/2013.1/src/exe/rbdock.cxx#4 $)

>  <Rbt.Library>
libRbt.so (2013.1, Build901 2013/11/27)

>  <Rbt.Parameter_File>
/export/apps/rDock/src/rDock_2013.1_src/data/scripts/dock_solv.prm

>  <Rbt.Receptor>
prm/blind_docking_100.prm

>  <SCORE>
-31.5379

>  <SCORE.INTER>
-34.6844

>  <SCORE.INTER.CONST>
1

>  <SCORE.INTER.POLAR>
-1.56362

>  <SCORE.INTER.ROT>
7

>  <SCORE.INTER.SOLV>
30.9194

>  <SCORE.INTER.VDW>
-36.484

>  <SCORE.INTER.norm>
-1.11885

>  <SCORE.INTRA>
0.00444991

>  <SCORE.INTRA.DIHEDRAL>
-2.03807

>  <SCORE.INTRA.DIHEDRAL.0>
15.5708

>  <SCORE.INTRA.POLAR>
0.0677885

>  <SCORE.INTRA.POLAR.0>
-0.0677885

>  <SCORE.INTRA.REPUL>
0

>  <SCORE.INTRA.REPUL.0>
0

>  <SCORE.INTRA.SOLV>
-1.68364

>  <SCORE.INTRA.SOLV.lig_0>
-87.6316

>  <SCORE.INTRA.VDW>
1.63483

>  <SCORE.INTRA.VDW.0>
-2.87309

>  <SCORE.INTRA.norm>
0.000143545

>  <SCORE.RESTR>
3.14209

>  <SCORE.RESTR.CAVITY>
3.14209

>  <SCORE.RESTR.norm>
0.101358

>  <SCORE.SYSTEM>
0

>  <SCORE.SYSTEM.CONST>
0

>  <SCORE.SYSTEM.DIHEDRAL>
0

>  <SCORE.SYSTEM.SOLV>
0

>  <SCORE.SYSTEM.norm>
0

>  <SCORE.heavy>
31

>  <SCORE.norm>
-1.01735

>  <SYMMETRIC_BONDS>
33 34 3

>  <RMSD>
9.121

$$$$
1fmn_cryst
 OpenBabel11021811393D
libRbt.so/2013.1/901 2013/11/27
 31 33  0  0  0  0  0  0  0  0999 V2000
  -11.3512   -4.2597   -1.2594 N   0  0  0  0  0  0  0  0  0  0  0  0
  -11.0817   -3.9578   -2.5738 C   0  0  0  0  0  0  0  0  0  0  0  0
  -11.9690   -3.6359   -3.3648 O   0  0  0  0  0  0  0  0  0  0  0  0
   -9.7207   -4.0455   -2.9604 N   0  0  0  0  0  0  0  0  0  0  0  0
   -8.6315   -4.4091   -2.1383 C   0  0  0  0  0  0  0  0  0  0  0  0
   -7.4869   -4.4436   -2.6073 O   0  0  0  0  0  0  0  0  0  0  0  0
   -9.0012   -4.7159   -0.7547 C   0  0  0  0  0  0  0  0  0  0  0  0
   -7.9986   -5.0782    0.1099 N   0  0  0  0  0  0  0  0  0  0  0  0
   -8.3642   -5.5363    1.3424 C   0  0  0  0  0  0  0  0  0  0  0  0
   -7.3785   -6.0756    2.1498 C   0  0  0  0  0  0  0  0  0  0  0  0
   -7.6682   -6.5486    3.3842 C   0  0  0  0  0  0  0  0  0  0  0  0
   -6.5654   -7.1185    4.2181 C   0  0  0  0  0  0  0  0  0  0  0  0
   -8.9436   -6.5033    3.8558 C   0  0  0  0  0  0  0  0  0  0  0  0
   -9.2558   -7.0340    5.2170 C   0  0  0  0  0  0  0  0  0  0  0  0
   -9.9432   -5.9824    3.0992 C   0  0  0  0  0  0  0  0  0  0  0  0
   -9.6977   -5.4813    1.8209 C   0  0  0  0  0  0  0  0  0  0  0  0
  -10.6876   -4.9240    0.9845 N   0  0  0  0  0  0  0  0  0  0  0  0
  -10.3873   -4.6241   -0.3601 C   0  0  0  0  0  0  0  0  0  0  0  0
  -11.8090   -4.1490    1.6327 C   0  0  0  0  0  0  0  0  0  0  0  0
  -11.7886   -2.6033    1.4314 C   0  0  1  0  0  0  0  0  0  0  0  0
  -11.6555   -2.2913    0.0519 O   0  0  0  0  0  0  0  0  0  0  0  0
  -12.9997   -1.8879    2.0760 C   0  0  1  0  0  0  0  0  0  0  0  0
  -13.0970   -2.2288    3.4558 O   0  0  0  0  0  0  0  0  0  0  0  0
  -13.0776   -0.3508    1.9059 C   0  0  1  0  0  0  0  0  0  0  0  0
  -14.4430    0.0140    1.7370 O   0  0  0  0  0  0  0  0  0  0  0  0
  -12.5031    0.4193    3.1162 C   0  0  0  0  0  0  0  0  0  0  0  0
  -13.3563    0.3595    4.2531 O   0  0  0  0  0  0  0  0  0  0  0  0
  -13.3408    1.4589    5.3942 P   0  0  0  0  0  0  0  0  0  0  0  0
  -14.6097    1.4471    6.1570 O   0  0  0  0  0  0  0  0  0  0  0  0
  -12.0652    1.4168    6.1414 O   0  5  0  0  0  0  0  0  0  0  0  0
  -13.3399    2.8346    4.5927 O   0  5  0  0  0  0  0  0  0  0  0  0
  1 18  1  0  0  0  0
  1  2  1  0  0  0  0
  2  4  1  0  0  0  0
  2  3  2  0  0  0  0
  4  5  1  0  0  0  0
  5  7  1  0  0  0  0
  5  6  2  0  0  0  0
  7 18  2  0  0  0  0
  7  8  1  0  0  0  0
  8  9  1  0  0  0  0
  9 10  2  0  0  0  0
  9 16  1  0  0  0  0
 10 11  1  0  0  0  0
 11 12  1  0  0  0  0
 11 13  2  0  0  0  0
 13 14  1  0  0  0  0
 13 15  1  0  0  0  0
 15 16  2  0  0  0  0
 16 17  1  0  0  0  0
 17 19  1  0  0  0  0
 17 18  1  0  0  0  0
 20 19  1  6  0  0  0
 20 22  1  0  0  0  0
 20 21  1  0  0  0  0
 22 24  1  0  0  0  0
 22 23  1  1  0  0  0
 24 26  1  1  0  0  0
 24 25  1  0  0  0  0
 26 27  1  0  0  0  0
 27 28  1  0  0  0  0
 28 30  1  0  0  0  0
 28 29  2  0  0  0  0
 28 31  1  0  0  0  0
M  CHG  2  30  -1  31  -1
M  END
>  <CHROM.1>
108.47272995,51.23337912,54.56208811,-175.34374892,143.14626528,60.45545458
-73.03803410,-58.88837188,-155.38873146,158.85813012,-10.98695024,-2.89132551
1.86692362,0.59281628,0.91097805,-1.67218395

>  <Name>
1fmn_cryst

>  <RI>
0

>  <Rbt.Current_Directory>
/home/itssahil/PROJECTS/Mol_Feturizer/New_Systems/rnas/1fmn

>  <Rbt.Executable>
rbdock ($Id: //depot/dev/client3/rdock/2013.1/src/exe/rbdock.cxx#4 $)

>  <Rbt.Library>
libRbt.so (2013.1, Build901 2013/11/27)

>  <Rbt.Parameter_File>
/export/apps/rDock/src/rDock_2013.1_src/data/scripts/dock_solv.prm

>  <Rbt.Receptor>
prm/blind_docking_60.prm

>  <SCORE>
-34.0611

>  <SCORE.INTER>
-36.0355

>  <SCORE.INTER.CONST>
1

>  <SCORE.INTER.POLAR>
-1.80856

>  <SCORE.INTER.ROT>
7

>  <SCORE.INTER.SOLV>
30.5554

>  <SCORE.INTER.VDW>
-36.4469

>  <SCORE.INTER.norm>
-1.16243

>  <SCORE.INTRA>
-1.40248

>  <SCORE.INTRA.DIHEDRAL>
-5.8132

>  <SCORE.INTRA.DIHEDRAL.0>
15.5708

>  <SCORE.INTRA.POLAR>
0.0677885

>  <SCORE.INTRA.POLAR.0>
-0.0677885

>  <SCORE.INTRA.REPUL>
0

>  <SCORE.INTRA.REPUL.0>
0

>  <SCORE.INTRA.SOLV>
-2.91547

>  <SCORE.INTRA.SOLV.lig_0>
-87.6316

>  <SCORE.INTRA.VDW>
2.73137

>  <SCORE.INTRA.VDW.0>
-2.87309

>  <SCORE.INTRA.norm>
-0.0452413

>  <SCORE.RESTR>
3.37682

>  <SCORE.RESTR.CAVITY>
3.37682

>  <SCORE.RESTR.norm>
0.10893

>  <SCORE.SYSTEM>
0

>  <SCORE.SYSTEM.CONST>
0

>  <SCORE.SYSTEM.DIHEDRAL>
0

>  <SCORE.SYSTEM.SOLV>
0

>  <SCORE.SYSTEM.norm>
0

>  <SCORE.heavy>
31

>  <SCORE.norm>
-1.09875

>  <SYMMETRIC_BONDS>
33 34 3

>  <RMSD>
9.121

$$$$
1fmn_cryst
 OpenBabel11021811393D
libRbt.so/2013.1/901 2013/11/27
 31 33  0  0  0  0  0  0  0  0999 V2000
  -11.2909   -3.7208   -1.7768 N   0  0  0  0  0  0  0  0  0  0  0  0
  -10.8746   -3.6301   -3.0845 C   0  0  0  0  0  0  0  0  0  0  0  0
  -11.5881   -3.1477   -3.9647 O   0  0  0  0  0  0  0  0  0  0  0  0
   -9.5762   -4.1308   -3.3546 N   0  0  0  0  0  0  0  0  0  0  0  0
   -8.6833   -4.7067   -2.4244 C   0  0  0  0  0  0  0  0  0  0  0  0
   -7.5722   -5.1037   -2.7976 O   0  0  0  0  0  0  0  0  0  0  0  0
   -9.2007   -4.7676   -1.0556 C   0  0  0  0  0  0  0  0  0  0  0  0
   -8.3924   -5.3140   -0.0900 N   0  0  0  0  0  0  0  0  0  0  0  0
   -8.9409   -5.5347    1.1400 C   0  0  0  0  0  0  0  0  0  0  0  0
   -8.1963   -6.2508    2.0604 C   0  0  0  0  0  0  0  0  0  0  0  0
   -8.6765   -6.5067    3.2995 C   0  0  0  0  0  0  0  0  0  0  0  0
   -7.8300   -7.2825    4.2577 C   0  0  0  0  0  0  0  0  0  0  0  0
   -9.9097   -6.0626    3.6640 C   0  0  0  0  0  0  0  0  0  0  0  0
  -10.4349   -6.3556    5.0317 C   0  0  0  0  0  0  0  0  0  0  0  0
  -10.6756   -5.3554    2.7945 C   0  0  0  0  0  0  0  0  0  0  0  0
  -10.2274   -5.0643    1.5061 C   0  0  0  0  0  0  0  0  0  0  0  0
  -10.9693   -4.3325    0.5553 N   0  0  0  0  0  0  0  0  0  0  0  0
  -10.5223   -4.2551   -0.7797 C   0  0  0  0  0  0  0  0  0  0  0  0
  -11.8565   -3.2178    1.0539 C   0  0  0  0  0  0  0  0  0  0  0  0
  -12.0064   -1.9811    0.1169 C   0  0  1  0  0  0  0  0  0  0  0  0
  -13.1033   -2.1665   -0.7664 O   0  0  0  0  0  0  0  0  0  0  0  0
  -12.0973   -0.6410    0.8850 C   0  0  1  0  0  0  0  0  0  0  0  0
  -12.0951    0.4524   -0.0283 O   0  0  0  0  0  0  0  0  0  0  0  0
  -13.2660   -0.4867    1.8892 C   0  0  1  0  0  0  0  0  0  0  0  0
  -14.3695   -1.2506    1.4152 O   0  0  0  0  0  0  0  0  0  0  0  0
  -12.9042   -0.9658    3.3130 C   0  0  0  0  0  0  0  0  0  0  0  0
  -12.1349   -0.0074    4.0298 O   0  0  0  0  0  0  0  0  0  0  0  0
  -12.7867    1.2311    4.7732 P   0  0  0  0  0  0  0  0  0  0  0  0
  -11.9851    1.6194    5.9559 O   0  0  0  0  0  0  0  0  0  0  0  0
  -13.1699    2.2790    3.8026 O   0  5  0  0  0  0  0  0  0  0  0  0
  -14.1484    0.6474    5.3561 O   0  5  0  0  0  0  0  0  0  0  0  0
  1 18  1  0  0  0  0
  1  2  1  0  0  0  0
  2  4  1  0  0  0  0
  2  3  2  0  0  0  0
  4  5  1  0  0  0  0
  5  7  1  0  0  0  0
  5  6  2  0  0  0  0
  7 18  2  0  0  0  0
  7  8  1  0  0  0  0
  8  9  1  0  0  0  0
  9 10  2  0  0  0  0
  9 16  1  0  0  0  0
 10 11  1  0  0  0  0
 11 12  1  0  0  0  0
 11 13  2  0  0  0  0
 13 14  1  0  0  0  0
 13 15  1  0  0  0  0
 15 16  2  0  0  0  0
 16 17  1  0  0  0  0
 17 19  1  0  0  0  0
 17 18  1  0  0  0  0
 20 19  1  1  0  0  0
 20 22  1  0  0  0  0
 20 21  1  0  0  0  0
 22 24  1  0  0  0  0
 22 23  1  6  0  0  0
 24 26  1  1  0  0  0
 24 25  1  0  0  0  0
 26 27  1  0  0  0  0
 27 28  1  0  0  0  0
 28 30  1  0  0  0  0
 28 29  2  0  0  0  0
 28 31  1  0  0  0  0
M  CHG  2  30  -1  31  -1
M  END
>  <CHROM.1>
146.38697256,89.94485211,174.09467075,75.22010081,-30.71384923,-59.47776462
78.94329373,-179.74575034,81.66436438,149.74733233,-11.11267381,-2.78681958
1.34651574,0.59534385,1.00341147,-1.57387844

>  <Name>
1fmn_cryst

>  <RI>
0

>  <Rbt.Current_Directory>
/home/itssahil/PROJECTS/Mol_Feturizer/New_Systems/rnas/1fmn

>  <Rbt.Executable>
rbdock ($Id: //depot/dev/client3/rdock/2013.1/src/exe/rbdock.cxx#4 $)

>  <Rbt.Library>
libRbt.so (2013.1, Build901 2013/11/27)

>  <Rbt.Parameter_File>
/export/apps/rDock/src/rDock_2013.1_src/data/scripts/dock_solv.prm

>  <Rbt.Receptor>
prm/blind_docking_20.prm

>  <SCORE>
-33.9779

>  <SCORE.INTER>
-32.0485

>  <SCORE.INTER.CONST>
1

>  <SCORE.INTER.POLAR>
-1.01605

>  <SCORE.INTER.ROT>
7

>  <SCORE.INTER.SOLV>
29.6587

>  <SCORE.INTER.VDW>
-36.1317

>  <SCORE.INTER.norm>
-1.03382

>  <SCORE.INTRA>
-3.28721

>  <SCORE.INTRA.DIHEDRAL>
-2.6672

>  <SCORE.INTRA.DIHEDRAL.0>
15.5708

>  <SCORE.INTRA.POLAR>
-1.51619

>  <SCORE.INTRA.POLAR.0>
-0.0677885

>  <SCORE.INTRA.REPUL>
0

>  <SCORE.INTRA.REPUL.0>
0

>  <SCORE.INTRA.SOLV>
-1.35789

>  <SCORE.INTRA.SOLV.lig_0>
-87.6316

>  <SCORE.INTRA.VDW>
3.88037

>  <SCORE.INTRA.VDW.0>
-2.87309

>  <SCORE.INTRA.norm>
-0.106039

>  <SCORE.RESTR>
1.35782

>  <SCORE.RESTR.CAVITY>
1.35782

>  <SCORE.RESTR.norm>
0.0438008

>  <SCORE.SYSTEM>
0

>  <SCORE.SYSTEM.CONST>
0

>  <SCORE.SYSTEM.DIHEDRAL>
0

>  <SCORE.SYSTEM.SOLV>
0

>  <SCORE.SYSTEM.norm>
0

>  <SCORE.heavy>
31

>  <SCORE.norm>
-1.09606

>  <SYMMETRIC_BONDS>
33 34 3

>  <RMSD>
9.124

$$$$
1fmn_cryst
 OpenBabel11021811393D
libRbt.so/2013.1/901 2013/11/27
 31 33  0  0  0  0  0  0  0  0999 V2000
  -10.5623   -4.3479   -3.0513 N   0  0  0  0  0  0  0  0  0  0  0  0
   -9.7797   -4.4225   -4.1798 C   0  0  0  0  0  0  0  0  0  0  0  0
  -10.2416   -4.2445   -5.3074 O   0  0  0  0  0  0  0  0  0  0  0  0
   -8.4112   -4.7216   -3.9628 N   0  0  0  0  0  0  0  0  0  0  0  0
   -7.7839   -4.9485   -2.7181 C   0  0  0  0  0  0  0  0  0  0  0  0
   -6.5731   -5.1998   -2.6722 O   0  0  0  0  0  0  0  0  0  0  0  0
   -8.6843   -4.8522   -1.5669 C   0  0  0  0  0  0  0  0  0  0  0  0
   -8.1513   -5.0596   -0.3190 N   0  0  0  0  0  0  0  0  0  0  0  0
   -9.0196   -5.1486    0.7302 C   0  0  0  0  0  0  0  0  0  0  0  0
   -8.5128   -5.5396    1.9568 C   0  0  0  0  0  0  0  0  0  0  0  0
   -9.3151   -5.6488    3.0411 C   0  0  0  0  0  0  0  0  0  0  0  0
   -8.7167   -6.0723    4.3445 C   0  0  0  0  0  0  0  0  0  0  0  0
  -10.6443   -5.3756    2.9430 C   0  0  0  0  0  0  0  0  0  0  0  0
  -11.5241   -5.5054    4.1435 C   0  0  0  0  0  0  0  0  0  0  0  0
  -11.1857   -4.9878    1.7601 C   0  0  0  0  0  0  0  0  0  0  0  0
  -10.4026   -4.8593    0.6130 C   0  0  0  0  0  0  0  0  0  0  0  0
  -10.8994   -4.4582   -0.6450 N   0  0  0  0  0  0  0  0  0  0  0  0
  -10.0779   -4.5450   -1.7876 C   0  0  0  0  0  0  0  0  0  0  0  0
  -12.0223   -3.4500   -0.6748 C   0  0  0  0  0  0  0  0  0  0  0  0
  -11.8229   -2.1665    0.1873 C   0  0  1  0  0  0  0  0  0  0  0  0
  -12.7435   -1.1610   -0.2120 O   0  0  0  0  0  0  0  0  0  0  0  0
  -11.8816   -2.4385    1.7093 C   0  0  1  0  0  0  0  0  0  0  0  0
  -10.6272   -2.1365    2.3133 O   0  0  0  0  0  0  0  0  0  0  0  0
  -13.0251   -1.7561    2.4996 C   0  0  1  0  0  0  0  0  0  0  0  0
  -13.1381   -2.3937    3.7672 O   0  0  0  0  0  0  0  0  0  0  0  0
  -12.7861   -0.2458    2.7221 C   0  0  0  0  0  0  0  0  0  0  0  0
  -13.6368    0.2971    3.7250 O   0  0  0  0  0  0  0  0  0  0  0  0
  -13.3761    1.7083    4.3971 P   0  0  0  0  0  0  0  0  0  0  0  0
  -12.1937    1.6597    5.2868 O   0  0  0  0  0  0  0  0  0  0  0  0
  -13.4610    2.7886    3.3908 O   0  5  0  0  0  0  0  0  0  0  0  0
  -14.6267    1.9029    5.3631 O   0  5  0  0  0  0  0  0  0  0  0  0
  1 18  1  0  0  0  0
  1  2  1  0  0  0  0
  2  4  1  0  0  0  0
  2  3  2  0  0  0  0
  4  5  1  0  0  0  0
  5  7  1  0  0  0  0
  5  6  2  0  0  0  0
  7 18  2  0  0  0  0
  7  8  1  0  0  0  0
  8  9  1  0  0  0  0
  9 10  2  0  0  0  0
  9 16  1  0  0  0  0
 10 11  1  0  0  0  0
 11 12  1  0  0  0  0
 11 13  2  0  0  0  0
 13 14  1  0  0  0  0
 13 15  1  0  0  0  0
 15 16  2  0  0  0  0
 16 17  1  0  0  0  0
 17 19  1  0  0  0  0
 17 18  1  0  0  0  0
 20 19  1  6  0  0  0
 20 22  1  0  0  0  0
 20 21  1  0  0  0  0
 22 24  1  0  0  0  0
 22 23  1  1  0  0  0
 24 26  1  1  0  0  0
 24 25  1  0  0  0  0
 26 27  1  0  0  0  0
 27 28  1  0  0  0  0
 28 30  1  0  0  0  0
 28 29  2  0  0  0  0
 28 31  1  0  0  0  0
M  CHG  2  30  -1  31  -1
M  END
>  <CHROM.1>
49.63763218,163.73120138,116.52552548,-59.18792443,164.38545770,109.38587021
-164.61370649,-60.39979020,164.83302432,-70.72919652,-11.00604760,-2.81995109
1.09328409,0.56371263,1.00709276,-1.38290034

>  <Name>
1fmn_cryst

>  <RI>
0

>  <Rbt.Current_Directory>
/home/itssahil/PROJECTS/Mol_Feturizer/New_Systems/rnas/1fmn

>  <Rbt.Executable>
rbdock ($Id: //depot/dev/client3/rdock/2013.1/src/exe/rbdock.cxx#4 $)

>  <Rbt.Library>
libRbt.so (2013.1, Build901 2013/11/27)

>  <Rbt.Parameter_File>
/export/apps/rDock/src/rDock_2013.1_src/data/scripts/dock_solv.prm

>  <Rbt.Receptor>
prm/blind_docking_100.prm

>  <SCORE>
-8.65809

>  <SCORE.INTER>
-13.3607

>  <SCORE.INTER.CONST>
1

>  <SCORE.INTER.POLAR>
-1.07165

>  <SCORE.INTER.ROT>
7

>  <SCORE.INTER.SOLV>
28.1698

>  <SCORE.INTER.VDW>
-22.9916

>  <SCORE.INTER.norm>
-0.430991

>  <SCORE.INTRA>
3.00955

>  <SCORE.INTRA.DIHEDRAL>
1.2531

>  <SCORE.INTRA.DIHEDRAL.0>
15.5708

>  <SCORE.INTRA.POLAR>
0.0677885

>  <SCORE.INTRA.POLAR.0>
-0.0677885

>  <SCORE.INTRA.REPUL>
0

>  <SCORE.INTRA.REPUL.0>
0

>  <SCORE.INTRA.SOLV>
-3.84478

>  <SCORE.INTRA.SOLV.lig_0>
-87.6316

>  <SCORE.INTRA.VDW>
4.0749

>  <SCORE.INTRA.VDW.0>
-2.87309

>  <SCORE.INTRA.norm>
0.0970821

>  <SCORE.RESTR>
1.69307

>  <SCORE.RESTR.CAVITY>
1.69307

>  <SCORE.RESTR.norm>
0.0546151

>  <SCORE.SYSTEM>
0

>  <SCORE.SYSTEM.CONST>
0

>  <SCORE.SYSTEM.DIHEDRAL>
0

>  <SCORE.SYSTEM.SOLV>
0

>  <SCORE.SYSTEM.norm>
0

>  <SCORE.heavy>
31

>  <SCORE.norm>
-0.279293

>  <SYMMETRIC_BONDS>
33 34 3

>  <RMSD>
9.136

$$$$
1fmn_cryst
 OpenBabel11021811393D
libRbt.so/2013.1/901 2013/11/27
 31 33  0  0  0  0  0  0  0  0999 V2000
  -10.5756   -4.1881   -2.2514 N   0  0  0  0  0  0  0  0  0  0  0  0
   -9.9781   -4.1737   -3.4901 C   0  0  0  0  0  0  0  0  0  0  0  0
  -10.5735   -3.7902   -4.4975 O   0  0  0  0  0  0  0  0  0  0  0  0
   -8.6375   -4.6323   -3.5338 N   0  0  0  0  0  0  0  0  0  0  0  0
   -7.8686   -5.0971   -2.4443 C   0  0  0  0  0  0  0  0  0  0  0  0
   -6.7020   -5.4686   -2.6242 O   0  0  0  0  0  0  0  0  0  0  0  0
   -8.5759   -5.0820   -1.1619 C   0  0  0  0  0  0  0  0  0  0  0  0
   -7.8968   -5.5188   -0.0518 N   0  0  0  0  0  0  0  0  0  0  0  0
   -8.6091   -5.6745    1.1019 C   0  0  0  0  0  0  0  0  0  0  0  0
   -7.9805   -6.2866    2.1718 C   0  0  0  0  0  0  0  0  0  0  0  0
   -8.6254   -6.4736    3.3467 C   0  0  0  0  0  0  0  0  0  0  0  0
   -7.8994   -7.1376    4.4730 C   0  0  0  0  0  0  0  0  0  0  0  0
   -9.9133   -6.0615    3.4972 C   0  0  0  0  0  0  0  0  0  0  0  0
  -10.6199   -6.2781    4.7956 C   0  0  0  0  0  0  0  0  0  0  0  0
  -10.5700   -5.4556    2.4752 C   0  0  0  0  0  0  0  0  0  0  0  0
   -9.9508   -5.2386    1.2443 C   0  0  0  0  0  0  0  0  0  0  0  0
  -10.5728   -4.6130    0.1436 N   0  0  0  0  0  0  0  0  0  0  0  0
   -9.9407   -4.6124   -1.1168 C   0  0  0  0  0  0  0  0  0  0  0  0
  -11.5615   -3.5071    0.4225 C   0  0  0  0  0  0  0  0  0  0  0  0
  -11.6291   -2.9942    1.8931 C   0  0  1  0  0  0  0  0  0  0  0  0
  -10.3912   -2.4037    2.2628 O   0  0  0  0  0  0  0  0  0  0  0  0
  -12.8262   -2.0496    2.1554 C   0  0  1  0  0  0  0  0  0  0  0  0
  -13.4795   -2.4065    3.3701 O   0  0  0  0  0  0  0  0  0  0  0  0
  -12.5353   -0.5287    2.1405 C   0  0  1  0  0  0  0  0  0  0  0  0
  -11.9108   -0.2028    0.9036 O   0  0  0  0  0  0  0  0  0  0  0  0
  -13.8104    0.3303    2.2955 C   0  0  0  0  0  0  0  0  0  0  0  0
  -13.5670    1.5418    3.0004 O   0  0  0  0  0  0  0  0  0  0  0  0
  -13.3416    1.5899    4.5683 P   0  0  0  0  0  0  0  0  0  0  0  0
  -13.6899    2.9224    5.1118 O   0  0  0  0  0  0  0  0  0  0  0  0
  -13.9153    0.3898    5.2144 O   0  5  0  0  0  0  0  0  0  0  0  0
  -11.7622    1.4664    4.7263 O   0  5  0  0  0  0  0  0  0  0  0  0
  1 18  1  0  0  0  0
  1  2  1  0  0  0  0
  2  4  1  0  0  0  0
  2  3  2  0  0  0  0
  4  5  1  0  0  0  0
  5  7  1  0  0  0  0
  5  6  2  0  0  0  0
  7 18  2  0  0  0  0
  7  8  1  0  0  0  0
  8  9  1  0  0  0  0
  9 10  2  0  0  0  0
  9 16  1  0  0  0  0
 10 11  1  0  0  0  0
 11 12  1  0  0  0  0
 11 13  2  0  0  0  0
 13 14  1  0  0  0  0
 13 15  1  0  0  0  0
 15 16  2  0  0  0  0
 16 17  1  0  0  0  0
 17 19  1  0  0  0  0
 17 18  1  0  0  0  0
 20 19  1  6  0  0  0
 20 22  1  0  0  0  0
 20 21  1  0  0  0  0
 22 24  1  0  0  0  0
 22 23  1  1  0  0  0
 24 26  1  6  0  0  0
 24 25  1  0  0  0  0
 26 27  1  0  0  0  0
 27 28  1  0  0  0  0
 28 30  1  0  0  0  0
 28 29  2  0  0  0  0
 28 31  1  0  0  0  0
M  CHG  2  30  -1  31  -1
M  END
>  <CHROM.1>
9.89070548,63.82801927,134.58603394,143.32524459,54.62384554,-47.23649189
147.13270590,-173.59149619,-74.50973154,-155.48878102,-10.82394068,-2.94332169
1.47240389,0.39480563,1.01323338,-1.35357928

>  <Name>
1fmn_cryst

>  <RI>
0

>  <Rbt.Current_Directory>
/home/itssahil/PROJECTS/Mol_Feturizer/New_Systems/rnas/1fmn

>  <Rbt.Executable>
rbdock ($Id: //depot/dev/client3/rdock/2013.1/src/exe/rbdock.cxx#4 $)

>  <Rbt.Library>
libRbt.so (2013.1, Build901 2013/11/27)

>  <Rbt.Parameter_File>
/export/apps/rDock/src/rDock_2013.1_src/data/scripts/dock_solv.prm

>  <Rbt.Receptor>
prm/blind_docking_100.prm

>  <SCORE>
-11.0655

>  <SCORE.INTER>
-16.9146

>  <SCORE.INTER.CONST>
1

>  <SCORE.INTER.POLAR>
-1.417

>  <SCORE.INTER.ROT>
7

>  <SCORE.INTER.SOLV>
30.7737

>  <SCORE.INTER.VDW>
-25.0776

>  <SCORE.INTER.norm>
-0.545632

>  <SCORE.INTRA>
3.84299

>  <SCORE.INTRA.DIHEDRAL>
2.57877

>  <SCORE.INTRA.DIHEDRAL.0>
15.5708

>  <SCORE.INTRA.POLAR>
0.0677885

>  <SCORE.INTRA.POLAR.0>
-0.0677885

>  <SCORE.INTRA.REPUL>
0

>  <SCORE.INTRA.REPUL.0>
0

>  <SCORE.INTRA.SOLV>
-1.06487

>  <SCORE.INTRA.SOLV.lig_0>
-87.6316

>  <SCORE.INTRA.VDW>
2.85556

>  <SCORE.INTRA.VDW.0>
-2.87309

>  <SCORE.INTRA.norm>
0.123967

>  <SCORE.RESTR>
2.00607

>  <SCORE.RESTR.CAVITY>
2.00607

>  <SCORE.RESTR.norm>
0.064712

>  <SCORE.SYSTEM>
0

>  <SCORE.SYSTEM.CONST>
0

>  <SCORE.SYSTEM.DIHEDRAL>
0

>  <SCORE.SYSTEM.SOLV>
0

>  <SCORE.SYSTEM.norm>
0

>  <SCORE.heavy>
31

>  <SCORE.norm>
-0.356952

>  <SYMMETRIC_BONDS>
33 34 3

>  <RMSD>
9.138

$$$$
1fmn_cryst
 OpenBabel11021811393D
libRbt.so/2013.1/901 2013/11/27
 31 33  0  0  0  0  0  0  0  0999 V2000
  -11.3122   -4.3071   -1.3794 N   0  0  0  0  0  0  0  0  0  0  0  0
  -11.0319   -4.0275   -2.6965 C   0  0  0  0  0  0  0  0  0  0  0  0
  -11.9110   -3.7067   -3.4970 O   0  0  0  0  0  0  0  0  0  0  0  0
   -9.6699   -4.1368   -3.0740 N   0  0  0  0  0  0  0  0  0  0  0  0
   -8.5897   -4.5013   -2.2407 C   0  0  0  0  0  0  0  0  0  0  0  0
   -7.4430   -4.5561   -2.7027 O   0  0  0  0  0  0  0  0  0  0  0  0
   -8.9706   -4.7836   -0.8549 C   0  0  0  0  0  0  0  0  0  0  0  0
   -7.9771   -5.1451    0.0205 N   0  0  0  0  0  0  0  0  0  0  0  0
   -8.3548   -5.5809    1.2574 C   0  0  0  0  0  0  0  0  0  0  0  0
   -7.3800   -6.1200    2.0781 C   0  0  0  0  0  0  0  0  0  0  0  0
   -7.6822   -6.5716    3.3175 C   0  0  0  0  0  0  0  0  0  0  0  0
   -6.5908   -7.1423    4.1658 C   0  0  0  0  0  0  0  0  0  0  0  0
   -8.9595   -6.5045    3.7812 C   0  0  0  0  0  0  0  0  0  0  0  0
   -9.2854   -7.0117    5.1482 C   0  0  0  0  0  0  0  0  0  0  0  0
   -9.9486   -5.9828    3.0116 C   0  0  0  0  0  0  0  0  0  0  0  0
   -9.6903   -5.5033    1.7275 C   0  0  0  0  0  0  0  0  0  0  0  0
  -10.6688   -4.9466    0.8776 N   0  0  0  0  0  0  0  0  0  0  0  0
  -10.3576   -4.6697   -0.4695 C   0  0  0  0  0  0  0  0  0  0  0  0
  -11.7845   -4.1491    1.5082 C   0  0  0  0  0  0  0  0  0  0  0  0
  -11.7230   -2.6031    1.3182 C   0  0  1  0  0  0  0  0  0  0  0  0
  -12.1126   -2.2566   -0.0032 O   0  0  0  0  0  0  0  0  0  0  0  0
  -12.5282   -1.8245    2.3857 C   0  0  1  0  0  0  0  0  0  0  0  0
  -12.6810   -2.6143    3.5615 O   0  0  0  0  0  0  0  0  0  0  0  0
  -12.0124   -0.4137    2.7616 C   0  0  1  0  0  0  0  0  0  0  0  0
  -10.8811   -0.1178    1.9501 O   0  0  0  0  0  0  0  0  0  0  0  0
  -13.0739    0.6904    2.5568 C   0  0  0  0  0  0  0  0  0  0  0  0
  -14.0580    0.6954    3.5843 O   0  0  0  0  0  0  0  0  0  0  0  0
  -13.8935    1.5262    4.9236 P   0  0  0  0  0  0  0  0  0  0  0  0
  -12.8513    0.9308    5.7904 O   0  0  0  0  0  0  0  0  0  0  0  0
  -13.8306    2.9750    4.6339 O   0  5  0  0  0  0  0  0  0  0  0  0
  -15.2694    1.2862    5.6879 O   0  5  0  0  0  0  0  0  0  0  0  0
  1 18  1  0  0  0  0
  1  2  1  0  0  0  0
  2  4  1  0  0  0  0
  2  3  2  0  0  0  0
  4  5  1  0  0  0  0
  5  7  1  0  0  0  0
  5  6  2  0  0  0  0
  7 18  2  0  0  0  0
  7  8  1  0  0  0  0
  8  9  1  0  0  0  0
  9 10  2  0  0  0  0
  9 16  1  0  0  0  0
 10 11  1  0  0  0  0
 11 12  1  0  0  0  0
 11 13  2  0  0  0  0
 13 14  1  0  0  0  0
 13 15  1  0  0  0  0
 15 16  2  0  0  0  0
 16 17  1  0  0  0  0
 17 19  1  0  0  0  0
 17 18  1  0  0  0  0
 20 19  1  1  0  0  0
 20 22  1  0  0  0  0
 20 21  1  0  0  0  0
 22 24  1  0  0  0  0
 22 23  1  1  0  0  0
 24 26  1  6  0  0  0
 24 25  1  0  0  0  0
 26 27  1  0  0  0  0
 27 28  1  0  0  0  0
 28 30  1  0  0  0  0
 28 29  2  0  0  0  0
 28 31  1  0  0  0  0
M  CHG  2  30  -1  31  -1
M  END
>  <CHROM.1>
106.82881863,75.55087530,23.39359643,58.97399858,2.53276670,-71.63738315
76.35069086,-177.69368057,88.88285760,-70.79867232,-10.95111147,-2.92936810
1.75350570,0.49250773,0.92673709,-1.57788369

>  <Name>
1fmn_cryst

>  <RI>
0

>  <Rbt.Current_Directory>
/home/itssahil/PROJECTS/Mol_Feturizer/New_Systems/rnas/1fmn

>  <Rbt.Executable>
rbdock ($Id: //depot/dev/client3/rdock/2013.1/src/exe/rbdock.cxx#4 $)

>  <Rbt.Library>
libRbt.so (2013.1, Build901 2013/11/27)

>  <Rbt.Parameter_File>
/export/apps/rDock/src/rDock_2013.1_src/data/scripts/dock_solv.prm

>  <Rbt.Receptor>
prm/blind_docking_100.prm

>  <SCORE>
-34.0423

>  <SCORE.INTER>
-38.3899

>  <SCORE.INTER.CONST>
1

>  <SCORE.INTER.POLAR>
-1.68525

>  <SCORE.INTER.ROT>
7

>  <SCORE.INTER.SOLV>
29.6788

>  <SCORE.INTER.VDW>
-38.1354

>  <SCORE.INTER.norm>
-1.23838

>  <SCORE.INTRA>
0.891901

>  <SCORE.INTRA.DIHEDRAL>
0.870728

>  <SCORE.INTRA.DIHEDRAL.0>
15.5708

>  <SCORE.INTRA.POLAR>
0.0677885

>  <SCORE.INTRA.POLAR.0>
-0.0677885

>  <SCORE.INTRA.REPUL>
0

>  <SCORE.INTRA.REPUL.0>
0

>  <SCORE.INTRA.SOLV>
-2.63187

>  <SCORE.INTRA.SOLV.lig_0>
-87.6316

>  <SCORE.INTRA.VDW>
1.54199

>  <SCORE.INTRA.VDW.0>
-2.87309

>  <SCORE.INTRA.norm>
0.028771

>  <SCORE.RESTR>
3.45571

>  <SCORE.RESTR.CAVITY>
3.45571

>  <SCORE.RESTR.norm>
0.111475

>  <SCORE.SYSTEM>
0

>  <SCORE.SYSTEM.CONST>
0

>  <SCORE.SYSTEM.DIHEDRAL>
0

>  <SCORE.SYSTEM.SOLV>
0

>  <SCORE.SYSTEM.norm>
0

>  <SCORE.heavy>
31

>  <SCORE.norm>
-1.09814

>  <SYMMETRIC_BONDS>
33 34 3

>  <RMSD>
9.141

$$$$
1fmn_cryst
 OpenBabel11021811393D
libRbt.so/2013.1/901 2013/11/27
 31 33  0  0  0  0  0  0  0  0999 V2000
   -9.7538   -4.6622   -3.0130 N   0  0  0  0  0  0  0  0  0  0  0  0
   -8.9240   -4.7998   -4.1012 C   0  0  0  0  0  0  0  0  0  0  0  0
   -9.3111   -4.5792   -5.2492 O   0  0  0  0  0  0  0  0  0  0  0  0
   -7.5988   -5.2158   -3.8177 N   0  0  0  0  0  0  0  0  0  0  0  0
   -7.0574   -5.4997   -2.5447 C   0  0  0  0  0  0  0  0  0  0  0  0
   -5.8764   -5.8540   -2.4398 O   0  0  0  0  0  0  0  0  0  0  0  0
   -8.0037   -5.3305   -1.4397 C   0  0  0  0  0  0  0  0  0  0  0  0
   -7.5546   -5.5868   -0.1682 N   0  0  0  0  0  0  0  0  0  0  0  0
   -8.4795   -5.6045    0.8352 C   0  0  0  0  0  0  0  0  0  0  0  0
   -8.0710   -6.0416    2.0828 C   0  0  0  0  0  0  0  0  0  0  0  0
   -8.9339   -6.0852    3.1244 C   0  0  0  0  0  0  0  0  0  0  0  0
   -8.4409   -6.5627    4.4531 C   0  0  0  0  0  0  0  0  0  0  0  0
  -10.2282   -5.6988    2.9615 C   0  0  0  0  0  0  0  0  0  0  0  0
  -11.1757   -5.7566    4.1152 C   0  0  0  0  0  0  0  0  0  0  0  0
  -10.6736   -5.2621    1.7558 C   0  0  0  0  0  0  0  0  0  0  0  0
   -9.8250   -5.1974    0.6507 C   0  0  0  0  0  0  0  0  0  0  0  0
  -10.2210   -4.7510   -0.6276 N   0  0  0  0  0  0  0  0  0  0  0  0
   -9.3529   -4.9042   -1.7280 C   0  0  0  0  0  0  0  0  0  0  0  0
  -11.2508   -3.6502   -0.7063 C   0  0  0  0  0  0  0  0  0  0  0  0
  -11.7131   -3.0370    0.6503 C   0  0  1  0  0  0  0  0  0  0  0  0
  -10.5943   -2.8319    1.5012 O   0  0  0  0  0  0  0  0  0  0  0  0
  -12.5602   -1.7531    0.4825 C   0  0  1  0  0  0  0  0  0  0  0  0
  -13.5070   -1.9205   -0.5687 O   0  0  0  0  0  0  0  0  0  0  0  0
  -13.2681   -1.2101    1.7481 C   0  0  1  0  0  0  0  0  0  0  0  0
  -13.2015   -2.2062    2.7625 O   0  0  0  0  0  0  0  0  0  0  0  0
  -12.6289    0.0902    2.2850 C   0  0  0  0  0  0  0  0  0  0  0  0
  -13.4113    0.6994    3.3052 O   0  0  0  0  0  0  0  0  0  0  0  0
  -12.9336    1.9859    4.0977 P   0  0  0  0  0  0  0  0  0  0  0  0
  -14.0677    2.6221    4.8056 O   0  0  0  0  0  0  0  0  0  0  0  0
  -11.6958    1.7016    4.8554 O   0  5  0  0  0  0  0  0  0  0  0  0
  -12.5243    3.0074    2.9471 O   0  5  0  0  0  0  0  0  0  0  0  0
  1 18  1  0  0  0  0
  1  2  1  0  0  0  0
  2  4  1  0  0  0  0
  2  3  2  0  0  0  0
  4  5  1  0  0  0  0
  5  7  1  0  0  0  0
  5  6  2  0  0  0  0
  7 18  2  0  0  0  0
  7  8  1  0  0  0  0
  8  9  1  0  0  0  0
  9 10  2  0  0  0  0
  9 16  1  0  0  0  0
 10 11  1  0  0  0  0
 11 12  1  0  0  0  0
 11 13  2  0  0  0  0
 13 14  1  0  0  0  0
 13 15  1  0  0  0  0
 15 16  2  0  0  0  0
 16 17  1  0  0  0  0
 17 19  1  0  0  0  0
 17 18  1  0  0  0  0
 20 19  1  6  0  0  0
 20 22  1  0  0  0  0
 20 21  1  0  0  0  0
 22 24  1  0  0  0  0
 22 23  1  6  0  0  0
 24 26  1  1  0  0  0
 24 25  1  0  0  0  0
 26 27  1  0  0  0  0
 27 28  1  0  0  0  0
 28 30  1  0  0  0  0
 28 29  2  0  0  0  0
 28 31  1  0  0  0  0
M  CHG  2  30  -1  31  -1
M  END
>  <CHROM.1>
4.05910901,42.91197413,43.25920629,-174.49810249,-12.33578647,-179.30119797
170.24867029,-161.11742363,175.49254540,163.91715773,-10.59761695,-3.00440161
0.91961580,0.41708917,1.00926701,-1.37123149

>  <Name>
1fmn_cryst

>  <RI>
0

>  <Rbt.Current_Directory>
/home/itssahil/PROJECTS/Mol_Feturizer/New_Systems/rnas/1fmn

>  <Rbt.Executable>
rbdock ($Id: //depot/dev/client3/rdock/2013.1/src/exe/rbdock.cxx#4 $)

>  <Rbt.Library>
libRbt.so (2013.1, Build901 2013/11/27)

>  <Rbt.Parameter_File>
/export/apps/rDock/src/rDock_2013.1_src/data/scripts/dock_solv.prm

>  <Rbt.Receptor>
prm/blind_docking_100.prm

>  <SCORE>
-34.1252

>  <SCORE.INTER>
-37.3685

>  <SCORE.INTER.CONST>
1

>  <SCORE.INTER.POLAR>
-1.01456

>  <SCORE.INTER.ROT>
7

>  <SCORE.INTER.SOLV>
31.7942

>  <SCORE.INTER.VDW>
-40.3952

>  <SCORE.INTER.norm>
-1.20543

>  <SCORE.INTRA>
2.21699

>  <SCORE.INTRA.DIHEDRAL>
-4.01377

>  <SCORE.INTRA.DIHEDRAL.0>
15.5708

>  <SCORE.INTRA.POLAR>
-0.0950318

>  <SCORE.INTRA.POLAR.0>
-0.0677885

>  <SCORE.INTRA.REPUL>
0

>  <SCORE.INTRA.REPUL.0>
0

>  <SCORE.INTRA.SOLV>
-3.77278

>  <SCORE.INTRA.SOLV.lig_0>
-87.6316

>  <SCORE.INTRA.VDW>
6.43338

>  <SCORE.INTRA.VDW.0>
-2.87309

>  <SCORE.INTRA.norm>
0.0715159

>  <SCORE.RESTR>
1.0263

>  <SCORE.RESTR.CAVITY>
1.0263

>  <SCORE.RESTR.norm>
0.0331065

>  <SCORE.SYSTEM>
0

>  <SCORE.SYSTEM.CONST>
0

>  <SCORE.SYSTEM.DIHEDRAL>
0

>  <SCORE.SYSTEM.SOLV>
0

>  <SCORE.SYSTEM.norm>
0

>  <SCORE.heavy>
31

>  <SCORE.norm>
-1.10081

>  <SYMMETRIC_BONDS>
33 34 3

>  <RMSD>
9.145

$$$$
1fmn_cryst
 OpenBabel11021811393D
libRbt.so/2013.1/901 2013/11/27
 31 33  0  0  0  0  0  0  0  0999 V2000
  -11.4002   -3.7433   -1.2652 N   0  0  0  0  0  0  0  0  0  0  0  0
  -11.3866   -3.6009   -2.6331 C   0  0  0  0  0  0  0  0  0  0  0  0
  -12.2964   -3.0342   -3.2394 O   0  0  0  0  0  0  0  0  0  0  0  0
  -10.2631   -4.1516   -3.2994 N   0  0  0  0  0  0  0  0  0  0  0  0
   -9.1737   -4.8235   -2.7029 C   0  0  0  0  0  0  0  0  0  0  0  0
   -8.2525   -5.2554   -3.4073 O   0  0  0  0  0  0  0  0  0  0  0  0
   -9.2634   -4.9344   -1.2452 C   0  0  0  0  0  0  0  0  0  0  0  0
   -8.2422   -5.5747   -0.5884 N   0  0  0  0  0  0  0  0  0  0  0  0
   -8.4132   -5.8355    0.7402 C   0  0  0  0  0  0  0  0  0  0  0  0
   -7.4772   -6.6392    1.3666 C   0  0  0  0  0  0  0  0  0  0  0  0
   -7.5829   -6.9392    2.6819 C   0  0  0  0  0  0  0  0  0  0  0  0
   -6.5425   -7.8097    3.3115 C   0  0  0  0  0  0  0  0  0  0  0  0
   -8.6200   -6.4537    3.4166 C   0  0  0  0  0  0  0  0  0  0  0  0
   -8.7327   -6.7956    4.8666 C   0  0  0  0  0  0  0  0  0  0  0  0
   -9.5617   -5.6607    2.8447 C   0  0  0  0  0  0  0  0  0  0  0  0
   -9.4989   -5.3212    1.4933 C   0  0  0  0  0  0  0  0  0  0  0  0
  -10.4403   -4.5003    0.8377 N   0  0  0  0  0  0  0  0  0  0  0  0
  -10.4066   -4.3712   -0.5660 C   0  0  0  0  0  0  0  0  0  0  0  0
  -11.0639   -3.3713    1.6218 C   0  0  0  0  0  0  0  0  0  0  0  0
  -12.2446   -3.7537    2.5652 C   0  0  1  0  0  0  0  0  0  0  0  0
  -11.7675   -4.5263    3.6577 O   0  0  0  0  0  0  0  0  0  0  0  0
  -13.0720   -2.5327    3.0329 C   0  0  1  0  0  0  0  0  0  0  0  0
  -13.6378   -2.7825    4.3163 O   0  0  0  0  0  0  0  0  0  0  0  0
  -12.3571   -1.1591    3.0302 C   0  0  1  0  0  0  0  0  0  0  0  0
  -12.1014   -0.7883    1.6800 O   0  0  0  0  0  0  0  0  0  0  0  0
  -13.1902   -0.0449    3.7027 C   0  0  0  0  0  0  0  0  0  0  0  0
  -12.6543    1.2517    3.4670 O   0  0  0  0  0  0  0  0  0  0  0  0
  -13.1065    2.1565    2.2471 P   0  0  0  0  0  0  0  0  0  0  0  0
  -13.5248    1.3229    1.0972 O   0  0  0  0  0  0  0  0  0  0  0  0
  -14.0085    3.2355    2.7045 O   0  5  0  0  0  0  0  0  0  0  0  0
  -11.7596    2.8699    1.7868 O   0  5  0  0  0  0  0  0  0  0  0  0
  1 18  1  0  0  0  0
  1  2  1  0  0  0  0
  2  4  1  0  0  0  0
  2  3  2  0  0  0  0
  4  5  1  0  0  0  0
  5  7  1  0  0  0  0
  5  6  2  0  0  0  0
  7 18  2  0  0  0  0
  7  8  1  0  0  0  0
  8  9  1  0  0  0  0
  9 10  2  0  0  0  0
  9 16  1  0  0  0  0
 10 11  1  0  0  0  0
 11 12  1  0  0  0  0
 11 13  2  0  0  0  0
 13 14  1  0  0  0  0
 13 15  1  0  0  0  0
 15 16  2  0  0  0  0
 16 17  1  0  0  0  0
 17 19  1  0  0  0  0
 17 18  1  0  0  0  0
 20 19  1  1  0  0  0
 20 22  1  0  0  0  0
 20 21  1  0  0  0  0
 22 24  1  0  0  0  0
 22 23  1  1  0  0  0
 24 26  1  6  0  0  0
 24 25  1  0  0  0  0
 26 27  1  0  0  0  0
 27 28  1  0  0  0  0
 28 30  1  0  0  0  0
 28 29  2  0  0  0  0
 28 31  1  0  0  0  0
M  CHG  2  30  -1  31  -1
M  END
>  <CHROM.1>
-80.76604456,69.18359353,-150.78187920,-87.63524462,67.76752397,-159.75553934
-168.42585473,73.35516765,91.77318718,-29.53571148,-10.90304322,-2.98501094
1.28010046,0.11112776,1.02518191,-1.45765306

>  <Name>
1fmn_cryst

>  <RI>
0

>  <Rbt.Current_Directory>
/home/itssahil/PROJECTS/Mol_Feturizer/New_Systems/rnas/1fmn

>  <Rbt.Executable>
rbdock ($Id: //depot/dev/client3/rdock/2013.1/src/exe/rbdock.cxx#4 $)

>  <Rbt.Library>
libRbt.so (2013.1, Build901 2013/11/27)

>  <Rbt.Parameter_File>
/export/apps/rDock/src/rDock_2013.1_src/data/scripts/dock_solv.prm

>  <Rbt.Receptor>
prm/blind_docking_60.prm

>  <SCORE>
-21.7215

>  <SCORE.INTER>
-28.6134

>  <SCORE.INTER.CONST>
1

>  <SCORE.INTER.POLAR>
-0.590457

>  <SCORE.INTER.ROT>
7

>  <SCORE.INTER.SOLV>
23.6773

>  <SCORE.INTER.VDW>
-33.2665

>  <SCORE.INTER.norm>
-0.923011

>  <SCORE.INTRA>
3.36162

>  <SCORE.INTRA.DIHEDRAL>
1.23701

>  <SCORE.INTRA.DIHEDRAL.0>
15.5708

>  <SCORE.INTRA.POLAR>
-0.451812

>  <SCORE.INTRA.POLAR.0>
-0.0677885

>  <SCORE.INTRA.REPUL>
0

>  <SCORE.INTRA.REPUL.0>
0

>  <SCORE.INTRA.SOLV>
-0.0984992

>  <SCORE.INTRA.SOLV.lig_0>
-87.6316

>  <SCORE.INTRA.VDW>
4.32852

>  <SCORE.INTRA.VDW.0>
-2.87309

>  <SCORE.INTRA.norm>
0.108439

>  <SCORE.RESTR>
3.53025

>  <SCORE.RESTR.CAVITY>
3.53025

>  <SCORE.RESTR.norm>
0.113879

>  <SCORE.SYSTEM>
0

>  <SCORE.SYSTEM.CONST>
0

>  <SCORE.SYSTEM.DIHEDRAL>
0

>  <SCORE.SYSTEM.SOLV>
0

>  <SCORE.SYSTEM.norm>
0

>  <SCORE.heavy>
31

>  <SCORE.norm>
-0.700693

>  <SYMMETRIC_BONDS>
33 34 3

>  <RMSD>
9.146

$$$$
1fmn_cryst
 OpenBabel11021811393D
libRbt.so/2013.1/901 2013/11/27
 31 33  0  0  0  0  0  0  0  0999 V2000
  -10.3554   -4.4261   -2.4736 N   0  0  0  0  0  0  0  0  0  0  0  0
   -9.7094   -4.4456   -3.6876 C   0  0  0  0  0  0  0  0  0  0  0  0
  -10.2667   -4.0978   -4.7292 O   0  0  0  0  0  0  0  0  0  0  0  0
   -8.3653   -4.8954   -3.6640 N   0  0  0  0  0  0  0  0  0  0  0  0
   -7.6373   -5.3204   -2.5311 C   0  0  0  0  0  0  0  0  0  0  0  0
   -6.4621   -5.6886   -2.6532 O   0  0  0  0  0  0  0  0  0  0  0  0
   -8.3949   -5.2709   -1.2787 C   0  0  0  0  0  0  0  0  0  0  0  0
   -7.7577   -5.6681   -0.1296 N   0  0  0  0  0  0  0  0  0  0  0  0
   -8.5142   -5.7932    0.9994 C   0  0  0  0  0  0  0  0  0  0  0  0
   -7.9247   -6.3672    2.1118 C   0  0  0  0  0  0  0  0  0  0  0  0
   -8.6145   -6.5225    3.2657 C   0  0  0  0  0  0  0  0  0  0  0  0
   -7.9297   -7.1459    4.4399 C   0  0  0  0  0  0  0  0  0  0  0  0
   -9.9099   -6.1156    3.3524 C   0  0  0  0  0  0  0  0  0  0  0  0
  -10.6660   -6.2971    4.6280 C   0  0  0  0  0  0  0  0  0  0  0  0
  -10.5293   -5.5465    2.2869 C   0  0  0  0  0  0  0  0  0  0  0  0
   -9.8632   -5.3631    1.0752 C   0  0  0  0  0  0  0  0  0  0  0  0
  -10.4449   -4.7766   -0.0683 N   0  0  0  0  0  0  0  0  0  0  0  0
   -9.7634   -4.8103   -1.3021 C   0  0  0  0  0  0  0  0  0  0  0  0
  -11.4508   -3.6699    0.1368 C   0  0  0  0  0  0  0  0  0  0  0  0
  -11.6356   -3.1654    1.6002 C   0  0  1  0  0  0  0  0  0  0  0  0
  -10.4016   -2.6809    2.1103 O   0  0  0  0  0  0  0  0  0  0  0  0
  -12.7745   -2.1286    1.7489 C   0  0  1  0  0  0  0  0  0  0  0  0
  -13.2051   -2.0598    3.1052 O   0  0  0  0  0  0  0  0  0  0  0  0
  -12.4993   -0.7032    1.2102 C   0  0  1  0  0  0  0  0  0  0  0  0
  -13.6522    0.0972    1.4476 O   0  0  0  0  0  0  0  0  0  0  0  0
  -11.2803   -0.0306    1.8804 C   0  0  0  0  0  0  0  0  0  0  0  0
  -10.9862    1.2435    1.3197 O   0  0  0  0  0  0  0  0  0  0  0  0
  -11.7368    2.5674    1.7613 P   0  0  0  0  0  0  0  0  0  0  0  0
  -12.7550    2.2776    2.7963 O   0  0  0  0  0  0  0  0  0  0  0  0
  -10.7690    3.6584    2.0061 O   0  5  0  0  0  0  0  0  0  0  0  0
  -12.5581    2.9863    0.4632 O   0  5  0  0  0  0  0  0  0  0  0  0
  1 18  1  0  0  0  0
  1  2  1  0  0  0  0
  2  4  1  0  0  0  0
  2  3  2  0  0  0  0
  4  5  1  0  0  0  0
  5  7  1  0  0  0  0
  5  6  2  0  0  0  0
  7 18  2  0  0  0  0
  7  8  1  0  0  0  0
  8  9  1  0  0  0  0
  9 10  2  0  0  0  0
  9 16  1  0  0  0  0
 10 11  1  0  0  0  0
 11 12  1  0  0  0  0
 11 13  2  0  0  0  0
 13 14  1  0  0  0  0
 13 15  1  0  0  0  0
 15 16  2  0  0  0  0
 16 17  1  0  0  0  0
 17 19  1  0  0  0  0
 17 18  1  0  0  0  0
 20 19  1  6  0  0  0
 20 22  1  0  0  0  0
 20 21  1  0  0  0  0
 22 24  1  0  0  0  0
 22 23  1  1  0  0  0
 24 26  1  1  0  0  0
 24 25  1  0  0  0  0
 26 27  1  0  0  0  0
 27 28  1  0  0  0  0
 28 30  1  0  0  0  0
 28 29  2  0  0  0  0
 28 31  1  0  0  0  0
M  CHG  2  30  -1  31  -1
M  END
>  <CHROM.1>
6.67916157,59.03177460,159.70537342,-71.41019296,-179.54268273,-168.33676646
176.30999894,76.77618350,82.93858353,-0.43946586,-10.40947608,-2.84127763
0.74573052,-0.19758188,1.13340867,-1.07880398

>  <Name>
1fmn_cryst

>  <RI>
0

>  <Rbt.Current_Directory>
/home/itssahil/PROJECTS/Mol_Feturizer/New_Systems/rnas/1fmn

>  <Rbt.Executable>
rbdock ($Id: //depot/dev/client3/rdock/2013.1/src/exe/rbdock.cxx#4 $)

>  <Rbt.Library>
libRbt.so (2013.1, Build901 2013/11/27)

>  <Rbt.Parameter_File>
/export/apps/rDock/src/rDock_2013.1_src/data/scripts/dock_solv.prm

>  <Rbt.Receptor>
prm/blind_docking_20.prm

>  <SCORE>
-19.1212

>  <SCORE.INTER>
-23.1724

>  <SCORE.INTER.CONST>
1

>  <SCORE.INTER.POLAR>
-1.94625

>  <SCORE.INTER.ROT>
7

>  <SCORE.INTER.SOLV>
30.5268

>  <SCORE.INTER.VDW>
-27.4031

>  <SCORE.INTER.norm>
-0.747497

>  <SCORE.INTRA>
2.58935

>  <SCORE.INTRA.DIHEDRAL>
-4.42766

>  <SCORE.INTRA.DIHEDRAL.0>
15.5708

>  <SCORE.INTRA.POLAR>
-0.180722

>  <SCORE.INTRA.POLAR.0>
-0.0677885

>  <SCORE.INTRA.REPUL>
0

>  <SCORE.INTRA.REPUL.0>
0

>  <SCORE.INTRA.SOLV>
0.580064

>  <SCORE.INTRA.SOLV.lig_0>
-87.6316

>  <SCORE.INTRA.VDW>
5.12761

>  <SCORE.INTRA.VDW.0>
-2.87309

>  <SCORE.INTRA.norm>
0.0835276

>  <SCORE.RESTR>
1.46188

>  <SCORE.RESTR.CAVITY>
1.46188

>  <SCORE.RESTR.norm>
0.0471575

>  <SCORE.SYSTEM>
0

>  <SCORE.SYSTEM.CONST>
0

>  <SCORE.SYSTEM.DIHEDRAL>
0

>  <SCORE.SYSTEM.SOLV>
0

>  <SCORE.SYSTEM.norm>
0

>  <SCORE.heavy>
31

>  <SCORE.norm>
-0.616812

>  <SYMMETRIC_BONDS>
33 34 3

>  <RMSD>
9.149

$$$$
1fmn_cryst
 OpenBabel11021811393D
libRbt.so/2013.1/901 2013/11/27
 31 33  0  0  0  0  0  0  0  0999 V2000
  -11.1208   -3.6428   -1.6264 N   0  0  0  0  0  0  0  0  0  0  0  0
  -10.6454   -3.4421   -2.9013 C   0  0  0  0  0  0  0  0  0  0  0  0
  -11.3530   -2.9791   -3.7965 O   0  0  0  0  0  0  0  0  0  0  0  0
   -9.2929   -3.8063   -3.1197 N   0  0  0  0  0  0  0  0  0  0  0  0
   -8.4007   -4.3486   -2.1689 C   0  0  0  0  0  0  0  0  0  0  0  0
   -7.2387   -4.6210   -2.4958 O   0  0  0  0  0  0  0  0  0  0  0  0
   -8.9827   -4.5322   -0.8375 C   0  0  0  0  0  0  0  0  0  0  0  0
   -8.1793   -5.0549    0.1452 N   0  0  0  0  0  0  0  0  0  0  0  0
   -8.7696   -5.3926    1.3284 C   0  0  0  0  0  0  0  0  0  0  0  0
   -8.0111   -6.0874    2.2538 C   0  0  0  0  0  0  0  0  0  0  0  0
   -8.5307   -6.4543    3.4482 C   0  0  0  0  0  0  0  0  0  0  0  0
   -7.6674   -7.2012    4.4143 C   0  0  0  0  0  0  0  0  0  0  0  0
   -9.8182   -6.1458    3.7618 C   0  0  0  0  0  0  0  0  0  0  0  0
  -10.3859   -6.5609    5.0799 C   0  0  0  0  0  0  0  0  0  0  0  0
  -10.5997   -5.4646    2.8854 C   0  0  0  0  0  0  0  0  0  0  0  0
  -10.1126   -5.0629    1.6417 C   0  0  0  0  0  0  0  0  0  0  0  0
  -10.8682   -4.3506    0.6869 N   0  0  0  0  0  0  0  0  0  0  0  0
  -10.3597   -4.1589   -0.6141 C   0  0  0  0  0  0  0  0  0  0  0  0
  -11.8822   -3.3510    1.1880 C   0  0  0  0  0  0  0  0  0  0  0  0
  -12.0012   -2.0225    0.3813 C   0  0  1  0  0  0  0  0  0  0  0  0
  -12.8096   -2.2198   -0.7700 O   0  0  0  0  0  0  0  0  0  0  0  0
  -12.4891   -0.8300    1.2380 C   0  0  1  0  0  0  0  0  0  0  0  0
  -13.6853   -1.1763    1.9299 O   0  0  0  0  0  0  0  0  0  0  0  0
  -11.4687   -0.2125    2.2256 C   0  0  1  0  0  0  0  0  0  0  0  0
  -10.3833    0.3209    1.4751 O   0  0  0  0  0  0  0  0  0  0  0  0
  -12.0749    0.9136    3.0927 C   0  0  0  0  0  0  0  0  0  0  0  0
  -12.7922    0.4101    4.2135 O   0  0  0  0  0  0  0  0  0  0  0  0
  -13.4023    1.3513    5.3330 P   0  0  0  0  0  0  0  0  0  0  0  0
  -12.4483    1.5298    6.4510 O   0  0  0  0  0  0  0  0  0  0  0  0
  -14.0152    2.5529    4.7267 O   0  5  0  0  0  0  0  0  0  0  0  0
  -14.6035    0.4953    5.9322 O   0  5  0  0  0  0  0  0  0  0  0  0
  1 18  1  0  0  0  0
  1  2  1  0  0  0  0
  2  4  1  0  0  0  0
  2  3  2  0  0  0  0
  4  5  1  0  0  0  0
  5  7  1  0  0  0  0
  5  6  2  0  0  0  0
  7 18  2  0  0  0  0
  7  8  1  0  0  0  0
  8  9  1  0  0  0  0
  9 10  2  0  0  0  0
  9 16  1  0  0  0  0
 10 11  1  0  0  0  0
 11 12  1  0  0  0  0
 11 13  2  0  0  0  0
 13 14  1  0  0  0  0
 13 15  1  0  0  0  0
 15 16  2  0  0  0  0
 16 17  1  0  0  0  0
 17 19  1  0  0  0  0
 17 18  1  0  0  0  0
 20 19  1  1  0  0  0
 20 22  1  0  0  0  0
 20 21  1  0  0  0  0
 22 24  1  0  0  0  0
 22 23  1  1  0  0  0
 24 26  1  6  0  0  0
 24 25  1  0  0  0  0
 26 27  1  0  0  0  0
 27 28  1  0  0  0  0
 28 30  1  0  0  0  0
 28 29  2  0  0  0  0
 28 31  1  0  0  0  0
M  CHG  2  30  -1  31  -1
M  END
>  <CHROM.1>
140.79754480,80.99923925,-51.97340037,-179.56207484,62.82359025,72.52401164
81.90012357,63.21232611,174.41218015,-92.50703165,-10.97612968,-2.64270600
1.65104168,0.51140088,1.00773304,-1.44429989

>  <Name>
1fmn_cryst

>  <RI>
0

>  <Rbt.Current_Directory>
/home/itssahil/PROJECTS/Mol_Feturizer/New_Systems/rnas/1fmn

>  <Rbt.Executable>
rbdock ($Id: //depot/dev/client3/rdock/2013.1/src/exe/rbdock.cxx#4 $)

>  <Rbt.Library>
libRbt.so (2013.1, Build901 2013/11/27)

>  <Rbt.Parameter_File>
/export/apps/rDock/src/rDock_2013.1_src/data/scripts/dock_solv.prm

>  <Rbt.Receptor>
prm/blind_docking_100.prm

>  <SCORE>
-36.7162

>  <SCORE.INTER>
-34.6816

>  <SCORE.INTER.CONST>
1

>  <SCORE.INTER.POLAR>
-0.815777

>  <SCORE.INTER.ROT>
7

>  <SCORE.INTER.SOLV>
31.7516

>  <SCORE.INTER.VDW>
-39.2523

>  <SCORE.INTER.norm>
-1.11876

>  <SCORE.INTRA>
-3.46602

>  <SCORE.INTRA.DIHEDRAL>
-7.83116

>  <SCORE.INTRA.DIHEDRAL.0>
15.5708

>  <SCORE.INTRA.POLAR>
-0.419682

>  <SCORE.INTRA.POLAR.0>
-0.0677885

>  <SCORE.INTRA.REPUL>
0

>  <SCORE.INTRA.REPUL.0>
0

>  <SCORE.INTRA.SOLV>
-4.06657

>  <SCORE.INTRA.SOLV.lig_0>
-87.6316

>  <SCORE.INTRA.VDW>
3.90976

>  <SCORE.INTRA.VDW.0>
-2.87309

>  <SCORE.INTRA.norm>
-0.111807

>  <SCORE.RESTR>
1.43138

>  <SCORE.RESTR.CAVITY>
1.43138

>  <SCORE.RESTR.norm>
0.0461735

>  <SCORE.SYSTEM>
0

>  <SCORE.SYSTEM.CONST>
0

>  <SCORE.SYSTEM.DIHEDRAL>
0

>  <SCORE.SYSTEM.SOLV>
0

>  <SCORE.SYSTEM.norm>
0

>  <SCORE.heavy>
31

>  <SCORE.norm>
-1.18439

>  <SYMMETRIC_BONDS>
33 34 3

>  <RMSD>
9.150

$$$$
1fmn_cryst
 OpenBabel11021811393D
libRbt.so/2013.1/901 2013/11/27
 31 33  0  0  0  0  0  0  0  0999 V2000
   -9.9554   -4.5551   -3.0246 N   0  0  0  0  0  0  0  0  0  0  0  0
   -9.1719   -4.6659   -4.1495 C   0  0  0  0  0  0  0  0  0  0  0  0
   -9.6035   -4.4074   -5.2735 O   0  0  0  0  0  0  0  0  0  0  0  0
   -7.8401   -5.1007   -3.9333 N   0  0  0  0  0  0  0  0  0  0  0  0
   -7.2498   -5.4275   -2.6928 C   0  0  0  0  0  0  0  0  0  0  0  0
   -6.0688   -5.7941   -2.6471 O   0  0  0  0  0  0  0  0  0  0  0  0
   -8.1486   -5.2847   -1.5453 C   0  0  0  0  0  0  0  0  0  0  0  0
   -7.6504   -5.5832   -0.3015 N   0  0  0  0  0  0  0  0  0  0  0  0
   -8.5337   -5.6242    0.7380 C   0  0  0  0  0  0  0  0  0  0  0  0
   -8.0787   -6.1024    1.9540 C   0  0  0  0  0  0  0  0  0  0  0  0
   -8.8987   -6.1709    3.0284 C   0  0  0  0  0  0  0  0  0  0  0  0
   -8.3562   -6.6925    4.3207 C   0  0  0  0  0  0  0  0  0  0  0  0
  -10.1950   -5.7696    2.9305 C   0  0  0  0  0  0  0  0  0  0  0  0
  -11.0952   -5.8552    4.1198 C   0  0  0  0  0  0  0  0  0  0  0  0
  -10.6852   -5.2929    1.7578 C   0  0  0  0  0  0  0  0  0  0  0  0
   -9.8819   -5.2012    0.6212 C   0  0  0  0  0  0  0  0  0  0  0  0
  -10.3257   -4.7129   -0.6257 N   0  0  0  0  0  0  0  0  0  0  0  0
   -9.5046   -4.8393   -1.7650 C   0  0  0  0  0  0  0  0  0  0  0  0
  -11.3478   -3.6022   -0.6289 C   0  0  0  0  0  0  0  0  0  0  0  0
  -11.7537   -3.0315    0.7639 C   0  0  1  0  0  0  0  0  0  0  0  0
  -10.5977   -2.8214    1.5624 O   0  0  0  0  0  0  0  0  0  0  0  0
  -12.6351   -1.7633    0.6703 C   0  0  1  0  0  0  0  0  0  0  0  0
  -13.5873   -1.9007   -0.3804 O   0  0  0  0  0  0  0  0  0  0  0  0
  -13.3447   -1.3057    1.9683 C   0  0  1  0  0  0  0  0  0  0  0  0
  -12.8517   -2.0886    3.0499 O   0  0  0  0  0  0  0  0  0  0  0  0
  -13.1111    0.1879    2.2884 C   0  0  0  0  0  0  0  0  0  0  0  0
  -13.3687    0.4980    3.6528 O   0  0  0  0  0  0  0  0  0  0  0  0
  -13.0475    1.9156    4.2841 P   0  0  0  0  0  0  0  0  0  0  0  0
  -14.2780    2.7291    4.4104 O   0  0  0  0  0  0  0  0  0  0  0  0
  -12.1686    1.7733    5.4649 O   0  5  0  0  0  0  0  0  0  0  0  0
  -12.1740    2.6376    3.1658 O   0  5  0  0  0  0  0  0  0  0  0  0
  1 18  1  0  0  0  0
  1  2  1  0  0  0  0
  2  4  1  0  0  0  0
  2  3  2  0  0  0  0
  4  5  1  0  0  0  0
  5  7  1  0  0  0  0
  5  6  2  0  0  0  0
  7 18  2  0  0  0  0
  7  8  1  0  0  0  0
  8  9  1  0  0  0  0
  9 10  2  0  0  0  0
  9 16  1  0  0  0  0
 10 11  1  0  0  0  0
 11 12  1  0  0  0  0
 11 13  2  0  0  0  0
 13 14  1  0  0  0  0
 13 15  1  0  0  0  0
 15 16  2  0  0  0  0
 16 17  1  0  0  0  0
 17 19  1  0  0  0  0
 17 18  1  0  0  0  0
 20 19  1  6  0  0  0
 20 22  1  0  0  0  0
 20 21  1  0  0  0  0
 22 24  1  0  0  0  0
 22 23  1  6  0  0  0
 24 26  1  1  0  0  0
 24 25  1  0  0  0  0
 26 27  1  0  0  0  0
 27 28  1  0  0  0  0
 28 30  1  0  0  0  0
 28 29  2  0  0  0  0
 28 31  1  0  0  0  0
M  CHG  2  30  -1  31  -1
M  END
>  <CHROM.1>
3.78921531,44.87003619,40.37157674,-177.93619776,8.40781817,-62.06802625
-160.52680213,-66.82091618,172.73683057,101.68125099,-10.67942075,-3.00994816
0.95351359,0.46621262,1.00621690,-1.39731962

>  <Name>
1fmn_cryst

>  <RI>
0

>  <Rbt.Current_Directory>
/home/itssahil/PROJECTS/Mol_Feturizer/New_Systems/rnas/1fmn

>  <Rbt.Executable>
rbdock ($Id: //depot/dev/client3/rdock/2013.1/src/exe/rbdock.cxx#4 $)

>  <Rbt.Library>
libRbt.so (2013.1, Build901 2013/11/27)

>  <Rbt.Parameter_File>
/export/apps/rDock/src/rDock_2013.1_src/data/scripts/dock_solv.prm

>  <Rbt.Receptor>
prm/blind_docking_100.prm

>  <SCORE>
-29.4735

>  <SCORE.INTER>
-34.3375

>  <SCORE.INTER.CONST>
1

>  <SCORE.INTER.POLAR>
-0.481724

>  <SCORE.INTER.ROT>
7

>  <SCORE.INTER.SOLV>
30.2908

>  <SCORE.INTER.VDW>
-39.6495

>  <SCORE.INTER.norm>
-1.10766

>  <SCORE.INTRA>
3.4789

>  <SCORE.INTRA.DIHEDRAL>
-1.98119

>  <SCORE.INTRA.DIHEDRAL.0>
15.5708

>  <SCORE.INTRA.POLAR>
-0.242901

>  <SCORE.INTRA.POLAR.0>
-0.0677885

>  <SCORE.INTRA.REPUL>
0

>  <SCORE.INTRA.REPUL.0>
0

>  <SCORE.INTRA.SOLV>
-3.53322

>  <SCORE.INTRA.SOLV.lig_0>
-87.6316

>  <SCORE.INTRA.VDW>
7.06197

>  <SCORE.INTRA.VDW.0>
-2.87309

>  <SCORE.INTRA.norm>
0.112223

>  <SCORE.RESTR>
1.38506

>  <SCORE.RESTR.CAVITY>
1.38506

>  <SCORE.RESTR.norm>
0.0446794

>  <SCORE.SYSTEM>
0

>  <SCORE.SYSTEM.CONST>
0

>  <SCORE.SYSTEM.DIHEDRAL>
0

>  <SCORE.SYSTEM.SOLV>
0

>  <SCORE.SYSTEM.norm>
0

>  <SCORE.heavy>
31

>  <SCORE.norm>
-0.950758

>  <SYMMETRIC_BONDS>
33 34 3

>  <RMSD>
9.161

$$$$
1fmn_cryst
 OpenBabel11021811393D
libRbt.so/2013.1/901 2013/11/27
 31 33  0  0  0  0  0  0  0  0999 V2000
  -10.9091   -4.4181   -2.2668 N   0  0  0  0  0  0  0  0  0  0  0  0
  -10.3915   -4.2894   -3.5345 C   0  0  0  0  0  0  0  0  0  0  0  0
  -11.1036   -4.0423   -4.5083 O   0  0  0  0  0  0  0  0  0  0  0  0
   -8.9894   -4.4642   -3.6489 N   0  0  0  0  0  0  0  0  0  0  0  0
   -8.0868   -4.7548   -2.6025 C   0  0  0  0  0  0  0  0  0  0  0  0
   -6.8796   -4.8807   -2.8437 O   0  0  0  0  0  0  0  0  0  0  0  0
   -8.7156   -4.8768   -1.2853 C   0  0  0  0  0  0  0  0  0  0  0  0
   -7.9056   -5.1584   -0.2135 N   0  0  0  0  0  0  0  0  0  0  0  0
   -8.5109   -5.4493    0.9746 C   0  0  0  0  0  0  0  0  0  0  0  0
   -7.7164   -5.9130    2.0080 C   0  0  0  0  0  0  0  0  0  0  0  0
   -8.2483   -6.2207    3.2138 C   0  0  0  0  0  0  0  0  0  0  0  0
   -7.3451   -6.7149    4.2983 C   0  0  0  0  0  0  0  0  0  0  0  0
   -9.5838   -6.0801    3.4320 C   0  0  0  0  0  0  0  0  0  0  0  0
  -10.1637   -6.4286    4.7641 C   0  0  0  0  0  0  0  0  0  0  0  0
  -10.4021   -5.6278    2.4478 C   0  0  0  0  0  0  0  0  0  0  0  0
   -9.9043   -5.2965    1.1876 C   0  0  0  0  0  0  0  0  0  0  0  0
  -10.6968   -4.8184    0.1230 N   0  0  0  0  0  0  0  0  0  0  0  0
  -10.1436   -4.6963   -1.1681 C   0  0  0  0  0  0  0  0  0  0  0  0
  -11.8754   -3.9366    0.4572 C   0  0  0  0  0  0  0  0  0  0  0  0
  -11.7810   -2.4508   -0.0050 C   0  0  1  0  0  0  0  0  0  0  0  0
  -11.9425   -2.3654   -1.4137 O   0  0  0  0  0  0  0  0  0  0  0  0
  -12.7532   -1.5138    0.7505 C   0  0  1  0  0  0  0  0  0  0  0  0
  -14.0570   -1.5933    0.1819 O   0  0  0  0  0  0  0  0  0  0  0  0
  -12.8372   -1.6828    2.2875 C   0  0  1  0  0  0  0  0  0  0  0  0
  -11.9954   -2.7659    2.6671 O   0  0  0  0  0  0  0  0  0  0  0  0
  -12.3975   -0.4175    3.0578 C   0  0  0  0  0  0  0  0  0  0  0  0
  -13.2871    0.6752    2.8608 O   0  0  0  0  0  0  0  0  0  0  0  0
  -13.1038    2.0707    3.5891 P   0  0  0  0  0  0  0  0  0  0  0  0
  -13.1887    1.9151    5.0590 O   0  0  0  0  0  0  0  0  0  0  0  0
  -11.9552    2.8085    3.0204 O   0  5  0  0  0  0  0  0  0  0  0  0
  -14.4055    2.8874    3.1726 O   0  5  0  0  0  0  0  0  0  0  0  0
  1 18  1  0  0  0  0
  1  2  1  0  0  0  0
  2  4  1  0  0  0  0
  2  3  2  0  0  0  0
  4  5  1  0  0  0  0
  5  7  1  0  0  0  0
  5  6  2  0  0  0  0
  7 18  2  0  0  0  0
  7  8  1  0  0  0  0
  8  9  1  0  0  0  0
  9 10  2  0  0  0  0
  9 16  1  0  0  0  0
 10 11  1  0  0  0  0
 11 12  1  0  0  0  0
 11 13  2  0  0  0  0
 13 14  1  0  0  0  0
 13 15  1  0  0  0  0
 15 16  2  0  0  0  0
 16 17  1  0  0  0  0
 17 19  1  0  0  0  0
 17 18  1  0  0  0  0
 20 19  1  1  0  0  0
 20 22  1  0  0  0  0
 20 21  1  0  0  0  0
 22 24  1  0  0  0  0
 22 23  1  6  0  0  0
 24 26  1  1  0  0  0
 24 25  1  0  0  0  0
 26 27  1  0  0  0  0
 27 28  1  0  0  0  0
 28 30  1  0  0  0  0
 28 29  2  0  0  0  0
 28 31  1  0  0  0  0
M  CHG  2  30  -1  31  -1
M  END
>  <CHROM.1>
112.62289667,72.81712531,-81.53414012,-92.97456549,-2.73797753,-54.01455309
66.72452798,-93.47669617,177.15963526,-61.48130504,-10.87225702,-2.89701549
0.95724298,0.49105014,0.98309154,-1.60271917

>  <Name>
1fmn_cryst

>  <RI>
0

>  <Rbt.Current_Directory>
/home/itssahil/PROJECTS/Mol_Feturizer/New_Systems/rnas/1fmn

>  <Rbt.Executable>
rbdock ($Id: //depot/dev/client3/rdock/2013.1/src/exe/rbdock.cxx#4 $)

>  <Rbt.Library>
libRbt.so (2013.1, Build901 2013/11/27)

>  <Rbt.Parameter_File>
/export/apps/rDock/src/rDock_2013.1_src/data/scripts/dock_solv.prm

>  <Rbt.Receptor>
prm/blind_docking_40.prm

>  <SCORE>
-18.5078

>  <SCORE.INTER>
-26.2983

>  <SCORE.INTER.CONST>
1

>  <SCORE.INTER.POLAR>
-0.864102

>  <SCORE.INTER.ROT>
7

>  <SCORE.INTER.SOLV>
26.5253

>  <SCORE.INTER.VDW>
-31.7603

>  <SCORE.INTER.norm>
-0.848334

>  <SCORE.INTRA>
6.24115

>  <SCORE.INTRA.DIHEDRAL>
2.52352

>  <SCORE.INTRA.DIHEDRAL.0>
15.5708

>  <SCORE.INTRA.POLAR>
0.0364317

>  <SCORE.INTRA.POLAR.0>
-0.0677885

>  <SCORE.INTRA.REPUL>
0

>  <SCORE.INTRA.REPUL.0>
0

>  <SCORE.INTRA.SOLV>
-3.04541

>  <SCORE.INTRA.SOLV.lig_0>
-87.6316

>  <SCORE.INTRA.VDW>
6.37823

>  <SCORE.INTRA.VDW.0>
-2.87309

>  <SCORE.INTRA.norm>
0.201327

>  <SCORE.RESTR>
1.54943

>  <SCORE.RESTR.CAVITY>
1.54943

>  <SCORE.RESTR.norm>
0.0499815

>  <SCORE.SYSTEM>
0

>  <SCORE.SYSTEM.CONST>
0

>  <SCORE.SYSTEM.DIHEDRAL>
0

>  <SCORE.SYSTEM.SOLV>
0

>  <SCORE.SYSTEM.norm>
0

>  <SCORE.heavy>
31

>  <SCORE.norm>
-0.597025

>  <SYMMETRIC_BONDS>
33 34 3

>  <RMSD>
9.172

$$$$
1fmn_cryst
 OpenBabel11021811393D
libRbt.so/2013.1/901 2013/11/27
 31 33  0  0  0  0  0  0  0  0999 V2000
  -11.2856   -4.4076   -1.2543 N   0  0  0  0  0  0  0  0  0  0  0  0
  -10.9956   -4.0856   -2.5595 C   0  0  0  0  0  0  0  0  0  0  0  0
  -11.8752   -3.7967   -3.3715 O   0  0  0  0  0  0  0  0  0  0  0  0
   -9.6225   -4.1123   -2.9109 N   0  0  0  0  0  0  0  0  0  0  0  0
   -8.5403   -4.4344   -2.0629 C   0  0  0  0  0  0  0  0  0  0  0  0
   -7.3836   -4.4167   -2.5021 O   0  0  0  0  0  0  0  0  0  0  0  0
   -8.9321   -4.7661   -0.6911 C   0  0  0  0  0  0  0  0  0  0  0  0
   -7.9374   -5.0909    0.1973 N   0  0  0  0  0  0  0  0  0  0  0  0
   -8.3146   -5.5725    1.4172 C   0  0  0  0  0  0  0  0  0  0  0  0
   -7.3278   -6.0745    2.2470 C   0  0  0  0  0  0  0  0  0  0  0  0
   -7.6287   -6.5678    3.4708 C   0  0  0  0  0  0  0  0  0  0  0  0
   -6.5242   -7.0956    4.3299 C   0  0  0  0  0  0  0  0  0  0  0  0
   -8.9166   -6.5804    3.9092 C   0  0  0  0  0  0  0  0  0  0  0  0
   -9.2407   -7.1332    5.2588 C   0  0  0  0  0  0  0  0  0  0  0  0
   -9.9178   -6.0977    3.1298 C   0  0  0  0  0  0  0  0  0  0  0  0
   -9.6612   -5.5780    1.8611 C   0  0  0  0  0  0  0  0  0  0  0  0
  -10.6522   -5.0580    1.0023 N   0  0  0  0  0  0  0  0  0  0  0  0
  -10.3305   -4.7364   -0.3322 C   0  0  0  0  0  0  0  0  0  0  0  0
  -11.8223   -4.3362    1.6255 C   0  0  0  0  0  0  0  0  0  0  0  0
  -11.7454   -2.7793    1.6425 C   0  0  1  0  0  0  0  0  0  0  0  0
  -11.7996   -2.2722    0.3167 O   0  0  0  0  0  0  0  0  0  0  0  0
  -12.8065   -2.1260    2.5597 C   0  0  1  0  0  0  0  0  0  0  0  0
  -13.0389   -2.9417    3.7043 O   0  0  0  0  0  0  0  0  0  0  0  0
  -12.5490   -0.6633    2.9982 C   0  0  1  0  0  0  0  0  0  0  0  0
  -11.3476   -0.2142    2.3810 O   0  0  0  0  0  0  0  0  0  0  0  0
  -13.6971    0.2940    2.6071 C   0  0  0  0  0  0  0  0  0  0  0  0
  -13.6492    1.5216    3.3246 O   0  0  0  0  0  0  0  0  0  0  0  0
  -13.9921    1.6253    4.8683 P   0  0  0  0  0  0  0  0  0  0  0  0
  -15.3102    1.0168    5.1590 O   0  0  0  0  0  0  0  0  0  0  0  0
  -12.8297    1.2220    5.6887 O   0  5  0  0  0  0  0  0  0  0  0  0
  -14.1834    3.1876    5.1081 O   0  5  0  0  0  0  0  0  0  0  0  0
  1 18  1  0  0  0  0
  1  2  1  0  0  0  0
  2  4  1  0  0  0  0
  2  3  2  0  0  0  0
  4  5  1  0  0  0  0
  5  7  1  0  0  0  0
  5  6  2  0  0  0  0
  7 18  2  0  0  0  0
  7  8  1  0  0  0  0
  8  9  1  0  0  0  0
  9 10  2  0  0  0  0
  9 16  1  0  0  0  0
 10 11  1  0  0  0  0
 11 12  1  0  0  0  0
 11 13  2  0  0  0  0
 13 14  1  0  0  0  0
 13 15  1  0  0  0  0
 15 16  2  0  0  0  0
 16 17  1  0  0  0  0
 17 19  1  0  0  0  0
 17 18  1  0  0  0  0
 20 19  1  6  0  0  0
 20 22  1  0  0  0  0
 20 21  1  0  0  0  0
 22 24  1  0  0  0  0
 22 23  1  1  0  0  0
 24 26  1  6  0  0  0
 24 25  1  0  0  0  0
 26 27  1  0  0  0  0
 27 28  1  0  0  0  0
 28 30  1  0  0  0  0
 28 29  2  0  0  0  0
 28 31  1  0  0  0  0
M  CHG  2  30  -1  31  -1
M  END
>  <CHROM.1>
98.60794127,66.31775020,34.82434679,-177.59458059,2.17212810,126.53843255
163.14822327,-62.52067240,-71.12378452,-52.49116256,-10.99315413,-2.94950712
1.87644409,0.44584029,0.92171137,-1.57033772

>  <Name>
1fmn_cryst

>  <RI>
0

>  <Rbt.Current_Directory>
/home/itssahil/PROJECTS/Mol_Feturizer/New_Systems/rnas/1fmn

>  <Rbt.Executable>
rbdock ($Id: //depot/dev/client3/rdock/2013.1/src/exe/rbdock.cxx#4 $)

>  <Rbt.Library>
libRbt.so (2013.1, Build901 2013/11/27)

>  <Rbt.Parameter_File>
/export/apps/rDock/src/rDock_2013.1_src/data/scripts/dock_solv.prm

>  <Rbt.Receptor>
prm/blind_docking_100.prm

>  <SCORE>
-37.7887

>  <SCORE.INTER>
-42.4905

>  <SCORE.INTER.CONST>
1

>  <SCORE.INTER.POLAR>
-2.89738

>  <SCORE.INTER.ROT>
7

>  <SCORE.INTER.SOLV>
28.8659

>  <SCORE.INTER.VDW>
-36.5577

>  <SCORE.INTER.norm>
-1.37066

>  <SCORE.INTRA>
1.17532

>  <SCORE.INTRA.DIHEDRAL>
1.77151

>  <SCORE.INTRA.DIHEDRAL.0>
15.5708

>  <SCORE.INTRA.POLAR>
-0.0224493

>  <SCORE.INTRA.POLAR.0>
-0.0677885

>  <SCORE.INTRA.REPUL>
0

>  <SCORE.INTRA.REPUL.0>
0

>  <SCORE.INTRA.SOLV>
-1.74943

>  <SCORE.INTRA.SOLV.lig_0>
-87.6316

>  <SCORE.INTRA.VDW>
1.24061

>  <SCORE.INTRA.VDW.0>
-2.87309

>  <SCORE.INTRA.norm>
0.0379136

>  <SCORE.RESTR>
3.52645

>  <SCORE.RESTR.CAVITY>
3.52645

>  <SCORE.RESTR.norm>
0.113757

>  <SCORE.SYSTEM>
0

>  <SCORE.SYSTEM.CONST>
0

>  <SCORE.SYSTEM.DIHEDRAL>
0

>  <SCORE.SYSTEM.SOLV>
0

>  <SCORE.SYSTEM.norm>
0

>  <SCORE.heavy>
31

>  <SCORE.norm>
-1.21899

>  <SYMMETRIC_BONDS>
33 34 3

>  <RMSD>
9.174

$$$$
1fmn_cryst
 OpenBabel11021811393D
libRbt.so/2013.1/901 2013/11/27
 31 33  0  0  0  0  0  0  0  0999 V2000
  -11.3607   -4.2613   -1.3788 N   0  0  0  0  0  0  0  0  0  0  0  0
  -11.1121   -3.9919   -2.7044 C   0  0  0  0  0  0  0  0  0  0  0  0
  -12.0072   -3.6583   -3.4816 O   0  0  0  0  0  0  0  0  0  0  0  0
   -9.7633   -4.1273   -3.1190 N   0  0  0  0  0  0  0  0  0  0  0  0
   -8.6671   -4.5081   -2.3143 C   0  0  0  0  0  0  0  0  0  0  0  0
   -7.5349   -4.5855   -2.8076 O   0  0  0  0  0  0  0  0  0  0  0  0
   -9.0144   -4.7781   -0.9173 C   0  0  0  0  0  0  0  0  0  0  0  0
   -8.0036   -5.1542   -0.0682 N   0  0  0  0  0  0  0  0  0  0  0  0
   -8.3547   -5.5783    1.1806 C   0  0  0  0  0  0  0  0  0  0  0  0
   -7.3673   -6.1318    1.9763 C   0  0  0  0  0  0  0  0  0  0  0  0
   -7.6430   -6.5730    3.2256 C   0  0  0  0  0  0  0  0  0  0  0  0
   -6.5390   -7.1602    4.0458 C   0  0  0  0  0  0  0  0  0  0  0  0
   -8.9056   -6.4810    3.7241 C   0  0  0  0  0  0  0  0  0  0  0  0
   -9.2025   -6.9769    5.1018 C   0  0  0  0  0  0  0  0  0  0  0  0
   -9.9061   -5.9445    2.9800 C   0  0  0  0  0  0  0  0  0  0  0  0
   -9.6749   -5.4746    1.6872 C   0  0  0  0  0  0  0  0  0  0  0  0
  -10.6666   -4.9036    0.8622 N   0  0  0  0  0  0  0  0  0  0  0  0
  -10.3879   -4.6376   -0.4941 C   0  0  0  0  0  0  0  0  0  0  0  0
  -11.7498   -4.0836    1.5200 C   0  0  0  0  0  0  0  0  0  0  0  0
  -11.7741   -2.5639    1.1734 C   0  0  1  0  0  0  0  0  0  0  0  0
  -12.3331   -2.3654   -0.1174 O   0  0  0  0  0  0  0  0  0  0  0  0
  -12.4762   -1.7035    2.2507 C   0  0  1  0  0  0  0  0  0  0  0  0
  -12.7927   -2.4996    3.3889 O   0  0  0  0  0  0  0  0  0  0  0  0
  -11.7509   -0.4102    2.6971 C   0  0  1  0  0  0  0  0  0  0  0  0
  -10.9313    0.0387    1.6235 O   0  0  0  0  0  0  0  0  0  0  0  0
  -12.7258    0.7237    3.0864 C   0  0  0  0  0  0  0  0  0  0  0  0
  -12.8807    0.8474    4.4952 O   0  0  0  0  0  0  0  0  0  0  0  0
  -13.9063    1.8570    5.1587 P   0  0  0  0  0  0  0  0  0  0  0  0
  -13.7482    3.2172    4.5958 O   0  0  0  0  0  0  0  0  0  0  0  0
  -15.2606    1.2653    5.2106 O   0  5  0  0  0  0  0  0  0  0  0  0
  -13.4100    1.9616    6.6678 O   0  5  0  0  0  0  0  0  0  0  0  0
  1 18  1  0  0  0  0
  1  2  1  0  0  0  0
  2  4  1  0  0  0  0
  2  3  2  0  0  0  0
  4  5  1  0  0  0  0
  5  7  1  0  0  0  0
  5  6  2  0  0  0  0
  7 18  2  0  0  0  0
  7  8  1  0  0  0  0
  8  9  1  0  0  0  0
  9 10  2  0  0  0  0
  9 16  1  0  0  0  0
 10 11  1  0  0  0  0
 11 12  1  0  0  0  0
 11 13  2  0  0  0  0
 13 14  1  0  0  0  0
 13 15  1  0  0  0  0
 15 16  2  0  0  0  0
 16 17  1  0  0  0  0
 17 19  1  0  0  0  0
 17 18  1  0  0  0  0
 20 19  1  1  0  0  0
 20 22  1  0  0  0  0
 20 21  1  0  0  0  0
 22 24  1  0  0  0  0
 22 23  1  1  0  0  0
 24 26  1  6  0  0  0
 24 25  1  0  0  0  0
 26 27  1  0  0  0  0
 27 28  1  0  0  0  0
 28 30  1  0  0  0  0
 28 29  2  0  0  0  0
 28 31  1  0  0  0  0
M  CHG  2  30  -1  31  -1
M  END
>  <CHROM.1>
114.43292358,76.91184868,7.04993465,-164.17629681,26.98345525,148.39903239
100.70903539,-176.60659510,-175.20029502,-50.38284465,-10.92719062,-2.83069877
1.77120399,0.56445821,0.94448390,-1.63121482

>  <Name>
1fmn_cryst

>  <RI>
0

>  <Rbt.Current_Directory>
/home/itssahil/PROJECTS/Mol_Feturizer/New_Systems/rnas/1fmn

>  <Rbt.Executable>
rbdock ($Id: //depot/dev/client3/rdock/2013.1/src/exe/rbdock.cxx#4 $)

>  <Rbt.Library>
libRbt.so (2013.1, Build901 2013/11/27)

>  <Rbt.Parameter_File>
/export/apps/rDock/src/rDock_2013.1_src/data/scripts/dock_solv.prm

>  <Rbt.Receptor>
prm/blind_docking_40.prm

>  <SCORE>
-41.2913

>  <SCORE.INTER>
-46.8889

>  <SCORE.INTER.CONST>
1

>  <SCORE.INTER.POLAR>
-2.96377

>  <SCORE.INTER.ROT>
7

>  <SCORE.INTER.SOLV>
28.8859

>  <SCORE.INTER.VDW>
-39.2753

>  <SCORE.INTER.norm>
-1.51255

>  <SCORE.INTRA>
2.85348

>  <SCORE.INTRA.DIHEDRAL>
4.99078

>  <SCORE.INTRA.DIHEDRAL.0>
15.5708

>  <SCORE.INTRA.POLAR>
-0.000294245

>  <SCORE.INTRA.POLAR.0>
-0.0677885

>  <SCORE.INTRA.REPUL>
0

>  <SCORE.INTRA.REPUL.0>
0

>  <SCORE.INTRA.SOLV>
-4.20134

>  <SCORE.INTRA.SOLV.lig_0>
-87.6316

>  <SCORE.INTRA.VDW>
2.45976

>  <SCORE.INTRA.VDW.0>
-2.87309

>  <SCORE.INTRA.norm>
0.0920476

>  <SCORE.RESTR>
2.74411

>  <SCORE.RESTR.CAVITY>
2.74411

>  <SCORE.RESTR.norm>
0.0885197

>  <SCORE.SYSTEM>
0

>  <SCORE.SYSTEM.CONST>
0

>  <SCORE.SYSTEM.DIHEDRAL>
0

>  <SCORE.SYSTEM.SOLV>
0

>  <SCORE.SYSTEM.norm>
0

>  <SCORE.heavy>
31

>  <SCORE.norm>
-1.33198

>  <SYMMETRIC_BONDS>
33 34 3

>  <RMSD>
9.180

$$$$
1fmn_cryst
 OpenBabel11021811393D
libRbt.so/2013.1/901 2013/11/27
 31 33  0  0  0  0  0  0  0  0999 V2000
  -11.9982   -3.0767   -1.2362 N   0  0  0  0  0  0  0  0  0  0  0  0
  -12.1447   -2.8480   -2.5844 C   0  0  0  0  0  0  0  0  0  0  0  0
  -13.0908   -2.2033   -3.0380 O   0  0  0  0  0  0  0  0  0  0  0  0
  -11.1418   -3.4049   -3.4171 N   0  0  0  0  0  0  0  0  0  0  0  0
  -10.0244   -4.1619   -3.0018 C   0  0  0  0  0  0  0  0  0  0  0  0
   -9.2203   -4.5890   -3.8399 O   0  0  0  0  0  0  0  0  0  0  0  0
   -9.9407   -4.3616   -1.5532 C   0  0  0  0  0  0  0  0  0  0  0  0
   -8.8818   -5.0878   -1.0678 N   0  0  0  0  0  0  0  0  0  0  0  0
   -8.9023   -5.4250    0.2544 C   0  0  0  0  0  0  0  0  0  0  0  0
   -7.9402   -6.3084    0.7110 C   0  0  0  0  0  0  0  0  0  0  0  0
   -7.8997   -6.6867    2.0096 C   0  0  0  0  0  0  0  0  0  0  0  0
   -6.8373   -7.6415    2.4524 C   0  0  0  0  0  0  0  0  0  0  0  0
   -8.8120   -6.2029    2.8954 C   0  0  0  0  0  0  0  0  0  0  0  0
   -8.7641   -6.6313    4.3259 C   0  0  0  0  0  0  0  0  0  0  0  0
   -9.7737   -5.3334    2.4930 C   0  0  0  0  0  0  0  0  0  0  0  0
   -9.8590   -4.9115    1.1663 C   0  0  0  0  0  0  0  0  0  0  0  0
  -10.8292   -4.0089    0.6824 N   0  0  0  0  0  0  0  0  0  0  0  0
  -10.9608   -3.7921   -0.7046 C   0  0  0  0  0  0  0  0  0  0  0  0
  -11.2919   -2.9054    1.6025 C   0  0  0  0  0  0  0  0  0  0  0  0
  -12.4853   -3.2459    2.5458 C   0  0  1  0  0  0  0  0  0  0  0  0
  -12.0050   -3.8037    3.7608 O   0  0  0  0  0  0  0  0  0  0  0  0
  -13.4317   -2.0463    2.7899 C   0  0  1  0  0  0  0  0  0  0  0  0
  -13.4864   -1.7356    4.1791 O   0  0  0  0  0  0  0  0  0  0  0  0
  -13.1580   -0.7600    1.9724 C   0  0  1  0  0  0  0  0  0  0  0  0
  -13.3052   -1.0662    0.5902 O   0  0  0  0  0  0  0  0  0  0  0  0
  -14.1174    0.3971    2.3304 C   0  0  0  0  0  0  0  0  0  0  0  0
  -14.0450    0.7576    3.7048 O   0  0  0  0  0  0  0  0  0  0  0  0
  -13.0746    1.8887    4.2434 P   0  0  0  0  0  0  0  0  0  0  0  0
  -11.8908    2.0317    3.3659 O   0  0  0  0  0  0  0  0  0  0  0  0
  -13.8385    3.1023    4.6049 O   0  5  0  0  0  0  0  0  0  0  0  0
  -12.5199    1.2904    5.6106 O   0  5  0  0  0  0  0  0  0  0  0  0
  1 18  1  0  0  0  0
  1  2  1  0  0  0  0
  2  4  1  0  0  0  0
  2  3  2  0  0  0  0
  4  5  1  0  0  0  0
  5  7  1  0  0  0  0
  5  6  2  0  0  0  0
  7 18  2  0  0  0  0
  7  8  1  0  0  0  0
  8  9  1  0  0  0  0
  9 10  2  0  0  0  0
  9 16  1  0  0  0  0
 10 11  1  0  0  0  0
 11 12  1  0  0  0  0
 11 13  2  0  0  0  0
 13 14  1  0  0  0  0
 13 15  1  0  0  0  0
 15 16  2  0  0  0  0
 16 17  1  0  0  0  0
 17 19  1  0  0  0  0
 17 18  1  0  0  0  0
 20 19  1  6  0  0  0
 20 22  1  0  0  0  0
 20 21  1  0  0  0  0
 22 24  1  0  0  0  0
 22 23  1  1  0  0  0
 24 26  1  1  0  0  0
 24 25  1  0  0  0  0
 26 27  1  0  0  0  0
 27 28  1  0  0  0  0
 28 30  1  0  0  0  0
 28 29  2  0  0  0  0
 28 31  1  0  0  0  0
M  CHG  2  30  -1  31  -1
M  END
>  <CHROM.1>
-87.88533626,88.48326639,-120.32454588,-75.91156227,61.82014498,-56.60902705
58.90769964,-172.56129193,91.96395999,-26.98357351,-11.31664103,-2.67203131
1.40503296,0.60955087,0.95527021,-1.71664699

>  <Name>
1fmn_cryst

>  <RI>
0

>  <Rbt.Current_Directory>
/home/itssahil/PROJECTS/Mol_Feturizer/New_Systems/rnas/1fmn

>  <Rbt.Executable>
rbdock ($Id: //depot/dev/client3/rdock/2013.1/src/exe/rbdock.cxx#4 $)

>  <Rbt.Library>
libRbt.so (2013.1, Build901 2013/11/27)

>  <Rbt.Parameter_File>
/export/apps/rDock/src/rDock_2013.1_src/data/scripts/dock_solv.prm

>  <Rbt.Receptor>
prm/blind_docking_20.prm

>  <SCORE>
-7.16261

>  <SCORE.INTER>
-8.8965

>  <SCORE.INTER.CONST>
1

>  <SCORE.INTER.POLAR>
0

>  <SCORE.INTER.ROT>
7

>  <SCORE.INTER.SOLV>
27.7743

>  <SCORE.INTER.VDW>
-23.4558

>  <SCORE.INTER.norm>
-0.286984

>  <SCORE.INTRA>
-0.523567

>  <SCORE.INTRA.DIHEDRAL>
1.619

>  <SCORE.INTRA.DIHEDRAL.0>
15.5708

>  <SCORE.INTRA.POLAR>
-0.877669

>  <SCORE.INTRA.POLAR.0>
-0.0677885

>  <SCORE.INTRA.REPUL>
0

>  <SCORE.INTRA.REPUL.0>
0

>  <SCORE.INTRA.SOLV>
-0.636991

>  <SCORE.INTRA.SOLV.lig_0>
-87.6316

>  <SCORE.INTRA.VDW>
1.9695

>  <SCORE.INTRA.VDW.0>
-2.87309

>  <SCORE.INTRA.norm>
-0.0168893

>  <SCORE.RESTR>
2.25746

>  <SCORE.RESTR.CAVITY>
2.25746

>  <SCORE.RESTR.norm>
0.0728213

>  <SCORE.SYSTEM>
0

>  <SCORE.SYSTEM.CONST>
0

>  <SCORE.SYSTEM.DIHEDRAL>
0

>  <SCORE.SYSTEM.SOLV>
0

>  <SCORE.SYSTEM.norm>
0

>  <SCORE.heavy>
31

>  <SCORE.norm>
-0.231052

>  <SYMMETRIC_BONDS>
33 34 3

>  <RMSD>
9.185

$$$$
1fmn_cryst
 OpenBabel11021811393D
libRbt.so/2013.1/901 2013/11/27
 31 33  0  0  0  0  0  0  0  0999 V2000
  -11.0658   -3.9326   -2.2833 N   0  0  0  0  0  0  0  0  0  0  0  0
  -10.5173   -3.9290   -3.5445 C   0  0  0  0  0  0  0  0  0  0  0  0
  -11.1549   -3.5634   -4.5325 O   0  0  0  0  0  0  0  0  0  0  0  0
   -9.1754   -4.3769   -3.6348 N   0  0  0  0  0  0  0  0  0  0  0  0
   -8.3604   -4.8212   -2.5706 C   0  0  0  0  0  0  0  0  0  0  0  0
   -7.1984   -5.1851   -2.7914 O   0  0  0  0  0  0  0  0  0  0  0  0
   -9.0172   -4.7957   -1.2617 C   0  0  0  0  0  0  0  0  0  0  0  0
   -8.2916   -5.2126   -0.1737 N   0  0  0  0  0  0  0  0  0  0  0  0
   -8.9569   -5.3594    1.0088 C   0  0  0  0  0  0  0  0  0  0  0  0
   -8.2816   -5.9525    2.0608 C   0  0  0  0  0  0  0  0  0  0  0  0
   -8.8784   -6.1299    3.2623 C   0  0  0  0  0  0  0  0  0  0  0  0
   -8.1032   -6.7733    4.3675 C   0  0  0  0  0  0  0  0  0  0  0  0
  -10.1631   -5.7267    3.4579 C   0  0  0  0  0  0  0  0  0  0  0  0
  -10.8165   -5.9327    4.7856 C   0  0  0  0  0  0  0  0  0  0  0  0
  -10.8645   -5.1395    2.4550 C   0  0  0  0  0  0  0  0  0  0  0  0
  -10.2958   -4.9331    1.1982 C   0  0  0  0  0  0  0  0  0  0  0  0
  -10.9658   -4.3268    0.1149 N   0  0  0  0  0  0  0  0  0  0  0  0
  -10.3834   -4.3370   -1.1691 C   0  0  0  0  0  0  0  0  0  0  0  0
  -11.9527   -3.2258    0.4186 C   0  0  0  0  0  0  0  0  0  0  0  0
  -11.6877   -2.3964    1.7117 C   0  0  1  0  0  0  0  0  0  0  0  0
  -11.0163   -1.1871    1.3884 O   0  0  0  0  0  0  0  0  0  0  0  0
  -12.9647   -2.1475    2.5493 C   0  0  1  0  0  0  0  0  0  0  0  0
  -12.9613   -2.9720    3.7110 O   0  0  0  0  0  0  0  0  0  0  0  0
  -13.2691   -0.6814    2.9441 C   0  0  1  0  0  0  0  0  0  0  0  0
  -12.1373   -0.1563    3.6292 O   0  0  0  0  0  0  0  0  0  0  0  0
  -13.5756    0.2194    1.7266 C   0  0  0  0  0  0  0  0  0  0  0  0
  -12.4311    0.9363    1.2792 O   0  0  0  0  0  0  0  0  0  0  0  0
  -12.0474    2.3699    1.8348 P   0  0  0  0  0  0  0  0  0  0  0  0
  -12.6346    3.4374    0.9935 O   0  0  0  0  0  0  0  0  0  0  0  0
  -12.2469    2.4322    3.2988 O   0  5  0  0  0  0  0  0  0  0  0  0
  -10.4756    2.4583    1.5973 O   0  5  0  0  0  0  0  0  0  0  0  0
  1 18  1  0  0  0  0
  1  2  1  0  0  0  0
  2  4  1  0  0  0  0
  2  3  2  0  0  0  0
  4  5  1  0  0  0  0
  5  7  1  0  0  0  0
  5  6  2  0  0  0  0
  7 18  2  0  0  0  0
  7  8  1  0  0  0  0
  8  9  1  0  0  0  0
  9 10  2  0  0  0  0
  9 16  1  0  0  0  0
 10 11  1  0  0  0  0
 11 12  1  0  0  0  0
 11 13  2  0  0  0  0
 13 14  1  0  0  0  0
 13 15  1  0  0  0  0
 15 16  2  0  0  0  0
 16 17  1  0  0  0  0
 17 19  1  0  0  0  0
 17 18  1  0  0  0  0
 20 19  1  6  0  0  0
 20 22  1  0  0  0  0
 20 21  1  0  0  0  0
 22 24  1  0  0  0  0
 22 23  1  1  0  0  0
 24 26  1  6  0  0  0
 24 25  1  0  0  0  0
 26 27  1  0  0  0  0
 27 28  1  0  0  0  0
 28 30  1  0  0  0  0
 28 29  2  0  0  0  0
 28 31  1  0  0  0  0
M  CHG  2  30  -1  31  -1
M  END
>  <CHROM.1>
28.16936584,97.73750300,105.63710837,166.38475975,-55.50257449,-62.24858641
-96.05606481,29.55829842,-89.75731219,-92.19318711,-10.80651041,-2.59119090
0.95777265,-0.02950285,1.15423540,-1.17287888

>  <Name>
1fmn_cryst

>  <RI>
0

>  <Rbt.Current_Directory>
/home/itssahil/PROJECTS/Mol_Feturizer/New_Systems/rnas/1fmn

>  <Rbt.Executable>
rbdock ($Id: //depot/dev/client3/rdock/2013.1/src/exe/rbdock.cxx#4 $)

>  <Rbt.Library>
libRbt.so (2013.1, Build901 2013/11/27)

>  <Rbt.Parameter_File>
/export/apps/rDock/src/rDock_2013.1_src/data/scripts/dock_solv.prm

>  <Rbt.Receptor>
prm/blind_docking_20.prm

>  <SCORE>
-20.1817

>  <SCORE.INTER>
-35.5179

>  <SCORE.INTER.CONST>
1

>  <SCORE.INTER.POLAR>
-1.99245

>  <SCORE.INTER.ROT>
7

>  <SCORE.INTER.SOLV>
30.2506

>  <SCORE.INTER.VDW>
-35.3873

>  <SCORE.INTER.norm>
-1.14574

>  <SCORE.INTRA>
13.4475

>  <SCORE.INTRA.DIHEDRAL>
7.49835

>  <SCORE.INTRA.DIHEDRAL.0>
15.5708

>  <SCORE.INTRA.POLAR>
0.0677885

>  <SCORE.INTRA.POLAR.0>
-0.0677885

>  <SCORE.INTRA.REPUL>
0.0346488

>  <SCORE.INTRA.REPUL.0>
0

>  <SCORE.INTRA.SOLV>
1.64868

>  <SCORE.INTRA.SOLV.lig_0>
-87.6316

>  <SCORE.INTRA.VDW>
8.47027

>  <SCORE.INTRA.VDW.0>
-2.87309

>  <SCORE.INTRA.norm>
0.433791

>  <SCORE.RESTR>
1.88873

>  <SCORE.RESTR.CAVITY>
1.88873

>  <SCORE.RESTR.norm>
0.0609268

>  <SCORE.SYSTEM>
0

>  <SCORE.SYSTEM.CONST>
0

>  <SCORE.SYSTEM.DIHEDRAL>
0

>  <SCORE.SYSTEM.SOLV>
0

>  <SCORE.SYSTEM.norm>
0

>  <SCORE.heavy>
31

>  <SCORE.norm>
-0.651022

>  <SYMMETRIC_BONDS>
33 34 3

>  <RMSD>
9.187

$$$$
1fmn_cryst
 OpenBabel11021811393D
libRbt.so/2013.1/901 2013/11/27
 31 33  0  0  0  0  0  0  0  0999 V2000
  -10.9756   -4.1770   -1.9043 N   0  0  0  0  0  0  0  0  0  0  0  0
  -10.4680   -4.0164   -3.1724 C   0  0  0  0  0  0  0  0  0  0  0  0
  -11.1742   -3.6668   -4.1187 O   0  0  0  0  0  0  0  0  0  0  0  0
   -9.0838   -4.2835   -3.3211 N   0  0  0  0  0  0  0  0  0  0  0  0
   -8.1897   -4.6938   -2.3080 C   0  0  0  0  0  0  0  0  0  0  0  0
   -6.9982   -4.8915   -2.5772 O   0  0  0  0  0  0  0  0  0  0  0  0
   -8.8071   -4.8426   -0.9882 C   0  0  0  0  0  0  0  0  0  0  0  0
   -8.0043   -5.2387    0.0524 N   0  0  0  0  0  0  0  0  0  0  0  0
   -8.6121   -5.5504    1.2339 C   0  0  0  0  0  0  0  0  0  0  0  0
   -7.8383   -6.1247    2.2268 C   0  0  0  0  0  0  0  0  0  0  0  0
   -8.3738   -6.4592    3.4238 C   0  0  0  0  0  0  0  0  0  0  0  0
   -7.4932   -7.0744    4.4641 C   0  0  0  0  0  0  0  0  0  0  0  0
   -9.6927   -6.2365    3.6731 C   0  0  0  0  0  0  0  0  0  0  0  0
  -10.2772   -6.6151    4.9949 C   0  0  0  0  0  0  0  0  0  0  0  0
  -10.4902   -5.6745    2.7292 C   0  0  0  0  0  0  0  0  0  0  0  0
   -9.9878   -5.3111    1.4798 C   0  0  0  0  0  0  0  0  0  0  0  0
  -10.7589   -4.7209    0.4566 N   0  0  0  0  0  0  0  0  0  0  0  0
  -10.2166   -4.5681   -0.8359 C   0  0  0  0  0  0  0  0  0  0  0  0
  -11.8665   -3.7774    0.8584 C   0  0  0  0  0  0  0  0  0  0  0  0
  -11.7458   -2.3102    0.3455 C   0  0  1  0  0  0  0  0  0  0  0  0
  -12.4840   -2.1502   -0.8576 O   0  0  0  0  0  0  0  0  0  0  0  0
  -12.1335   -1.2574    1.4110 C   0  0  1  0  0  0  0  0  0  0  0  0
  -10.9747   -0.5626    1.8626 O   0  0  0  0  0  0  0  0  0  0  0  0
  -13.2389   -0.2440    1.0252 C   0  0  1  0  0  0  0  0  0  0  0  0
  -14.3055   -0.9559    0.4075 O   0  0  0  0  0  0  0  0  0  0  0  0
  -13.7963    0.5313    2.2400 C   0  0  0  0  0  0  0  0  0  0  0  0
  -12.7760    0.9156    3.1541 O   0  0  0  0  0  0  0  0  0  0  0  0
  -13.0908    1.5466    4.5732 P   0  0  0  0  0  0  0  0  0  0  0  0
  -13.4943    2.9652    4.4433 O   0  0  0  0  0  0  0  0  0  0  0  0
  -13.9433    0.6382    5.3701 O   0  5  0  0  0  0  0  0  0  0  0  0
  -11.6731    1.5730    5.2973 O   0  5  0  0  0  0  0  0  0  0  0  0
  1 18  1  0  0  0  0
  1  2  1  0  0  0  0
  2  4  1  0  0  0  0
  2  3  2  0  0  0  0
  4  5  1  0  0  0  0
  5  7  1  0  0  0  0
  5  6  2  0  0  0  0
  7 18  2  0  0  0  0
  7  8  1  0  0  0  0
  8  9  1  0  0  0  0
  9 10  2  0  0  0  0
  9 16  1  0  0  0  0
 10 11  1  0  0  0  0
 11 12  1  0  0  0  0
 11 13  2  0  0  0  0
 13 14  1  0  0  0  0
 13 15  1  0  0  0  0
 15 16  2  0  0  0  0
 16 17  1  0  0  0  0
 17 19  1  0  0  0  0
 17 18  1  0  0  0  0
 20 19  1  1  0  0  0
 20 22  1  0  0  0  0
 20 21  1  0  0  0  0
 22 24  1  0  0  0  0
 22 23  1  6  0  0  0
 24 26  1  1  0  0  0
 24 25  1  0  0  0  0
 26 27  1  0  0  0  0
 27 28  1  0  0  0  0
 28 30  1  0  0  0  0
 28 29  2  0  0  0  0
 28 31  1  0  0  0  0
M  CHG  2  30  -1  31  -1
M  END
>  <CHROM.1>
118.84773890,95.00565666,109.03106438,71.42974767,45.37927791,-179.02055477
40.80039714,73.52558317,-171.52504944,-76.31047278,-10.92134851,-2.80614689
1.30743274,0.53167452,0.97652797,-1.60527368

>  <Name>
1fmn_cryst

>  <RI>
0

>  <Rbt.Current_Directory>
/home/itssahil/PROJECTS/Mol_Feturizer/New_Systems/rnas/1fmn

>  <Rbt.Executable>
rbdock ($Id: //depot/dev/client3/rdock/2013.1/src/exe/rbdock.cxx#4 $)

>  <Rbt.Library>
libRbt.so (2013.1, Build901 2013/11/27)

>  <Rbt.Parameter_File>
/export/apps/rDock/src/rDock_2013.1_src/data/scripts/dock_solv.prm

>  <Rbt.Receptor>
prm/blind_docking_40.prm

>  <SCORE>
-36.6596

>  <SCORE.INTER>
-32.4347

>  <SCORE.INTER.CONST>
1

>  <SCORE.INTER.POLAR>
-1.12674

>  <SCORE.INTER.ROT>
7

>  <SCORE.INTER.SOLV>
31.483

>  <SCORE.INTER.VDW>
-36.6283

>  <SCORE.INTER.norm>
-1.04628

>  <SCORE.INTRA>
-5.01317

>  <SCORE.INTRA.DIHEDRAL>
-1.28165

>  <SCORE.INTRA.DIHEDRAL.0>
15.5708

>  <SCORE.INTRA.POLAR>
-1.39068

>  <SCORE.INTRA.POLAR.0>
-0.0677885

>  <SCORE.INTRA.REPUL>
0

>  <SCORE.INTRA.REPUL.0>
0

>  <SCORE.INTRA.SOLV>
-2.80591

>  <SCORE.INTRA.SOLV.lig_0>
-87.6316

>  <SCORE.INTRA.VDW>
1.7589

>  <SCORE.INTRA.VDW.0>
-2.87309

>  <SCORE.INTRA.norm>
-0.161715

>  <SCORE.RESTR>
0.788294

>  <SCORE.RESTR.CAVITY>
0.788294

>  <SCORE.RESTR.norm>
0.0254288

>  <SCORE.SYSTEM>
0

>  <SCORE.SYSTEM.CONST>
0

>  <SCORE.SYSTEM.DIHEDRAL>
0

>  <SCORE.SYSTEM.SOLV>
0

>  <SCORE.SYSTEM.norm>
0

>  <SCORE.heavy>
31

>  <SCORE.norm>
-1.18257

>  <SYMMETRIC_BONDS>
33 34 3

>  <RMSD>
9.200

$$$$
1fmn_cryst
 OpenBabel11021811393D
libRbt.so/2013.1/901 2013/11/27
 31 33  0  0  0  0  0  0  0  0999 V2000
  -10.9515   -4.0280   -1.8395 N   0  0  0  0  0  0  0  0  0  0  0  0
  -10.4278   -3.8693   -3.1013 C   0  0  0  0  0  0  0  0  0  0  0  0
  -11.1121   -3.4786   -4.0476 O   0  0  0  0  0  0  0  0  0  0  0  0
   -9.0540   -4.1884   -3.2436 N   0  0  0  0  0  0  0  0  0  0  0  0
   -8.1849   -4.6481   -2.2299 C   0  0  0  0  0  0  0  0  0  0  0  0
   -6.9999   -4.8885   -2.4931 O   0  0  0  0  0  0  0  0  0  0  0  0
   -8.8182   -4.7914   -0.9170 C   0  0  0  0  0  0  0  0  0  0  0  0
   -8.0399   -5.2337    0.1236 N   0  0  0  0  0  0  0  0  0  0  0  0
   -8.6690   -5.5381    1.2958 C   0  0  0  0  0  0  0  0  0  0  0  0
   -7.9263   -6.1566    2.2859 C   0  0  0  0  0  0  0  0  0  0  0  0
   -8.4842   -6.4869    3.4738 C   0  0  0  0  0  0  0  0  0  0  0  0
   -7.6367   -7.1512    4.5115 C   0  0  0  0  0  0  0  0  0  0  0  0
   -9.7952   -6.2162    3.7165 C   0  0  0  0  0  0  0  0  0  0  0  0
  -10.4047   -6.5905    5.0282 C   0  0  0  0  0  0  0  0  0  0  0  0
  -10.5625   -5.6098    2.7750 C   0  0  0  0  0  0  0  0  0  0  0  0
  -10.0362   -5.2485    1.5349 C   0  0  0  0  0  0  0  0  0  0  0  0
  -10.7753   -4.6138    0.5147 N   0  0  0  0  0  0  0  0  0  0  0  0
  -10.2170   -4.4639   -0.7713 C   0  0  0  0  0  0  0  0  0  0  0  0
  -11.8482   -3.6333    0.9221 C   0  0  0  0  0  0  0  0  0  0  0  0
  -11.8031   -2.2339    0.2367 C   0  0  1  0  0  0  0  0  0  0  0  0
  -12.7213   -2.1896   -0.8463 O   0  0  0  0  0  0  0  0  0  0  0  0
  -12.0126   -1.0629    1.2261 C   0  0  1  0  0  0  0  0  0  0  0  0
  -11.9694    0.1816    0.5340 O   0  0  0  0  0  0  0  0  0  0  0  0
  -13.2714   -1.1223    2.1259 C   0  0  1  0  0  0  0  0  0  0  0  0
  -13.0665   -2.1200    3.1201 O   0  0  0  0  0  0  0  0  0  0  0  0
  -13.5762    0.2215    2.8252 C   0  0  0  0  0  0  0  0  0  0  0  0
  -13.1772    0.2263    4.1907 O   0  0  0  0  0  0  0  0  0  0  0  0
  -13.6859    1.3111    5.2278 P   0  0  0  0  0  0  0  0  0  0  0  0
  -15.1224    1.1199    5.5310 O   0  0  0  0  0  0  0  0  0  0  0  0
  -12.7360    1.4417    6.3538 O   0  5  0  0  0  0  0  0  0  0  0  0
  -13.6015    2.6780    4.4159 O   0  5  0  0  0  0  0  0  0  0  0  0
  1 18  1  0  0  0  0
  1  2  1  0  0  0  0
  2  4  1  0  0  0  0
  2  3  2  0  0  0  0
  4  5  1  0  0  0  0
  5  7  1  0  0  0  0
  5  6  2  0  0  0  0
  7 18  2  0  0  0  0
  7  8  1  0  0  0  0
  8  9  1  0  0  0  0
  9 10  2  0  0  0  0
  9 16  1  0  0  0  0
 10 11  1  0  0  0  0
 11 12  1  0  0  0  0
 11 13  2  0  0  0  0
 13 14  1  0  0  0  0
 13 15  1  0  0  0  0
 15 16  2  0  0  0  0
 16 17  1  0  0  0  0
 17 19  1  0  0  0  0
 17 18  1  0  0  0  0
 20 19  1  1  0  0  0
 20 22  1  0  0  0  0
 20 21  1  0  0  0  0
 22 24  1  0  0  0  0
 22 23  1  6  0  0  0
 24 26  1  1  0  0  0
 24 25  1  0  0  0  0
 26 27  1  0  0  0  0
 27 28  1  0  0  0  0
 28 30  1  0  0  0  0
 28 29  2  0  0  0  0
 28 31  1  0  0  0  0
M  CHG  2  30  -1  31  -1
M  END
>  <CHROM.1>
129.03535707,98.27775015,-179.57400513,73.54043272,73.07832936,-161.13005632
-102.25328974,74.86045330,-164.25206311,69.98246453,-11.06498099,-2.85313144
1.55807224,0.48872536,0.96366142,-1.44286669

>  <Name>
1fmn_cryst

>  <RI>
0

>  <Rbt.Current_Directory>
/home/itssahil/PROJECTS/Mol_Feturizer/New_Systems/rnas/1fmn

>  <Rbt.Executable>
rbdock ($Id: //depot/dev/client3/rdock/2013.1/src/exe/rbdock.cxx#4 $)

>  <Rbt.Library>
libRbt.so (2013.1, Build901 2013/11/27)

>  <Rbt.Parameter_File>
/export/apps/rDock/src/rDock_2013.1_src/data/scripts/dock_solv.prm

>  <Rbt.Receptor>
prm/blind_docking_80.prm

>  <SCORE>
-34.3384

>  <SCORE.INTER>
-34.0839

>  <SCORE.INTER.CONST>
1

>  <SCORE.INTER.POLAR>
-1.11146

>  <SCORE.INTER.ROT>
7

>  <SCORE.INTER.SOLV>
28.3532

>  <SCORE.INTER.VDW>
-36.7354

>  <SCORE.INTER.norm>
-1.09948

>  <SCORE.INTRA>
-0.78358

>  <SCORE.INTRA.DIHEDRAL>
0.447454

>  <SCORE.INTRA.DIHEDRAL.0>
15.5708

>  <SCORE.INTRA.POLAR>
-0.496077

>  <SCORE.INTRA.POLAR.0>
-0.0677885

>  <SCORE.INTRA.REPUL>
0

>  <SCORE.INTRA.REPUL.0>
0

>  <SCORE.INTRA.SOLV>
-3.66919

>  <SCORE.INTRA.SOLV.lig_0>
-87.6316

>  <SCORE.INTRA.VDW>
2.51395

>  <SCORE.INTRA.VDW.0>
-2.87309

>  <SCORE.INTRA.norm>
-0.0252768

>  <SCORE.RESTR>
0.529002

>  <SCORE.RESTR.CAVITY>
0.529002

>  <SCORE.RESTR.norm>
0.0170646

>  <SCORE.SYSTEM>
0

>  <SCORE.SYSTEM.CONST>
0

>  <SCORE.SYSTEM.DIHEDRAL>
0

>  <SCORE.SYSTEM.SOLV>
0

>  <SCORE.SYSTEM.norm>
0

>  <SCORE.heavy>
31

>  <SCORE.norm>
-1.10769

>  <SYMMETRIC_BONDS>
33 34 3

>  <RMSD>
9.205

$$$$
1fmn_cryst
 OpenBabel11021811393D
libRbt.so/2013.1/901 2013/11/27
 31 33  0  0  0  0  0  0  0  0999 V2000
  -10.1540   -4.3282   -3.1690 N   0  0  0  0  0  0  0  0  0  0  0  0
   -9.3465   -4.5186   -4.2660 C   0  0  0  0  0  0  0  0  0  0  0  0
   -9.7346   -4.2835   -5.4108 O   0  0  0  0  0  0  0  0  0  0  0  0
   -8.0433   -5.0063   -3.9954 N   0  0  0  0  0  0  0  0  0  0  0  0
   -7.5031   -5.3125   -2.7270 C   0  0  0  0  0  0  0  0  0  0  0  0
   -6.3426   -5.7317   -2.6337 O   0  0  0  0  0  0  0  0  0  0  0  0
   -8.4249   -5.0839   -1.6120 C   0  0  0  0  0  0  0  0  0  0  0  0
   -7.9754   -5.3573   -0.3442 N   0  0  0  0  0  0  0  0  0  0  0  0
   -8.8876   -5.3172    0.6701 C   0  0  0  0  0  0  0  0  0  0  0  0
   -8.4890   -5.7690    1.9157 C   0  0  0  0  0  0  0  0  0  0  0  0
   -9.3402   -5.7579    2.9677 C   0  0  0  0  0  0  0  0  0  0  0  0
   -8.8586   -6.2543    4.2936 C   0  0  0  0  0  0  0  0  0  0  0  0
  -10.6128   -5.3006    2.8175 C   0  0  0  0  0  0  0  0  0  0  0  0
  -11.5480   -5.2985    3.9826 C   0  0  0  0  0  0  0  0  0  0  0  0
  -11.0477   -4.8470    1.6142 C   0  0  0  0  0  0  0  0  0  0  0  0
  -10.2104   -4.8366    0.4987 C   0  0  0  0  0  0  0  0  0  0  0  0
  -10.5964   -4.3764   -0.7777 N   0  0  0  0  0  0  0  0  0  0  0  0
   -9.7517   -4.5845   -1.8873 C   0  0  0  0  0  0  0  0  0  0  0  0
  -11.5639   -3.2202   -0.8516 C   0  0  0  0  0  0  0  0  0  0  0  0
  -12.0655   -2.6496    0.5097 C   0  0  1  0  0  0  0  0  0  0  0  0
  -10.9617   -2.3643    1.3572 O   0  0  0  0  0  0  0  0  0  0  0  0
  -13.0078   -1.4327    0.3512 C   0  0  1  0  0  0  0  0  0  0  0  0
  -13.8629   -1.6139   -0.7737 O   0  0  0  0  0  0  0  0  0  0  0  0
  -13.8446   -1.0282    1.5897 C   0  0  1  0  0  0  0  0  0  0  0  0
  -13.2220   -1.5704    2.7492 O   0  0  0  0  0  0  0  0  0  0  0  0
  -13.9669    0.5026    1.7606 C   0  0  0  0  0  0  0  0  0  0  0  0
  -12.9403    1.0411    2.5854 O   0  0  0  0  0  0  0  0  0  0  0  0
  -13.0784    1.1555    4.1599 P   0  0  0  0  0  0  0  0  0  0  0  0
  -13.7667   -0.0307    4.7177 O   0  0  0  0  0  0  0  0  0  0  0  0
  -11.7984    1.5813    4.7659 O   0  5  0  0  0  0  0  0  0  0  0  0
  -14.0901    2.3680    4.3628 O   0  5  0  0  0  0  0  0  0  0  0  0
  1 18  1  0  0  0  0
  1  2  1  0  0  0  0
  2  4  1  0  0  0  0
  2  3  2  0  0  0  0
  4  5  1  0  0  0  0
  5  7  1  0  0  0  0
  5  6  2  0  0  0  0
  7 18  2  0  0  0  0
  7  8  1  0  0  0  0
  8  9  1  0  0  0  0
  9 10  2  0  0  0  0
  9 16  1  0  0  0  0
 10 11  1  0  0  0  0
 11 12  1  0  0  0  0
 11 13  2  0  0  0  0
 13 14  1  0  0  0  0
 13 15  1  0  0  0  0
 15 16  2  0  0  0  0
 16 17  1  0  0  0  0
 17 19  1  0  0  0  0
 17 18  1  0  0  0  0
 20 19  1  6  0  0  0
 20 22  1  0  0  0  0
 20 21  1  0  0  0  0
 22 24  1  0  0  0  0
 22 23  1  6  0  0  0
 24 26  1  1  0  0  0
 24 25  1  0  0  0  0
 26 27  1  0  0  0  0
 27 28  1  0  0  0  0
 28 30  1  0  0  0  0
 28 29  2  0  0  0  0
 28 31  1  0  0  0  0
M  CHG  2  30  -1  31  -1
M  END
>  <CHROM.1>
-0.79155643,51.27672358,37.97294694,-176.60981815,20.54420119,-69.99869928
-91.58826978,-173.72016523,-88.66325969,38.71302345,-10.97326578,-2.90653107
0.80786696,0.58805870,0.92859826,-1.46999638

>  <Name>
1fmn_cryst

>  <RI>
0

>  <Rbt.Current_Directory>
/home/itssahil/PROJECTS/Mol_Feturizer/New_Systems/rnas/1fmn

>  <Rbt.Executable>
rbdock ($Id: //depot/dev/client3/rdock/2013.1/src/exe/rbdock.cxx#4 $)

>  <Rbt.Library>
libRbt.so (2013.1, Build901 2013/11/27)

>  <Rbt.Parameter_File>
/export/apps/rDock/src/rDock_2013.1_src/data/scripts/dock_solv.prm

>  <Rbt.Receptor>
prm/blind_docking_20.prm

>  <SCORE>
-36.4583

>  <SCORE.INTER>
-40.644

>  <SCORE.INTER.CONST>
1

>  <SCORE.INTER.POLAR>
-1.19857

>  <SCORE.INTER.ROT>
7

>  <SCORE.INTER.SOLV>
29.2532

>  <SCORE.INTER.VDW>
-41.1185

>  <SCORE.INTER.norm>
-1.3111

>  <SCORE.INTRA>
2.58929

>  <SCORE.INTRA.DIHEDRAL>
-0.0920186

>  <SCORE.INTRA.DIHEDRAL.0>
15.5708

>  <SCORE.INTRA.POLAR>
-1.11574

>  <SCORE.INTRA.POLAR.0>
-0.0677885

>  <SCORE.INTRA.REPUL>
0

>  <SCORE.INTRA.REPUL.0>
0

>  <SCORE.INTRA.SOLV>
0.480353

>  <SCORE.INTRA.SOLV.lig_0>
-87.6316

>  <SCORE.INTRA.VDW>
6.18865

>  <SCORE.INTRA.VDW.0>
-2.87309

>  <SCORE.INTRA.norm>
0.0835254

>  <SCORE.RESTR>
1.5965

>  <SCORE.RESTR.CAVITY>
1.5965

>  <SCORE.RESTR.norm>
0.0515

>  <SCORE.SYSTEM>
0

>  <SCORE.SYSTEM.CONST>
0

>  <SCORE.SYSTEM.DIHEDRAL>
0

>  <SCORE.SYSTEM.SOLV>
0

>  <SCORE.SYSTEM.norm>
0

>  <SCORE.heavy>
31

>  <SCORE.norm>
-1.17607

>  <SYMMETRIC_BONDS>
33 34 3

>  <RMSD>
9.208

$$$$
1fmn_cryst
 OpenBabel11021811393D
libRbt.so/2013.1/901 2013/11/27
 31 33  0  0  0  0  0  0  0  0999 V2000
  -11.0860   -4.1278   -1.9497 N   0  0  0  0  0  0  0  0  0  0  0  0
  -10.6748   -3.8893   -3.2403 C   0  0  0  0  0  0  0  0  0  0  0  0
  -11.4710   -3.6151   -4.1388 O   0  0  0  0  0  0  0  0  0  0  0  0
   -9.2793   -3.9840   -3.4705 N   0  0  0  0  0  0  0  0  0  0  0  0
   -8.2858   -4.2965   -2.5168 C   0  0  0  0  0  0  0  0  0  0  0  0
   -7.0965   -4.3442   -2.8553 O   0  0  0  0  0  0  0  0  0  0  0  0
   -8.8042   -4.5373   -1.1683 C   0  0  0  0  0  0  0  0  0  0  0  0
   -7.9013   -4.8472   -0.1819 N   0  0  0  0  0  0  0  0  0  0  0  0
   -8.3986   -5.2467    1.0247 C   0  0  0  0  0  0  0  0  0  0  0  0
   -7.5057   -5.7363    1.9614 C   0  0  0  0  0  0  0  0  0  0  0  0
   -7.9277   -6.1498    3.1788 C   0  0  0  0  0  0  0  0  0  0  0  0
   -6.9212   -6.6677    4.1562 C   0  0  0  0  0  0  0  0  0  0  0  0
   -9.2473   -6.0925    3.5050 C   0  0  0  0  0  0  0  0  0  0  0  0
   -9.7054   -6.5576    4.8489 C   0  0  0  0  0  0  0  0  0  0  0  0
  -10.1595   -5.6188    2.6182 C   0  0  0  0  0  0  0  0  0  0  0  0
   -9.7768   -5.1798    1.3508 C   0  0  0  0  0  0  0  0  0  0  0  0
  -10.6707   -4.6737    0.3840 N   0  0  0  0  0  0  0  0  0  0  0  0
  -10.2255   -4.4383   -0.9330 C   0  0  0  0  0  0  0  0  0  0  0  0
  -11.8592   -3.8774    0.8656 C   0  0  0  0  0  0  0  0  0  0  0  0
  -11.8693   -2.3614    0.5026 C   0  0  1  0  0  0  0  0  0  0  0  0
  -12.0911   -2.1932   -0.8904 O   0  0  0  0  0  0  0  0  0  0  0  0
  -12.8636   -1.5367    1.3542 C   0  0  1  0  0  0  0  0  0  0  0  0
  -12.8992   -2.0326    2.6893 O   0  0  0  0  0  0  0  0  0  0  0  0
  -12.6689   -0.0006    1.3674 C   0  0  1  0  0  0  0  0  0  0  0  0
  -12.4359    0.4343    0.0323 O   0  0  0  0  0  0  0  0  0  0  0  0
  -13.8920    0.7571    1.9310 C   0  0  0  0  0  0  0  0  0  0  0  0
  -13.5309    1.7094    2.9244 O   0  0  0  0  0  0  0  0  0  0  0  0
  -13.3476    1.3266    4.4512 P   0  0  0  0  0  0  0  0  0  0  0  0
  -13.8787    2.3926    5.3308 O   0  0  0  0  0  0  0  0  0  0  0  0
  -13.7733   -0.0687    4.6935 O   0  5  0  0  0  0  0  0  0  0  0  0
  -11.7694    1.3513    4.6595 O   0  5  0  0  0  0  0  0  0  0  0  0
  1 18  1  0  0  0  0
  1  2  1  0  0  0  0
  2  4  1  0  0  0  0
  2  3  2  0  0  0  0
  4  5  1  0  0  0  0
  5  7  1  0  0  0  0
  5  6  2  0  0  0  0
  7 18  2  0  0  0  0
  7  8  1  0  0  0  0
  8  9  1  0  0  0  0
  9 10  2  0  0  0  0
  9 16  1  0  0  0  0
 10 11  1  0  0  0  0
 11 12  1  0  0  0  0
 11 13  2  0  0  0  0
 13 14  1  0  0  0  0
 13 15  1  0  0  0  0
 15 16  2  0  0  0  0
 16 17  1  0  0  0  0
 17 19  1  0  0  0  0
 17 18  1  0  0  0  0
 20 19  1  1  0  0  0
 20 22  1  0  0  0  0
 20 21  1  0  0  0  0
 22 24  1  0  0  0  0
 22 23  1  1  0  0  0
 24 26  1  6  0  0  0
 24 25  1  0  0  0  0
 26 27  1  0  0  0  0
 27 28  1  0  0  0  0
 28 30  1  0  0  0  0
 28 29  2  0  0  0  0
 28 31  1  0  0  0  0
M  CHG  2  30  -1  31  -1
M  END
>  <CHROM.1>
112.61472805,70.53050747,36.48562158,65.39434670,44.68815068,-171.03210275
130.52265030,-55.24948948,-85.20693725,-141.22683588,-10.90741588,-2.72661135
1.20453676,0.50827084,0.92865830,-1.57340452

>  <Name>
1fmn_cryst

>  <RI>
0

>  <Rbt.Current_Directory>
/home/itssahil/PROJECTS/Mol_Feturizer/New_Systems/rnas/1fmn

>  <Rbt.Executable>
rbdock ($Id: //depot/dev/client3/rdock/2013.1/src/exe/rbdock.cxx#4 $)

>  <Rbt.Library>
libRbt.so (2013.1, Build901 2013/11/27)

>  <Rbt.Parameter_File>
/export/apps/rDock/src/rDock_2013.1_src/data/scripts/dock_solv.prm

>  <Rbt.Receptor>
prm/blind_docking_40.prm

>  <SCORE>
-34.8034

>  <SCORE.INTER>
-35.7575

>  <SCORE.INTER.CONST>
1

>  <SCORE.INTER.POLAR>
-1.88113

>  <SCORE.INTER.ROT>
7

>  <SCORE.INTER.SOLV>
28.1142

>  <SCORE.INTER.VDW>
-35.206

>  <SCORE.INTER.norm>
-1.15347

>  <SCORE.INTRA>
-1.00778

>  <SCORE.INTRA.DIHEDRAL>
-0.119054

>  <SCORE.INTRA.DIHEDRAL.0>
15.5708

>  <SCORE.INTRA.POLAR>
-0.956407

>  <SCORE.INTRA.POLAR.0>
-0.0677885

>  <SCORE.INTRA.REPUL>
0

>  <SCORE.INTRA.REPUL.0>
0

>  <SCORE.INTRA.SOLV>
0.832344

>  <SCORE.INTRA.SOLV.lig_0>
-87.6316

>  <SCORE.INTRA.VDW>
1.88736

>  <SCORE.INTRA.VDW.0>
-2.87309

>  <SCORE.INTRA.norm>
-0.032509

>  <SCORE.RESTR>
1.96185

>  <SCORE.RESTR.CAVITY>
1.96185

>  <SCORE.RESTR.norm>
0.0632856

>  <SCORE.SYSTEM>
0

>  <SCORE.SYSTEM.CONST>
0

>  <SCORE.SYSTEM.DIHEDRAL>
0

>  <SCORE.SYSTEM.SOLV>
0

>  <SCORE.SYSTEM.norm>
0

>  <SCORE.heavy>
31

>  <SCORE.norm>
-1.12269

>  <SYMMETRIC_BONDS>
33 34 3

>  <RMSD>
9.220

$$$$
1fmn_cryst
 OpenBabel11021811393D
libRbt.so/2013.1/901 2013/11/27
 31 33  0  0  0  0  0  0  0  0999 V2000
  -11.3623   -4.1985   -1.2281 N   0  0  0  0  0  0  0  0  0  0  0  0
  -11.0887   -3.8850   -2.5389 C   0  0  0  0  0  0  0  0  0  0  0  0
  -11.9712   -3.5395   -3.3253 O   0  0  0  0  0  0  0  0  0  0  0  0
   -9.7295   -3.9896   -2.9274 N   0  0  0  0  0  0  0  0  0  0  0  0
   -8.6458   -4.3804   -2.1106 C   0  0  0  0  0  0  0  0  0  0  0  0
   -7.5021   -4.4275   -2.5807 O   0  0  0  0  0  0  0  0  0  0  0  0
   -9.0197   -4.6980   -0.7305 C   0  0  0  0  0  0  0  0  0  0  0  0
   -8.0225   -5.0867    0.1290 N   0  0  0  0  0  0  0  0  0  0  0  0
   -8.3948   -5.5538    1.3561 C   0  0  0  0  0  0  0  0  0  0  0  0
   -7.4174   -6.1184    2.1562 C   0  0  0  0  0  0  0  0  0  0  0  0
   -7.7140   -6.6016    3.3850 C   0  0  0  0  0  0  0  0  0  0  0  0
   -6.6200   -7.1991    4.2112 C   0  0  0  0  0  0  0  0  0  0  0  0
   -8.9883   -6.5419    3.8579 C   0  0  0  0  0  0  0  0  0  0  0  0
   -9.3083   -7.0840    5.2129 C   0  0  0  0  0  0  0  0  0  0  0  0
   -9.9798   -5.9960    3.1084 C   0  0  0  0  0  0  0  0  0  0  0  0
   -9.7271   -5.4834    1.8361 C   0  0  0  0  0  0  0  0  0  0  0  0
  -10.7083   -4.9004    1.0071 N   0  0  0  0  0  0  0  0  0  0  0  0
  -10.4040   -4.5890   -0.3339 C   0  0  0  0  0  0  0  0  0  0  0  0
  -11.8170   -4.1156    1.6655 C   0  0  0  0  0  0  0  0  0  0  0  0
  -11.7905   -2.5711    1.4554 C   0  0  1  0  0  0  0  0  0  0  0  0
  -11.9850   -2.2606    0.0829 O   0  0  0  0  0  0  0  0  0  0  0  0
  -12.7825   -1.8138    2.3700 C   0  0  1  0  0  0  0  0  0  0  0  0
  -13.1984   -2.6499    3.4459 O   0  0  0  0  0  0  0  0  0  0  0  0
  -12.3226   -0.4402    2.9171 C   0  0  1  0  0  0  0  0  0  0  0  0
  -11.9144    0.3673    1.8183 O   0  0  0  0  0  0  0  0  0  0  0  0
  -13.4335    0.3017    3.6939 C   0  0  0  0  0  0  0  0  0  0  0  0
  -12.9205    1.0657    4.7789 O   0  0  0  0  0  0  0  0  0  0  0  0
  -13.8549    1.8316    5.8042 P   0  0  0  0  0  0  0  0  0  0  0  0
  -15.1176    1.0905    6.0241 O   0  0  0  0  0  0  0  0  0  0  0  0
  -13.0807    2.2766    6.9831 O   0  5  0  0  0  0  0  0  0  0  0  0
  -14.2697    3.1544    5.0212 O   0  5  0  0  0  0  0  0  0  0  0  0
  1 18  1  0  0  0  0
  1  2  1  0  0  0  0
  2  4  1  0  0  0  0
  2  3  2  0  0  0  0
  4  5  1  0  0  0  0
  5  7  1  0  0  0  0
  5  6  2  0  0  0  0
  7 18  2  0  0  0  0
  7  8  1  0  0  0  0
  8  9  1  0  0  0  0
  9 10  2  0  0  0  0
  9 16  1  0  0  0  0
 10 11  1  0  0  0  0
 11 12  1  0  0  0  0
 11 13  2  0  0  0  0
 13 14  1  0  0  0  0
 13 15  1  0  0  0  0
 15 16  2  0  0  0  0
 16 17  1  0  0  0  0
 17 19  1  0  0  0  0
 17 18  1  0  0  0  0
 20 19  1  6  0  0  0
 20 22  1  0  0  0  0
 20 21  1  0  0  0  0
 22 24  1  0  0  0  0
 22 23  1  1  0  0  0
 24 26  1  6  0  0  0
 24 25  1  0  0  0  0
 26 27  1  0  0  0  0
 27 28  1  0  0  0  0
 28 30  1  0  0  0  0
 28 29  2  0  0  0  0
 28 31  1  0  0  0  0
M  CHG  2  30  -1  31  -1
M  END
>  <CHROM.1>
109.83446330,64.65869871,16.92695988,-165.30982008,53.32066163,85.60082372
145.81500911,59.98983046,-175.13747280,33.41508585,-11.03022811,-2.81171117
2.02405193,0.56623006,0.94395479,-1.59725742

>  <Name>
1fmn_cryst

>  <RI>
0

>  <Rbt.Current_Directory>
/home/itssahil/PROJECTS/Mol_Feturizer/New_Systems/rnas/1fmn

>  <Rbt.Executable>
rbdock ($Id: //depot/dev/client3/rdock/2013.1/src/exe/rbdock.cxx#4 $)

>  <Rbt.Library>
libRbt.so (2013.1, Build901 2013/11/27)

>  <Rbt.Parameter_File>
/export/apps/rDock/src/rDock_2013.1_src/data/scripts/dock_solv.prm

>  <Rbt.Receptor>
prm/blind_docking_80.prm

>  <SCORE>
-38.4445

>  <SCORE.INTER>
-41.1224

>  <SCORE.INTER.CONST>
1

>  <SCORE.INTER.POLAR>
-2.32244

>  <SCORE.INTER.ROT>
7

>  <SCORE.INTER.SOLV>
29.0262

>  <SCORE.INTER.VDW>
-37.6155

>  <SCORE.INTER.norm>
-1.32653

>  <SCORE.INTRA>
-0.117705

>  <SCORE.INTRA.DIHEDRAL>
-1.55484

>  <SCORE.INTRA.DIHEDRAL.0>
15.5708

>  <SCORE.INTRA.POLAR>
0.0677885

>  <SCORE.INTRA.POLAR.0>
-0.0677885

>  <SCORE.INTRA.REPUL>
0

>  <SCORE.INTRA.REPUL.0>
0

>  <SCORE.INTRA.SOLV>
-3.83253

>  <SCORE.INTRA.SOLV.lig_0>
-87.6316

>  <SCORE.INTRA.VDW>
2.3455

>  <SCORE.INTRA.VDW.0>
-2.87309

>  <SCORE.INTRA.norm>
-0.00379695

>  <SCORE.RESTR>
2.79565

>  <SCORE.RESTR.CAVITY>
2.79565

>  <SCORE.RESTR.norm>
0.0901824

>  <SCORE.SYSTEM>
0

>  <SCORE.SYSTEM.CONST>
0

>  <SCORE.SYSTEM.DIHEDRAL>
0

>  <SCORE.SYSTEM.SOLV>
0

>  <SCORE.SYSTEM.norm>
0

>  <SCORE.heavy>
31

>  <SCORE.norm>
-1.24014

>  <SYMMETRIC_BONDS>
33 34 3

>  <RMSD>
9.222

$$$$
1fmn_cryst
 OpenBabel11021811393D
libRbt.so/2013.1/901 2013/11/27
 31 33  0  0  0  0  0  0  0  0999 V2000
  -11.3673   -4.0970   -1.3648 N   0  0  0  0  0  0  0  0  0  0  0  0
  -11.0716   -3.8282   -2.6808 C   0  0  0  0  0  0  0  0  0  0  0  0
  -11.9298   -3.4479   -3.4780 O   0  0  0  0  0  0  0  0  0  0  0  0
   -9.7198   -4.0212   -3.0612 N   0  0  0  0  0  0  0  0  0  0  0  0
   -8.6636   -4.4579   -2.2317 C   0  0  0  0  0  0  0  0  0  0  0  0
   -7.5233   -4.5824   -2.6959 O   0  0  0  0  0  0  0  0  0  0  0  0
   -9.0598   -4.7234   -0.8469 C   0  0  0  0  0  0  0  0  0  0  0  0
   -8.0899   -5.1519    0.0249 N   0  0  0  0  0  0  0  0  0  0  0  0
   -8.4929   -5.5700    1.2599 C   0  0  0  0  0  0  0  0  0  0  0  0
   -7.5530   -6.1743    2.0760 C   0  0  0  0  0  0  0  0  0  0  0  0
   -7.8814   -6.6129    3.3134 C   0  0  0  0  0  0  0  0  0  0  0  0
   -6.8271   -7.2562    4.1566 C   0  0  0  0  0  0  0  0  0  0  0  0
   -9.1513   -6.4678    3.7795 C   0  0  0  0  0  0  0  0  0  0  0  0
   -9.5069   -6.9612    5.1442 C   0  0  0  0  0  0  0  0  0  0  0  0
  -10.1065   -5.8804    3.0145 C   0  0  0  0  0  0  0  0  0  0  0  0
   -9.8201   -5.4108    1.7327 C   0  0  0  0  0  0  0  0  0  0  0  0
  -10.7627   -4.7886    0.8875 N   0  0  0  0  0  0  0  0  0  0  0  0
  -10.4364   -4.5243   -0.4585 C   0  0  0  0  0  0  0  0  0  0  0  0
  -11.8249   -3.9259    1.5244 C   0  0  0  0  0  0  0  0  0  0  0  0
  -11.8228   -2.4187    1.1261 C   0  0  1  0  0  0  0  0  0  0  0  0
  -12.4607   -2.2439   -0.1311 O   0  0  0  0  0  0  0  0  0  0  0  0
  -12.4224   -1.4987    2.2162 C   0  0  1  0  0  0  0  0  0  0  0  0
  -12.5841   -2.2183    3.4350 O   0  0  0  0  0  0  0  0  0  0  0  0
  -11.6887   -0.1621    2.4865 C   0  0  1  0  0  0  0  0  0  0  0  0
  -11.9341    0.7145    1.3922 O   0  0  0  0  0  0  0  0  0  0  0  0
  -12.1523    0.5270    3.7895 C   0  0  0  0  0  0  0  0  0  0  0  0
  -13.5559    0.4159    3.9933 O   0  0  0  0  0  0  0  0  0  0  0  0
  -14.3336    1.2675    5.0802 P   0  0  0  0  0  0  0  0  0  0  0  0
  -15.7826    0.9651    5.0511 O   0  0  0  0  0  0  0  0  0  0  0  0
  -13.6274    1.2249    6.3788 O   0  5  0  0  0  0  0  0  0  0  0  0
  -14.2013    2.7638    4.5525 O   0  5  0  0  0  0  0  0  0  0  0  0
  1 18  1  0  0  0  0
  1  2  1  0  0  0  0
  2  4  1  0  0  0  0
  2  3  2  0  0  0  0
  4  5  1  0  0  0  0
  5  7  1  0  0  0  0
  5  6  2  0  0  0  0
  7 18  2  0  0  0  0
  7  8  1  0  0  0  0
  8  9  1  0  0  0  0
  9 10  2  0  0  0  0
  9 16  1  0  0  0  0
 10 11  1  0  0  0  0
 11 12  1  0  0  0  0
 11 13  2  0  0  0  0
 13 14  1  0  0  0  0
 13 15  1  0  0  0  0
 15 16  2  0  0  0  0
 16 17  1  0  0  0  0
 17 19  1  0  0  0  0
 17 18  1  0  0  0  0
 20 19  1  1  0  0  0
 20 22  1  0  0  0  0
 20 21  1  0  0  0  0
 22 24  1  0  0  0  0
 22 23  1  1  0  0  0
 24 26  1  1  0  0  0
 24 25  1  0  0  0  0
 26 27  1  0  0  0  0
 27 28  1  0  0  0  0
 28 30  1  0  0  0  0
 28 29  2  0  0  0  0
 28 31  1  0  0  0  0
M  CHG  2  30  -1  31  -1
M  END
>  <CHROM.1>
117.90153012,80.41983244,11.85625547,-161.29893904,72.70897783,-179.92773943
-39.26926737,51.99937901,-167.38561871,178.89857485,-11.09623098,-2.85442437
1.76741467,0.45609302,0.92501042,-1.51770963

>  <Name>
1fmn_cryst

>  <RI>
0

>  <Rbt.Current_Directory>
/home/itssahil/PROJECTS/Mol_Feturizer/New_Systems/rnas/1fmn

>  <Rbt.Executable>
rbdock ($Id: //depot/dev/client3/rdock/2013.1/src/exe/rbdock.cxx#4 $)

>  <Rbt.Library>
libRbt.so (2013.1, Build901 2013/11/27)

>  <Rbt.Parameter_File>
/export/apps/rDock/src/rDock_2013.1_src/data/scripts/dock_solv.prm

>  <Rbt.Receptor>
prm/blind_docking_100.prm

>  <SCORE>
-34.5883

>  <SCORE.INTER>
-35.8674

>  <SCORE.INTER.CONST>
1

>  <SCORE.INTER.POLAR>
-1.19223

>  <SCORE.INTER.ROT>
7

>  <SCORE.INTER.SOLV>
27.7775

>  <SCORE.INTER.VDW>
-37.4633

>  <SCORE.INTER.norm>
-1.15701

>  <SCORE.INTRA>
-1.62625

>  <SCORE.INTRA.DIHEDRAL>
-2.60247

>  <SCORE.INTRA.DIHEDRAL.0>
15.5708

>  <SCORE.INTRA.POLAR>
-0.698048

>  <SCORE.INTRA.POLAR.0>
-0.0677885

>  <SCORE.INTRA.REPUL>
0

>  <SCORE.INTRA.REPUL.0>
0

>  <SCORE.INTRA.SOLV>
-3.26448

>  <SCORE.INTRA.SOLV.lig_0>
-87.6316

>  <SCORE.INTRA.VDW>
3.68059

>  <SCORE.INTRA.VDW.0>
-2.87309

>  <SCORE.INTRA.norm>
-0.0524598

>  <SCORE.RESTR>
2.90536

>  <SCORE.RESTR.CAVITY>
2.90536

>  <SCORE.RESTR.norm>
0.0937214

>  <SCORE.SYSTEM>
0

>  <SCORE.SYSTEM.CONST>
0

>  <SCORE.SYSTEM.DIHEDRAL>
0

>  <SCORE.SYSTEM.SOLV>
0

>  <SCORE.SYSTEM.norm>
0

>  <SCORE.heavy>
31

>  <SCORE.norm>
-1.11575

>  <SYMMETRIC_BONDS>
33 34 3

>  <RMSD>
9.223

$$$$
1fmn_cryst
 OpenBabel11021811393D
libRbt.so/2013.1/901 2013/11/27
 31 33  0  0  0  0  0  0  0  0999 V2000
  -11.3126   -4.3399   -1.2610 N   0  0  0  0  0  0  0  0  0  0  0  0
  -11.0277   -4.0234   -2.5688 C   0  0  0  0  0  0  0  0  0  0  0  0
  -11.9089   -3.7208   -3.3740 O   0  0  0  0  0  0  0  0  0  0  0  0
   -9.6581   -4.0727   -2.9310 N   0  0  0  0  0  0  0  0  0  0  0  0
   -8.5746   -4.4118   -2.0912 C   0  0  0  0  0  0  0  0  0  0  0  0
   -7.4212   -4.4132   -2.5395 O   0  0  0  0  0  0  0  0  0  0  0  0
   -8.9608   -4.7362   -0.7161 C   0  0  0  0  0  0  0  0  0  0  0  0
   -7.9646   -5.0767    0.1646 N   0  0  0  0  0  0  0  0  0  0  0  0
   -8.3400   -5.5513    1.3879 C   0  0  0  0  0  0  0  0  0  0  0  0
   -7.3549   -6.0688    2.2103 C   0  0  0  0  0  0  0  0  0  0  0  0
   -7.6542   -6.5563    3.4367 C   0  0  0  0  0  0  0  0  0  0  0  0
   -6.5517   -7.1015    4.2875 C   0  0  0  0  0  0  0  0  0  0  0  0
   -8.9386   -6.5477    3.8852 C   0  0  0  0  0  0  0  0  0  0  0  0
   -9.2610   -7.0943    5.2378 C   0  0  0  0  0  0  0  0  0  0  0  0
   -9.9379   -6.0493    3.1134 C   0  0  0  0  0  0  0  0  0  0  0  0
   -9.6829   -5.5346    1.8423 C   0  0  0  0  0  0  0  0  0  0  0  0
  -10.6721   -4.9991    0.9910 N   0  0  0  0  0  0  0  0  0  0  0  0
  -10.3558   -4.6836   -0.3463 C   0  0  0  0  0  0  0  0  0  0  0  0
  -11.8253   -4.2580    1.6228 C   0  0  0  0  0  0  0  0  0  0  0  0
  -11.7021   -2.7050    1.6791 C   0  0  1  0  0  0  0  0  0  0  0  0
  -11.4494   -2.1867    0.3808 O   0  0  0  0  0  0  0  0  0  0  0  0
  -12.9150   -2.0206    2.3533 C   0  0  1  0  0  0  0  0  0  0  0  0
  -13.2123   -2.6543    3.5941 O   0  0  0  0  0  0  0  0  0  0  0  0
  -12.8340   -0.4869    2.5508 C   0  0  1  0  0  0  0  0  0  0  0  0
  -11.8670   -0.2141    3.5589 O   0  0  0  0  0  0  0  0  0  0  0  0
  -12.4349    0.2664    1.2620 C   0  0  0  0  0  0  0  0  0  0  0  0
  -12.8878    1.6151    1.2585 O   0  0  0  0  0  0  0  0  0  0  0  0
  -11.9755    2.8236    0.7911 P   0  0  0  0  0  0  0  0  0  0  0  0
  -12.8019    3.9669    0.3418 O   0  0  0  0  0  0  0  0  0  0  0  0
  -10.8967    3.0719    1.7717 O   0  5  0  0  0  0  0  0  0  0  0  0
  -11.2630    2.2727   -0.5218 O   0  5  0  0  0  0  0  0  0  0  0  0
  1 18  1  0  0  0  0
  1  2  1  0  0  0  0
  2  4  1  0  0  0  0
  2  3  2  0  0  0  0
  4  5  1  0  0  0  0
  5  7  1  0  0  0  0
  5  6  2  0  0  0  0
  7 18  2  0  0  0  0
  7  8  1  0  0  0  0
  8  9  1  0  0  0  0
  9 10  2  0  0  0  0
  9 16  1  0  0  0  0
 10 11  1  0  0  0  0
 11 12  1  0  0  0  0
 11 13  2  0  0  0  0
 13 14  1  0  0  0  0
 13 15  1  0  0  0  0
 15 16  2  0  0  0  0
 16 17  1  0  0  0  0
 17 19  1  0  0  0  0
 17 18  1  0  0  0  0
 20 19  1  6  0  0  0
 20 22  1  0  0  0  0
 20 21  1  0  0  0  0
 22 24  1  0  0  0  0
 22 23  1  1  0  0  0
 24 26  1  6  0  0  0
 24 25  1  0  0  0  0
 26 27  1  0  0  0  0
 27 28  1  0  0  0  0
 28 30  1  0  0  0  0
 28 29  2  0  0  0  0
 28 31  1  0  0  0  0
M  CHG  2  30  -1  31  -1
M  END
>  <CHROM.1>
96.71528394,54.19150143,49.07155967,63.97211980,-70.52749029,67.72894489
155.27937722,49.59634818,136.06779296,155.91500873,-10.57054270,-2.68779971
0.99187639,-0.27888491,1.12835185,-1.36734991

>  <Name>
1fmn_cryst

>  <RI>
0

>  <Rbt.Current_Directory>
/home/itssahil/PROJECTS/Mol_Feturizer/New_Systems/rnas/1fmn

>  <Rbt.Executable>
rbdock ($Id: //depot/dev/client3/rdock/2013.1/src/exe/rbdock.cxx#4 $)

>  <Rbt.Library>
libRbt.so (2013.1, Build901 2013/11/27)

>  <Rbt.Parameter_File>
/export/apps/rDock/src/rDock_2013.1_src/data/scripts/dock_solv.prm

>  <Rbt.Receptor>
prm/blind_docking_60.prm

>  <SCORE>
-42.5251

>  <SCORE.INTER>
-44.2369

>  <SCORE.INTER.CONST>
1

>  <SCORE.INTER.POLAR>
-4.10353

>  <SCORE.INTER.ROT>
7

>  <SCORE.INTER.SOLV>
32.75

>  <SCORE.INTER.VDW>
-34.9962

>  <SCORE.INTER.norm>
-1.427

>  <SCORE.INTRA>
-1.65521

>  <SCORE.INTRA.DIHEDRAL>
-3.62361

>  <SCORE.INTRA.DIHEDRAL.0>
15.5708

>  <SCORE.INTRA.POLAR>
0.0677885

>  <SCORE.INTRA.POLAR.0>
-0.0677885

>  <SCORE.INTRA.REPUL>
0

>  <SCORE.INTRA.REPUL.0>
0

>  <SCORE.INTRA.SOLV>
-2.77469

>  <SCORE.INTRA.SOLV.lig_0>
-87.6316

>  <SCORE.INTRA.VDW>
1.31346

>  <SCORE.INTRA.VDW.0>
-2.87309

>  <SCORE.INTRA.norm>
-0.0533939

>  <SCORE.RESTR>
3.367

>  <SCORE.RESTR.CAVITY>
3.367

>  <SCORE.RESTR.norm>
0.108613

>  <SCORE.SYSTEM>
0

>  <SCORE.SYSTEM.CONST>
0

>  <SCORE.SYSTEM.DIHEDRAL>
0

>  <SCORE.SYSTEM.SOLV>
0

>  <SCORE.SYSTEM.norm>
0

>  <SCORE.heavy>
31

>  <SCORE.norm>
-1.37178

>  <SYMMETRIC_BONDS>
33 34 3

>  <RMSD>
9.229

$$$$
1fmn_cryst
 OpenBabel11021811393D
libRbt.so/2013.1/901 2013/11/27
 31 33  0  0  0  0  0  0  0  0999 V2000
  -11.6186   -1.8635   -4.2994 N   0  0  0  0  0  0  0  0  0  0  0  0
  -12.7110   -1.0323   -4.3855 C   0  0  0  0  0  0  0  0  0  0  0  0
  -12.9635   -0.3898   -5.4053 O   0  0  0  0  0  0  0  0  0  0  0  0
  -13.5231   -0.9589   -3.2260 N   0  0  0  0  0  0  0  0  0  0  0  0
  -13.3205   -1.6456   -2.0087 C   0  0  0  0  0  0  0  0  0  0  0  0
  -14.1133   -1.4901   -1.0713 O   0  0  0  0  0  0  0  0  0  0  0  0
  -12.1372   -2.5085   -1.9972 C   0  0  0  0  0  0  0  0  0  0  0  0
  -11.8697   -3.2119   -0.8492 N   0  0  0  0  0  0  0  0  0  0  0  0
  -10.6762   -3.8699   -0.7770 C   0  0  0  0  0  0  0  0  0  0  0  0
  -10.3171   -4.4252    0.4383 C   0  0  0  0  0  0  0  0  0  0  0  0
   -9.1486   -5.0924    0.5831 C   0  0  0  0  0  0  0  0  0  0  0  0
   -8.8093   -5.6765    1.9173 C   0  0  0  0  0  0  0  0  0  0  0  0
   -8.2995   -5.2285   -0.4712 C   0  0  0  0  0  0  0  0  0  0  0  0
   -7.0084   -5.9607   -0.3006 C   0  0  0  0  0  0  0  0  0  0  0  0
   -8.6104   -4.7010   -1.6828 C   0  0  0  0  0  0  0  0  0  0  0  0
   -9.8019   -4.0048   -1.8851 C   0  0  0  0  0  0  0  0  0  0  0  0
  -10.1879   -3.4353   -3.1167 N   0  0  0  0  0  0  0  0  0  0  0  0
  -11.3111   -2.5854   -3.1792 C   0  0  0  0  0  0  0  0  0  0  0  0
   -9.7909   -4.1523   -4.3843 C   0  0  0  0  0  0  0  0  0  0  0  0
   -8.2985   -4.0212   -4.8150 C   0  0  1  0  0  0  0  0  0  0  0  0
   -7.6267   -5.2599   -4.6354 O   0  0  0  0  0  0  0  0  0  0  0  0
   -8.1236   -3.4664   -6.2488 C   0  0  1  0  0  0  0  0  0  0  0  0
   -7.5248   -2.1744   -6.2084 O   0  0  0  0  0  0  0  0  0  0  0  0
   -7.3710   -4.3648   -7.2609 C   0  0  1  0  0  0  0  0  0  0  0  0
   -7.3577   -3.7064   -8.5228 O   0  0  0  0  0  0  0  0  0  0  0  0
   -5.9143   -4.6594   -6.8382 C   0  0  0  0  0  0  0  0  0  0  0  0
   -5.2287   -5.4739   -7.7820 O   0  0  0  0  0  0  0  0  0  0  0  0
   -5.7029   -6.9399   -8.1524 P   0  0  0  0  0  0  0  0  0  0  0  0
   -7.0207   -6.9147   -8.8269 O   0  0  0  0  0  0  0  0  0  0  0  0
   -4.6011   -7.7014   -8.7793 O   0  5  0  0  0  0  0  0  0  0  0  0
   -5.9634   -7.6210   -6.7371 O   0  5  0  0  0  0  0  0  0  0  0  0
  1 18  1  0  0  0  0
  1  2  1  0  0  0  0
  2  4  1  0  0  0  0
  2  3  2  0  0  0  0
  4  5  1  0  0  0  0
  5  7  1  0  0  0  0
  5  6  2  0  0  0  0
  7 18  2  0  0  0  0
  7  8  1  0  0  0  0
  8  9  1  0  0  0  0
  9 10  2  0  0  0  0
  9 16  1  0  0  0  0
 10 11  1  0  0  0  0
 11 12  1  0  0  0  0
 11 13  2  0  0  0  0
 13 14  1  0  0  0  0
 13 15  1  0  0  0  0
 15 16  2  0  0  0  0
 16 17  1  0  0  0  0
 17 19  1  0  0  0  0
 17 18  1  0  0  0  0
 20 19  1  6  0  0  0
 20 22  1  0  0  0  0
 20 21  1  0  0  0  0
 22 24  1  0  0  0  0
 22 23  1  1  0  0  0
 24 26  1  1  0  0  0
 24 25  1  0  0  0  0
 26 27  1  0  0  0  0
 27 28  1  0  0  0  0
 28 30  1  0  0  0  0
 28 29  2  0  0  0  0
 28 31  1  0  0  0  0
M  CHG  2  30  -1  31  -1
M  END
>  <CHROM.1>
-75.71890462,109.40468119,112.81271117,54.36028564,177.88500157,-62.24524576
-179.39165408,-60.25048024,-61.07695962,65.22627010,-9.03500436,-4.16258654
-4.22207981,2.53807882,-0.69948584,1.81967400

>  <Name>
1fmn_cryst

>  <RI>
0

>  <Rbt.Current_Directory>
/home/itssahil/PROJECTS/Mol_Feturizer/New_Systems/rnas/1fmn

>  <Rbt.Executable>
rbdock ($Id: //depot/dev/client3/rdock/2013.1/src/exe/rbdock.cxx#4 $)

>  <Rbt.Library>
libRbt.so (2013.1, Build901 2013/11/27)

>  <Rbt.Parameter_File>
/export/apps/rDock/src/rDock_2013.1_src/data/scripts/dock_solv.prm

>  <Rbt.Receptor>
prm/pocket_docking_7.prm

>  <SCORE>
-30.052

>  <SCORE.INTER>
-28.9316

>  <SCORE.INTER.CONST>
1

>  <SCORE.INTER.POLAR>
-0.550526

>  <SCORE.INTER.ROT>
7

>  <SCORE.INTER.SOLV>
13.9484

>  <SCORE.INTER.VDW>
-30.3688

>  <SCORE.INTER.norm>
-0.933276

>  <SCORE.INTRA>
-1.12049

>  <SCORE.INTRA.DIHEDRAL>
-3.3002

>  <SCORE.INTRA.DIHEDRAL.0>
15.5708

>  <SCORE.INTRA.POLAR>
0.0677885

>  <SCORE.INTRA.POLAR.0>
-0.0677885

>  <SCORE.INTRA.REPUL>
0

>  <SCORE.INTRA.REPUL.0>
0

>  <SCORE.INTRA.SOLV>
-0.64106

>  <SCORE.INTRA.SOLV.lig_0>
-87.6316

>  <SCORE.INTRA.VDW>
0.619664

>  <SCORE.INTRA.VDW.0>
-2.87309

>  <SCORE.INTRA.norm>
-0.0361447

>  <SCORE.RESTR>
0

>  <SCORE.RESTR.CAVITY>
0

>  <SCORE.RESTR.norm>
0

>  <SCORE.SYSTEM>
0

>  <SCORE.SYSTEM.CONST>
0

>  <SCORE.SYSTEM.DIHEDRAL>
0

>  <SCORE.SYSTEM.SOLV>
0

>  <SCORE.SYSTEM.norm>
0

>  <SCORE.heavy>
31

>  <SCORE.norm>
-0.969421

>  <SYMMETRIC_BONDS>
33 34 3

>  <RMSD>
9.230

$$$$
1fmn_cryst
 OpenBabel11021811393D
libRbt.so/2013.1/901 2013/11/27
 31 33  0  0  0  0  0  0  0  0999 V2000
  -10.7756   -4.4502   -2.7671 N   0  0  0  0  0  0  0  0  0  0  0  0
  -10.2932   -4.2268   -4.0355 C   0  0  0  0  0  0  0  0  0  0  0  0
  -11.0421   -4.0758   -5.0014 O   0  0  0  0  0  0  0  0  0  0  0  0
   -8.8818   -4.1866   -4.1604 N   0  0  0  0  0  0  0  0  0  0  0  0
   -7.9376   -4.3529   -3.1236 C   0  0  0  0  0  0  0  0  0  0  0  0
   -6.7271   -4.2920   -3.3735 O   0  0  0  0  0  0  0  0  0  0  0  0
   -8.5305   -4.5872   -1.8050 C   0  0  0  0  0  0  0  0  0  0  0  0
   -7.6789   -4.7588   -0.7422 N   0  0  0  0  0  0  0  0  0  0  0  0
   -8.2242   -5.1546    0.4446 C   0  0  0  0  0  0  0  0  0  0  0  0
   -7.3608   -5.5081    1.4664 C   0  0  0  0  0  0  0  0  0  0  0  0
   -7.8309   -5.9096    2.6702 C   0  0  0  0  0  0  0  0  0  0  0  0
   -6.8551   -6.2776    3.7420 C   0  0  0  0  0  0  0  0  0  0  0  0
   -9.1706   -5.9750    2.8981 C   0  0  0  0  0  0  0  0  0  0  0  0
   -9.6809   -6.4260    4.2278 C   0  0  0  0  0  0  0  0  0  0  0  0
  -10.0553   -5.6372    1.9255 C   0  0  0  0  0  0  0  0  0  0  0  0
   -9.6230   -5.2165    0.6678 C   0  0  0  0  0  0  0  0  0  0  0  0
  -10.4868   -4.8481   -0.3849 N   0  0  0  0  0  0  0  0  0  0  0  0
   -9.9684   -4.6256   -1.6771 C   0  0  0  0  0  0  0  0  0  0  0  0
  -11.7821   -4.1589   -0.0306 C   0  0  0  0  0  0  0  0  0  0  0  0
  -11.6836   -2.6468    0.3356 C   0  0  1  0  0  0  0  0  0  0  0  0
  -12.2528   -1.8551   -0.6974 O   0  0  0  0  0  0  0  0  0  0  0  0
  -12.2844   -2.3144    1.7222 C   0  0  1  0  0  0  0  0  0  0  0  0
  -11.9568   -3.3359    2.6597 O   0  0  0  0  0  0  0  0  0  0  0  0
  -11.9475   -0.9251    2.3173 C   0  0  1  0  0  0  0  0  0  0  0  0
  -11.1551   -0.2124    1.3738 O   0  0  0  0  0  0  0  0  0  0  0  0
  -13.2049   -0.0883    2.6436 C   0  0  0  0  0  0  0  0  0  0  0  0
  -12.9095    1.0429    3.4543 O   0  0  0  0  0  0  0  0  0  0  0  0
  -14.0010    1.7640    4.3487 P   0  0  0  0  0  0  0  0  0  0  0  0
  -13.6622    3.1914    4.5479 O   0  0  0  0  0  0  0  0  0  0  0  0
  -15.3633    1.4171    3.8895 O   0  5  0  0  0  0  0  0  0  0  0  0
  -13.8279    1.0831    5.7774 O   0  5  0  0  0  0  0  0  0  0  0  0
  1 18  1  0  0  0  0
  1  2  1  0  0  0  0
  2  4  1  0  0  0  0
  2  3  2  0  0  0  0
  4  5  1  0  0  0  0
  5  7  1  0  0  0  0
  5  6  2  0  0  0  0
  7 18  2  0  0  0  0
  7  8  1  0  0  0  0
  8  9  1  0  0  0  0
  9 10  2  0  0  0  0
  9 16  1  0  0  0  0
 10 11  1  0  0  0  0
 11 12  1  0  0  0  0
 11 13  2  0  0  0  0
 13 14  1  0  0  0  0
 13 15  1  0  0  0  0
 15 16  2  0  0  0  0
 16 17  1  0  0  0  0
 17 19  1  0  0  0  0
 17 18  1  0  0  0  0
 20 19  1  6  0  0  0
 20 22  1  0  0  0  0
 20 21  1  0  0  0  0
 22 24  1  0  0  0  0
 22 23  1  1  0  0  0
 24 26  1  6  0  0  0
 24 25  1  0  0  0  0
 26 27  1  0  0  0  0
 27 28  1  0  0  0  0
 28 30  1  0  0  0  0
 28 29  2  0  0  0  0
 28 31  1  0  0  0  0
M  CHG  2  30  -1  31  -1
M  END
>  <CHROM.1>
77.66140736,109.06450396,39.73385750,-56.54516994,2.20490191,57.77794199
166.81322221,52.36739570,-157.74506963,-152.60562202,-10.78277816,-2.81745056
0.93577396,0.60182263,0.89791058,-1.55415446

>  <Name>
1fmn_cryst

>  <RI>
0

>  <Rbt.Current_Directory>
/home/itssahil/PROJECTS/Mol_Feturizer/New_Systems/rnas/1fmn

>  <Rbt.Executable>
rbdock ($Id: //depot/dev/client3/rdock/2013.1/src/exe/rbdock.cxx#4 $)

>  <Rbt.Library>
libRbt.so (2013.1, Build901 2013/11/27)

>  <Rbt.Parameter_File>
/export/apps/rDock/src/rDock_2013.1_src/data/scripts/dock_solv.prm

>  <Rbt.Receptor>
prm/blind_docking_100.prm

>  <SCORE>
-25.9066

>  <SCORE.INTER>
-28.4254

>  <SCORE.INTER.CONST>
1

>  <SCORE.INTER.POLAR>
-1.31722

>  <SCORE.INTER.ROT>
7

>  <SCORE.INTER.SOLV>
28.0343

>  <SCORE.INTER.VDW>
-32.171

>  <SCORE.INTER.norm>
-0.916948

>  <SCORE.INTRA>
-0.998719

>  <SCORE.INTRA.DIHEDRAL>
1.6052

>  <SCORE.INTRA.DIHEDRAL.0>
15.5708

>  <SCORE.INTRA.POLAR>
-0.288336

>  <SCORE.INTRA.POLAR.0>
-0.0677885

>  <SCORE.INTRA.REPUL>
0

>  <SCORE.INTRA.REPUL.0>
0

>  <SCORE.INTRA.SOLV>
-3.99144

>  <SCORE.INTRA.SOLV.lig_0>
-87.6316

>  <SCORE.INTRA.VDW>
1.17474

>  <SCORE.INTRA.VDW.0>
-2.87309

>  <SCORE.INTRA.norm>
-0.0322167

>  <SCORE.RESTR>
3.51753

>  <SCORE.RESTR.CAVITY>
3.51753

>  <SCORE.RESTR.norm>
0.113469

>  <SCORE.SYSTEM>
0

>  <SCORE.SYSTEM.CONST>
0

>  <SCORE.SYSTEM.DIHEDRAL>
0

>  <SCORE.SYSTEM.SOLV>
0

>  <SCORE.SYSTEM.norm>
0

>  <SCORE.heavy>
31

>  <SCORE.norm>
-0.835696

>  <SYMMETRIC_BONDS>
33 34 3

>  <RMSD>
9.244

$$$$
1fmn_cryst
 OpenBabel11021811393D
libRbt.so/2013.1/901 2013/11/27
 31 33  0  0  0  0  0  0  0  0999 V2000
   -9.7209   -4.4104   -2.7314 N   0  0  0  0  0  0  0  0  0  0  0  0
   -8.6888   -4.6859   -3.5976 C   0  0  0  0  0  0  0  0  0  0  0  0
   -8.8015   -4.5389   -4.8151 O   0  0  0  0  0  0  0  0  0  0  0  0
   -7.4910   -5.1538   -3.0011 N   0  0  0  0  0  0  0  0  0  0  0  0
   -7.2596   -5.3625   -1.6237 C   0  0  0  0  0  0  0  0  0  0  0  0
   -6.1591   -5.7754   -1.2368 O   0  0  0  0  0  0  0  0  0  0  0  0
   -8.4064   -5.0473   -0.7689 C   0  0  0  0  0  0  0  0  0  0  0  0
   -8.2625   -5.2233    0.5848 N   0  0  0  0  0  0  0  0  0  0  0  0
   -9.3806   -5.1037    1.3582 C   0  0  0  0  0  0  0  0  0  0  0  0
   -9.2848   -5.4591    2.6919 C   0  0  0  0  0  0  0  0  0  0  0  0
  -10.3527   -5.3657    3.5179 C   0  0  0  0  0  0  0  0  0  0  0  0
  -10.1950   -5.7595    4.9519 C   0  0  0  0  0  0  0  0  0  0  0  0
  -11.5486   -4.9190    3.0475 C   0  0  0  0  0  0  0  0  0  0  0  0
  -12.7242   -4.8256    3.9648 C   0  0  0  0  0  0  0  0  0  0  0  0
  -11.6895   -4.5584    1.7464 C   0  0  0  0  0  0  0  0  0  0  0  0
  -10.6203   -4.6352    0.8539 C   0  0  0  0  0  0  0  0  0  0  0  0
  -10.6967   -4.2739   -0.5075 N   0  0  0  0  0  0  0  0  0  0  0  0
   -9.6258   -4.5681   -1.3762 C   0  0  0  0  0  0  0  0  0  0  0  0
  -11.5995   -3.1250   -0.8862 C   0  0  0  0  0  0  0  0  0  0  0  0
  -12.1522   -2.2628    0.2891 C   0  0  1  0  0  0  0  0  0  0  0  0
  -11.1228   -2.0058    1.2337 O   0  0  0  0  0  0  0  0  0  0  0  0
  -12.8480   -0.9635   -0.1818 C   0  0  1  0  0  0  0  0  0  0  0  0
  -13.7206   -1.2390   -1.2737 O   0  0  0  0  0  0  0  0  0  0  0  0
  -13.5950   -0.1387    0.8949 C   0  0  1  0  0  0  0  0  0  0  0  0
  -14.3427   -1.0352    1.7092 O   0  0  0  0  0  0  0  0  0  0  0  0
  -12.6423    0.6767    1.7979 C   0  0  0  0  0  0  0  0  0  0  0  0
  -13.3051    1.2270    2.9301 O   0  0  0  0  0  0  0  0  0  0  0  0
  -12.5634    2.1272    4.0029 P   0  0  0  0  0  0  0  0  0  0  0  0
  -11.6354    3.0758    3.3462 O   0  0  0  0  0  0  0  0  0  0  0  0
  -13.5240    2.6507    4.9979 O   0  5  0  0  0  0  0  0  0  0  0  0
  -11.6346    1.0960    4.7832 O   0  5  0  0  0  0  0  0  0  0  0  0
  1 18  1  0  0  0  0
  1  2  1  0  0  0  0
  2  4  1  0  0  0  0
  2  3  2  0  0  0  0
  4  5  1  0  0  0  0
  5  7  1  0  0  0  0
  5  6  2  0  0  0  0
  7 18  2  0  0  0  0
  7  8  1  0  0  0  0
  8  9  1  0  0  0  0
  9 10  2  0  0  0  0
  9 16  1  0  0  0  0
 10 11  1  0  0  0  0
 11 12  1  0  0  0  0
 11 13  2  0  0  0  0
 13 14  1  0  0  0  0
 13 15  1  0  0  0  0
 15 16  2  0  0  0  0
 16 17  1  0  0  0  0
 17 19  1  0  0  0  0
 17 18  1  0  0  0  0
 20 19  1  6  0  0  0
 20 22  1  0  0  0  0
 20 21  1  0  0  0  0
 22 24  1  0  0  0  0
 22 23  1  6  0  0  0
 24 26  1  1  0  0  0
 24 25  1  0  0  0  0
 26 27  1  0  0  0  0
 27 28  1  0  0  0  0
 28 30  1  0  0  0  0
 28 29  2  0  0  0  0
 28 31  1  0  0  0  0
M  CHG  2  30  -1  31  -1
M  END
>  <CHROM.1>
11.55780629,42.98262279,45.50246522,-160.28908118,-43.89353808,61.33608156
-168.94823672,67.31862353,-178.91467139,41.34817074,-10.95658096,-2.56481510
1.01617903,0.31817529,1.05224693,-1.27355207

>  <Name>
1fmn_cryst

>  <RI>
0

>  <Rbt.Current_Directory>
/home/itssahil/PROJECTS/Mol_Feturizer/New_Systems/rnas/1fmn

>  <Rbt.Executable>
rbdock ($Id: //depot/dev/client3/rdock/2013.1/src/exe/rbdock.cxx#4 $)

>  <Rbt.Library>
libRbt.so (2013.1, Build901 2013/11/27)

>  <Rbt.Parameter_File>
/export/apps/rDock/src/rDock_2013.1_src/data/scripts/dock_solv.prm

>  <Rbt.Receptor>
prm/blind_docking_20.prm

>  <SCORE>
-35.3913

>  <SCORE.INTER>
-33.9914

>  <SCORE.INTER.CONST>
1

>  <SCORE.INTER.POLAR>
-1.26409

>  <SCORE.INTER.ROT>
7

>  <SCORE.INTER.SOLV>
34.3927

>  <SCORE.INTER.VDW>
-38.1782

>  <SCORE.INTER.norm>
-1.0965

>  <SCORE.INTRA>
-2.39832

>  <SCORE.INTRA.DIHEDRAL>
-7.65075

>  <SCORE.INTRA.DIHEDRAL.0>
15.5708

>  <SCORE.INTRA.POLAR>
0.0677885

>  <SCORE.INTRA.POLAR.0>
-0.0677885

>  <SCORE.INTRA.REPUL>
0

>  <SCORE.INTRA.REPUL.0>
0

>  <SCORE.INTRA.SOLV>
-3.98987

>  <SCORE.INTRA.SOLV.lig_0>
-87.6316

>  <SCORE.INTRA.VDW>
3.19151

>  <SCORE.INTRA.VDW.0>
-2.87309

>  <SCORE.INTRA.norm>
-0.077365

>  <SCORE.RESTR>
0.998464

>  <SCORE.RESTR.CAVITY>
0.998464

>  <SCORE.RESTR.norm>
0.0322085

>  <SCORE.SYSTEM>
0

>  <SCORE.SYSTEM.CONST>
0

>  <SCORE.SYSTEM.DIHEDRAL>
0

>  <SCORE.SYSTEM.SOLV>
0

>  <SCORE.SYSTEM.norm>
0

>  <SCORE.heavy>
31

>  <SCORE.norm>
-1.14165

>  <SYMMETRIC_BONDS>
33 34 3

>  <RMSD>
9.245

$$$$
1fmn_cryst
 OpenBabel11021811393D
libRbt.so/2013.1/901 2013/11/27
 31 33  0  0  0  0  0  0  0  0999 V2000
  -10.8565   -4.2115   -2.2444 N   0  0  0  0  0  0  0  0  0  0  0  0
  -10.3133   -4.2194   -3.5079 C   0  0  0  0  0  0  0  0  0  0  0  0
  -10.9467   -3.8390   -4.4931 O   0  0  0  0  0  0  0  0  0  0  0  0
   -8.9822   -4.6972   -3.6041 N   0  0  0  0  0  0  0  0  0  0  0  0
   -8.1730   -5.1604   -2.5435 C   0  0  0  0  0  0  0  0  0  0  0  0
   -7.0204   -5.5501   -2.7693 O   0  0  0  0  0  0  0  0  0  0  0  0
   -8.8236   -5.1209   -1.2319 C   0  0  0  0  0  0  0  0  0  0  0  0
   -8.1029   -5.5547   -0.1471 N   0  0  0  0  0  0  0  0  0  0  0  0
   -8.7664   -5.6873    1.0381 C   0  0  0  0  0  0  0  0  0  0  0  0
   -8.1002   -6.2960    2.0869 C   0  0  0  0  0  0  0  0  0  0  0  0
   -8.6959   -6.4606    3.2908 C   0  0  0  0  0  0  0  0  0  0  0  0
   -7.9308   -7.1220    4.3924 C   0  0  0  0  0  0  0  0  0  0  0  0
   -9.9704   -6.0289    3.4920 C   0  0  0  0  0  0  0  0  0  0  0  0
  -10.6227   -6.2210    4.8223 C   0  0  0  0  0  0  0  0  0  0  0  0
  -10.6626   -5.4254    2.4923 C   0  0  0  0  0  0  0  0  0  0  0  0
  -10.0947   -5.2311    1.2332 C   0  0  0  0  0  0  0  0  0  0  0  0
  -10.7555   -4.6093    0.1531 N   0  0  0  0  0  0  0  0  0  0  0  0
  -10.1787   -4.6318   -1.1334 C   0  0  0  0  0  0  0  0  0  0  0  0
  -11.7161   -3.4866    0.4614 C   0  0  0  0  0  0  0  0  0  0  0  0
  -11.7094   -2.9530    1.9261 C   0  0  1  0  0  0  0  0  0  0  0  0
  -10.5014   -2.2522    2.1861 O   0  0  0  0  0  0  0  0  0  0  0  0
  -12.9586   -2.1088    2.2737 C   0  0  1  0  0  0  0  0  0  0  0  0
  -13.4356   -2.4452    3.5733 O   0  0  0  0  0  0  0  0  0  0  0  0
  -12.8244   -0.5716    2.1430 C   0  0  1  0  0  0  0  0  0  0  0  0
  -14.1046   -0.0337    1.8306 O   0  0  0  0  0  0  0  0  0  0  0  0
  -12.3042    0.0998    3.4338 C   0  0  0  0  0  0  0  0  0  0  0  0
  -12.8227    1.4128    3.6103 O   0  0  0  0  0  0  0  0  0  0  0  0
  -13.6649    1.8370    4.8839 P   0  0  0  0  0  0  0  0  0  0  0  0
  -14.9803    1.1576    4.8981 O   0  0  0  0  0  0  0  0  0  0  0  0
  -12.8286    1.7862    6.1025 O   0  5  0  0  0  0  0  0  0  0  0  0
  -13.9846    3.3758    4.6294 O   0  5  0  0  0  0  0  0  0  0  0  0
  1 18  1  0  0  0  0
  1  2  1  0  0  0  0
  2  4  1  0  0  0  0
  2  3  2  0  0  0  0
  4  5  1  0  0  0  0
  5  7  1  0  0  0  0
  5  6  2  0  0  0  0
  7 18  2  0  0  0  0
  7  8  1  0  0  0  0
  8  9  1  0  0  0  0
  9 10  2  0  0  0  0
  9 16  1  0  0  0  0
 10 11  1  0  0  0  0
 11 12  1  0  0  0  0
 11 13  2  0  0  0  0
 13 14  1  0  0  0  0
 13 15  1  0  0  0  0
 15 16  2  0  0  0  0
 16 17  1  0  0  0  0
 17 19  1  0  0  0  0
 17 18  1  0  0  0  0
 20 19  1  6  0  0  0
 20 22  1  0  0  0  0
 20 21  1  0  0  0  0
 22 24  1  0  0  0  0
 22 23  1  1  0  0  0
 24 26  1  1  0  0  0
 24 25  1  0  0  0  0
 26 27  1  0  0  0  0
 27 28  1  0  0  0  0
 28 30  1  0  0  0  0
 28 29  2  0  0  0  0
 28 31  1  0  0  0  0
M  CHG  2  30  -1  31  -1
M  END
>  <CHROM.1>
10.08933801,69.85173445,137.76206285,149.62666562,151.02596954,-172.37859552
-148.43960111,56.54038660,121.16310519,-68.22450194,-11.07080902,-2.88335448
1.59467271,0.49636648,0.99964001,-1.45675915

>  <Name>
1fmn_cryst

>  <RI>
0

>  <Rbt.Current_Directory>
/home/itssahil/PROJECTS/Mol_Feturizer/New_Systems/rnas/1fmn

>  <Rbt.Executable>
rbdock ($Id: //depot/dev/client3/rdock/2013.1/src/exe/rbdock.cxx#4 $)

>  <Rbt.Library>
libRbt.so (2013.1, Build901 2013/11/27)

>  <Rbt.Parameter_File>
/export/apps/rDock/src/rDock_2013.1_src/data/scripts/dock_solv.prm

>  <Rbt.Receptor>
prm/blind_docking_80.prm

>  <SCORE>
-18.4146

>  <SCORE.INTER>
-26.3624

>  <SCORE.INTER.CONST>
1

>  <SCORE.INTER.POLAR>
-2.66733

>  <SCORE.INTER.ROT>
7

>  <SCORE.INTER.SOLV>
28.1881

>  <SCORE.INTER.VDW>
-26.3465

>  <SCORE.INTER.norm>
-0.850399

>  <SCORE.INTRA>
6.87647

>  <SCORE.INTRA.DIHEDRAL>
8.04022

>  <SCORE.INTRA.DIHEDRAL.0>
15.5708

>  <SCORE.INTRA.POLAR>
0.0677885

>  <SCORE.INTRA.POLAR.0>
-0.0677885

>  <SCORE.INTRA.REPUL>
0

>  <SCORE.INTRA.REPUL.0>
0

>  <SCORE.INTRA.SOLV>
-2.29223

>  <SCORE.INTRA.SOLV.lig_0>
-87.6316

>  <SCORE.INTRA.VDW>
3.772

>  <SCORE.INTRA.VDW.0>
-2.87309

>  <SCORE.INTRA.norm>
0.221822

>  <SCORE.RESTR>
1.07126

>  <SCORE.RESTR.CAVITY>
1.07126

>  <SCORE.RESTR.norm>
0.0345567

>  <SCORE.SYSTEM>
0

>  <SCORE.SYSTEM.CONST>
0

>  <SCORE.SYSTEM.DIHEDRAL>
0

>  <SCORE.SYSTEM.SOLV>
0

>  <SCORE.SYSTEM.norm>
0

>  <SCORE.heavy>
31

>  <SCORE.norm>
-0.59402

>  <SYMMETRIC_BONDS>
33 34 3

>  <RMSD>
9.262

$$$$
1fmn_cryst
 OpenBabel11021811393D
libRbt.so/2013.1/901 2013/11/27
 31 33  0  0  0  0  0  0  0  0999 V2000
  -10.6326   -4.0071   -2.2977 N   0  0  0  0  0  0  0  0  0  0  0  0
  -10.0219   -3.9990   -3.5300 C   0  0  0  0  0  0  0  0  0  0  0  0
  -10.6022   -3.6082   -4.5435 O   0  0  0  0  0  0  0  0  0  0  0  0
   -8.6862   -4.4728   -3.5596 N   0  0  0  0  0  0  0  0  0  0  0  0
   -7.9342   -4.9468   -2.4624 C   0  0  0  0  0  0  0  0  0  0  0  0
   -6.7701   -5.3314   -2.6301 O   0  0  0  0  0  0  0  0  0  0  0  0
   -8.6549   -4.9242   -1.1875 C   0  0  0  0  0  0  0  0  0  0  0  0
   -7.9927   -5.3692   -0.0705 N   0  0  0  0  0  0  0  0  0  0  0  0
   -8.7189   -5.5173    1.0755 C   0  0  0  0  0  0  0  0  0  0  0  0
   -8.1087   -6.1369    2.1516 C   0  0  0  0  0  0  0  0  0  0  0  0
   -8.7681   -6.3171    3.3195 C   0  0  0  0  0  0  0  0  0  0  0  0
   -8.0618   -6.9898    4.4531 C   0  0  0  0  0  0  0  0  0  0  0  0
  -10.0528   -5.8904    3.4566 C   0  0  0  0  0  0  0  0  0  0  0  0
  -10.7755   -6.0996    4.7473 C   0  0  0  0  0  0  0  0  0  0  0  0
  -10.6916   -5.2766    2.4280 C   0  0  0  0  0  0  0  0  0  0  0  0
  -10.0570   -5.0662    1.2039 C   0  0  0  0  0  0  0  0  0  0  0  0
  -10.6602   -4.4331    0.0969 N   0  0  0  0  0  0  0  0  0  0  0  0
  -10.0147   -4.4391   -1.1566 C   0  0  0  0  0  0  0  0  0  0  0  0
  -11.6391   -3.3161    0.3660 C   0  0  0  0  0  0  0  0  0  0  0  0
  -11.7370   -2.8223    1.8414 C   0  0  1  0  0  0  0  0  0  0  0  0
  -10.5406   -2.1531    2.2138 O   0  0  0  0  0  0  0  0  0  0  0  0
  -12.9942   -1.9630    2.1152 C   0  0  1  0  0  0  0  0  0  0  0  0
  -13.4423   -2.1564    3.4536 O   0  0  0  0  0  0  0  0  0  0  0  0
  -12.8888   -0.4489    1.8081 C   0  0  1  0  0  0  0  0  0  0  0  0
  -14.1451   -0.0029    1.3094 O   0  0  0  0  0  0  0  0  0  0  0  0
  -12.5191    0.3934    3.0497 C   0  0  0  0  0  0  0  0  0  0  0  0
  -13.6033    0.5214    3.9620 O   0  0  0  0  0  0  0  0  0  0  0  0
  -13.6328    1.6144    5.1091 P   0  0  0  0  0  0  0  0  0  0  0  0
  -12.6392    1.3031    6.1616 O   0  0  0  0  0  0  0  0  0  0  0  0
  -13.6495    2.9758    4.5316 O   0  5  0  0  0  0  0  0  0  0  0  0
  -15.0554    1.4054    5.7928 O   0  5  0  0  0  0  0  0  0  0  0  0
  1 18  1  0  0  0  0
  1  2  1  0  0  0  0
  2  4  1  0  0  0  0
  2  3  2  0  0  0  0
  4  5  1  0  0  0  0
  5  7  1  0  0  0  0
  5  6  2  0  0  0  0
  7 18  2  0  0  0  0
  7  8  1  0  0  0  0
  8  9  1  0  0  0  0
  9 10  2  0  0  0  0
  9 16  1  0  0  0  0
 10 11  1  0  0  0  0
 11 12  1  0  0  0  0
 11 13  2  0  0  0  0
 13 14  1  0  0  0  0
 13 15  1  0  0  0  0
 15 16  2  0  0  0  0
 16 17  1  0  0  0  0
 17 19  1  0  0  0  0
 17 18  1  0  0  0  0
 20 19  1  6  0  0  0
 20 22  1  0  0  0  0
 20 21  1  0  0  0  0
 22 24  1  0  0  0  0
 22 23  1  1  0  0  0
 24 26  1  1  0  0  0
 24 25  1  0  0  0  0
 26 27  1  0  0  0  0
 27 28  1  0  0  0  0
 28 30  1  0  0  0  0
 28 29  2  0  0  0  0
 28 31  1  0  0  0  0
M  CHG  2  30  -1  31  -1
M  END
>  <CHROM.1>
8.71649921,68.83471330,147.77965909,153.26022435,144.21172383,55.27861113
-73.61753072,-174.19791072,-163.79203200,-70.10576015,-11.03129453,-2.81234151
1.60258462,0.48835343,0.97148454,-1.39682617

>  <Name>
1fmn_cryst

>  <RI>
0

>  <Rbt.Current_Directory>
/home/itssahil/PROJECTS/Mol_Feturizer/New_Systems/rnas/1fmn

>  <Rbt.Executable>
rbdock ($Id: //depot/dev/client3/rdock/2013.1/src/exe/rbdock.cxx#4 $)

>  <Rbt.Library>
libRbt.so (2013.1, Build901 2013/11/27)

>  <Rbt.Parameter_File>
/export/apps/rDock/src/rDock_2013.1_src/data/scripts/dock_solv.prm

>  <Rbt.Receptor>
prm/blind_docking_100.prm

>  <SCORE>
-21.8098

>  <SCORE.INTER>
-24.6936

>  <SCORE.INTER.CONST>
1

>  <SCORE.INTER.POLAR>
-2.05784

>  <SCORE.INTER.ROT>
7

>  <SCORE.INTER.SOLV>
27.9858

>  <SCORE.INTER.VDW>
-27.1982

>  <SCORE.INTER.norm>
-0.796568

>  <SCORE.INTRA>
0.650614

>  <SCORE.INTRA.DIHEDRAL>
-1.21597

>  <SCORE.INTRA.DIHEDRAL.0>
15.5708

>  <SCORE.INTRA.POLAR>
0.0677885

>  <SCORE.INTRA.POLAR.0>
-0.0677885

>  <SCORE.INTRA.REPUL>
0

>  <SCORE.INTRA.REPUL.0>
0

>  <SCORE.INTRA.SOLV>
-4.46437

>  <SCORE.INTRA.SOLV.lig_0>
-87.6316

>  <SCORE.INTRA.VDW>
3.2603

>  <SCORE.INTRA.VDW.0>
-2.87309

>  <SCORE.INTRA.norm>
0.0209876

>  <SCORE.RESTR>
2.23322

>  <SCORE.RESTR.CAVITY>
2.23322

>  <SCORE.RESTR.norm>
0.0720394

>  <SCORE.SYSTEM>
0

>  <SCORE.SYSTEM.CONST>
0

>  <SCORE.SYSTEM.DIHEDRAL>
0

>  <SCORE.SYSTEM.SOLV>
0

>  <SCORE.SYSTEM.norm>
0

>  <SCORE.heavy>
31

>  <SCORE.norm>
-0.703541

>  <SYMMETRIC_BONDS>
33 34 3

>  <RMSD>
9.273

$$$$
1fmn_cryst
 OpenBabel11021811393D
libRbt.so/2013.1/901 2013/11/27
 31 33  0  0  0  0  0  0  0  0999 V2000
  -10.9018   -4.3730   -1.8435 N   0  0  0  0  0  0  0  0  0  0  0  0
  -10.3962   -4.1784   -3.1077 C   0  0  0  0  0  0  0  0  0  0  0  0
  -11.1155   -3.8675   -4.0576 O   0  0  0  0  0  0  0  0  0  0  0  0
   -8.9978   -4.3633   -3.2480 N   0  0  0  0  0  0  0  0  0  0  0  0
   -8.0878   -4.7240   -2.2302 C   0  0  0  0  0  0  0  0  0  0  0  0
   -6.8850   -4.8505   -2.4920 O   0  0  0  0  0  0  0  0  0  0  0  0
   -8.7039   -4.9134   -0.9150 C   0  0  0  0  0  0  0  0  0  0  0  0
   -7.8860   -5.2655    0.1297 N   0  0  0  0  0  0  0  0  0  0  0  0
   -8.4822   -5.6164    1.3062 C   0  0  0  0  0  0  0  0  0  0  0  0
   -7.6825   -6.1479    2.3024 C   0  0  0  0  0  0  0  0  0  0  0  0
   -8.2053   -6.5175    3.4946 C   0  0  0  0  0  0  0  0  0  0  0  0
   -7.2968   -7.0837    4.5389 C   0  0  0  0  0  0  0  0  0  0  0  0
   -9.5365   -6.3734    3.7358 C   0  0  0  0  0  0  0  0  0  0  0  0
  -10.1064   -6.7904    5.0524 C   0  0  0  0  0  0  0  0  0  0  0  0
  -10.3595   -5.8559    2.7884 C   0  0  0  0  0  0  0  0  0  0  0  0
   -9.8712   -5.4592    1.5435 C   0  0  0  0  0  0  0  0  0  0  0  0
  -10.6689   -4.9116    0.5170 N   0  0  0  0  0  0  0  0  0  0  0  0
  -10.1281   -4.7227   -0.7713 C   0  0  0  0  0  0  0  0  0  0  0  0
  -11.8326   -4.0361    0.9144 C   0  0  0  0  0  0  0  0  0  0  0  0
  -11.7189   -2.5254    0.5471 C   0  0  1  0  0  0  0  0  0  0  0  0
  -12.1282   -2.3165   -0.7970 O   0  0  0  0  0  0  0  0  0  0  0  0
  -12.4682   -1.5993    1.5346 C   0  0  1  0  0  0  0  0  0  0  0  0
  -12.3806   -2.1164    2.8591 O   0  0  0  0  0  0  0  0  0  0  0  0
  -12.0752   -0.1015    1.5263 C   0  0  1  0  0  0  0  0  0  0  0  0
  -13.1422    0.6398    0.9449 O   0  0  0  0  0  0  0  0  0  0  0  0
  -11.7949    0.4558    2.9400 C   0  0  0  0  0  0  0  0  0  0  0  0
  -12.9289    0.3655    3.7944 O   0  0  0  0  0  0  0  0  0  0  0  0
  -14.0434    1.4901    3.8601 P   0  0  0  0  0  0  0  0  0  0  0  0
  -15.0345    1.3163    2.7741 O   0  0  0  0  0  0  0  0  0  0  0  0
  -14.5332    1.6584    5.2453 O   0  5  0  0  0  0  0  0  0  0  0  0
  -13.2531    2.8256    3.5040 O   0  5  0  0  0  0  0  0  0  0  0  0
  1 18  1  0  0  0  0
  1  2  1  0  0  0  0
  2  4  1  0  0  0  0
  2  3  2  0  0  0  0
  4  5  1  0  0  0  0
  5  7  1  0  0  0  0
  5  6  2  0  0  0  0
  7 18  2  0  0  0  0
  7  8  1  0  0  0  0
  8  9  1  0  0  0  0
  9 10  2  0  0  0  0
  9 16  1  0  0  0  0
 10 11  1  0  0  0  0
 11 12  1  0  0  0  0
 11 13  2  0  0  0  0
 13 14  1  0  0  0  0
 13 15  1  0  0  0  0
 15 16  2  0  0  0  0
 16 17  1  0  0  0  0
 17 19  1  0  0  0  0
 17 18  1  0  0  0  0
 20 19  1  1  0  0  0
 20 22  1  0  0  0  0
 20 21  1  0  0  0  0
 22 24  1  0  0  0  0
 22 23  1  1  0  0  0
 24 26  1  1  0  0  0
 24 25  1  0  0  0  0
 26 27  1  0  0  0  0
 27 28  1  0  0  0  0
 28 30  1  0  0  0  0
 28 29  2  0  0  0  0
 28 31  1  0  0  0  0
M  CHG  2  30  -1  31  -1
M  END
>  <CHROM.1>
112.12776888,83.54382950,35.37406242,-170.86568318,108.68876379,-66.96515494
-60.74965371,-58.49732201,-87.04271754,83.24557538,-10.96467139,-2.88995856
1.29271906,0.28914388,0.95649494,-1.44994341

>  <Name>
1fmn_cryst

>  <RI>
0

>  <Rbt.Current_Directory>
/home/itssahil/PROJECTS/Mol_Feturizer/New_Systems/rnas/1fmn

>  <Rbt.Executable>
rbdock ($Id: //depot/dev/client3/rdock/2013.1/src/exe/rbdock.cxx#4 $)

>  <Rbt.Library>
libRbt.so (2013.1, Build901 2013/11/27)

>  <Rbt.Parameter_File>
/export/apps/rDock/src/rDock_2013.1_src/data/scripts/dock_solv.prm

>  <Rbt.Receptor>
prm/blind_docking_60.prm

>  <SCORE>
-24.8003

>  <SCORE.INTER>
-29.2224

>  <SCORE.INTER.CONST>
1

>  <SCORE.INTER.POLAR>
-0.547377

>  <SCORE.INTER.ROT>
7

>  <SCORE.INTER.SOLV>
23.1756

>  <SCORE.INTER.VDW>
-33.6488

>  <SCORE.INTER.norm>
-0.942656

>  <SCORE.INTRA>
2.33005

>  <SCORE.INTRA.DIHEDRAL>
-0.194264

>  <SCORE.INTRA.DIHEDRAL.0>
15.5708

>  <SCORE.INTRA.POLAR>
-0.043236

>  <SCORE.INTRA.POLAR.0>
-0.0677885

>  <SCORE.INTRA.REPUL>
0

>  <SCORE.INTRA.REPUL.0>
0

>  <SCORE.INTRA.SOLV>
1.10135

>  <SCORE.INTRA.SOLV.lig_0>
-87.6316

>  <SCORE.INTRA.VDW>
2.02351

>  <SCORE.INTRA.VDW.0>
-2.87309

>  <SCORE.INTRA.norm>
0.075163

>  <SCORE.RESTR>
2.092

>  <SCORE.RESTR.CAVITY>
2.092

>  <SCORE.RESTR.norm>
0.0674838

>  <SCORE.SYSTEM>
0

>  <SCORE.SYSTEM.CONST>
0

>  <SCORE.SYSTEM.DIHEDRAL>
0

>  <SCORE.SYSTEM.SOLV>
0

>  <SCORE.SYSTEM.norm>
0

>  <SCORE.heavy>
31

>  <SCORE.norm>
-0.80001

>  <SYMMETRIC_BONDS>
33 34 3

>  <RMSD>
9.279

$$$$
1fmn_cryst
 OpenBabel11021811393D
libRbt.so/2013.1/901 2013/11/27
 31 33  0  0  0  0  0  0  0  0999 V2000
  -10.9264   -4.2945   -1.8300 N   0  0  0  0  0  0  0  0  0  0  0  0
  -10.4181   -4.0898   -3.0914 C   0  0  0  0  0  0  0  0  0  0  0  0
  -11.1357   -3.7732   -4.0408 O   0  0  0  0  0  0  0  0  0  0  0  0
   -9.0190   -4.2709   -3.2295 N   0  0  0  0  0  0  0  0  0  0  0  0
   -8.1108   -4.6374   -2.2121 C   0  0  0  0  0  0  0  0  0  0  0  0
   -6.9071   -4.7597   -2.4719 O   0  0  0  0  0  0  0  0  0  0  0  0
   -8.7298   -4.8376   -0.8999 C   0  0  0  0  0  0  0  0  0  0  0  0
   -7.9139   -5.1957    0.1442 N   0  0  0  0  0  0  0  0  0  0  0  0
   -8.5123   -5.5564    1.3166 C   0  0  0  0  0  0  0  0  0  0  0  0
   -7.7140   -6.0936    2.3108 C   0  0  0  0  0  0  0  0  0  0  0  0
   -8.2390   -6.4729    3.4991 C   0  0  0  0  0  0  0  0  0  0  0  0
   -7.3321   -7.0450    4.5414 C   0  0  0  0  0  0  0  0  0  0  0  0
   -9.5711   -6.3331    3.7380 C   0  0  0  0  0  0  0  0  0  0  0  0
  -10.1435   -6.7608    5.0501 C   0  0  0  0  0  0  0  0  0  0  0  0
  -10.3928   -5.8103    2.7923 C   0  0  0  0  0  0  0  0  0  0  0  0
   -9.9021   -5.4035    1.5516 C   0  0  0  0  0  0  0  0  0  0  0  0
  -10.6984   -4.8499    0.5272 N   0  0  0  0  0  0  0  0  0  0  0  0
  -10.1547   -4.6506   -0.7584 C   0  0  0  0  0  0  0  0  0  0  0  0
  -11.8647   -3.9796    0.9281 C   0  0  0  0  0  0  0  0  0  0  0  0
  -11.7226   -2.4549    0.6362 C   0  0  1  0  0  0  0  0  0  0  0  0
  -12.3238   -2.1373   -0.6111 O   0  0  0  0  0  0  0  0  0  0  0  0
  -12.2541   -1.5621    1.7828 C   0  0  1  0  0  0  0  0  0  0  0  0
  -12.3207   -2.3052    2.9964 O   0  0  0  0  0  0  0  0  0  0  0  0
  -11.5186   -0.2212    2.0254 C   0  0  1  0  0  0  0  0  0  0  0  0
  -11.9517    0.7131    1.0428 O   0  0  0  0  0  0  0  0  0  0  0  0
  -11.7896    0.3697    3.4272 C   0  0  0  0  0  0  0  0  0  0  0  0
  -13.1713    0.3540    3.7657 O   0  0  0  0  0  0  0  0  0  0  0  0
  -14.1350    1.5810    3.4882 P   0  0  0  0  0  0  0  0  0  0  0  0
  -15.5087    1.2911    3.9583 O   0  0  0  0  0  0  0  0  0  0  0  0
  -13.4974    2.8490    3.9037 O   0  5  0  0  0  0  0  0  0  0  0  0
  -14.2318    1.6331    1.8999 O   0  5  0  0  0  0  0  0  0  0  0  0
  1 18  1  0  0  0  0
  1  2  1  0  0  0  0
  2  4  1  0  0  0  0
  2  3  2  0  0  0  0
  4  5  1  0  0  0  0
  5  7  1  0  0  0  0
  5  6  2  0  0  0  0
  7 18  2  0  0  0  0
  7  8  1  0  0  0  0
  8  9  1  0  0  0  0
  9 10  2  0  0  0  0
  9 16  1  0  0  0  0
 10 11  1  0  0  0  0
 11 12  1  0  0  0  0
 11 13  2  0  0  0  0
 13 14  1  0  0  0  0
 13 15  1  0  0  0  0
 15 16  2  0  0  0  0
 16 17  1  0  0  0  0
 17 19  1  0  0  0  0
 17 18  1  0  0  0  0
 20 19  1  1  0  0  0
 20 22  1  0  0  0  0
 20 21  1  0  0  0  0
 22 24  1  0  0  0  0
 22 23  1  1  0  0  0
 24 26  1  1  0  0  0
 24 25  1  0  0  0  0
 26 27  1  0  0  0  0
 27 28  1  0  0  0  0
 28 30  1  0  0  0  0
 28 29  2  0  0  0  0
 28 31  1  0  0  0  0
M  CHG  2  30  -1  31  -1
M  END
>  <CHROM.1>
109.18231139,94.75656352,19.91751881,68.95391387,78.32808705,176.30817727
-46.80094847,60.72297244,-92.76125125,-179.26543861,-10.95249709,-2.84690215
1.26982866,0.22522275,0.95723539,-1.41823245

>  <Name>
1fmn_cryst

>  <RI>
0

>  <Rbt.Current_Directory>
/home/itssahil/PROJECTS/Mol_Feturizer/New_Systems/rnas/1fmn

>  <Rbt.Executable>
rbdock ($Id: //depot/dev/client3/rdock/2013.1/src/exe/rbdock.cxx#4 $)

>  <Rbt.Library>
libRbt.so (2013.1, Build901 2013/11/27)

>  <Rbt.Parameter_File>
/export/apps/rDock/src/rDock_2013.1_src/data/scripts/dock_solv.prm

>  <Rbt.Receptor>
prm/blind_docking_60.prm

>  <SCORE>
-28.3374

>  <SCORE.INTER>
-29.0332

>  <SCORE.INTER.CONST>
1

>  <SCORE.INTER.POLAR>
-0.789855

>  <SCORE.INTER.ROT>
7

>  <SCORE.INTER.SOLV>
23.8444

>  <SCORE.INTER.VDW>
-32.9374

>  <SCORE.INTER.norm>
-0.936553

>  <SCORE.INTRA>
-1.73572

>  <SCORE.INTRA.DIHEDRAL>
-0.0998105

>  <SCORE.INTRA.DIHEDRAL.0>
15.5708

>  <SCORE.INTRA.POLAR>
-1.69863

>  <SCORE.INTRA.POLAR.0>
-0.0677885

>  <SCORE.INTRA.REPUL>
0

>  <SCORE.INTRA.REPUL.0>
0

>  <SCORE.INTRA.SOLV>
1.15433

>  <SCORE.INTRA.SOLV.lig_0>
-87.6316

>  <SCORE.INTRA.VDW>
3.51237

>  <SCORE.INTRA.VDW.0>
-2.87309

>  <SCORE.INTRA.norm>
-0.055991

>  <SCORE.RESTR>
2.43144

>  <SCORE.RESTR.CAVITY>
2.43144

>  <SCORE.RESTR.norm>
0.0784336

>  <SCORE.SYSTEM>
0

>  <SCORE.SYSTEM.CONST>
0

>  <SCORE.SYSTEM.DIHEDRAL>
0

>  <SCORE.SYSTEM.SOLV>
0

>  <SCORE.SYSTEM.norm>
0

>  <SCORE.heavy>
31

>  <SCORE.norm>
-0.914111

>  <SYMMETRIC_BONDS>
33 34 3

>  <RMSD>
9.284

$$$$
1fmn_cryst
 OpenBabel11021811393D
libRbt.so/2013.1/901 2013/11/27
 31 33  0  0  0  0  0  0  0  0999 V2000
  -11.3190   -4.2877   -1.2464 N   0  0  0  0  0  0  0  0  0  0  0  0
  -11.0430   -3.9547   -2.5520 C   0  0  0  0  0  0  0  0  0  0  0  0
  -11.9310   -3.6560   -3.3511 O   0  0  0  0  0  0  0  0  0  0  0  0
   -9.6742   -3.9822   -2.9194 N   0  0  0  0  0  0  0  0  0  0  0  0
   -8.5833   -4.3152   -2.0868 C   0  0  0  0  0  0  0  0  0  0  0  0
   -7.4316   -4.2968   -2.5391 O   0  0  0  0  0  0  0  0  0  0  0  0
   -8.9602   -4.6580   -0.7136 C   0  0  0  0  0  0  0  0  0  0  0  0
   -7.9564   -4.9938    0.1603 N   0  0  0  0  0  0  0  0  0  0  0  0
   -8.3210   -5.4853    1.3802 C   0  0  0  0  0  0  0  0  0  0  0  0
   -7.3262   -5.9976    2.1940 C   0  0  0  0  0  0  0  0  0  0  0  0
   -7.6145   -6.5010    3.4166 C   0  0  0  0  0  0  0  0  0  0  0  0
   -6.5019   -7.0397    4.2582 C   0  0  0  0  0  0  0  0  0  0  0  0
   -8.8974   -6.5138    3.8697 C   0  0  0  0  0  0  0  0  0  0  0  0
   -9.2076   -7.0778    5.2180 C   0  0  0  0  0  0  0  0  0  0  0  0
   -9.9060   -6.0212    3.1063 C   0  0  0  0  0  0  0  0  0  0  0  0
   -9.6624   -5.4908    1.8394 C   0  0  0  0  0  0  0  0  0  0  0  0
  -10.6617   -4.9602    0.9968 N   0  0  0  0  0  0  0  0  0  0  0  0
  -10.3544   -4.6275   -0.3384 C   0  0  0  0  0  0  0  0  0  0  0  0
  -11.8224   -4.2407    1.6398 C   0  0  0  0  0  0  0  0  0  0  0  0
  -11.7090   -2.6886    1.7319 C   0  0  1  0  0  0  0  0  0  0  0  0
  -11.4841   -2.1370    0.4423 O   0  0  0  0  0  0  0  0  0  0  0  0
  -12.9139   -2.0300    2.4449 C   0  0  1  0  0  0  0  0  0  0  0  0
  -13.1512   -2.6627    3.6992 O   0  0  0  0  0  0  0  0  0  0  0  0
  -12.8642   -0.4935    2.6306 C   0  0  1  0  0  0  0  0  0  0  0  0
  -11.6674   -0.1635    3.3268 O   0  0  0  0  0  0  0  0  0  0  0  0
  -12.8889    0.2764    1.2911 C   0  0  0  0  0  0  0  0  0  0  0  0
  -13.5216    1.5456    1.4054 O   0  0  0  0  0  0  0  0  0  0  0  0
  -12.8544    2.7705    2.1574 P   0  0  0  0  0  0  0  0  0  0  0  0
  -11.9795    2.3030    3.2566 O   0  0  0  0  0  0  0  0  0  0  0  0
  -12.3119    3.7454    1.1867 O   0  5  0  0  0  0  0  0  0  0  0  0
  -14.0829    3.4906    2.8695 O   0  5  0  0  0  0  0  0  0  0  0  0
  1 18  1  0  0  0  0
  1  2  1  0  0  0  0
  2  4  1  0  0  0  0
  2  3  2  0  0  0  0
  4  5  1  0  0  0  0
  5  7  1  0  0  0  0
  5  6  2  0  0  0  0
  7 18  2  0  0  0  0
  7  8  1  0  0  0  0
  8  9  1  0  0  0  0
  9 10  2  0  0  0  0
  9 16  1  0  0  0  0
 10 11  1  0  0  0  0
 11 12  1  0  0  0  0
 11 13  2  0  0  0  0
 13 14  1  0  0  0  0
 13 15  1  0  0  0  0
 15 16  2  0  0  0  0
 16 17  1  0  0  0  0
 17 19  1  0  0  0  0
 17 18  1  0  0  0  0
 20 19  1  6  0  0  0
 20 22  1  0  0  0  0
 20 21  1  0  0  0  0
 22 24  1  0  0  0  0
 22 23  1  1  0  0  0
 24 26  1  6  0  0  0
 24 25  1  0  0  0  0
 26 27  1  0  0  0  0
 27 28  1  0  0  0  0
 28 30  1  0  0  0  0
 28 29  2  0  0  0  0
 28 31  1  0  0  0  0
M  CHG  2  30  -1  31  -1
M  END
>  <CHROM.1>
95.74958073,55.52129638,51.31660326,65.26126947,-55.96062828,-167.07915289
149.27786099,-65.70206419,72.07005368,-30.41547978,-10.77754565,-2.64750253
1.29658067,0.06005896,1.05927723,-1.52715478

>  <Name>
1fmn_cryst

>  <RI>
0

>  <Rbt.Current_Directory>
/home/itssahil/PROJECTS/Mol_Feturizer/New_Systems/rnas/1fmn

>  <Rbt.Executable>
rbdock ($Id: //depot/dev/client3/rdock/2013.1/src/exe/rbdock.cxx#4 $)

>  <Rbt.Library>
libRbt.so (2013.1, Build901 2013/11/27)

>  <Rbt.Parameter_File>
/export/apps/rDock/src/rDock_2013.1_src/data/scripts/dock_solv.prm

>  <Rbt.Receptor>
prm/blind_docking_60.prm

>  <SCORE>
-39.5483

>  <SCORE.INTER>
-40.1193

>  <SCORE.INTER.CONST>
1

>  <SCORE.INTER.POLAR>
-2.84275

>  <SCORE.INTER.ROT>
7

>  <SCORE.INTER.SOLV>
28.0094

>  <SCORE.INTER.VDW>
-34.8735

>  <SCORE.INTER.norm>
-1.29417

>  <SCORE.INTRA>
-2.92084

>  <SCORE.INTRA.DIHEDRAL>
-7.46416

>  <SCORE.INTRA.DIHEDRAL.0>
15.5708

>  <SCORE.INTRA.POLAR>
0.0677885

>  <SCORE.INTRA.POLAR.0>
-0.0677885

>  <SCORE.INTRA.REPUL>
0

>  <SCORE.INTRA.REPUL.0>
0

>  <SCORE.INTRA.SOLV>
-0.0834253

>  <SCORE.INTRA.SOLV.lig_0>
-87.6316

>  <SCORE.INTRA.VDW>
0.622471

>  <SCORE.INTRA.VDW.0>
-2.87309

>  <SCORE.INTRA.norm>
-0.0942207

>  <SCORE.RESTR>
3.49184

>  <SCORE.RESTR.CAVITY>
3.49184

>  <SCORE.RESTR.norm>
0.11264

>  <SCORE.SYSTEM>
0

>  <SCORE.SYSTEM.CONST>
0

>  <SCORE.SYSTEM.DIHEDRAL>
0

>  <SCORE.SYSTEM.SOLV>
0

>  <SCORE.SYSTEM.norm>
0

>  <SCORE.heavy>
31

>  <SCORE.norm>
-1.27575

>  <SYMMETRIC_BONDS>
33 34 3

>  <RMSD>
9.289

$$$$
1fmn_cryst
 OpenBabel11021811393D
libRbt.so/2013.1/901 2013/11/27
 31 33  0  0  0  0  0  0  0  0999 V2000
  -10.8884   -4.3429   -1.8983 N   0  0  0  0  0  0  0  0  0  0  0  0
  -10.3666   -4.1429   -3.1550 C   0  0  0  0  0  0  0  0  0  0  0  0
  -11.0749   -3.8375   -4.1149 O   0  0  0  0  0  0  0  0  0  0  0  0
   -8.9647   -4.3154   -3.2754 N   0  0  0  0  0  0  0  0  0  0  0  0
   -8.0662   -4.6690   -2.2449 C   0  0  0  0  0  0  0  0  0  0  0  0
   -6.8587   -4.7848   -2.4896 O   0  0  0  0  0  0  0  0  0  0  0  0
   -8.6994   -4.8648   -0.9388 C   0  0  0  0  0  0  0  0  0  0  0  0
   -7.8935   -5.2105    0.1172 N   0  0  0  0  0  0  0  0  0  0  0  0
   -8.5033   -5.5676    1.2848 C   0  0  0  0  0  0  0  0  0  0  0  0
   -7.7133   -6.0929    2.2920 C   0  0  0  0  0  0  0  0  0  0  0  0
   -8.2498   -6.4679    3.4764 C   0  0  0  0  0  0  0  0  0  0  0  0
   -7.3515   -7.0270    4.5332 C   0  0  0  0  0  0  0  0  0  0  0  0
   -9.5856   -6.3357    3.6987 C   0  0  0  0  0  0  0  0  0  0  0  0
  -10.1705   -6.7587    5.0067 C   0  0  0  0  0  0  0  0  0  0  0  0
  -10.3995   -5.8246    2.7399 C   0  0  0  0  0  0  0  0  0  0  0  0
   -9.8968   -5.4227    1.5024 C   0  0  0  0  0  0  0  0  0  0  0  0
  -10.6846   -4.8812    0.4650 N   0  0  0  0  0  0  0  0  0  0  0  0
  -10.1271   -4.6866   -0.8154 C   0  0  0  0  0  0  0  0  0  0  0  0
  -11.8614   -4.0163    0.8463 C   0  0  0  0  0  0  0  0  0  0  0  0
  -11.6795   -2.4793    0.6601 C   0  0  1  0  0  0  0  0  0  0  0  0
  -12.2349   -2.0675   -0.5808 O   0  0  0  0  0  0  0  0  0  0  0  0
  -12.2281   -1.6518    1.8469 C   0  0  1  0  0  0  0  0  0  0  0  0
  -12.2749   -2.4506    3.0256 O   0  0  0  0  0  0  0  0  0  0  0  0
  -11.5224   -0.3069    2.1492 C   0  0  1  0  0  0  0  0  0  0  0  0
  -11.6150    0.5188    0.9935 O   0  0  0  0  0  0  0  0  0  0  0  0
  -12.1444    0.4438    3.3480 C   0  0  0  0  0  0  0  0  0  0  0  0
  -13.5117    0.7729    3.1330 O   0  0  0  0  0  0  0  0  0  0  0  0
  -14.3442    1.6724    4.1375 P   0  0  0  0  0  0  0  0  0  0  0  0
  -13.7829    3.0404    4.2116 O   0  0  0  0  0  0  0  0  0  0  0  0
  -15.7951    1.5145    3.8988 O   0  5  0  0  0  0  0  0  0  0  0  0
  -14.0549    1.0171    5.5594 O   0  5  0  0  0  0  0  0  0  0  0  0
  1 18  1  0  0  0  0
  1  2  1  0  0  0  0
  2  4  1  0  0  0  0
  2  3  2  0  0  0  0
  4  5  1  0  0  0  0
  5  7  1  0  0  0  0
  5  6  2  0  0  0  0
  7 18  2  0  0  0  0
  7  8  1  0  0  0  0
  8  9  1  0  0  0  0
  9 10  2  0  0  0  0
  9 16  1  0  0  0  0
 10 11  1  0  0  0  0
 11 12  1  0  0  0  0
 11 13  2  0  0  0  0
 13 14  1  0  0  0  0
 13 15  1  0  0  0  0
 15 16  2  0  0  0  0
 16 17  1  0  0  0  0
 17 19  1  0  0  0  0
 17 18  1  0  0  0  0
 20 19  1  1  0  0  0
 20 22  1  0  0  0  0
 20 21  1  0  0  0  0
 22 24  1  0  0  0  0
 22 23  1  1  0  0  0
 24 26  1  1  0  0  0
 24 25  1  0  0  0  0
 26 27  1  0  0  0  0
 27 28  1  0  0  0  0
 28 30  1  0  0  0  0
 28 29  2  0  0  0  0
 28 31  1  0  0  0  0
M  CHG  2  30  -1  31  -1
M  END
>  <CHROM.1>
104.09284079,96.64887482,23.25462835,-165.83487919,59.27452513,168.94553878
-60.77213578,-174.05361891,-173.50282061,63.45946181,-10.96753806,-2.85605025
1.40748742,0.31571067,0.95561340,-1.40352805

>  <Name>
1fmn_cryst

>  <RI>
0

>  <Rbt.Current_Directory>
/home/itssahil/PROJECTS/Mol_Feturizer/New_Systems/rnas/1fmn

>  <Rbt.Executable>
rbdock ($Id: //depot/dev/client3/rdock/2013.1/src/exe/rbdock.cxx#4 $)

>  <Rbt.Library>
libRbt.so (2013.1, Build901 2013/11/27)

>  <Rbt.Parameter_File>
/export/apps/rDock/src/rDock_2013.1_src/data/scripts/dock_solv.prm

>  <Rbt.Receptor>
prm/blind_docking_80.prm

>  <SCORE>
-33.1329

>  <SCORE.INTER>
-31.9767

>  <SCORE.INTER.CONST>
1

>  <SCORE.INTER.POLAR>
-1.55029

>  <SCORE.INTER.ROT>
7

>  <SCORE.INTER.SOLV>
27.0479

>  <SCORE.INTER.VDW>
-33.4328

>  <SCORE.INTER.norm>
-1.03151

>  <SCORE.INTRA>
-2.27233

>  <SCORE.INTRA.DIHEDRAL>
-4.74963

>  <SCORE.INTRA.DIHEDRAL.0>
15.5708

>  <SCORE.INTRA.POLAR>
0.0438632

>  <SCORE.INTRA.POLAR.0>
-0.0677885

>  <SCORE.INTRA.REPUL>
0

>  <SCORE.INTRA.REPUL.0>
0

>  <SCORE.INTRA.SOLV>
-3.88898

>  <SCORE.INTRA.SOLV.lig_0>
-87.6316

>  <SCORE.INTRA.VDW>
1.89784

>  <SCORE.INTRA.VDW.0>
-2.87309

>  <SCORE.INTRA.norm>
-0.073301

>  <SCORE.RESTR>
1.11619

>  <SCORE.RESTR.CAVITY>
1.11619

>  <SCORE.RESTR.norm>
0.0360061

>  <SCORE.SYSTEM>
0

>  <SCORE.SYSTEM.CONST>
0

>  <SCORE.SYSTEM.DIHEDRAL>
0

>  <SCORE.SYSTEM.SOLV>
0

>  <SCORE.SYSTEM.norm>
0

>  <SCORE.heavy>
31

>  <SCORE.norm>
-1.0688

>  <SYMMETRIC_BONDS>
33 34 3

>  <RMSD>
9.297

$$$$
1fmn_cryst
 OpenBabel11021811393D
libRbt.so/2013.1/901 2013/11/27
 31 33  0  0  0  0  0  0  0  0999 V2000
  -10.9378   -4.1471   -1.8381 N   0  0  0  0  0  0  0  0  0  0  0  0
  -10.4250   -3.9670   -3.1015 C   0  0  0  0  0  0  0  0  0  0  0  0
  -11.1279   -3.6054   -4.0458 O   0  0  0  0  0  0  0  0  0  0  0  0
   -9.0395   -4.2287   -3.2479 N   0  0  0  0  0  0  0  0  0  0  0  0
   -8.1489   -4.6515   -2.2369 C   0  0  0  0  0  0  0  0  0  0  0  0
   -6.9558   -4.8425   -2.5037 O   0  0  0  0  0  0  0  0  0  0  0  0
   -8.7717   -4.8208   -0.9221 C   0  0  0  0  0  0  0  0  0  0  0  0
   -7.9726   -5.2300    0.1162 N   0  0  0  0  0  0  0  0  0  0  0  0
   -8.5848   -5.5601    1.2904 C   0  0  0  0  0  0  0  0  0  0  0  0
   -7.8140   -6.1470    2.2783 C   0  0  0  0  0  0  0  0  0  0  0  0
   -8.3540   -6.4999    3.4679 C   0  0  0  0  0  0  0  0  0  0  0  0
   -7.4765   -7.1281    4.5031 C   0  0  0  0  0  0  0  0  0  0  0  0
   -9.6745   -6.2839    3.7146 C   0  0  0  0  0  0  0  0  0  0  0  0
  -10.2639   -6.6830    5.0282 C   0  0  0  0  0  0  0  0  0  0  0  0
  -10.4692   -5.7102    2.7754 C   0  0  0  0  0  0  0  0  0  0  0  0
   -9.9622   -5.3276    1.5336 C   0  0  0  0  0  0  0  0  0  0  0  0
  -10.7302   -4.7244    0.5156 N   0  0  0  0  0  0  0  0  0  0  0  0
  -10.1826   -4.5518   -0.7721 C   0  0  0  0  0  0  0  0  0  0  0  0
  -11.8418   -3.7894    0.9261 C   0  0  0  0  0  0  0  0  0  0  0  0
  -11.7794   -2.3437    0.3463 C   0  0  1  0  0  0  0  0  0  0  0  0
  -12.6909   -2.2104   -0.7350 O   0  0  0  0  0  0  0  0  0  0  0  0
  -11.9834   -1.2469    1.4185 C   0  0  1  0  0  0  0  0  0  0  0  0
  -12.1864    0.0188    0.7971 O   0  0  0  0  0  0  0  0  0  0  0  0
  -13.0858   -1.4976    2.4766 C   0  0  1  0  0  0  0  0  0  0  0  0
  -12.8553   -2.7692    3.0732 O   0  0  0  0  0  0  0  0  0  0  0  0
  -13.1100   -0.4240    3.5877 C   0  0  0  0  0  0  0  0  0  0  0  0
  -13.6000    0.8281    3.1228 O   0  0  0  0  0  0  0  0  0  0  0  0
  -13.7851    2.0819    4.0741 P   0  0  0  0  0  0  0  0  0  0  0  0
  -13.0678    1.8847    5.3542 O   0  0  0  0  0  0  0  0  0  0  0  0
  -13.5676    3.3396    3.3272 O   0  5  0  0  0  0  0  0  0  0  0  0
  -15.3330    2.0487    4.4452 O   0  5  0  0  0  0  0  0  0  0  0  0
  1 18  1  0  0  0  0
  1  2  1  0  0  0  0
  2  4  1  0  0  0  0
  2  3  2  0  0  0  0
  4  5  1  0  0  0  0
  5  7  1  0  0  0  0
  5  6  2  0  0  0  0
  7 18  2  0  0  0  0
  7  8  1  0  0  0  0
  8  9  1  0  0  0  0
  9 10  2  0  0  0  0
  9 16  1  0  0  0  0
 10 11  1  0  0  0  0
 11 12  1  0  0  0  0
 11 13  2  0  0  0  0
 13 14  1  0  0  0  0
 13 15  1  0  0  0  0
 15 16  2  0  0  0  0
 16 17  1  0  0  0  0
 17 19  1  0  0  0  0
 17 18  1  0  0  0  0
 20 19  1  1  0  0  0
 20 22  1  0  0  0  0
 20 21  1  0  0  0  0
 22 24  1  0  0  0  0
 22 23  1  6  0  0  0
 24 26  1  1  0  0  0
 24 25  1  0  0  0  0
 26 27  1  0  0  0  0
 27 28  1  0  0  0  0
 28 30  1  0  0  0  0
 28 29  2  0  0  0  0
 28 31  1  0  0  0  0
M  CHG  2  30  -1  31  -1
M  END
>  <CHROM.1>
123.33194781,101.71278665,-168.22440408,172.55168476,53.17968775,174.57708432
71.53617665,-176.25149677,177.35980385,14.88149953,-11.04878062,-2.80926902
1.38223026,0.30378902,0.98243339,-1.41632929

>  <Name>
1fmn_cryst

>  <RI>
0

>  <Rbt.Current_Directory>
/home/itssahil/PROJECTS/Mol_Feturizer/New_Systems/rnas/1fmn

>  <Rbt.Executable>
rbdock ($Id: //depot/dev/client3/rdock/2013.1/src/exe/rbdock.cxx#4 $)

>  <Rbt.Library>
libRbt.so (2013.1, Build901 2013/11/27)

>  <Rbt.Parameter_File>
/export/apps/rDock/src/rDock_2013.1_src/data/scripts/dock_solv.prm

>  <Rbt.Receptor>
prm/blind_docking_100.prm

>  <SCORE>
-30.7426

>  <SCORE.INTER>
-28.3095

>  <SCORE.INTER.CONST>
1

>  <SCORE.INTER.POLAR>
-0.182993

>  <SCORE.INTER.ROT>
7

>  <SCORE.INTER.SOLV>
24.5319

>  <SCORE.INTER.VDW>
-34.707

>  <SCORE.INTER.norm>
-0.913209

>  <SCORE.INTRA>
-5.0512

>  <SCORE.INTRA.DIHEDRAL>
-5.72061

>  <SCORE.INTRA.DIHEDRAL.0>
15.5708

>  <SCORE.INTRA.POLAR>
-1.235

>  <SCORE.INTRA.POLAR.0>
-0.0677885

>  <SCORE.INTRA.REPUL>
0

>  <SCORE.INTRA.REPUL.0>
0

>  <SCORE.INTRA.SOLV>
-3.13327

>  <SCORE.INTRA.SOLV.lig_0>
-87.6316

>  <SCORE.INTRA.VDW>
3.57474

>  <SCORE.INTRA.VDW.0>
-2.87309

>  <SCORE.INTRA.norm>
-0.162942

>  <SCORE.RESTR>
2.61806

>  <SCORE.RESTR.CAVITY>
2.61806

>  <SCORE.RESTR.norm>
0.0844536

>  <SCORE.SYSTEM>
0

>  <SCORE.SYSTEM.CONST>
0

>  <SCORE.SYSTEM.DIHEDRAL>
0

>  <SCORE.SYSTEM.SOLV>
0

>  <SCORE.SYSTEM.norm>
0

>  <SCORE.heavy>
31

>  <SCORE.norm>
-0.991697

>  <SYMMETRIC_BONDS>
33 34 3

>  <RMSD>
9.310

$$$$
1fmn_cryst
 OpenBabel11021811393D
libRbt.so/2013.1/901 2013/11/27
 31 33  0  0  0  0  0  0  0  0999 V2000
  -11.1268   -3.6904   -1.5893 N   0  0  0  0  0  0  0  0  0  0  0  0
  -10.6605   -3.4679   -2.8639 C   0  0  0  0  0  0  0  0  0  0  0  0
  -11.3792   -3.0050   -3.7503 O   0  0  0  0  0  0  0  0  0  0  0  0
   -9.3039   -3.8095   -3.0928 N   0  0  0  0  0  0  0  0  0  0  0  0
   -8.3993   -4.3497   -2.1526 C   0  0  0  0  0  0  0  0  0  0  0  0
   -7.2350   -4.6012   -2.4881 O   0  0  0  0  0  0  0  0  0  0  0  0
   -8.9721   -4.5574   -0.8207 C   0  0  0  0  0  0  0  0  0  0  0  0
   -8.1565   -5.0797    0.1520 N   0  0  0  0  0  0  0  0  0  0  0  0
   -8.7360   -5.4398    1.3339 C   0  0  0  0  0  0  0  0  0  0  0  0
   -7.9629   -6.1341    2.2475 C   0  0  0  0  0  0  0  0  0  0  0  0
   -8.4714   -6.5226    3.4399 C   0  0  0  0  0  0  0  0  0  0  0  0
   -7.5925   -7.2679    4.3931 C   0  0  0  0  0  0  0  0  0  0  0  0
   -9.7617   -6.2367    3.7631 C   0  0  0  0  0  0  0  0  0  0  0  0
  -10.3169   -6.6755    5.0789 C   0  0  0  0  0  0  0  0  0  0  0  0
  -10.5574   -5.5570    2.8984 C   0  0  0  0  0  0  0  0  0  0  0  0
  -10.0822   -5.1336    1.6573 C   0  0  0  0  0  0  0  0  0  0  0  0
  -10.8528   -4.4214    0.7144 N   0  0  0  0  0  0  0  0  0  0  0  0
  -10.3534   -4.2070   -0.5866 C   0  0  0  0  0  0  0  0  0  0  0  0
  -11.8789   -3.4428    1.2319 C   0  0  0  0  0  0  0  0  0  0  0  0
  -11.8771   -2.0278    0.5777 C   0  0  1  0  0  0  0  0  0  0  0  0
  -12.5725   -2.0604   -0.6605 O   0  0  0  0  0  0  0  0  0  0  0  0
  -12.4120   -0.9207    1.5170 C   0  0  1  0  0  0  0  0  0  0  0  0
  -12.3539   -1.3535    2.8731 O   0  0  0  0  0  0  0  0  0  0  0  0
  -11.7701    0.4822    1.3834 C   0  0  1  0  0  0  0  0  0  0  0  0
  -11.9050    0.9113    0.0330 O   0  0  0  0  0  0  0  0  0  0  0  0
  -12.4237    1.5343    2.3073 C   0  0  0  0  0  0  0  0  0  0  0  0
  -12.5452    1.0784    3.6495 O   0  0  0  0  0  0  0  0  0  0  0  0
  -13.3876    1.8545    4.7446 P   0  0  0  0  0  0  0  0  0  0  0  0
  -12.6770    1.8726    6.0434 O   0  0  0  0  0  0  0  0  0  0  0  0
  -13.9003    3.1304    4.2004 O   0  5  0  0  0  0  0  0  0  0  0  0
  -14.6606    0.9252    4.9700 O   0  5  0  0  0  0  0  0  0  0  0  0
  1 18  1  0  0  0  0
  1  2  1  0  0  0  0
  2  4  1  0  0  0  0
  2  3  2  0  0  0  0
  4  5  1  0  0  0  0
  5  7  1  0  0  0  0
  5  6  2  0  0  0  0
  7 18  2  0  0  0  0
  7  8  1  0  0  0  0
  8  9  1  0  0  0  0
  9 10  2  0  0  0  0
  9 16  1  0  0  0  0
 10 11  1  0  0  0  0
 11 12  1  0  0  0  0
 11 13  2  0  0  0  0
 13 14  1  0  0  0  0
 13 15  1  0  0  0  0
 15 16  2  0  0  0  0
 16 17  1  0  0  0  0
 17 19  1  0  0  0  0
 17 18  1  0  0  0  0
 20 19  1  1  0  0  0
 20 22  1  0  0  0  0
 20 21  1  0  0  0  0
 22 24  1  0  0  0  0
 22 23  1  1  0  0  0
 24 26  1  1  0  0  0
 24 25  1  0  0  0  0
 26 27  1  0  0  0  0
 27 28  1  0  0  0  0
 28 30  1  0  0  0  0
 28 29  2  0  0  0  0
 28 31  1  0  0  0  0
M  CHG  2  30  -1  31  -1
M  END
>  <CHROM.1>
132.03150738,80.84878298,19.67600681,68.96584829,56.22740673,66.64609419
49.19703045,-175.36036554,-169.69996094,-138.61391957,-10.97085316,-2.50854170
1.48602926,0.31588272,1.04672385,-1.40205328

>  <Name>
1fmn_cryst

>  <RI>
0

>  <Rbt.Current_Directory>
/home/itssahil/PROJECTS/Mol_Feturizer/New_Systems/rnas/1fmn

>  <Rbt.Executable>
rbdock ($Id: //depot/dev/client3/rdock/2013.1/src/exe/rbdock.cxx#4 $)

>  <Rbt.Library>
libRbt.so (2013.1, Build901 2013/11/27)

>  <Rbt.Parameter_File>
/export/apps/rDock/src/rDock_2013.1_src/data/scripts/dock_solv.prm

>  <Rbt.Receptor>
prm/blind_docking_20.prm

>  <SCORE>
-33.6825

>  <SCORE.INTER>
-34.3311

>  <SCORE.INTER.CONST>
1

>  <SCORE.INTER.POLAR>
-1

>  <SCORE.INTER.ROT>
7

>  <SCORE.INTER.SOLV>
26.9916

>  <SCORE.INTER.VDW>
-36.8179

>  <SCORE.INTER.norm>
-1.10745

>  <SCORE.INTRA>
-0.543491

>  <SCORE.INTRA.DIHEDRAL>
-3.77538

>  <SCORE.INTRA.DIHEDRAL.0>
15.5708

>  <SCORE.INTRA.POLAR>
-0.35809

>  <SCORE.INTRA.POLAR.0>
-0.0677885

>  <SCORE.INTRA.REPUL>
0

>  <SCORE.INTRA.REPUL.0>
0

>  <SCORE.INTRA.SOLV>
-2.79282

>  <SCORE.INTRA.SOLV.lig_0>
-87.6316

>  <SCORE.INTRA.VDW>
3.95812

>  <SCORE.INTRA.VDW.0>
-2.87309

>  <SCORE.INTRA.norm>
-0.017532

>  <SCORE.RESTR>
1.19208

>  <SCORE.RESTR.CAVITY>
1.19208

>  <SCORE.RESTR.norm>
0.0384544

>  <SCORE.SYSTEM>
0

>  <SCORE.SYSTEM.CONST>
0

>  <SCORE.SYSTEM.DIHEDRAL>
0

>  <SCORE.SYSTEM.SOLV>
0

>  <SCORE.SYSTEM.norm>
0

>  <SCORE.heavy>
31

>  <SCORE.norm>
-1.08653

>  <SYMMETRIC_BONDS>
33 34 3

>  <RMSD>
9.315

$$$$
1fmn_cryst
 OpenBabel11021811393D
libRbt.so/2013.1/901 2013/11/27
 31 33  0  0  0  0  0  0  0  0999 V2000
  -11.3285   -4.2873   -1.3017 N   0  0  0  0  0  0  0  0  0  0  0  0
  -11.0648   -3.9895   -2.6182 C   0  0  0  0  0  0  0  0  0  0  0  0
  -11.9546   -3.6635   -3.4046 O   0  0  0  0  0  0  0  0  0  0  0  0
   -9.7066   -4.0865   -3.0125 N   0  0  0  0  0  0  0  0  0  0  0  0
   -8.6150   -4.4555   -2.1961 C   0  0  0  0  0  0  0  0  0  0  0  0
   -7.4734   -4.4981   -2.6716 O   0  0  0  0  0  0  0  0  0  0  0  0
   -8.9786   -4.7574   -0.8098 C   0  0  0  0  0  0  0  0  0  0  0  0
   -7.9732   -5.1245    0.0497 N   0  0  0  0  0  0  0  0  0  0  0  0
   -8.3346   -5.5780    1.2851 C   0  0  0  0  0  0  0  0  0  0  0  0
   -7.3476   -6.1221    2.0878 C   0  0  0  0  0  0  0  0  0  0  0  0
   -7.6332   -6.5910    3.3247 C   0  0  0  0  0  0  0  0  0  0  0  0
   -6.5292   -7.1663    4.1533 C   0  0  0  0  0  0  0  0  0  0  0  0
   -8.9055   -6.5368    3.8036 C   0  0  0  0  0  0  0  0  0  0  0  0
   -9.2132   -7.0631    5.1676 C   0  0  0  0  0  0  0  0  0  0  0  0
   -9.9061   -6.0110    3.0519 C   0  0  0  0  0  0  0  0  0  0  0  0
   -9.6650   -5.5138    1.7712 C   0  0  0  0  0  0  0  0  0  0  0  0
  -10.6561   -4.9518    0.9395 N   0  0  0  0  0  0  0  0  0  0  0  0
  -10.3618   -4.6561   -0.4073 C   0  0  0  0  0  0  0  0  0  0  0  0
  -11.7689   -4.1686    1.5928 C   0  0  0  0  0  0  0  0  0  0  0  0
  -11.7728   -2.6302    1.3405 C   0  0  1  0  0  0  0  0  0  0  0  0
  -12.0509   -2.3591   -0.0259 O   0  0  0  0  0  0  0  0  0  0  0  0
  -12.7184   -1.8584    2.2915 C   0  0  1  0  0  0  0  0  0  0  0  0
  -12.7243   -2.4647    3.5806 O   0  0  0  0  0  0  0  0  0  0  0  0
  -12.4843   -0.3337    2.4270 C   0  0  1  0  0  0  0  0  0  0  0  0
  -11.2713   -0.1271    3.1425 O   0  0  0  0  0  0  0  0  0  0  0  0
  -12.3854    0.3845    1.0624 C   0  0  0  0  0  0  0  0  0  0  0  0
  -12.2622    1.7953    1.1985 O   0  0  0  0  0  0  0  0  0  0  0  0
  -12.2340    2.7764   -0.0456 P   0  0  0  0  0  0  0  0  0  0  0  0
  -13.3732    2.5117   -0.9535 O   0  0  0  0  0  0  0  0  0  0  0  0
  -11.9863    4.1670    0.3926 O   0  5  0  0  0  0  0  0  0  0  0  0
  -10.9360    2.3274   -0.8509 O   0  5  0  0  0  0  0  0  0  0  0  0
  1 18  1  0  0  0  0
  1  2  1  0  0  0  0
  2  4  1  0  0  0  0
  2  3  2  0  0  0  0
  4  5  1  0  0  0  0
  5  7  1  0  0  0  0
  5  6  2  0  0  0  0
  7 18  2  0  0  0  0
  7  8  1  0  0  0  0
  8  9  1  0  0  0  0
  9 10  2  0  0  0  0
  9 16  1  0  0  0  0
 10 11  1  0  0  0  0
 11 12  1  0  0  0  0
 11 13  2  0  0  0  0
 13 14  1  0  0  0  0
 13 15  1  0  0  0  0
 15 16  2  0  0  0  0
 16 17  1  0  0  0  0
 17 19  1  0  0  0  0
 17 18  1  0  0  0  0
 20 19  1  6  0  0  0
 20 22  1  0  0  0  0
 20 21  1  0  0  0  0
 22 24  1  0  0  0  0
 22 23  1  1  0  0  0
 24 26  1  6  0  0  0
 24 25  1  0  0  0  0
 26 27  1  0  0  0  0
 27 28  1  0  0  0  0
 28 30  1  0  0  0  0
 28 29  2  0  0  0  0
 28 31  1  0  0  0  0
M  CHG  2  30  -1  31  -1
M  END
>  <CHROM.1>
110.87539554,67.21016038,35.36763703,-153.02367661,-70.50420032,159.20710060
175.97090786,-63.77076389,-176.09007109,50.91468685,-10.58241319,-2.67263923
0.73279265,-0.33661205,1.11454047,-1.40777402

>  <Name>
1fmn_cryst

>  <RI>
0

>  <Rbt.Current_Directory>
/home/itssahil/PROJECTS/Mol_Feturizer/New_Systems/rnas/1fmn

>  <Rbt.Executable>
rbdock ($Id: //depot/dev/client3/rdock/2013.1/src/exe/rbdock.cxx#4 $)

>  <Rbt.Library>
libRbt.so (2013.1, Build901 2013/11/27)

>  <Rbt.Parameter_File>
/export/apps/rDock/src/rDock_2013.1_src/data/scripts/dock_solv.prm

>  <Rbt.Receptor>
prm/blind_docking_60.prm

>  <SCORE>
-45.2345

>  <SCORE.INTER>
-47.2026

>  <SCORE.INTER.CONST>
1

>  <SCORE.INTER.POLAR>
-3.98446

>  <SCORE.INTER.ROT>
7

>  <SCORE.INTER.SOLV>
28.9679

>  <SCORE.INTER.VDW>
-36.1095

>  <SCORE.INTER.norm>
-1.52266

>  <SCORE.INTRA>
-1.78929

>  <SCORE.INTRA.DIHEDRAL>
-5.98837

>  <SCORE.INTRA.DIHEDRAL.0>
15.5708

>  <SCORE.INTRA.POLAR>
0.0677885

>  <SCORE.INTRA.POLAR.0>
-0.0677885

>  <SCORE.INTRA.REPUL>
0

>  <SCORE.INTRA.REPUL.0>
0

>  <SCORE.INTRA.SOLV>
-3.4873

>  <SCORE.INTRA.SOLV.lig_0>
-87.6316

>  <SCORE.INTRA.VDW>
2.71807

>  <SCORE.INTRA.VDW.0>
-2.87309

>  <SCORE.INTRA.norm>
-0.057719

>  <SCORE.RESTR>
3.75734

>  <SCORE.RESTR.CAVITY>
3.75734

>  <SCORE.RESTR.norm>
0.121204

>  <SCORE.SYSTEM>
0

>  <SCORE.SYSTEM.CONST>
0

>  <SCORE.SYSTEM.DIHEDRAL>
0

>  <SCORE.SYSTEM.SOLV>
0

>  <SCORE.SYSTEM.norm>
0

>  <SCORE.heavy>
31

>  <SCORE.norm>
-1.45918

>  <SYMMETRIC_BONDS>
33 34 3

>  <RMSD>
9.316

$$$$
1fmn_cryst
 OpenBabel11021811393D
libRbt.so/2013.1/901 2013/11/27
 31 33  0  0  0  0  0  0  0  0999 V2000
  -10.4292   -4.3962   -2.3719 N   0  0  0  0  0  0  0  0  0  0  0  0
   -9.7982   -4.4251   -3.5936 C   0  0  0  0  0  0  0  0  0  0  0  0
  -10.3649   -4.0752   -4.6294 O   0  0  0  0  0  0  0  0  0  0  0  0
   -8.4581   -4.8871   -3.5849 N   0  0  0  0  0  0  0  0  0  0  0  0
   -7.7203   -5.3156   -2.4596 C   0  0  0  0  0  0  0  0  0  0  0  0
   -6.5501   -5.6949   -2.5949 O   0  0  0  0  0  0  0  0  0  0  0  0
   -8.4622   -5.2556   -1.1982 C   0  0  0  0  0  0  0  0  0  0  0  0
   -7.8148   -5.6553   -0.0558 N   0  0  0  0  0  0  0  0  0  0  0  0
   -8.5586   -5.7703    1.0827 C   0  0  0  0  0  0  0  0  0  0  0  0
   -7.9610   -6.3465    2.1895 C   0  0  0  0  0  0  0  0  0  0  0  0
   -8.6381   -6.4922    3.3522 C   0  0  0  0  0  0  0  0  0  0  0  0
   -7.9448   -7.1185    4.5198 C   0  0  0  0  0  0  0  0  0  0  0  0
   -9.9285   -6.0731    3.4533 C   0  0  0  0  0  0  0  0  0  0  0  0
  -10.6708   -6.2441    4.7385 C   0  0  0  0  0  0  0  0  0  0  0  0
  -10.5556   -5.5014    2.3936 C   0  0  0  0  0  0  0  0  0  0  0  0
   -9.9026   -5.3276    1.1734 C   0  0  0  0  0  0  0  0  0  0  0  0
  -10.4928   -4.7390    0.0354 N   0  0  0  0  0  0  0  0  0  0  0  0
   -9.8266   -4.7825   -1.2065 C   0  0  0  0  0  0  0  0  0  0  0  0
  -11.4859   -3.6226    0.2494 C   0  0  0  0  0  0  0  0  0  0  0  0
  -11.6259   -3.0914    1.7083 C   0  0  1  0  0  0  0  0  0  0  0  0
  -10.3864   -2.5627    2.1576 O   0  0  0  0  0  0  0  0  0  0  0  0
  -12.7863   -2.0826    1.8815 C   0  0  1  0  0  0  0  0  0  0  0  0
  -13.2383   -2.0777    3.2326 O   0  0  0  0  0  0  0  0  0  0  0  0
  -12.5302   -0.6313    1.4061 C   0  0  1  0  0  0  0  0  0  0  0  0
  -12.6331   -0.5986   -0.0131 O   0  0  0  0  0  0  0  0  0  0  0  0
  -13.5323    0.3834    2.0009 C   0  0  0  0  0  0  0  0  0  0  0  0
  -13.3970    0.5181    3.4108 O   0  0  0  0  0  0  0  0  0  0  0  0
  -14.0102    1.7365    4.2175 P   0  0  0  0  0  0  0  0  0  0  0  0
  -13.4570    3.0221    3.7347 O   0  0  0  0  0  0  0  0  0  0  0  0
  -15.4777    1.5972    4.3362 O   0  5  0  0  0  0  0  0  0  0  0  0
  -13.4267    1.5481    5.6867 O   0  5  0  0  0  0  0  0  0  0  0  0
  1 18  1  0  0  0  0
  1  2  1  0  0  0  0
  2  4  1  0  0  0  0
  2  3  2  0  0  0  0
  4  5  1  0  0  0  0
  5  7  1  0  0  0  0
  5  6  2  0  0  0  0
  7 18  2  0  0  0  0
  7  8  1  0  0  0  0
  8  9  1  0  0  0  0
  9 10  2  0  0  0  0
  9 16  1  0  0  0  0
 10 11  1  0  0  0  0
 11 12  1  0  0  0  0
 11 13  2  0  0  0  0
 13 14  1  0  0  0  0
 13 15  1  0  0  0  0
 15 16  2  0  0  0  0
 16 17  1  0  0  0  0
 17 19  1  0  0  0  0
 17 18  1  0  0  0  0
 20 19  1  6  0  0  0
 20 22  1  0  0  0  0
 20 21  1  0  0  0  0
 22 24  1  0  0  0  0
 22 23  1  1  0  0  0
 24 26  1  1  0  0  0
 24 25  1  0  0  0  0
 26 27  1  0  0  0  0
 27 28  1  0  0  0  0
 28 30  1  0  0  0  0
 28 29  2  0  0  0  0
 28 31  1  0  0  0  0
M  CHG  2  30  -1  31  -1
M  END
>  <CHROM.1>
7.95513226,61.07517925,154.88295794,149.40483905,77.34461623,-173.95577177
65.80527835,-75.84571348,163.45087462,-59.54468452,-10.93124522,-3.00713902
1.30066757,0.34848361,0.96317118,-1.36334166

>  <Name>
1fmn_cryst

>  <RI>
0

>  <Rbt.Current_Directory>
/home/itssahil/PROJECTS/Mol_Feturizer/New_Systems/rnas/1fmn

>  <Rbt.Executable>
rbdock ($Id: //depot/dev/client3/rdock/2013.1/src/exe/rbdock.cxx#4 $)

>  <Rbt.Library>
libRbt.so (2013.1, Build901 2013/11/27)

>  <Rbt.Parameter_File>
/export/apps/rDock/src/rDock_2013.1_src/data/scripts/dock_solv.prm

>  <Rbt.Receptor>
prm/blind_docking_100.prm

>  <SCORE>
-24.1594

>  <SCORE.INTER>
-25.911

>  <SCORE.INTER.CONST>
1

>  <SCORE.INTER.POLAR>
-2.73924

>  <SCORE.INTER.ROT>
7

>  <SCORE.INTER.SOLV>
26.0473

>  <SCORE.INTER.VDW>
-25.0923

>  <SCORE.INTER.norm>
-0.835837

>  <SCORE.INTRA>
-0.144977

>  <SCORE.INTRA.DIHEDRAL>
-3.58226

>  <SCORE.INTRA.DIHEDRAL.0>
15.5708

>  <SCORE.INTRA.POLAR>
-0.105046

>  <SCORE.INTRA.POLAR.0>
-0.0677885

>  <SCORE.INTRA.REPUL>
0

>  <SCORE.INTRA.REPUL.0>
0

>  <SCORE.INTRA.SOLV>
-4.1116

>  <SCORE.INTRA.SOLV.lig_0>
-87.6316

>  <SCORE.INTRA.VDW>
4.05911

>  <SCORE.INTRA.VDW.0>
-2.87309

>  <SCORE.INTRA.norm>
-0.00467666

>  <SCORE.RESTR>
1.89658

>  <SCORE.RESTR.CAVITY>
1.89658

>  <SCORE.RESTR.norm>
0.0611799

>  <SCORE.SYSTEM>
0

>  <SCORE.SYSTEM.CONST>
0

>  <SCORE.SYSTEM.DIHEDRAL>
0

>  <SCORE.SYSTEM.SOLV>
0

>  <SCORE.SYSTEM.norm>
0

>  <SCORE.heavy>
31

>  <SCORE.norm>
-0.779334

>  <SYMMETRIC_BONDS>
33 34 3

>  <RMSD>
9.321

$$$$
1fmn_cryst
 OpenBabel11021811393D
libRbt.so/2013.1/901 2013/11/27
 31 33  0  0  0  0  0  0  0  0999 V2000
  -10.8661   -4.5144   -1.9493 N   0  0  0  0  0  0  0  0  0  0  0  0
  -10.3862   -4.2800   -3.2167 C   0  0  0  0  0  0  0  0  0  0  0  0
  -11.1350   -4.0364   -4.1635 O   0  0  0  0  0  0  0  0  0  0  0  0
   -8.9777   -4.3416   -3.3642 N   0  0  0  0  0  0  0  0  0  0  0  0
   -8.0342   -4.6179   -2.3504 C   0  0  0  0  0  0  0  0  0  0  0  0
   -6.8263   -4.6390   -2.6185 O   0  0  0  0  0  0  0  0  0  0  0  0
   -8.6244   -4.8568   -1.0314 C   0  0  0  0  0  0  0  0  0  0  0  0
   -7.7733   -5.1324    0.0097 N   0  0  0  0  0  0  0  0  0  0  0  0
   -8.3302   -5.5309    1.1903 C   0  0  0  0  0  0  0  0  0  0  0  0
   -7.4817   -5.9870    2.1834 C   0  0  0  0  0  0  0  0  0  0  0  0
   -7.9638   -6.3975    3.3795 C   0  0  0  0  0  0  0  0  0  0  0  0
   -7.0036   -6.8785    4.4202 C   0  0  0  0  0  0  0  0  0  0  0  0
   -9.3012   -6.3703    3.6276 C   0  0  0  0  0  0  0  0  0  0  0  0
   -9.8254   -6.8318    4.9483 C   0  0  0  0  0  0  0  0  0  0  0  0
  -10.1715   -5.9300    2.6833 C   0  0  0  0  0  0  0  0  0  0  0  0
   -9.7264   -5.4956    1.4348 C   0  0  0  0  0  0  0  0  0  0  0  0
  -10.5745   -5.0233    0.4113 N   0  0  0  0  0  0  0  0  0  0  0  0
  -10.0591   -4.7915   -0.8805 C   0  0  0  0  0  0  0  0  0  0  0  0
  -11.8085   -4.2524    0.8128 C   0  0  0  0  0  0  0  0  0  0  0  0
  -11.6634   -2.7018    0.8827 C   0  0  1  0  0  0  0  0  0  0  0  0
  -12.0205   -2.1203   -0.3632 O   0  0  0  0  0  0  0  0  0  0  0  0
  -12.4373   -2.0692    2.0637 C   0  0  1  0  0  0  0  0  0  0  0  0
  -12.2705   -2.8549    3.2403 O   0  0  0  0  0  0  0  0  0  0  0  0
  -12.1437   -0.5814    2.3774 C   0  0  1  0  0  0  0  0  0  0  0  0
  -12.4052    0.1846    1.2066 O   0  0  0  0  0  0  0  0  0  0  0  0
  -13.0039   -0.0287    3.5359 C   0  0  0  0  0  0  0  0  0  0  0  0
  -13.0858    1.3916    3.5222 O   0  0  0  0  0  0  0  0  0  0  0  0
  -13.9695    2.2084    4.5534 P   0  0  0  0  0  0  0  0  0  0  0  0
  -13.4289    2.0858    5.9262 O   0  0  0  0  0  0  0  0  0  0  0  0
  -14.2694    3.5580    4.0284 O   0  5  0  0  0  0  0  0  0  0  0  0
  -15.3536    1.4216    4.5702 O   0  5  0  0  0  0  0  0  0  0  0  0
  1 18  1  0  0  0  0
  1  2  1  0  0  0  0
  2  4  1  0  0  0  0
  2  3  2  0  0  0  0
  4  5  1  0  0  0  0
  5  7  1  0  0  0  0
  5  6  2  0  0  0  0
  7 18  2  0  0  0  0
  7  8  1  0  0  0  0
  8  9  1  0  0  0  0
  9 10  2  0  0  0  0
  9 16  1  0  0  0  0
 10 11  1  0  0  0  0
 11 12  1  0  0  0  0
 11 13  2  0  0  0  0
 13 14  1  0  0  0  0
 13 15  1  0  0  0  0
 15 16  2  0  0  0  0
 16 17  1  0  0  0  0
 17 19  1  0  0  0  0
 17 18  1  0  0  0  0
 20 19  1  6  0  0  0
 20 22  1  0  0  0  0
 20 21  1  0  0  0  0
 22 24  1  0  0  0  0
 22 23  1  1  0  0  0
 24 26  1  1  0  0  0
 24 25  1  0  0  0  0
 26 27  1  0  0  0  0
 27 28  1  0  0  0  0
 28 30  1  0  0  0  0
 28 29  2  0  0  0  0
 28 31  1  0  0  0  0
M  CHG  2  30  -1  31  -1
M  END
>  <CHROM.1>
92.61309894,91.93848327,42.33714023,-62.65065418,57.16414304,164.79078939
-159.53745632,-173.33163739,176.60124338,67.12699258,-10.90554614,-2.83792695
1.48252079,0.42321744,0.96306608,-1.50111318

>  <Name>
1fmn_cryst

>  <RI>
0

>  <Rbt.Current_Directory>
/home/itssahil/PROJECTS/Mol_Feturizer/New_Systems/rnas/1fmn

>  <Rbt.Executable>
rbdock ($Id: //depot/dev/client3/rdock/2013.1/src/exe/rbdock.cxx#4 $)

>  <Rbt.Library>
libRbt.so (2013.1, Build901 2013/11/27)

>  <Rbt.Parameter_File>
/export/apps/rDock/src/rDock_2013.1_src/data/scripts/dock_solv.prm

>  <Rbt.Receptor>
prm/blind_docking_80.prm

>  <SCORE>
-32.2241

>  <SCORE.INTER>
-30.6227

>  <SCORE.INTER.CONST>
1

>  <SCORE.INTER.POLAR>
-1.41645

>  <SCORE.INTER.ROT>
7

>  <SCORE.INTER.SOLV>
25.6209

>  <SCORE.INTER.VDW>
-32.5006

>  <SCORE.INTER.norm>
-0.987829

>  <SCORE.INTRA>
-3.59458

>  <SCORE.INTRA.DIHEDRAL>
-7.1282

>  <SCORE.INTRA.DIHEDRAL.0>
15.5708

>  <SCORE.INTRA.POLAR>
0.0677885

>  <SCORE.INTRA.POLAR.0>
-0.0677885

>  <SCORE.INTRA.REPUL>
0

>  <SCORE.INTRA.REPUL.0>
0

>  <SCORE.INTRA.SOLV>
-4.10598

>  <SCORE.INTRA.SOLV.lig_0>
-87.6316

>  <SCORE.INTRA.VDW>
1.79203

>  <SCORE.INTRA.VDW.0>
-2.87309

>  <SCORE.INTRA.norm>
-0.115954

>  <SCORE.RESTR>
1.99317

>  <SCORE.RESTR.CAVITY>
1.99317

>  <SCORE.RESTR.norm>
0.0642959

>  <SCORE.SYSTEM>
0

>  <SCORE.SYSTEM.CONST>
0

>  <SCORE.SYSTEM.DIHEDRAL>
0

>  <SCORE.SYSTEM.SOLV>
0

>  <SCORE.SYSTEM.norm>
0

>  <SCORE.heavy>
31

>  <SCORE.norm>
-1.03949

>  <SYMMETRIC_BONDS>
33 34 3

>  <RMSD>
9.321

$$$$
1fmn_cryst
 OpenBabel11021811393D
libRbt.so/2013.1/901 2013/11/27
 31 33  0  0  0  0  0  0  0  0999 V2000
  -10.7295   -4.5413   -2.0747 N   0  0  0  0  0  0  0  0  0  0  0  0
  -10.1560   -4.3969   -3.3164 C   0  0  0  0  0  0  0  0  0  0  0  0
  -10.8246   -4.1411   -4.3184 O   0  0  0  0  0  0  0  0  0  0  0  0
   -8.7496   -4.5661   -3.3697 N   0  0  0  0  0  0  0  0  0  0  0  0
   -7.8938   -4.8656   -2.2871 C   0  0  0  0  0  0  0  0  0  0  0  0
   -6.6766   -4.9851   -2.4753 O   0  0  0  0  0  0  0  0  0  0  0  0
   -8.5807   -5.0042   -1.0009 C   0  0  0  0  0  0  0  0  0  0  0  0
   -7.8185   -5.2952    0.1030 N   0  0  0  0  0  0  0  0  0  0  0  0
   -8.4755   -5.6013    1.2595 C   0  0  0  0  0  0  0  0  0  0  0  0
   -7.7264   -6.0740    2.3224 C   0  0  0  0  0  0  0  0  0  0  0  0
   -8.3108   -6.3967    3.4996 C   0  0  0  0  0  0  0  0  0  0  0  0
   -7.4553   -6.9003    4.6181 C   0  0  0  0  0  0  0  0  0  0  0  0
   -9.6552   -6.2627    3.6592 C   0  0  0  0  0  0  0  0  0  0  0  0
  -10.2930   -6.6278    4.9600 C   0  0  0  0  0  0  0  0  0  0  0  0
  -10.4302   -5.8020    2.6443 C   0  0  0  0  0  0  0  0  0  0  0  0
   -9.8776   -5.4551    1.4115 C   0  0  0  0  0  0  0  0  0  0  0  0
  -10.6232   -4.9676    0.3177 N   0  0  0  0  0  0  0  0  0  0  0  0
  -10.0131   -4.8294   -0.9459 C   0  0  0  0  0  0  0  0  0  0  0  0
  -11.8187   -4.0932    0.6083 C   0  0  0  0  0  0  0  0  0  0  0  0
  -11.6196   -2.5600    0.4083 C   0  0  1  0  0  0  0  0  0  0  0  0
  -12.5005   -2.0793   -0.5971 O   0  0  0  0  0  0  0  0  0  0  0  0
  -11.7401   -1.7525    1.7226 C   0  0  1  0  0  0  0  0  0  0  0  0
  -10.9288   -0.5831    1.6593 O   0  0  0  0  0  0  0  0  0  0  0  0
  -13.1691   -1.3782    2.1868 C   0  0  1  0  0  0  0  0  0  0  0  0
  -13.2276   -1.4999    3.6038 O   0  0  0  0  0  0  0  0  0  0  0  0
  -13.5728    0.0607    1.7941 C   0  0  0  0  0  0  0  0  0  0  0  0
  -12.8116    1.0458    2.4828 O   0  0  0  0  0  0  0  0  0  0  0  0
  -13.0539    2.6006    2.2958 P   0  0  0  0  0  0  0  0  0  0  0  0
  -13.3069    2.9290    0.8744 O   0  0  0  0  0  0  0  0  0  0  0  0
  -13.9944    3.1083    3.3179 O   0  5  0  0  0  0  0  0  0  0  0  0
  -11.6389    3.2465    2.6355 O   0  5  0  0  0  0  0  0  0  0  0  0
  1 18  1  0  0  0  0
  1  2  1  0  0  0  0
  2  4  1  0  0  0  0
  2  3  2  0  0  0  0
  4  5  1  0  0  0  0
  5  7  1  0  0  0  0
  5  6  2  0  0  0  0
  7 18  2  0  0  0  0
  7  8  1  0  0  0  0
  8  9  1  0  0  0  0
  9 10  2  0  0  0  0
  9 16  1  0  0  0  0
 10 11  1  0  0  0  0
 11 12  1  0  0  0  0
 11 13  2  0  0  0  0
 13 14  1  0  0  0  0
 13 15  1  0  0  0  0
 15 16  2  0  0  0  0
 16 17  1  0  0  0  0
 17 19  1  0  0  0  0
 17 18  1  0  0  0  0
 20 19  1  1  0  0  0
 20 22  1  0  0  0  0
 20 21  1  0  0  0  0
 22 24  1  0  0  0  0
 22 23  1  6  0  0  0
 24 26  1  1  0  0  0
 24 25  1  0  0  0  0
 26 27  1  0  0  0  0
 27 28  1  0  0  0  0
 28 30  1  0  0  0  0
 28 29  2  0  0  0  0
 28 31  1  0  0  0  0
M  CHG  2  30  -1  31  -1
M  END
>  <CHROM.1>
101.92205174,118.23512803,150.33905202,-61.76788800,141.40347357,167.77630826
-67.16378877,-172.13412693,-178.15718323,-40.73611776,-10.75096617,-2.75924237
0.96468624,0.07964891,1.05745718,-1.38187257

>  <Name>
1fmn_cryst

>  <RI>
0

>  <Rbt.Current_Directory>
/home/itssahil/PROJECTS/Mol_Feturizer/New_Systems/rnas/1fmn

>  <Rbt.Executable>
rbdock ($Id: //depot/dev/client3/rdock/2013.1/src/exe/rbdock.cxx#4 $)

>  <Rbt.Library>
libRbt.so (2013.1, Build901 2013/11/27)

>  <Rbt.Parameter_File>
/export/apps/rDock/src/rDock_2013.1_src/data/scripts/dock_solv.prm

>  <Rbt.Receptor>
prm/blind_docking_60.prm

>  <SCORE>
-29.1176

>  <SCORE.INTER>
-29.0672

>  <SCORE.INTER.CONST>
1

>  <SCORE.INTER.POLAR>
-1.93681

>  <SCORE.INTER.ROT>
7

>  <SCORE.INTER.SOLV>
28.7145

>  <SCORE.INTER.VDW>
-30.7602

>  <SCORE.INTER.norm>
-0.937651

>  <SCORE.INTRA>
-1.83639

>  <SCORE.INTRA.DIHEDRAL>
-0.151495

>  <SCORE.INTRA.DIHEDRAL.0>
15.5708

>  <SCORE.INTRA.POLAR>
-0.408182

>  <SCORE.INTRA.POLAR.0>
-0.0677885

>  <SCORE.INTRA.REPUL>
0

>  <SCORE.INTRA.REPUL.0>
0

>  <SCORE.INTRA.SOLV>
-3.61389

>  <SCORE.INTRA.SOLV.lig_0>
-87.6316

>  <SCORE.INTRA.VDW>
1.43412

>  <SCORE.INTRA.VDW.0>
-2.87309

>  <SCORE.INTRA.norm>
-0.0592384

>  <SCORE.RESTR>
1.78596

>  <SCORE.RESTR.CAVITY>
1.78596

>  <SCORE.RESTR.norm>
0.0576116

>  <SCORE.SYSTEM>
0

>  <SCORE.SYSTEM.CONST>
0

>  <SCORE.SYSTEM.DIHEDRAL>
0

>  <SCORE.SYSTEM.SOLV>
0

>  <SCORE.SYSTEM.norm>
0

>  <SCORE.heavy>
31

>  <SCORE.norm>
-0.939278

>  <SYMMETRIC_BONDS>
33 34 3

>  <RMSD>
9.324

$$$$
1fmn_cryst
 OpenBabel11021811393D
libRbt.so/2013.1/901 2013/11/27
 31 33  0  0  0  0  0  0  0  0999 V2000
  -11.0728   -3.8544   -1.7315 N   0  0  0  0  0  0  0  0  0  0  0  0
  -10.5657   -3.6522   -2.9939 C   0  0  0  0  0  0  0  0  0  0  0  0
  -11.2669   -3.2479   -3.9220 O   0  0  0  0  0  0  0  0  0  0  0  0
   -9.1882   -3.9431   -3.1592 N   0  0  0  0  0  0  0  0  0  0  0  0
   -8.3002   -4.4149   -2.1677 C   0  0  0  0  0  0  0  0  0  0  0  0
   -7.1142   -4.6273   -2.4497 O   0  0  0  0  0  0  0  0  0  0  0  0
   -8.9166   -4.6051   -0.8527 C   0  0  0  0  0  0  0  0  0  0  0  0
   -8.1195   -5.0618    0.1672 N   0  0  0  0  0  0  0  0  0  0  0  0
   -8.7304   -5.4091    1.3372 C   0  0  0  0  0  0  0  0  0  0  0  0
   -7.9664   -6.0413    2.3021 C   0  0  0  0  0  0  0  0  0  0  0  0
   -8.5055   -6.4136    3.4862 C   0  0  0  0  0  0  0  0  0  0  0  0
   -7.6354   -7.0909    4.4965 C   0  0  0  0  0  0  0  0  0  0  0  0
   -9.8183   -6.1726    3.7500 C   0  0  0  0  0  0  0  0  0  0  0  0
  -10.4069   -6.5932    5.0572 C   0  0  0  0  0  0  0  0  0  0  0  0
  -10.6062   -5.5544    2.8335 C   0  0  0  0  0  0  0  0  0  0  0  0
  -10.0997   -5.1502    1.5984 C   0  0  0  0  0  0  0  0  0  0  0  0
  -10.8608   -4.5010    0.6037 N   0  0  0  0  0  0  0  0  0  0  0  0
  -10.3193   -4.3063   -0.6834 C   0  0  0  0  0  0  0  0  0  0  0  0
  -11.9460   -3.5510    1.0490 C   0  0  0  0  0  0  0  0  0  0  0  0
  -11.7957   -2.0672    0.5952 C   0  0  1  0  0  0  0  0  0  0  0  0
  -12.8528   -1.7157   -0.2863 O   0  0  0  0  0  0  0  0  0  0  0  0
  -11.6700   -1.0772    1.7776 C   0  0  1  0  0  0  0  0  0  0  0  0
  -11.0928    0.1481    1.3360 O   0  0  0  0  0  0  0  0  0  0  0  0
  -12.9557   -0.7911    2.5919 C   0  0  1  0  0  0  0  0  0  0  0  0
  -13.3014   -1.9679    3.3141 O   0  0  0  0  0  0  0  0  0  0  0  0
  -12.7887    0.3751    3.5917 C   0  0  0  0  0  0  0  0  0  0  0  0
  -13.9974    0.6805    4.2772 O   0  0  0  0  0  0  0  0  0  0  0  0
  -14.1272    1.8981    5.2832 P   0  0  0  0  0  0  0  0  0  0  0  0
  -13.9202    3.1863    4.5834 O   0  0  0  0  0  0  0  0  0  0  0  0
  -15.3228    1.7417    6.1394 O   0  5  0  0  0  0  0  0  0  0  0  0
  -12.8688    1.7297    6.2439 O   0  5  0  0  0  0  0  0  0  0  0  0
  1 18  1  0  0  0  0
  1  2  1  0  0  0  0
  2  4  1  0  0  0  0
  2  3  2  0  0  0  0
  4  5  1  0  0  0  0
  5  7  1  0  0  0  0
  5  6  2  0  0  0  0
  7 18  2  0  0  0  0
  7  8  1  0  0  0  0
  8  9  1  0  0  0  0
  9 10  2  0  0  0  0
  9 16  1  0  0  0  0
 10 11  1  0  0  0  0
 11 12  1  0  0  0  0
 11 13  2  0  0  0  0
 13 14  1  0  0  0  0
 13 15  1  0  0  0  0
 15 16  2  0  0  0  0
 16 17  1  0  0  0  0
 17 19  1  0  0  0  0
 17 18  1  0  0  0  0
 20 19  1  1  0  0  0
 20 22  1  0  0  0  0
 20 21  1  0  0  0  0
 22 24  1  0  0  0  0
 22 23  1  6  0  0  0
 24 26  1  1  0  0  0
 24 25  1  0  0  0  0
 26 27  1  0  0  0  0
 27 28  1  0  0  0  0
 28 30  1  0  0  0  0
 28 29  2  0  0  0  0
 28 31  1  0  0  0  0
M  CHG  2  30  -1  31  -1
M  END
>  <CHROM.1>
118.94428293,114.94404642,160.25075624,-82.99059613,68.95466659,-158.31092211
176.52669286,-168.61289764,-175.64400608,63.33661943,-11.12963668,-2.62938967
1.74125204,0.43632950,0.98433926,-1.39901477

>  <Name>
1fmn_cryst

>  <RI>
0

>  <Rbt.Current_Directory>
/home/itssahil/PROJECTS/Mol_Feturizer/New_Systems/rnas/1fmn

>  <Rbt.Executable>
rbdock ($Id: //depot/dev/client3/rdock/2013.1/src/exe/rbdock.cxx#4 $)

>  <Rbt.Library>
libRbt.so (2013.1, Build901 2013/11/27)

>  <Rbt.Parameter_File>
/export/apps/rDock/src/rDock_2013.1_src/data/scripts/dock_solv.prm

>  <Rbt.Receptor>
prm/blind_docking_100.prm

>  <SCORE>
-29.1441

>  <SCORE.INTER>
-29.668

>  <SCORE.INTER.CONST>
1

>  <SCORE.INTER.POLAR>
-0.955699

>  <SCORE.INTER.ROT>
7

>  <SCORE.INTER.SOLV>
28.1071

>  <SCORE.INTER.VDW>
-34.2287

>  <SCORE.INTER.norm>
-0.957032

>  <SCORE.INTRA>
-1.11077

>  <SCORE.INTRA.DIHEDRAL>
-1.5204

>  <SCORE.INTRA.DIHEDRAL.0>
15.5708

>  <SCORE.INTRA.POLAR>
0.0677885

>  <SCORE.INTRA.POLAR.0>
-0.0677885

>  <SCORE.INTRA.REPUL>
0.00920537

>  <SCORE.INTRA.REPUL.0>
0

>  <SCORE.INTRA.SOLV>
-4.54314

>  <SCORE.INTRA.SOLV.lig_0>
-87.6316

>  <SCORE.INTRA.VDW>
1.64449

>  <SCORE.INTRA.VDW.0>
-2.87309

>  <SCORE.INTRA.norm>
-0.0358314

>  <SCORE.RESTR>
1.63467

>  <SCORE.RESTR.CAVITY>
1.63467

>  <SCORE.RESTR.norm>
0.0527313

>  <SCORE.SYSTEM>
0

>  <SCORE.SYSTEM.CONST>
0

>  <SCORE.SYSTEM.DIHEDRAL>
0

>  <SCORE.SYSTEM.SOLV>
0

>  <SCORE.SYSTEM.norm>
0

>  <SCORE.heavy>
31

>  <SCORE.norm>
-0.940132

>  <SYMMETRIC_BONDS>
33 34 3

>  <RMSD>
9.326

$$$$
1fmn_cryst
 OpenBabel11021811393D
libRbt.so/2013.1/901 2013/11/27
 31 33  0  0  0  0  0  0  0  0999 V2000
  -11.3334   -4.2321   -1.2189 N   0  0  0  0  0  0  0  0  0  0  0  0
  -11.0521   -3.9036   -2.5244 C   0  0  0  0  0  0  0  0  0  0  0  0
  -11.9319   -3.5625   -3.3157 O   0  0  0  0  0  0  0  0  0  0  0  0
   -9.6882   -3.9873   -2.9015 N   0  0  0  0  0  0  0  0  0  0  0  0
   -8.6070   -4.3714   -2.0783 C   0  0  0  0  0  0  0  0  0  0  0  0
   -7.4586   -4.3997   -2.5385 O   0  0  0  0  0  0  0  0  0  0  0  0
   -8.9891   -4.7060   -0.7045 C   0  0  0  0  0  0  0  0  0  0  0  0
   -7.9947   -5.0894    0.1605 N   0  0  0  0  0  0  0  0  0  0  0  0
   -8.3718   -5.5721    1.3801 C   0  0  0  0  0  0  0  0  0  0  0  0
   -7.3944   -6.1312    2.1841 C   0  0  0  0  0  0  0  0  0  0  0  0
   -7.6958   -6.6291    3.4059 C   0  0  0  0  0  0  0  0  0  0  0  0
   -6.6016   -7.2198    4.2367 C   0  0  0  0  0  0  0  0  0  0  0  0
   -8.9749   -6.5898    3.8678 C   0  0  0  0  0  0  0  0  0  0  0  0
   -9.3000   -7.1480    5.2150 C   0  0  0  0  0  0  0  0  0  0  0  0
   -9.9667   -6.0501    3.1141 C   0  0  0  0  0  0  0  0  0  0  0  0
   -9.7092   -5.5231    1.8486 C   0  0  0  0  0  0  0  0  0  0  0  0
  -10.6904   -4.9454    1.0160 N   0  0  0  0  0  0  0  0  0  0  0  0
  -10.3781   -4.6182   -0.3195 C   0  0  0  0  0  0  0  0  0  0  0  0
  -11.8150   -4.1807    1.6710 C   0  0  0  0  0  0  0  0  0  0  0  0
  -11.6574   -2.6308    1.7267 C   0  0  1  0  0  0  0  0  0  0  0  0
  -11.5586   -2.1015    0.4121 O   0  0  0  0  0  0  0  0  0  0  0  0
  -12.7644   -1.9342    2.5532 C   0  0  1  0  0  0  0  0  0  0  0  0
  -13.1455   -2.7520    3.6558 O   0  0  0  0  0  0  0  0  0  0  0  0
  -12.4733   -0.4937    3.0412 C   0  0  1  0  0  0  0  0  0  0  0  0
  -12.5894    0.3890    1.9306 O   0  0  0  0  0  0  0  0  0  0  0  0
  -13.4412   -0.0263    4.1513 C   0  0  0  0  0  0  0  0  0  0  0  0
  -13.0723    1.2340    4.6987 O   0  0  0  0  0  0  0  0  0  0  0  0
  -13.4882    2.6111    4.0340 P   0  0  0  0  0  0  0  0  0  0  0  0
  -13.7664    3.6343    5.0674 O   0  0  0  0  0  0  0  0  0  0  0  0
  -12.5692    2.9543    2.9273 O   0  5  0  0  0  0  0  0  0  0  0  0
  -14.8954    2.2949    3.3597 O   0  5  0  0  0  0  0  0  0  0  0  0
  1 18  1  0  0  0  0
  1  2  1  0  0  0  0
  2  4  1  0  0  0  0
  2  3  2  0  0  0  0
  4  5  1  0  0  0  0
  5  7  1  0  0  0  0
  5  6  2  0  0  0  0
  7 18  2  0  0  0  0
  7  8  1  0  0  0  0
  8  9  1  0  0  0  0
  9 10  2  0  0  0  0
  9 16  1  0  0  0  0
 10 11  1  0  0  0  0
 11 12  1  0  0  0  0
 11 13  2  0  0  0  0
 13 14  1  0  0  0  0
 13 15  1  0  0  0  0
 15 16  2  0  0  0  0
 16 17  1  0  0  0  0
 17 19  1  0  0  0  0
 17 18  1  0  0  0  0
 20 19  1  6  0  0  0
 20 22  1  0  0  0  0
 20 21  1  0  0  0  0
 22 24  1  0  0  0  0
 22 23  1  1  0  0  0
 24 26  1  1  0  0  0
 24 25  1  0  0  0  0
 26 27  1  0  0  0  0
 27 28  1  0  0  0  0
 28 30  1  0  0  0  0
 28 29  2  0  0  0  0
 28 31  1  0  0  0  0
M  CHG  2  30  -1  31  -1
M  END
>  <CHROM.1>
97.80253698,60.24459929,34.93312694,65.34867691,74.77715597,79.08535773,173.24316860
-54.95275904,84.05411508,144.39612673,-10.96019626,-2.70088147,1.73139183
0.32135520,1.00744742,-1.55268385

>  <Name>
1fmn_cryst

>  <RI>
0

>  <Rbt.Current_Directory>
/home/itssahil/PROJECTS/Mol_Feturizer/New_Systems/rnas/1fmn

>  <Rbt.Executable>
rbdock ($Id: //depot/dev/client3/rdock/2013.1/src/exe/rbdock.cxx#4 $)

>  <Rbt.Library>
libRbt.so (2013.1, Build901 2013/11/27)

>  <Rbt.Parameter_File>
/export/apps/rDock/src/rDock_2013.1_src/data/scripts/dock_solv.prm

>  <Rbt.Receptor>
prm/blind_docking_80.prm

>  <SCORE>
-33.0036

>  <SCORE.INTER>
-33.9904

>  <SCORE.INTER.CONST>
1

>  <SCORE.INTER.POLAR>
-2.1049

>  <SCORE.INTER.ROT>
7

>  <SCORE.INTER.SOLV>
26.5207

>  <SCORE.INTER.VDW>
-32.7509

>  <SCORE.INTER.norm>
-1.09647

>  <SCORE.INTRA>
-1.86584

>  <SCORE.INTRA.DIHEDRAL>
-5.6819

>  <SCORE.INTRA.DIHEDRAL.0>
15.5708

>  <SCORE.INTRA.POLAR>
-0.0206604

>  <SCORE.INTRA.POLAR.0>
-0.0677885

>  <SCORE.INTRA.REPUL>
0

>  <SCORE.INTRA.REPUL.0>
0

>  <SCORE.INTRA.SOLV>
0.17766

>  <SCORE.INTRA.SOLV.lig_0>
-87.6316

>  <SCORE.INTRA.VDW>
0.956524

>  <SCORE.INTRA.VDW.0>
-2.87309

>  <SCORE.INTRA.norm>
-0.0601885

>  <SCORE.RESTR>
2.85271

>  <SCORE.RESTR.CAVITY>
2.85271

>  <SCORE.RESTR.norm>
0.0920228

>  <SCORE.SYSTEM>
0

>  <SCORE.SYSTEM.CONST>
0

>  <SCORE.SYSTEM.DIHEDRAL>
0

>  <SCORE.SYSTEM.SOLV>
0

>  <SCORE.SYSTEM.norm>
0

>  <SCORE.heavy>
31

>  <SCORE.norm>
-1.06463

>  <SYMMETRIC_BONDS>
33 34 3

>  <RMSD>
9.328

$$$$
1fmn_cryst
 OpenBabel11021811393D
libRbt.so/2013.1/901 2013/11/27
 31 33  0  0  0  0  0  0  0  0999 V2000
  -10.9617   -4.3504   -2.3713 N   0  0  0  0  0  0  0  0  0  0  0  0
  -10.5269   -4.1743   -3.6641 C   0  0  0  0  0  0  0  0  0  0  0  0
  -11.3074   -3.9544   -4.5910 O   0  0  0  0  0  0  0  0  0  0  0  0
   -9.1263   -4.2670   -3.8619 N   0  0  0  0  0  0  0  0  0  0  0  0
   -8.1494   -4.5204   -2.8742 C   0  0  0  0  0  0  0  0  0  0  0  0
   -6.9531   -4.5736   -3.1865 O   0  0  0  0  0  0  0  0  0  0  0  0
   -8.6925   -4.6969   -1.5254 C   0  0  0  0  0  0  0  0  0  0  0  0
   -7.8068   -4.9469   -0.5070 N   0  0  0  0  0  0  0  0  0  0  0  0
   -8.3245   -5.2888    0.7086 C   0  0  0  0  0  0  0  0  0  0  0  0
   -7.4463   -5.7210    1.6865 C   0  0  0  0  0  0  0  0  0  0  0  0
   -7.8888   -6.0757    2.9152 C   0  0  0  0  0  0  0  0  0  0  0  0
   -6.8976   -6.5329    3.9373 C   0  0  0  0  0  0  0  0  0  0  0  0
   -9.2152   -6.0148    3.2121 C   0  0  0  0  0  0  0  0  0  0  0  0
   -9.6959   -6.4149    4.5690 C   0  0  0  0  0  0  0  0  0  0  0  0
  -10.1136   -5.5961    2.2845 C   0  0  0  0  0  0  0  0  0  0  0  0
   -9.7095   -5.2189    1.0039 C   0  0  0  0  0  0  0  0  0  0  0  0
  -10.5884   -4.7719   -0.0049 N   0  0  0  0  0  0  0  0  0  0  0  0
  -10.1191   -4.6000   -1.3233 C   0  0  0  0  0  0  0  0  0  0  0  0
  -11.7932   -3.9637    0.4118 C   0  0  0  0  0  0  0  0  0  0  0  0
  -11.8086   -2.4680   -0.0272 C   0  0  1  0  0  0  0  0  0  0  0  0
  -12.5837   -2.3124   -1.2075 O   0  0  0  0  0  0  0  0  0  0  0  0
  -12.2611   -1.5066    1.0975 C   0  0  1  0  0  0  0  0  0  0  0  0
  -11.1290   -0.8948    1.7088 O   0  0  0  0  0  0  0  0  0  0  0  0
  -13.3038   -0.4262    0.7187 C   0  0  1  0  0  0  0  0  0  0  0  0
  -14.5961   -1.0225    0.7383 O   0  0  0  0  0  0  0  0  0  0  0  0
  -13.2984    0.7809    1.6833 C   0  0  0  0  0  0  0  0  0  0  0  0
  -13.5384    0.3993    3.0327 O   0  0  0  0  0  0  0  0  0  0  0  0
  -13.7030    1.4535    4.2044 P   0  0  0  0  0  0  0  0  0  0  0  0
  -14.8900    2.3101    3.9820 O   0  0  0  0  0  0  0  0  0  0  0  0
  -13.5384    0.7998    5.5207 O   0  5  0  0  0  0  0  0  0  0  0  0
  -12.4463    2.4147    4.0265 O   0  5  0  0  0  0  0  0  0  0  0  0
  1 18  1  0  0  0  0
  1  2  1  0  0  0  0
  2  4  1  0  0  0  0
  2  3  2  0  0  0  0
  4  5  1  0  0  0  0
  5  7  1  0  0  0  0
  5  6  2  0  0  0  0
  7 18  2  0  0  0  0
  7  8  1  0  0  0  0
  8  9  1  0  0  0  0
  9 10  2  0  0  0  0
  9 16  1  0  0  0  0
 10 11  1  0  0  0  0
 11 12  1  0  0  0  0
 11 13  2  0  0  0  0
 13 14  1  0  0  0  0
 13 15  1  0  0  0  0
 15 16  2  0  0  0  0
 16 17  1  0  0  0  0
 17 19  1  0  0  0  0
 17 18  1  0  0  0  0
 20 19  1  1  0  0  0
 20 22  1  0  0  0  0
 20 21  1  0  0  0  0
 22 24  1  0  0  0  0
 22 23  1  6  0  0  0
 24 26  1  1  0  0  0
 24 25  1  0  0  0  0
 26 27  1  0  0  0  0
 27 28  1  0  0  0  0
 28 30  1  0  0  0  0
 28 29  2  0  0  0  0
 28 31  1  0  0  0  0
M  CHG  2  30  -1  31  -1
M  END
>  <CHROM.1>
112.53746065,97.64476311,99.79936179,-92.69965359,81.31912071,-105.07016116
-57.71938026,62.81100872,-174.84428261,63.11798399,-10.94303356,-2.78527415
0.88599357,0.57799521,0.86995388,-1.65533040

>  <Name>
1fmn_cryst

>  <RI>
0

>  <Rbt.Current_Directory>
/home/itssahil/PROJECTS/Mol_Feturizer/New_Systems/rnas/1fmn

>  <Rbt.Executable>
rbdock ($Id: //depot/dev/client3/rdock/2013.1/src/exe/rbdock.cxx#4 $)

>  <Rbt.Library>
libRbt.so (2013.1, Build901 2013/11/27)

>  <Rbt.Parameter_File>
/export/apps/rDock/src/rDock_2013.1_src/data/scripts/dock_solv.prm

>  <Rbt.Receptor>
prm/blind_docking_40.prm

>  <SCORE>
-40.7605

>  <SCORE.INTER>
-44.8361

>  <SCORE.INTER.CONST>
1

>  <SCORE.INTER.POLAR>
-3.30155

>  <SCORE.INTER.ROT>
7

>  <SCORE.INTER.SOLV>
26.7886

>  <SCORE.INTER.VDW>
-36.0818

>  <SCORE.INTER.norm>
-1.44633

>  <SCORE.INTRA>
2.06196

>  <SCORE.INTRA.DIHEDRAL>
5.21582

>  <SCORE.INTRA.DIHEDRAL.0>
15.5708

>  <SCORE.INTRA.POLAR>
0.0677885

>  <SCORE.INTRA.POLAR.0>
-0.0677885

>  <SCORE.INTRA.REPUL>
0

>  <SCORE.INTRA.REPUL.0>
0

>  <SCORE.INTRA.SOLV>
-3.73557

>  <SCORE.INTRA.SOLV.lig_0>
-87.6316

>  <SCORE.INTRA.VDW>
1.09136

>  <SCORE.INTRA.VDW.0>
-2.87309

>  <SCORE.INTRA.norm>
0.0665148

>  <SCORE.RESTR>
2.01368

>  <SCORE.RESTR.CAVITY>
2.01368

>  <SCORE.RESTR.norm>
0.0649575

>  <SCORE.SYSTEM>
0

>  <SCORE.SYSTEM.CONST>
0

>  <SCORE.SYSTEM.DIHEDRAL>
0

>  <SCORE.SYSTEM.SOLV>
0

>  <SCORE.SYSTEM.norm>
0

>  <SCORE.heavy>
31

>  <SCORE.norm>
-1.31485

>  <SYMMETRIC_BONDS>
33 34 3

>  <RMSD>
9.337

$$$$
1fmn_cryst
 OpenBabel11021811393D
libRbt.so/2013.1/901 2013/11/27
 31 33  0  0  0  0  0  0  0  0999 V2000
  -10.8754   -4.4252   -1.8977 N   0  0  0  0  0  0  0  0  0  0  0  0
  -10.3737   -4.2985   -3.1720 C   0  0  0  0  0  0  0  0  0  0  0  0
  -11.0829   -3.9675   -4.1227 O   0  0  0  0  0  0  0  0  0  0  0  0
   -8.9920   -4.5776   -3.3215 N   0  0  0  0  0  0  0  0  0  0  0  0
   -8.0949   -4.9688   -2.3034 C   0  0  0  0  0  0  0  0  0  0  0  0
   -6.9061   -5.1803   -2.5741 O   0  0  0  0  0  0  0  0  0  0  0  0
   -8.7060   -5.0818   -0.9771 C   0  0  0  0  0  0  0  0  0  0  0  0
   -7.9000   -5.4576    0.0685 N   0  0  0  0  0  0  0  0  0  0  0  0
   -8.5033   -5.7368    1.2604 C   0  0  0  0  0  0  0  0  0  0  0  0
   -7.7276   -6.2918    2.2628 C   0  0  0  0  0  0  0  0  0  0  0  0
   -8.2587   -6.5939    3.4703 C   0  0  0  0  0  0  0  0  0  0  0  0
   -7.3761   -7.1893    4.5206 C   0  0  0  0  0  0  0  0  0  0  0  0
   -9.5748   -6.3571    3.7211 C   0  0  0  0  0  0  0  0  0  0  0  0
  -10.1544   -6.7001    5.0547 C   0  0  0  0  0  0  0  0  0  0  0  0
  -10.3740   -5.8132    2.7681 C   0  0  0  0  0  0  0  0  0  0  0  0
   -9.8762   -5.4832    1.5077 C   0  0  0  0  0  0  0  0  0  0  0  0
  -10.6492   -4.9131    0.4745 N   0  0  0  0  0  0  0  0  0  0  0  0
  -10.1130   -4.7950   -0.8242 C   0  0  0  0  0  0  0  0  0  0  0  0
  -11.7489   -3.9534    0.8592 C   0  0  0  0  0  0  0  0  0  0  0  0
  -11.8003   -2.6087    0.0723 C   0  0  1  0  0  0  0  0  0  0  0  0
  -12.5820   -2.7598   -1.1042 O   0  0  0  0  0  0  0  0  0  0  0  0
  -12.2720   -1.4142    0.9354 C   0  0  1  0  0  0  0  0  0  0  0  0
  -11.2006   -0.9359    1.7434 O   0  0  0  0  0  0  0  0  0  0  0  0
  -12.9393   -0.2318    0.1908 C   0  0  1  0  0  0  0  0  0  0  0  0
  -14.2533   -0.6247   -0.1898 O   0  0  0  0  0  0  0  0  0  0  0  0
  -13.0326    1.0474    1.0526 C   0  0  0  0  0  0  0  0  0  0  0  0
  -13.1824    0.7597    2.4378 O   0  0  0  0  0  0  0  0  0  0  0  0
  -13.3155    1.8922    3.5382 P   0  0  0  0  0  0  0  0  0  0  0  0
  -12.3265    2.9701    3.3098 O   0  0  0  0  0  0  0  0  0  0  0  0
  -14.7335    2.2627    3.7360 O   0  5  0  0  0  0  0  0  0  0  0  0
  -12.8546    1.1703    4.8803 O   0  5  0  0  0  0  0  0  0  0  0  0
  1 18  1  0  0  0  0
  1  2  1  0  0  0  0
  2  4  1  0  0  0  0
  2  3  2  0  0  0  0
  4  5  1  0  0  0  0
  5  7  1  0  0  0  0
  5  6  2  0  0  0  0
  7 18  2  0  0  0  0
  7  8  1  0  0  0  0
  8  9  1  0  0  0  0
  9 10  2  0  0  0  0
  9 16  1  0  0  0  0
 10 11  1  0  0  0  0
 11 12  1  0  0  0  0
 11 13  2  0  0  0  0
 13 14  1  0  0  0  0
 13 15  1  0  0  0  0
 15 16  2  0  0  0  0
 16 17  1  0  0  0  0
 17 19  1  0  0  0  0
 17 18  1  0  0  0  0
 20 19  1  1  0  0  0
 20 22  1  0  0  0  0
 20 21  1  0  0  0  0
 22 24  1  0  0  0  0
 22 23  1  6  0  0  0
 24 26  1  1  0  0  0
 24 25  1  0  0  0  0
 26 27  1  0  0  0  0
 27 28  1  0  0  0  0
 28 30  1  0  0  0  0
 28 29  2  0  0  0  0
 28 31  1  0  0  0  0
M  CHG  2  30  -1  31  -1
M  END
>  <CHROM.1>
131.86021201,87.90990224,79.43412452,-177.79665712,74.66807322,-76.28284159
-31.42680927,58.45796536,-179.39957042,-44.48555872,-10.89990745,-2.88199668
0.99362054,0.33234549,0.98896489,-1.59831407

>  <Name>
1fmn_cryst

>  <RI>
0

>  <Rbt.Current_Directory>
/home/itssahil/PROJECTS/Mol_Feturizer/New_Systems/rnas/1fmn

>  <Rbt.Executable>
rbdock ($Id: //depot/dev/client3/rdock/2013.1/src/exe/rbdock.cxx#4 $)

>  <Rbt.Library>
libRbt.so (2013.1, Build901 2013/11/27)

>  <Rbt.Parameter_File>
/export/apps/rDock/src/rDock_2013.1_src/data/scripts/dock_solv.prm

>  <Rbt.Receptor>
prm/blind_docking_20.prm

>  <SCORE>
-37.6086

>  <SCORE.INTER>
-37.1008

>  <SCORE.INTER.CONST>
1

>  <SCORE.INTER.POLAR>
-1.87612

>  <SCORE.INTER.ROT>
7

>  <SCORE.INTER.SOLV>
26.3751

>  <SCORE.INTER.VDW>
-35.5385

>  <SCORE.INTER.norm>
-1.1968

>  <SCORE.INTRA>
-3.19042

>  <SCORE.INTRA.DIHEDRAL>
-4.37673

>  <SCORE.INTRA.DIHEDRAL.0>
15.5708

>  <SCORE.INTRA.POLAR>
-0.476472

>  <SCORE.INTRA.POLAR.0>
-0.0677885

>  <SCORE.INTRA.REPUL>
0

>  <SCORE.INTRA.REPUL.0>
0

>  <SCORE.INTRA.SOLV>
-3.12234

>  <SCORE.INTRA.SOLV.lig_0>
-87.6316

>  <SCORE.INTRA.VDW>
2.17912

>  <SCORE.INTRA.VDW.0>
-2.87309

>  <SCORE.INTRA.norm>
-0.102917

>  <SCORE.RESTR>
2.68265

>  <SCORE.RESTR.CAVITY>
2.68265

>  <SCORE.RESTR.norm>
0.0865369

>  <SCORE.SYSTEM>
0

>  <SCORE.SYSTEM.CONST>
0

>  <SCORE.SYSTEM.DIHEDRAL>
0

>  <SCORE.SYSTEM.SOLV>
0

>  <SCORE.SYSTEM.norm>
0

>  <SCORE.heavy>
31

>  <SCORE.norm>
-1.21318

>  <SYMMETRIC_BONDS>
33 34 3

>  <RMSD>
9.338

$$$$
1fmn_cryst
 OpenBabel11021811393D
libRbt.so/2013.1/901 2013/11/27
 31 33  0  0  0  0  0  0  0  0999 V2000
  -11.3491   -4.2928   -1.4129 N   0  0  0  0  0  0  0  0  0  0  0  0
  -11.0706   -4.0215   -2.7322 C   0  0  0  0  0  0  0  0  0  0  0  0
  -11.9495   -3.6976   -3.5316 O   0  0  0  0  0  0  0  0  0  0  0  0
   -9.7107   -4.1433   -3.1132 N   0  0  0  0  0  0  0  0  0  0  0  0
   -8.6308   -4.5123   -2.2814 C   0  0  0  0  0  0  0  0  0  0  0  0
   -7.4860   -4.5783   -2.7465 O   0  0  0  0  0  0  0  0  0  0  0  0
   -9.0098   -4.7852   -0.8932 C   0  0  0  0  0  0  0  0  0  0  0  0
   -8.0165   -5.1504   -0.0190 N   0  0  0  0  0  0  0  0  0  0  0  0
   -8.3940   -5.5775    1.2210 C   0  0  0  0  0  0  0  0  0  0  0  0
   -7.4209   -6.1204    2.0413 C   0  0  0  0  0  0  0  0  0  0  0  0
   -7.7229   -6.5638    3.2837 C   0  0  0  0  0  0  0  0  0  0  0  0
   -6.6335   -7.1391    4.1314 C   0  0  0  0  0  0  0  0  0  0  0  0
   -8.9983   -6.4845    3.7508 C   0  0  0  0  0  0  0  0  0  0  0  0
   -9.3241   -6.9828    5.1211 C   0  0  0  0  0  0  0  0  0  0  0  0
   -9.9856   -5.9587    2.9817 C   0  0  0  0  0  0  0  0  0  0  0  0
   -9.7273   -5.4872    1.6947 C   0  0  0  0  0  0  0  0  0  0  0  0
  -10.7041   -4.9268    0.8450 N   0  0  0  0  0  0  0  0  0  0  0  0
  -10.3947   -4.6587   -0.5042 C   0  0  0  0  0  0  0  0  0  0  0  0
  -11.8116   -4.1177    1.4752 C   0  0  0  0  0  0  0  0  0  0  0  0
  -11.8010   -2.5861    1.1847 C   0  0  1  0  0  0  0  0  0  0  0  0
  -12.2168   -2.3385   -0.1508 O   0  0  0  0  0  0  0  0  0  0  0  0
  -12.6177   -1.7648    2.2106 C   0  0  1  0  0  0  0  0  0  0  0  0
  -12.6620   -2.4431    3.4626 O   0  0  0  0  0  0  0  0  0  0  0  0
  -12.1947   -0.2907    2.4244 C   0  0  1  0  0  0  0  0  0  0  0  0
  -10.7875   -0.1948    2.2333 O   0  0  0  0  0  0  0  0  0  0  0  0
  -12.8962    0.6846    1.4525 C   0  0  0  0  0  0  0  0  0  0  0  0
  -12.0436    1.1034    0.3934 O   0  0  0  0  0  0  0  0  0  0  0  0
  -12.1072    2.5576   -0.2331 P   0  0  0  0  0  0  0  0  0  0  0  0
  -12.4852    3.5582    0.7906 O   0  0  0  0  0  0  0  0  0  0  0  0
  -10.9163    2.8169   -1.0706 O   0  5  0  0  0  0  0  0  0  0  0  0
  -13.3445    2.4841   -1.2324 O   0  5  0  0  0  0  0  0  0  0  0  0
  1 18  1  0  0  0  0
  1  2  1  0  0  0  0
  2  4  1  0  0  0  0
  2  3  2  0  0  0  0
  4  5  1  0  0  0  0
  5  7  1  0  0  0  0
  5  6  2  0  0  0  0
  7 18  2  0  0  0  0
  7  8  1  0  0  0  0
  8  9  1  0  0  0  0
  9 10  2  0  0  0  0
  9 16  1  0  0  0  0
 10 11  1  0  0  0  0
 11 12  1  0  0  0  0
 11 13  2  0  0  0  0
 13 14  1  0  0  0  0
 13 15  1  0  0  0  0
 15 16  2  0  0  0  0
 16 17  1  0  0  0  0
 17 19  1  0  0  0  0
 17 18  1  0  0  0  0
 20 19  1  1  0  0  0
 20 22  1  0  0  0  0
 20 21  1  0  0  0  0
 22 24  1  0  0  0  0
 22 23  1  1  0  0  0
 24 26  1  6  0  0  0
 24 25  1  0  0  0  0
 26 27  1  0  0  0  0
 27 28  1  0  0  0  0
 28 30  1  0  0  0  0
 28 29  2  0  0  0  0
 28 31  1  0  0  0  0
M  CHG  2  30  -1  31  -1
M  END
>  <CHROM.1>
111.45869059,73.62361824,26.96852687,-164.39696525,-31.93595402,154.74625558
-103.05720073,-69.35942400,-145.33884391,32.64446355,-10.59886902,-2.70344045
0.60570524,-0.35060390,1.10968244,-1.41621577

>  <Name>
1fmn_cryst

>  <RI>
0

>  <Rbt.Current_Directory>
/home/itssahil/PROJECTS/Mol_Feturizer/New_Systems/rnas/1fmn

>  <Rbt.Executable>
rbdock ($Id: //depot/dev/client3/rdock/2013.1/src/exe/rbdock.cxx#4 $)

>  <Rbt.Library>
libRbt.so (2013.1, Build901 2013/11/27)

>  <Rbt.Parameter_File>
/export/apps/rDock/src/rDock_2013.1_src/data/scripts/dock_solv.prm

>  <Rbt.Receptor>
prm/blind_docking_60.prm

>  <SCORE>
-43.1422

>  <SCORE.INTER>
-50.0098

>  <SCORE.INTER.CONST>
1

>  <SCORE.INTER.POLAR>
-4.37594

>  <SCORE.INTER.ROT>
7

>  <SCORE.INTER.SOLV>
28.0889

>  <SCORE.INTER.VDW>
-36.383

>  <SCORE.INTER.norm>
-1.61322

>  <SCORE.INTRA>
3.19823

>  <SCORE.INTRA.DIHEDRAL>
5.8786

>  <SCORE.INTRA.DIHEDRAL.0>
15.5708

>  <SCORE.INTRA.POLAR>
0.0677885

>  <SCORE.INTRA.POLAR.0>
-0.0677885

>  <SCORE.INTRA.REPUL>
0

>  <SCORE.INTRA.REPUL.0>
0

>  <SCORE.INTRA.SOLV>
-3.10473

>  <SCORE.INTRA.SOLV.lig_0>
-87.6316

>  <SCORE.INTRA.VDW>
1.58081

>  <SCORE.INTRA.VDW.0>
-2.87309

>  <SCORE.INTRA.norm>
0.103169

>  <SCORE.RESTR>
3.66934

>  <SCORE.RESTR.CAVITY>
3.66934

>  <SCORE.RESTR.norm>
0.118366

>  <SCORE.SYSTEM>
0

>  <SCORE.SYSTEM.CONST>
0

>  <SCORE.SYSTEM.DIHEDRAL>
0

>  <SCORE.SYSTEM.SOLV>
0

>  <SCORE.SYSTEM.norm>
0

>  <SCORE.heavy>
31

>  <SCORE.norm>
-1.39168

>  <SYMMETRIC_BONDS>
33 34 3

>  <RMSD>
9.338

$$$$
1fmn_cryst
 OpenBabel11021811393D
libRbt.so/2013.1/901 2013/11/27
 31 33  0  0  0  0  0  0  0  0999 V2000
  -10.5170   -4.1631   -2.3781 N   0  0  0  0  0  0  0  0  0  0  0  0
   -9.8948   -4.2199   -3.6033 C   0  0  0  0  0  0  0  0  0  0  0  0
  -10.4567   -3.8592   -4.6381 O   0  0  0  0  0  0  0  0  0  0  0  0
   -8.5699   -4.7240   -3.5995 N   0  0  0  0  0  0  0  0  0  0  0  0
   -7.8390   -5.1681   -2.4758 C   0  0  0  0  0  0  0  0  0  0  0  0
   -6.6823   -5.5851   -2.6155 O   0  0  0  0  0  0  0  0  0  0  0  0
   -8.5709   -5.0764   -1.2105 C   0  0  0  0  0  0  0  0  0  0  0  0
   -7.9293   -5.4888   -0.0692 N   0  0  0  0  0  0  0  0  0  0  0  0
   -8.6693   -5.5727    1.0744 C   0  0  0  0  0  0  0  0  0  0  0  0
   -8.0833   -6.1602    2.1816 C   0  0  0  0  0  0  0  0  0  0  0  0
   -8.7574   -6.2767    3.3492 C   0  0  0  0  0  0  0  0  0  0  0  0
   -8.0770   -6.9169    4.5169 C   0  0  0  0  0  0  0  0  0  0  0  0
  -10.0334   -5.8165    3.4552 C   0  0  0  0  0  0  0  0  0  0  0  0
  -10.7726   -5.9555    4.7460 C   0  0  0  0  0  0  0  0  0  0  0  0
  -10.6486   -5.2322    2.3955 C   0  0  0  0  0  0  0  0  0  0  0  0
   -9.9980   -5.0872    1.1702 C   0  0  0  0  0  0  0  0  0  0  0  0
  -10.5765   -4.4878    0.0318 N   0  0  0  0  0  0  0  0  0  0  0  0
   -9.9197   -4.5605   -1.2138 C   0  0  0  0  0  0  0  0  0  0  0  0
  -11.5325   -3.3392    0.2441 C   0  0  0  0  0  0  0  0  0  0  0  0
  -11.7254   -2.8625    1.7158 C   0  0  1  0  0  0  0  0  0  0  0  0
  -10.5555   -2.1985    2.1723 O   0  0  0  0  0  0  0  0  0  0  0  0
  -12.9977   -2.0056    1.9178 C   0  0  1  0  0  0  0  0  0  0  0  0
  -13.2800   -1.8613    3.3067 O   0  0  0  0  0  0  0  0  0  0  0  0
  -13.0264   -0.6199    1.2273 C   0  0  1  0  0  0  0  0  0  0  0  0
  -14.3823   -0.2016    1.1156 O   0  0  0  0  0  0  0  0  0  0  0  0
  -12.2361    0.4569    2.0041 C   0  0  0  0  0  0  0  0  0  0  0  0
  -12.3576    1.7480    1.4189 O   0  0  0  0  0  0  0  0  0  0  0  0
  -11.8473    3.0653    2.1371 P   0  0  0  0  0  0  0  0  0  0  0  0
  -12.3425    3.1332    3.5307 O   0  0  0  0  0  0  0  0  0  0  0  0
  -10.4040    3.2692    1.8879 O   0  5  0  0  0  0  0  0  0  0  0  0
  -12.6006    4.2339    1.3614 O   0  5  0  0  0  0  0  0  0  0  0  0
  1 18  1  0  0  0  0
  1  2  1  0  0  0  0
  2  4  1  0  0  0  0
  2  3  2  0  0  0  0
  4  5  1  0  0  0  0
  5  7  1  0  0  0  0
  5  6  2  0  0  0  0
  7 18  2  0  0  0  0
  7  8  1  0  0  0  0
  8  9  1  0  0  0  0
  9 10  2  0  0  0  0
  9 16  1  0  0  0  0
 10 11  1  0  0  0  0
 11 12  1  0  0  0  0
 11 13  2  0  0  0  0
 13 14  1  0  0  0  0
 13 15  1  0  0  0  0
 15 16  2  0  0  0  0
 16 17  1  0  0  0  0
 17 19  1  0  0  0  0
 17 18  1  0  0  0  0
 20 19  1  6  0  0  0
 20 22  1  0  0  0  0
 20 21  1  0  0  0  0
 22 24  1  0  0  0  0
 22 23  1  1  0  0  0
 24 26  1  1  0  0  0
 24 25  1  0  0  0  0
 26 27  1  0  0  0  0
 27 28  1  0  0  0  0
 28 30  1  0  0  0  0
 28 29  2  0  0  0  0
 28 31  1  0  0  0  0
M  CHG  2  30  -1  31  -1
M  END
>  <CHROM.1>
3.63181866,71.02404922,166.78735561,154.20004400,159.58965511,50.09735518
-175.28800889,-175.97007871,169.82556111,-49.54738817,-10.61518078,-2.54826056
0.88342974,-0.11957188,1.14865975,-1.13667699

>  <Name>
1fmn_cryst

>  <RI>
0

>  <Rbt.Current_Directory>
/home/itssahil/PROJECTS/Mol_Feturizer/New_Systems/rnas/1fmn

>  <Rbt.Executable>
rbdock ($Id: //depot/dev/client3/rdock/2013.1/src/exe/rbdock.cxx#4 $)

>  <Rbt.Library>
libRbt.so (2013.1, Build901 2013/11/27)

>  <Rbt.Parameter_File>
/export/apps/rDock/src/rDock_2013.1_src/data/scripts/dock_solv.prm

>  <Rbt.Receptor>
prm/blind_docking_60.prm

>  <SCORE>
-20.0473

>  <SCORE.INTER>
-19.7269

>  <SCORE.INTER.CONST>
1

>  <SCORE.INTER.POLAR>
-1.68907

>  <SCORE.INTER.ROT>
7

>  <SCORE.INTER.SOLV>
36.3427

>  <SCORE.INTER.VDW>
-27.9019

>  <SCORE.INTER.norm>
-0.636352

>  <SCORE.INTRA>
-1.48931

>  <SCORE.INTRA.DIHEDRAL>
-6.2548

>  <SCORE.INTRA.DIHEDRAL.0>
15.5708

>  <SCORE.INTRA.POLAR>
0.066253

>  <SCORE.INTRA.POLAR.0>
-0.0677885

>  <SCORE.INTRA.REPUL>
0.00133903

>  <SCORE.INTRA.REPUL.0>
0

>  <SCORE.INTRA.SOLV>
-4.8364

>  <SCORE.INTRA.SOLV.lig_0>
-87.6316

>  <SCORE.INTRA.VDW>
3.82434

>  <SCORE.INTRA.VDW.0>
-2.87309

>  <SCORE.INTRA.norm>
-0.0480423

>  <SCORE.RESTR>
1.16889

>  <SCORE.RESTR.CAVITY>
1.16889

>  <SCORE.RESTR.norm>
0.0377062

>  <SCORE.SYSTEM>
0

>  <SCORE.SYSTEM.CONST>
0

>  <SCORE.SYSTEM.DIHEDRAL>
0

>  <SCORE.SYSTEM.SOLV>
0

>  <SCORE.SYSTEM.norm>
0

>  <SCORE.heavy>
31

>  <SCORE.norm>
-0.646688

>  <SYMMETRIC_BONDS>
33 34 3

>  <RMSD>
9.344

$$$$
1fmn_cryst
 OpenBabel11021811393D
libRbt.so/2013.1/901 2013/11/27
 31 33  0  0  0  0  0  0  0  0999 V2000
  -11.1152   -3.6902   -1.5927 N   0  0  0  0  0  0  0  0  0  0  0  0
  -10.6543   -3.4920   -2.8733 C   0  0  0  0  0  0  0  0  0  0  0  0
  -11.3662   -3.0123   -3.7562 O   0  0  0  0  0  0  0  0  0  0  0  0
   -9.3117   -3.8789   -3.1125 N   0  0  0  0  0  0  0  0  0  0  0  0
   -8.4160   -4.4414   -2.1769 C   0  0  0  0  0  0  0  0  0  0  0  0
   -7.2637   -4.7329   -2.5214 O   0  0  0  0  0  0  0  0  0  0  0  0
   -8.9823   -4.6210   -0.8381 C   0  0  0  0  0  0  0  0  0  0  0  0
   -8.1746   -5.1626    0.1306 N   0  0  0  0  0  0  0  0  0  0  0  0
   -8.7540   -5.4953    1.3206 C   0  0  0  0  0  0  0  0  0  0  0  0
   -7.9950   -6.2078    2.2320 C   0  0  0  0  0  0  0  0  0  0  0  0
   -8.5041   -6.5712    3.4321 C   0  0  0  0  0  0  0  0  0  0  0  0
   -7.6406   -7.3377    4.3824 C   0  0  0  0  0  0  0  0  0  0  0  0
   -9.7813   -6.2414    3.7652 C   0  0  0  0  0  0  0  0  0  0  0  0
  -10.3377   -6.6526    5.0894 C   0  0  0  0  0  0  0  0  0  0  0  0
  -10.5630   -5.5423    2.9031 C   0  0  0  0  0  0  0  0  0  0  0  0
  -10.0863   -5.1434    1.6544 C   0  0  0  0  0  0  0  0  0  0  0  0
  -10.8426   -4.4133    0.7137 N   0  0  0  0  0  0  0  0  0  0  0  0
  -10.3491   -4.2245   -0.5936 C   0  0  0  0  0  0  0  0  0  0  0  0
  -11.8315   -3.3984    1.2336 C   0  0  0  0  0  0  0  0  0  0  0  0
  -11.8312   -2.0080    0.5286 C   0  0  1  0  0  0  0  0  0  0  0  0
  -12.9268   -1.9152   -0.3709 O   0  0  0  0  0  0  0  0  0  0  0  0
  -11.7900   -0.8210    1.5203 C   0  0  1  0  0  0  0  0  0  0  0  0
  -11.5230    0.3936    0.8253 O   0  0  0  0  0  0  0  0  0  0  0  0
  -13.0170   -0.6392    2.4472 C   0  0  1  0  0  0  0  0  0  0  0  0
  -13.2665   -1.8739    3.1098 O   0  0  0  0  0  0  0  0  0  0  0  0
  -12.8111    0.4631    3.5103 C   0  0  0  0  0  0  0  0  0  0  0  0
  -13.8954    0.5425    4.4279 O   0  0  0  0  0  0  0  0  0  0  0  0
  -14.0547    1.7304    5.4647 P   0  0  0  0  0  0  0  0  0  0  0  0
  -13.1241    1.5657    6.6043 O   0  0  0  0  0  0  0  0  0  0  0  0
  -14.0927    3.0322    4.7641 O   0  5  0  0  0  0  0  0  0  0  0  0
  -15.5107    1.5101    6.0701 O   0  5  0  0  0  0  0  0  0  0  0  0
  1 18  1  0  0  0  0
  1  2  1  0  0  0  0
  2  4  1  0  0  0  0
  2  3  2  0  0  0  0
  4  5  1  0  0  0  0
  5  7  1  0  0  0  0
  5  6  2  0  0  0  0
  7 18  2  0  0  0  0
  7  8  1  0  0  0  0
  8  9  1  0  0  0  0
  9 10  2  0  0  0  0
  9 16  1  0  0  0  0
 10 11  1  0  0  0  0
 11 12  1  0  0  0  0
 11 13  2  0  0  0  0
 13 14  1  0  0  0  0
 13 15  1  0  0  0  0
 15 16  2  0  0  0  0
 16 17  1  0  0  0  0
 17 19  1  0  0  0  0
 17 18  1  0  0  0  0
 20 19  1  1  0  0  0
 20 22  1  0  0  0  0
 20 21  1  0  0  0  0
 22 24  1  0  0  0  0
 22 23  1  6  0  0  0
 24 26  1  1  0  0  0
 24 25  1  0  0  0  0
 26 27  1  0  0  0  0
 27 28  1  0  0  0  0
 28 30  1  0  0  0  0
 28 29  2  0  0  0  0
 28 31  1  0  0  0  0
M  CHG  2  30  -1  31  -1
M  END
>  <CHROM.1>
134.51397318,102.22766181,168.40035947,74.55136283,52.53411008,61.38524398
-174.88604188,-168.63930088,-169.67985330,-76.62446719,-11.18832618,-2.64467431
1.75008587,0.42040295,0.97940137,-1.38416356

>  <Name>
1fmn_cryst

>  <RI>
0

>  <Rbt.Current_Directory>
/home/itssahil/PROJECTS/Mol_Feturizer/New_Systems/rnas/1fmn

>  <Rbt.Executable>
rbdock ($Id: //depot/dev/client3/rdock/2013.1/src/exe/rbdock.cxx#4 $)

>  <Rbt.Library>
libRbt.so (2013.1, Build901 2013/11/27)

>  <Rbt.Parameter_File>
/export/apps/rDock/src/rDock_2013.1_src/data/scripts/dock_solv.prm

>  <Rbt.Receptor>
prm/blind_docking_100.prm

>  <SCORE>
-36.0535

>  <SCORE.INTER>
-32.9646

>  <SCORE.INTER.CONST>
1

>  <SCORE.INTER.POLAR>
-0.715431

>  <SCORE.INTER.ROT>
7

>  <SCORE.INTER.SOLV>
27.3295

>  <SCORE.INTER.VDW>
-36.9681

>  <SCORE.INTER.norm>
-1.06338

>  <SCORE.INTRA>
-4.8851

>  <SCORE.INTRA.DIHEDRAL>
-5.6666

>  <SCORE.INTRA.DIHEDRAL.0>
15.5708

>  <SCORE.INTRA.POLAR>
-0.544761

>  <SCORE.INTRA.POLAR.0>
-0.0677885

>  <SCORE.INTRA.REPUL>
0

>  <SCORE.INTRA.REPUL.0>
0

>  <SCORE.INTRA.SOLV>
-4.10556

>  <SCORE.INTRA.SOLV.lig_0>
-87.6316

>  <SCORE.INTRA.VDW>
1.85316

>  <SCORE.INTRA.VDW.0>
-2.87309

>  <SCORE.INTRA.norm>
-0.157584

>  <SCORE.RESTR>
1.79619

>  <SCORE.RESTR.CAVITY>
1.79619

>  <SCORE.RESTR.norm>
0.0579416

>  <SCORE.SYSTEM>
0

>  <SCORE.SYSTEM.CONST>
0

>  <SCORE.SYSTEM.DIHEDRAL>
0

>  <SCORE.SYSTEM.SOLV>
0

>  <SCORE.SYSTEM.norm>
0

>  <SCORE.heavy>
31

>  <SCORE.norm>
-1.16302

>  <SYMMETRIC_BONDS>
33 34 3

>  <RMSD>
9.349

$$$$
1fmn_cryst
 OpenBabel11021811393D
libRbt.so/2013.1/901 2013/11/27
 31 33  0  0  0  0  0  0  0  0999 V2000
  -11.3344   -3.6815   -2.9781 N   0  0  0  0  0  0  0  0  0  0  0  0
  -10.6688   -3.7360   -4.1804 C   0  0  0  0  0  0  0  0  0  0  0  0
  -11.2229   -3.4650   -5.2462 O   0  0  0  0  0  0  0  0  0  0  0  0
   -9.3081   -4.1283   -4.1149 N   0  0  0  0  0  0  0  0  0  0  0  0
   -8.5818   -4.4649   -2.9516 C   0  0  0  0  0  0  0  0  0  0  0  0
   -7.3910   -4.7901   -3.0381 O   0  0  0  0  0  0  0  0  0  0  0  0
   -9.3608   -4.3830   -1.7140 C   0  0  0  0  0  0  0  0  0  0  0  0
   -8.7266   -4.6946   -0.5372 N   0  0  0  0  0  0  0  0  0  0  0  0
   -9.4955   -4.7932    0.5861 C   0  0  0  0  0  0  0  0  0  0  0  0
   -8.9012   -5.2851    1.7347 C   0  0  0  0  0  0  0  0  0  0  0  0
   -9.6025   -5.4098    2.8853 C   0  0  0  0  0  0  0  0  0  0  0  0
   -8.9120   -5.9440    4.0994 C   0  0  0  0  0  0  0  0  0  0  0  0
  -10.9145   -5.0527    2.9328 C   0  0  0  0  0  0  0  0  0  0  0  0
  -11.6831   -5.2001    4.2054 C   0  0  0  0  0  0  0  0  0  0  0  0
  -11.5392   -4.5645    1.8308 C   0  0  0  0  0  0  0  0  0  0  0  0
  -10.8617   -4.4158    0.6207 C   0  0  0  0  0  0  0  0  0  0  0  0
  -11.4483   -3.9126   -0.5594 N   0  0  0  0  0  0  0  0  0  0  0  0
  -10.7462   -3.9809   -1.7802 C   0  0  0  0  0  0  0  0  0  0  0  0
  -12.5012   -2.8393   -0.4256 C   0  0  0  0  0  0  0  0  0  0  0  0
  -12.0386   -1.4912    0.2060 C   0  0  1  0  0  0  0  0  0  0  0  0
  -12.8363   -0.4224   -0.2833 O   0  0  0  0  0  0  0  0  0  0  0  0
  -11.9953   -1.5248    1.7523 C   0  0  1  0  0  0  0  0  0  0  0  0
  -11.0578   -0.5697    2.2405 O   0  0  0  0  0  0  0  0  0  0  0  0
  -13.3448   -1.3661    2.4949 C   0  0  1  0  0  0  0  0  0  0  0  0
  -13.2849   -2.1185    3.7016 O   0  0  0  0  0  0  0  0  0  0  0  0
  -13.6730    0.1037    2.8409 C   0  0  0  0  0  0  0  0  0  0  0  0
  -12.9777    0.5584    3.9958 O   0  0  0  0  0  0  0  0  0  0  0  0
  -13.4213    1.8419    4.8125 P   0  0  0  0  0  0  0  0  0  0  0  0
  -13.0662    3.0809    4.0839 O   0  0  0  0  0  0  0  0  0  0  0  0
  -14.8034    1.6878    5.3155 O   0  5  0  0  0  0  0  0  0  0  0  0
  -12.4776    1.8180    6.0946 O   0  5  0  0  0  0  0  0  0  0  0  0
  1 18  1  0  0  0  0
  1  2  1  0  0  0  0
  2  4  1  0  0  0  0
  2  3  2  0  0  0  0
  4  5  1  0  0  0  0
  5  7  1  0  0  0  0
  5  6  2  0  0  0  0
  7 18  2  0  0  0  0
  7  8  1  0  0  0  0
  8  9  1  0  0  0  0
  9 10  2  0  0  0  0
  9 16  1  0  0  0  0
 10 11  1  0  0  0  0
 11 12  1  0  0  0  0
 11 13  2  0  0  0  0
 13 14  1  0  0  0  0
 13 15  1  0  0  0  0
 15 16  2  0  0  0  0
 16 17  1  0  0  0  0
 17 19  1  0  0  0  0
 17 18  1  0  0  0  0
 20 19  1  1  0  0  0
 20 22  1  0  0  0  0
 20 21  1  0  0  0  0
 22 24  1  0  0  0  0
 22 23  1  1  0  0  0
 24 26  1  1  0  0  0
 24 25  1  0  0  0  0
 26 27  1  0  0  0  0
 27 28  1  0  0  0  0
 28 30  1  0  0  0  0
 28 29  2  0  0  0  0
 28 31  1  0  0  0  0
M  CHG  2  30  -1  31  -1
M  END
>  <CHROM.1>
62.75475746,152.06193094,154.37529589,-173.69171126,147.94174066,161.99494693
-79.65282295,-63.01661739,-161.83685100,-74.66926285,-11.37867647,-2.37195859
1.14439554,0.69556444,1.04637426,-1.44927227

>  <Name>
1fmn_cryst

>  <RI>
0

>  <Rbt.Current_Directory>
/home/itssahil/PROJECTS/Mol_Feturizer/New_Systems/rnas/1fmn

>  <Rbt.Executable>
rbdock ($Id: //depot/dev/client3/rdock/2013.1/src/exe/rbdock.cxx#4 $)

>  <Rbt.Library>
libRbt.so (2013.1, Build901 2013/11/27)

>  <Rbt.Parameter_File>
/export/apps/rDock/src/rDock_2013.1_src/data/scripts/dock_solv.prm

>  <Rbt.Receptor>
prm/blind_docking_20.prm

>  <SCORE>
-21.8119

>  <SCORE.INTER>
-19.7031

>  <SCORE.INTER.CONST>
1

>  <SCORE.INTER.POLAR>
-1.09544

>  <SCORE.INTER.ROT>
7

>  <SCORE.INTER.SOLV>
28.191

>  <SCORE.INTER.VDW>
-27.1476

>  <SCORE.INTER.norm>
-0.635585

>  <SCORE.INTRA>
-4.75399

>  <SCORE.INTRA.DIHEDRAL>
-2.1979

>  <SCORE.INTRA.DIHEDRAL.0>
15.5708

>  <SCORE.INTRA.POLAR>
-0.465922

>  <SCORE.INTRA.POLAR.0>
-0.0677885

>  <SCORE.INTRA.REPUL>
0

>  <SCORE.INTRA.REPUL.0>
0

>  <SCORE.INTRA.SOLV>
-4.36395

>  <SCORE.INTRA.SOLV.lig_0>
-87.6316

>  <SCORE.INTRA.VDW>
0.111064

>  <SCORE.INTRA.VDW.0>
-2.87309

>  <SCORE.INTRA.norm>
-0.153355

>  <SCORE.RESTR>
2.6452

>  <SCORE.RESTR.CAVITY>
2.6452

>  <SCORE.RESTR.norm>
0.0853289

>  <SCORE.SYSTEM>
0

>  <SCORE.SYSTEM.CONST>
0

>  <SCORE.SYSTEM.DIHEDRAL>
0

>  <SCORE.SYSTEM.SOLV>
0

>  <SCORE.SYSTEM.norm>
0

>  <SCORE.heavy>
31

>  <SCORE.norm>
-0.703611

>  <SYMMETRIC_BONDS>
33 34 3

>  <RMSD>
9.349

$$$$
1fmn_cryst
 OpenBabel11021811393D
libRbt.so/2013.1/901 2013/11/27
 31 33  0  0  0  0  0  0  0  0999 V2000
  -10.1234   -4.2385   -2.9114 N   0  0  0  0  0  0  0  0  0  0  0  0
   -9.1541   -4.4987   -3.8518 C   0  0  0  0  0  0  0  0  0  0  0  0
   -9.3516   -4.3324   -5.0559 O   0  0  0  0  0  0  0  0  0  0  0  0
   -7.9174   -4.9742   -3.3478 N   0  0  0  0  0  0  0  0  0  0  0  0
   -7.5904   -5.2044   -1.9934 C   0  0  0  0  0  0  0  0  0  0  0  0
   -6.4654   -5.6217   -1.6909 O   0  0  0  0  0  0  0  0  0  0  0  0
   -8.6749   -4.9046   -1.0558 C   0  0  0  0  0  0  0  0  0  0  0  0
   -8.4369   -5.1019    0.2816 N   0  0  0  0  0  0  0  0  0  0  0  0
   -9.4984   -4.9964    1.1329 C   0  0  0  0  0  0  0  0  0  0  0  0
   -9.3096   -5.3728    2.4508 C   0  0  0  0  0  0  0  0  0  0  0  0
  -10.3173   -5.2943    3.3507 C   0  0  0  0  0  0  0  0  0  0  0  0
  -10.0598   -5.7106    4.7637 C   0  0  0  0  0  0  0  0  0  0  0  0
  -11.5433   -4.8420    2.9720 C   0  0  0  0  0  0  0  0  0  0  0  0
  -12.6521   -4.7650    3.9704 C   0  0  0  0  0  0  0  0  0  0  0  0
  -11.7748   -4.4609    1.6898 C   0  0  0  0  0  0  0  0  0  0  0  0
  -10.7704   -4.5219    0.7239 C   0  0  0  0  0  0  0  0  0  0  0  0
  -10.9417   -4.1390   -0.6230 N   0  0  0  0  0  0  0  0  0  0  0  0
   -9.9339   -4.4177   -1.5688 C   0  0  0  0  0  0  0  0  0  0  0  0
  -11.8692   -2.9856   -0.9194 C   0  0  0  0  0  0  0  0  0  0  0  0
  -12.2969   -2.1111    0.2982 C   0  0  1  0  0  0  0  0  0  0  0  0
  -11.1817   -1.8728    1.1453 O   0  0  0  0  0  0  0  0  0  0  0  0
  -13.0072   -0.7993   -0.1122 C   0  0  1  0  0  0  0  0  0  0  0  0
  -13.7675   -1.0006   -1.3001 O   0  0  0  0  0  0  0  0  0  0  0  0
  -13.8824   -0.1100    0.9633 C   0  0  1  0  0  0  0  0  0  0  0  0
  -14.8310   -1.0558    1.4445 O   0  0  0  0  0  0  0  0  0  0  0  0
  -13.0604    0.4224    2.1586 C   0  0  0  0  0  0  0  0  0  0  0  0
  -13.8602    0.6372    3.3154 O   0  0  0  0  0  0  0  0  0  0  0  0
  -13.2972    1.3168    4.6317 P   0  0  0  0  0  0  0  0  0  0  0  0
  -14.1538    1.0014    5.7973 O   0  0  0  0  0  0  0  0  0  0  0  0
  -11.8385    1.1018    4.7463 O   0  5  0  0  0  0  0  0  0  0  0  0
  -13.4965    2.8741    4.3672 O   0  5  0  0  0  0  0  0  0  0  0  0
  1 18  1  0  0  0  0
  1  2  1  0  0  0  0
  2  4  1  0  0  0  0
  2  3  2  0  0  0  0
  4  5  1  0  0  0  0
  5  7  1  0  0  0  0
  5  6  2  0  0  0  0
  7 18  2  0  0  0  0
  7  8  1  0  0  0  0
  8  9  1  0  0  0  0
  9 10  2  0  0  0  0
  9 16  1  0  0  0  0
 10 11  1  0  0  0  0
 11 12  1  0  0  0  0
 11 13  2  0  0  0  0
 13 14  1  0  0  0  0
 13 15  1  0  0  0  0
 15 16  2  0  0  0  0
 16 17  1  0  0  0  0
 17 19  1  0  0  0  0
 17 18  1  0  0  0  0
 20 19  1  6  0  0  0
 20 22  1  0  0  0  0
 20 21  1  0  0  0  0
 22 24  1  0  0  0  0
 22 23  1  6  0  0  0
 24 26  1  1  0  0  0
 24 25  1  0  0  0  0
 26 27  1  0  0  0  0
 27 28  1  0  0  0  0
 28 30  1  0  0  0  0
 28 29  2  0  0  0  0
 28 31  1  0  0  0  0
M  CHG  2  30  -1  31  -1
M  END
>  <CHROM.1>
13.74530612,42.10217332,33.27733772,-156.77902136,-54.60771760,65.00199171
-160.21313010,70.05164103,-173.62666742,-160.38255306,-11.28977900,-2.61848560
1.02027882,0.55637166,0.94446244,-1.42502217

>  <Name>
1fmn_cryst

>  <RI>
0

>  <Rbt.Current_Directory>
/home/itssahil/PROJECTS/Mol_Feturizer/New_Systems/rnas/1fmn

>  <Rbt.Executable>
rbdock ($Id: //depot/dev/client3/rdock/2013.1/src/exe/rbdock.cxx#4 $)

>  <Rbt.Library>
libRbt.so (2013.1, Build901 2013/11/27)

>  <Rbt.Parameter_File>
/export/apps/rDock/src/rDock_2013.1_src/data/scripts/dock_solv.prm

>  <Rbt.Receptor>
prm/blind_docking_60.prm

>  <SCORE>
-37.2676

>  <SCORE.INTER>
-37.2434

>  <SCORE.INTER.CONST>
1

>  <SCORE.INTER.POLAR>
-1.43351

>  <SCORE.INTER.ROT>
7

>  <SCORE.INTER.SOLV>
30.5948

>  <SCORE.INTER.VDW>
-38.5155

>  <SCORE.INTER.norm>
-1.2014

>  <SCORE.INTRA>
-0.659032

>  <SCORE.INTRA.DIHEDRAL>
-4.15469

>  <SCORE.INTRA.DIHEDRAL.0>
15.5708

>  <SCORE.INTRA.POLAR>
0.0677885

>  <SCORE.INTRA.POLAR.0>
-0.0677885

>  <SCORE.INTRA.REPUL>
0

>  <SCORE.INTRA.REPUL.0>
0

>  <SCORE.INTRA.SOLV>
-4.14422

>  <SCORE.INTRA.SOLV.lig_0>
-87.6316

>  <SCORE.INTRA.VDW>
3.25994

>  <SCORE.INTRA.VDW.0>
-2.87309

>  <SCORE.INTRA.norm>
-0.0212591

>  <SCORE.RESTR>
0.634868

>  <SCORE.RESTR.CAVITY>
0.634868

>  <SCORE.RESTR.norm>
0.0204796

>  <SCORE.SYSTEM>
0

>  <SCORE.SYSTEM.CONST>
0

>  <SCORE.SYSTEM.DIHEDRAL>
0

>  <SCORE.SYSTEM.SOLV>
0

>  <SCORE.SYSTEM.norm>
0

>  <SCORE.heavy>
31

>  <SCORE.norm>
-1.20218

>  <SYMMETRIC_BONDS>
33 34 3

>  <RMSD>
9.349

$$$$
1fmn_cryst
 OpenBabel11021811393D
libRbt.so/2013.1/901 2013/11/27
 31 33  0  0  0  0  0  0  0  0999 V2000
  -11.0937   -3.9958   -1.7441 N   0  0  0  0  0  0  0  0  0  0  0  0
  -10.6374   -3.7939   -3.0257 C   0  0  0  0  0  0  0  0  0  0  0  0
  -11.3782   -3.4023   -3.9282 O   0  0  0  0  0  0  0  0  0  0  0  0
   -9.2639   -4.0696   -3.2421 N   0  0  0  0  0  0  0  0  0  0  0  0
   -8.3334   -4.5263   -2.2831 C   0  0  0  0  0  0  0  0  0  0  0  0
   -7.1565   -4.7263   -2.6091 O   0  0  0  0  0  0  0  0  0  0  0  0
   -8.8970   -4.7172   -0.9447 C   0  0  0  0  0  0  0  0  0  0  0  0
   -8.0564   -5.1598    0.0461 N   0  0  0  0  0  0  0  0  0  0  0  0
   -8.6182   -5.5084    1.2400 C   0  0  0  0  0  0  0  0  0  0  0  0
   -7.8107   -6.1270    2.1779 C   0  0  0  0  0  0  0  0  0  0  0  0
   -8.2999   -6.4998    3.3833 C   0  0  0  0  0  0  0  0  0  0  0  0
   -7.3842   -7.1622    4.3626 C   0  0  0  0  0  0  0  0  0  0  0  0
   -9.6045   -6.2728    3.6958 C   0  0  0  0  0  0  0  0  0  0  0  0
  -10.1380   -6.6938    5.0263 C   0  0  0  0  0  0  0  0  0  0  0  0
  -10.4339   -5.6682    2.8073 C   0  0  0  0  0  0  0  0  0  0  0  0
   -9.9796   -5.2641    1.5520 C   0  0  0  0  0  0  0  0  0  0  0  0
  -10.7855   -4.6286    0.5842 N   0  0  0  0  0  0  0  0  0  0  0  0
  -10.2956   -4.4339   -0.7235 C   0  0  0  0  0  0  0  0  0  0  0  0
  -11.8641   -3.6891    1.0663 C   0  0  0  0  0  0  0  0  0  0  0  0
  -11.8903   -2.2732    0.4147 C   0  0  1  0  0  0  0  0  0  0  0  0
  -12.5895   -2.3162   -0.8211 O   0  0  0  0  0  0  0  0  0  0  0  0
  -12.4417   -1.1775    1.3578 C   0  0  1  0  0  0  0  0  0  0  0  0
  -13.3532   -1.7452    2.2940 O   0  0  0  0  0  0  0  0  0  0  0  0
  -11.4013   -0.3024    2.0992 C   0  0  1  0  0  0  0  0  0  0  0  0
  -11.1315    0.8463    1.3033 O   0  0  0  0  0  0  0  0  0  0  0  0
  -11.8858    0.1600    3.4918 C   0  0  0  0  0  0  0  0  0  0  0  0
  -13.2346    0.6121    3.4754 O   0  0  0  0  0  0  0  0  0  0  0  0
  -13.6288    2.1207    3.1925 P   0  0  0  0  0  0  0  0  0  0  0  0
  -13.4018    2.9601    4.3909 O   0  0  0  0  0  0  0  0  0  0  0  0
  -13.0737    2.5705    1.8977 O   0  5  0  0  0  0  0  0  0  0  0  0
  -15.2088    2.0688    3.0036 O   0  5  0  0  0  0  0  0  0  0  0  0
  1 18  1  0  0  0  0
  1  2  1  0  0  0  0
  2  4  1  0  0  0  0
  2  3  2  0  0  0  0
  4  5  1  0  0  0  0
  5  7  1  0  0  0  0
  5  6  2  0  0  0  0
  7 18  2  0  0  0  0
  7  8  1  0  0  0  0
  8  9  1  0  0  0  0
  9 10  2  0  0  0  0
  9 16  1  0  0  0  0
 10 11  1  0  0  0  0
 11 12  1  0  0  0  0
 11 13  2  0  0  0  0
 13 14  1  0  0  0  0
 13 15  1  0  0  0  0
 15 16  2  0  0  0  0
 16 17  1  0  0  0  0
 17 19  1  0  0  0  0
 17 18  1  0  0  0  0
 20 19  1  1  0  0  0
 20 22  1  0  0  0  0
 20 21  1  0  0  0  0
 22 24  1  0  0  0  0
 22 23  1  1  0  0  0
 24 26  1  1  0  0  0
 24 25  1  0  0  0  0
 26 27  1  0  0  0  0
 27 28  1  0  0  0  0
 28 30  1  0  0  0  0
 28 29  2  0  0  0  0
 28 31  1  0  0  0  0
M  CHG  2  30  -1  31  -1
M  END
>  <CHROM.1>
128.93486248,83.31795359,-27.81207977,-173.47737852,91.36506991,-167.26257723
-44.02991456,63.07629290,-89.67422228,-77.69666111,-10.96203119,-2.63304319
1.17001807,0.20637541,1.01410747,-1.45834002

>  <Name>
1fmn_cryst

>  <RI>
0

>  <Rbt.Current_Directory>
/home/itssahil/PROJECTS/Mol_Feturizer/New_Systems/rnas/1fmn

>  <Rbt.Executable>
rbdock ($Id: //depot/dev/client3/rdock/2013.1/src/exe/rbdock.cxx#4 $)

>  <Rbt.Library>
libRbt.so (2013.1, Build901 2013/11/27)

>  <Rbt.Parameter_File>
/export/apps/rDock/src/rDock_2013.1_src/data/scripts/dock_solv.prm

>  <Rbt.Receptor>
prm/blind_docking_60.prm

>  <SCORE>
-31.5125

>  <SCORE.INTER>
-30.9344

>  <SCORE.INTER.CONST>
1

>  <SCORE.INTER.POLAR>
-0.448539

>  <SCORE.INTER.ROT>
7

>  <SCORE.INTER.SOLV>
23.1828

>  <SCORE.INTER.VDW>
-35.1221

>  <SCORE.INTER.norm>
-0.997883

>  <SCORE.INTRA>
-2.67342

>  <SCORE.INTRA.DIHEDRAL>
-0.137056

>  <SCORE.INTRA.DIHEDRAL.0>
15.5708

>  <SCORE.INTRA.POLAR>
-2.01238

>  <SCORE.INTRA.POLAR.0>
-0.0677885

>  <SCORE.INTRA.REPUL>
0

>  <SCORE.INTRA.REPUL.0>
0

>  <SCORE.INTRA.SOLV>
1.25004

>  <SCORE.INTRA.SOLV.lig_0>
-87.6316

>  <SCORE.INTRA.VDW>
3.61217

>  <SCORE.INTRA.VDW.0>
-2.87309

>  <SCORE.INTRA.norm>
-0.0862393

>  <SCORE.RESTR>
2.09533

>  <SCORE.RESTR.CAVITY>
2.09533

>  <SCORE.RESTR.norm>
0.0675914

>  <SCORE.SYSTEM>
0

>  <SCORE.SYSTEM.CONST>
0

>  <SCORE.SYSTEM.DIHEDRAL>
0

>  <SCORE.SYSTEM.SOLV>
0

>  <SCORE.SYSTEM.norm>
0

>  <SCORE.heavy>
31

>  <SCORE.norm>
-1.01653

>  <SYMMETRIC_BONDS>
33 34 3

>  <RMSD>
9.349

$$$$
1fmn_cryst
 OpenBabel11021811393D
libRbt.so/2013.1/901 2013/11/27
 31 33  0  0  0  0  0  0  0  0999 V2000
  -11.2409   -3.8056   -1.3183 N   0  0  0  0  0  0  0  0  0  0  0  0
  -11.1563   -3.7155   -2.6881 C   0  0  0  0  0  0  0  0  0  0  0  0
  -12.0143   -3.1405   -3.3587 O   0  0  0  0  0  0  0  0  0  0  0  0
  -10.0231   -4.3300   -3.2778 N   0  0  0  0  0  0  0  0  0  0  0  0
   -8.9892   -5.0168   -2.6044 C   0  0  0  0  0  0  0  0  0  0  0  0
   -8.0517   -5.5070   -3.2463 O   0  0  0  0  0  0  0  0  0  0  0  0
   -9.1530   -5.0693   -1.1498 C   0  0  0  0  0  0  0  0  0  0  0  0
   -8.1889   -5.7197   -0.4207 N   0  0  0  0  0  0  0  0  0  0  0  0
   -8.4331   -5.9240    0.9063 C   0  0  0  0  0  0  0  0  0  0  0  0
   -7.5586   -6.7358    1.6068 C   0  0  0  0  0  0  0  0  0  0  0  0
   -7.7384   -6.9821    2.9253 C   0  0  0  0  0  0  0  0  0  0  0  0
   -6.7624   -7.8641    3.6365 C   0  0  0  0  0  0  0  0  0  0  0  0
   -8.7911   -6.4330    3.5898 C   0  0  0  0  0  0  0  0  0  0  0  0
   -8.9859   -6.7158    5.0438 C   0  0  0  0  0  0  0  0  0  0  0  0
   -9.6743   -5.6296    2.9439 C   0  0  0  0  0  0  0  0  0  0  0  0
   -9.5340   -5.3439    1.5859 C   0  0  0  0  0  0  0  0  0  0  0  0
  -10.4119   -4.5158    0.8553 N   0  0  0  0  0  0  0  0  0  0  0  0
  -10.3060   -4.4411   -0.5487 C   0  0  0  0  0  0  0  0  0  0  0  0
  -11.0305   -3.3369    1.5665 C   0  0  0  0  0  0  0  0  0  0  0  0
  -12.2504   -3.6460    2.4866 C   0  0  1  0  0  0  0  0  0  0  0  0
  -11.8302   -4.3858    3.6241 O   0  0  0  0  0  0  0  0  0  0  0  0
  -13.0551   -2.3837    2.8776 C   0  0  1  0  0  0  0  0  0  0  0  0
  -13.5782   -2.5207    4.1956 O   0  0  0  0  0  0  0  0  0  0  0  0
  -12.3338   -1.0208    2.7358 C   0  0  1  0  0  0  0  0  0  0  0  0
  -12.6292   -0.4879    1.4494 O   0  0  0  0  0  0  0  0  0  0  0  0
  -12.7645    0.0036    3.8094 C   0  0  0  0  0  0  0  0  0  0  0  0
  -13.9533    0.6985    3.4516 O   0  0  0  0  0  0  0  0  0  0  0  0
  -14.5554    1.8733    4.3284 P   0  0  0  0  0  0  0  0  0  0  0  0
  -13.6474    2.2177    5.4459 O   0  0  0  0  0  0  0  0  0  0  0  0
  -15.0598    2.9625    3.4646 O   0  5  0  0  0  0  0  0  0  0  0  0
  -15.8367    1.2176    5.0089 O   0  5  0  0  0  0  0  0  0  0  0  0
  1 18  1  0  0  0  0
  1  2  1  0  0  0  0
  2  4  1  0  0  0  0
  2  3  2  0  0  0  0
  4  5  1  0  0  0  0
  5  7  1  0  0  0  0
  5  6  2  0  0  0  0
  7 18  2  0  0  0  0
  7  8  1  0  0  0  0
  8  9  1  0  0  0  0
  9 10  2  0  0  0  0
  9 16  1  0  0  0  0
 10 11  1  0  0  0  0
 11 12  1  0  0  0  0
 11 13  2  0  0  0  0
 13 14  1  0  0  0  0
 13 15  1  0  0  0  0
 15 16  2  0  0  0  0
 16 17  1  0  0  0  0
 17 19  1  0  0  0  0
 17 18  1  0  0  0  0
 20 19  1  1  0  0  0
 20 22  1  0  0  0  0
 20 21  1  0  0  0  0
 22 24  1  0  0  0  0
 22 23  1  1  0  0  0
 24 26  1  1  0  0  0
 24 25  1  0  0  0  0
 26 27  1  0  0  0  0
 27 28  1  0  0  0  0
 28 30  1  0  0  0  0
 28 29  2  0  0  0  0
 28 31  1  0  0  0  0
M  CHG  2  30  -1  31  -1
M  END
>  <CHROM.1>
-79.55113650,68.84627453,-146.13716310,-92.51262363,92.85077276,-151.55601446
-84.25166433,60.07261190,-175.65332069,6.01471298,-11.21824253,-3.06411557
1.74039868,0.37288396,0.91432521,-1.50684909

>  <Name>
1fmn_cryst

>  <RI>
0

>  <Rbt.Current_Directory>
/home/itssahil/PROJECTS/Mol_Feturizer/New_Systems/rnas/1fmn

>  <Rbt.Executable>
rbdock ($Id: //depot/dev/client3/rdock/2013.1/src/exe/rbdock.cxx#4 $)

>  <Rbt.Library>
libRbt.so (2013.1, Build901 2013/11/27)

>  <Rbt.Parameter_File>
/export/apps/rDock/src/rDock_2013.1_src/data/scripts/dock_solv.prm

>  <Rbt.Receptor>
prm/blind_docking_20.prm

>  <SCORE>
-20.3098

>  <SCORE.INTER>
-27.7155

>  <SCORE.INTER.CONST>
1

>  <SCORE.INTER.POLAR>
-0.717825

>  <SCORE.INTER.ROT>
7

>  <SCORE.INTER.SOLV>
23.8552

>  <SCORE.INTER.VDW>
-32.3026

>  <SCORE.INTER.norm>
-0.894048

>  <SCORE.INTRA>
4.53174

>  <SCORE.INTRA.DIHEDRAL>
3.88799

>  <SCORE.INTRA.DIHEDRAL.0>
15.5708

>  <SCORE.INTRA.POLAR>
0.0677885

>  <SCORE.INTRA.POLAR.0>
-0.0677885

>  <SCORE.INTRA.REPUL>
0

>  <SCORE.INTRA.REPUL.0>
0

>  <SCORE.INTRA.SOLV>
-4.40087

>  <SCORE.INTRA.SOLV.lig_0>
-87.6316

>  <SCORE.INTRA.VDW>
4.5577

>  <SCORE.INTRA.VDW.0>
-2.87309

>  <SCORE.INTRA.norm>
0.146185

>  <SCORE.RESTR>
2.87398

>  <SCORE.RESTR.CAVITY>
2.87398

>  <SCORE.RESTR.norm>
0.0927089

>  <SCORE.SYSTEM>
0

>  <SCORE.SYSTEM.CONST>
0

>  <SCORE.SYSTEM.DIHEDRAL>
0

>  <SCORE.SYSTEM.SOLV>
0

>  <SCORE.SYSTEM.norm>
0

>  <SCORE.heavy>
31

>  <SCORE.norm>
-0.655154

>  <SYMMETRIC_BONDS>
33 34 3

>  <RMSD>
9.353

$$$$
1fmn_cryst
 OpenBabel11021811393D
libRbt.so/2013.1/901 2013/11/27
 31 33  0  0  0  0  0  0  0  0999 V2000
  -11.3025   -4.2629   -1.4533 N   0  0  0  0  0  0  0  0  0  0  0  0
  -10.9840   -4.0318   -2.7711 C   0  0  0  0  0  0  0  0  0  0  0  0
  -11.8262   -3.6662   -3.5918 O   0  0  0  0  0  0  0  0  0  0  0  0
   -9.6280   -4.2457   -3.1247 N   0  0  0  0  0  0  0  0  0  0  0  0
   -8.5887   -4.6684   -2.2671 C   0  0  0  0  0  0  0  0  0  0  0  0
   -7.4423   -4.8144   -2.7095 O   0  0  0  0  0  0  0  0  0  0  0  0
   -9.0088   -4.8936   -0.8822 C   0  0  0  0  0  0  0  0  0  0  0  0
   -8.0564   -5.3063    0.0160 N   0  0  0  0  0  0  0  0  0  0  0  0
   -8.4822   -5.6880    1.2552 C   0  0  0  0  0  0  0  0  0  0  0  0
   -7.5603   -6.2776    2.1019 C   0  0  0  0  0  0  0  0  0  0  0  0
   -7.9119   -6.6803    3.3452 C   0  0  0  0  0  0  0  0  0  0  0  0
   -6.8764   -7.3092    4.2219 C   0  0  0  0  0  0  0  0  0  0  0  0
   -9.1877   -6.5128    3.7870 C   0  0  0  0  0  0  0  0  0  0  0  0
   -9.5688   -6.9665    5.1585 C   0  0  0  0  0  0  0  0  0  0  0  0
  -10.1258   -5.9384    2.9914 C   0  0  0  0  0  0  0  0  0  0  0  0
   -9.8153   -5.5057    1.7023 C   0  0  0  0  0  0  0  0  0  0  0  0
  -10.7392   -4.8988    0.8259 N   0  0  0  0  0  0  0  0  0  0  0  0
  -10.3896   -4.6732   -0.5213 C   0  0  0  0  0  0  0  0  0  0  0  0
  -11.8041   -4.0109    1.4226 C   0  0  0  0  0  0  0  0  0  0  0  0
  -11.8226   -2.5299    0.9362 C   0  0  1  0  0  0  0  0  0  0  0  0
  -12.3683   -2.4517   -0.3730 O   0  0  0  0  0  0  0  0  0  0  0  0
  -12.5342   -1.5728    1.9218 C   0  0  1  0  0  0  0  0  0  0  0  0
  -12.9212   -2.2753    3.0992 O   0  0  0  0  0  0  0  0  0  0  0  0
  -11.7813   -0.2752    2.3056 C   0  0  1  0  0  0  0  0  0  0  0  0
  -11.7959    0.6012    1.1842 O   0  0  0  0  0  0  0  0  0  0  0  0
  -12.4121    0.4526    3.5139 C   0  0  0  0  0  0  0  0  0  0  0  0
  -13.7984    0.7130    3.3282 O   0  0  0  0  0  0  0  0  0  0  0  0
  -14.6667    1.5197    4.3802 P   0  0  0  0  0  0  0  0  0  0  0  0
  -16.0658    1.6576    3.9160 O   0  0  0  0  0  0  0  0  0  0  0  0
  -14.4213    1.0208    5.7506 O   0  5  0  0  0  0  0  0  0  0  0  0
  -14.0549    2.9886    4.3270 O   0  5  0  0  0  0  0  0  0  0  0  0
  1 18  1  0  0  0  0
  1  2  1  0  0  0  0
  2  4  1  0  0  0  0
  2  3  2  0  0  0  0
  4  5  1  0  0  0  0
  5  7  1  0  0  0  0
  5  6  2  0  0  0  0
  7 18  2  0  0  0  0
  7  8  1  0  0  0  0
  8  9  1  0  0  0  0
  9 10  2  0  0  0  0
  9 16  1  0  0  0  0
 10 11  1  0  0  0  0
 11 12  1  0  0  0  0
 11 13  2  0  0  0  0
 13 14  1  0  0  0  0
 13 15  1  0  0  0  0
 15 16  2  0  0  0  0
 16 17  1  0  0  0  0
 17 19  1  0  0  0  0
 17 18  1  0  0  0  0
 20 19  1  1  0  0  0
 20 22  1  0  0  0  0
 20 21  1  0  0  0  0
 22 24  1  0  0  0  0
 22 23  1  1  0  0  0
 24 26  1  1  0  0  0
 24 25  1  0  0  0  0
 26 27  1  0  0  0  0
 27 28  1  0  0  0  0
 28 30  1  0  0  0  0
 28 29  2  0  0  0  0
 28 31  1  0  0  0  0
M  CHG  2  30  -1  31  -1
M  END
>  <CHROM.1>
120.53072197,75.27798778,4.23998354,-167.77102991,72.16256253,96.46475298
-53.87370984,-58.83384178,-176.47398971,179.02656912,-11.15739750,-2.90296490
1.55100762,0.35148932,0.91977573,-1.50656549

>  <Name>
1fmn_cryst

>  <RI>
0

>  <Rbt.Current_Directory>
/home/itssahil/PROJECTS/Mol_Feturizer/New_Systems/rnas/1fmn

>  <Rbt.Executable>
rbdock ($Id: //depot/dev/client3/rdock/2013.1/src/exe/rbdock.cxx#4 $)

>  <Rbt.Library>
libRbt.so (2013.1, Build901 2013/11/27)

>  <Rbt.Parameter_File>
/export/apps/rDock/src/rDock_2013.1_src/data/scripts/dock_solv.prm

>  <Rbt.Receptor>
prm/blind_docking_80.prm

>  <SCORE>
-39.2605

>  <SCORE.INTER>
-42.2228

>  <SCORE.INTER.CONST>
1

>  <SCORE.INTER.POLAR>
-2.4519

>  <SCORE.INTER.ROT>
7

>  <SCORE.INTER.SOLV>
26.7097

>  <SCORE.INTER.VDW>
-37.1455

>  <SCORE.INTER.norm>
-1.36203

>  <SCORE.INTRA>
0.69654

>  <SCORE.INTRA.DIHEDRAL>
-1.47701

>  <SCORE.INTRA.DIHEDRAL.0>
15.5708

>  <SCORE.INTRA.POLAR>
-0.0825434

>  <SCORE.INTRA.POLAR.0>
-0.0677885

>  <SCORE.INTRA.REPUL>
0.0168957

>  <SCORE.INTRA.REPUL.0>
0

>  <SCORE.INTRA.SOLV>
-3.48585

>  <SCORE.INTRA.SOLV.lig_0>
-87.6316

>  <SCORE.INTRA.VDW>
3.37414

>  <SCORE.INTRA.VDW.0>
-2.87309

>  <SCORE.INTRA.norm>
0.022469

>  <SCORE.RESTR>
2.26574

>  <SCORE.RESTR.CAVITY>
2.26574

>  <SCORE.RESTR.norm>
0.0730884

>  <SCORE.SYSTEM>
0

>  <SCORE.SYSTEM.CONST>
0

>  <SCORE.SYSTEM.DIHEDRAL>
0

>  <SCORE.SYSTEM.SOLV>
0

>  <SCORE.SYSTEM.norm>
0

>  <SCORE.heavy>
31

>  <SCORE.norm>
-1.26647

>  <SYMMETRIC_BONDS>
33 34 3

>  <RMSD>
9.354

$$$$
1fmn_cryst
 OpenBabel11021811393D
libRbt.so/2013.1/901 2013/11/27
 31 33  0  0  0  0  0  0  0  0999 V2000
  -11.0815   -4.0442   -1.8067 N   0  0  0  0  0  0  0  0  0  0  0  0
  -10.5993   -3.8833   -3.0847 C   0  0  0  0  0  0  0  0  0  0  0  0
  -11.3157   -3.4966   -4.0087 O   0  0  0  0  0  0  0  0  0  0  0  0
   -9.2291   -4.1954   -3.2709 N   0  0  0  0  0  0  0  0  0  0  0  0
   -8.3256   -4.6501   -2.2855 C   0  0  0  0  0  0  0  0  0  0  0  0
   -7.1484   -4.8846   -2.5865 O   0  0  0  0  0  0  0  0  0  0  0  0
   -8.9157   -4.7961   -0.9530 C   0  0  0  0  0  0  0  0  0  0  0  0
   -8.1022   -5.2340    0.0623 N   0  0  0  0  0  0  0  0  0  0  0  0
   -8.6917   -5.5411    1.2542 C   0  0  0  0  0  0  0  0  0  0  0  0
   -7.9145   -6.1554    2.2201 C   0  0  0  0  0  0  0  0  0  0  0  0
   -8.4322   -6.4880    3.4254 C   0  0  0  0  0  0  0  0  0  0  0  0
   -7.5485   -7.1475    4.4356 C   0  0  0  0  0  0  0  0  0  0  0  0
   -9.7362   -6.2239    3.7099 C   0  0  0  0  0  0  0  0  0  0  0  0
  -10.3014   -6.6009    5.0406 C   0  0  0  0  0  0  0  0  0  0  0  0
  -10.5365   -5.6220    2.7934 C   0  0  0  0  0  0  0  0  0  0  0  0
  -10.0521   -5.2585    1.5369 C   0  0  0  0  0  0  0  0  0  0  0  0
  -10.8268   -4.6280    0.5408 N   0  0  0  0  0  0  0  0  0  0  0  0
  -10.3109   -4.4758   -0.7625 C   0  0  0  0  0  0  0  0  0  0  0  0
  -11.8912   -3.6530    0.9821 C   0  0  0  0  0  0  0  0  0  0  0  0
  -11.8710   -2.2512    0.3003 C   0  0  1  0  0  0  0  0  0  0  0  0
  -12.9066   -2.1631   -0.6681 O   0  0  0  0  0  0  0  0  0  0  0  0
  -11.9175   -1.0804    1.3108 C   0  0  1  0  0  0  0  0  0  0  0  0
  -12.1978    0.1427    0.6363 O   0  0  0  0  0  0  0  0  0  0  0  0
  -12.8633   -1.2409    2.5263 C   0  0  1  0  0  0  0  0  0  0  0  0
  -12.5310   -2.4513    3.1975 O   0  0  0  0  0  0  0  0  0  0  0  0
  -12.7586   -0.0707    3.5300 C   0  0  0  0  0  0  0  0  0  0  0  0
  -13.8187    0.8668    3.3841 O   0  0  0  0  0  0  0  0  0  0  0  0
  -13.8191    2.2781    4.1050 P   0  0  0  0  0  0  0  0  0  0  0  0
  -14.0932    2.1322    5.5526 O   0  0  0  0  0  0  0  0  0  0  0  0
  -12.6498    3.0792    3.6831 O   0  5  0  0  0  0  0  0  0  0  0  0
  -15.0984    3.0093    3.5020 O   0  5  0  0  0  0  0  0  0  0  0  0
  1 18  1  0  0  0  0
  1  2  1  0  0  0  0
  2  4  1  0  0  0  0
  2  3  2  0  0  0  0
  4  5  1  0  0  0  0
  5  7  1  0  0  0  0
  5  6  2  0  0  0  0
  7 18  2  0  0  0  0
  7  8  1  0  0  0  0
  8  9  1  0  0  0  0
  9 10  2  0  0  0  0
  9 16  1  0  0  0  0
 10 11  1  0  0  0  0
 11 12  1  0  0  0  0
 11 13  2  0  0  0  0
 13 14  1  0  0  0  0
 13 15  1  0  0  0  0
 15 16  2  0  0  0  0
 16 17  1  0  0  0  0
 17 19  1  0  0  0  0
 17 18  1  0  0  0  0
 20 19  1  1  0  0  0
 20 22  1  0  0  0  0
 20 21  1  0  0  0  0
 22 24  1  0  0  0  0
 22 23  1  6  0  0  0
 24 26  1  1  0  0  0
 24 25  1  0  0  0  0
 26 27  1  0  0  0  0
 27 28  1  0  0  0  0
 28 30  1  0  0  0  0
 28 29  2  0  0  0  0
 28 31  1  0  0  0  0
M  CHG  2  30  -1  31  -1
M  END
>  <CHROM.1>
128.74726779,103.89184526,-166.98772239,71.46544654,54.99138516,-49.71578120
100.65935028,-101.23281247,-169.04846777,-73.73526072,-11.10087761,-2.69458531
1.36565220,0.32070000,1.00422932,-1.45273789

>  <Name>
1fmn_cryst

>  <RI>
0

>  <Rbt.Current_Directory>
/home/itssahil/PROJECTS/Mol_Feturizer/New_Systems/rnas/1fmn

>  <Rbt.Executable>
rbdock ($Id: //depot/dev/client3/rdock/2013.1/src/exe/rbdock.cxx#4 $)

>  <Rbt.Library>
libRbt.so (2013.1, Build901 2013/11/27)

>  <Rbt.Parameter_File>
/export/apps/rDock/src/rDock_2013.1_src/data/scripts/dock_solv.prm

>  <Rbt.Receptor>
prm/blind_docking_20.prm

>  <SCORE>
-28.0149

>  <SCORE.INTER>
-31.2185

>  <SCORE.INTER.CONST>
1

>  <SCORE.INTER.POLAR>
-0.76126

>  <SCORE.INTER.ROT>
7

>  <SCORE.INTER.SOLV>
24.2146

>  <SCORE.INTER.VDW>
-34.613

>  <SCORE.INTER.norm>
-1.00705

>  <SCORE.INTRA>
1.91145

>  <SCORE.INTRA.DIHEDRAL>
3.35125

>  <SCORE.INTRA.DIHEDRAL.0>
15.5708

>  <SCORE.INTRA.POLAR>
-0.410712

>  <SCORE.INTRA.POLAR.0>
-0.0677885

>  <SCORE.INTRA.REPUL>
0

>  <SCORE.INTRA.REPUL.0>
0

>  <SCORE.INTRA.SOLV>
-3.70158

>  <SCORE.INTRA.SOLV.lig_0>
-87.6316

>  <SCORE.INTRA.VDW>
3.48304

>  <SCORE.INTRA.VDW.0>
-2.87309

>  <SCORE.INTRA.norm>
0.0616597

>  <SCORE.RESTR>
1.29209

>  <SCORE.RESTR.CAVITY>
1.29209

>  <SCORE.RESTR.norm>
0.0416803

>  <SCORE.SYSTEM>
0

>  <SCORE.SYSTEM.CONST>
0

>  <SCORE.SYSTEM.DIHEDRAL>
0

>  <SCORE.SYSTEM.SOLV>
0

>  <SCORE.SYSTEM.norm>
0

>  <SCORE.heavy>
31

>  <SCORE.norm>
-0.903707

>  <SYMMETRIC_BONDS>
33 34 3

>  <RMSD>
9.366

$$$$
1fmn_cryst
 OpenBabel11021811393D
libRbt.so/2013.1/901 2013/11/27
 31 33  0  0  0  0  0  0  0  0999 V2000
  -10.8775   -4.3113   -1.8887 N   0  0  0  0  0  0  0  0  0  0  0  0
  -10.3627   -4.1550   -3.1544 C   0  0  0  0  0  0  0  0  0  0  0  0
  -11.0663   -3.8216   -4.1086 O   0  0  0  0  0  0  0  0  0  0  0  0
   -8.9744   -4.4065   -3.2911 N   0  0  0  0  0  0  0  0  0  0  0  0
   -8.0827   -4.7978   -2.2683 C   0  0  0  0  0  0  0  0  0  0  0  0
   -6.8870   -4.9832   -2.5275 O   0  0  0  0  0  0  0  0  0  0  0  0
   -8.7077   -4.9432   -0.9517 C   0  0  0  0  0  0  0  0  0  0  0  0
   -7.9077   -5.3211    0.0977 N   0  0  0  0  0  0  0  0  0  0  0  0
   -8.5202   -5.6304    1.2775 C   0  0  0  0  0  0  0  0  0  0  0  0
   -7.7467   -6.1873    2.2805 C   0  0  0  0  0  0  0  0  0  0  0  0
   -8.2868   -6.5184    3.4763 C   0  0  0  0  0  0  0  0  0  0  0  0
   -7.4063   -7.1146    4.5279 C   0  0  0  0  0  0  0  0  0  0  0  0
   -9.6100   -6.3096    3.7145 C   0  0  0  0  0  0  0  0  0  0  0  0
  -10.1994   -6.6846    5.0351 C   0  0  0  0  0  0  0  0  0  0  0  0
  -10.4074   -5.7651    2.7603 C   0  0  0  0  0  0  0  0  0  0  0  0
   -9.9004   -5.4058    1.5116 C   0  0  0  0  0  0  0  0  0  0  0  0
  -10.6712   -4.8332    0.4781 N   0  0  0  0  0  0  0  0  0  0  0  0
  -10.1215   -4.6845   -0.8117 C   0  0  0  0  0  0  0  0  0  0  0  0
  -11.7929   -3.8999    0.8643 C   0  0  0  0  0  0  0  0  0  0  0  0
  -11.7576   -2.4762    0.2304 C   0  0  1  0  0  0  0  0  0  0  0  0
  -12.4591   -2.4730   -1.0049 O   0  0  0  0  0  0  0  0  0  0  0  0
  -12.2596   -1.3693    1.1879 C   0  0  1  0  0  0  0  0  0  0  0  0
  -11.1555   -0.6853    1.7734 O   0  0  0  0  0  0  0  0  0  0  0  0
  -13.2670   -0.3457    0.6090 C   0  0  1  0  0  0  0  0  0  0  0  0
  -14.5028   -1.0130    0.3778 O   0  0  0  0  0  0  0  0  0  0  0  0
  -13.5176    0.8526    1.5520 C   0  0  0  0  0  0  0  0  0  0  0  0
  -13.4620    0.4845    2.9251 O   0  0  0  0  0  0  0  0  0  0  0  0
  -13.7878    1.4994    4.0977 P   0  0  0  0  0  0  0  0  0  0  0  0
  -13.8241    0.8037    5.4041 O   0  0  0  0  0  0  0  0  0  0  0  0
  -12.9682    2.7238    3.9701 O   0  5  0  0  0  0  0  0  0  0  0  0
  -15.2904    1.9396    3.8090 O   0  5  0  0  0  0  0  0  0  0  0  0
  1 18  1  0  0  0  0
  1  2  1  0  0  0  0
  2  4  1  0  0  0  0
  2  3  2  0  0  0  0
  4  5  1  0  0  0  0
  5  7  1  0  0  0  0
  5  6  2  0  0  0  0
  7 18  2  0  0  0  0
  7  8  1  0  0  0  0
  8  9  1  0  0  0  0
  9 10  2  0  0  0  0
  9 16  1  0  0  0  0
 10 11  1  0  0  0  0
 11 12  1  0  0  0  0
 11 13  2  0  0  0  0
 13 14  1  0  0  0  0
 13 15  1  0  0  0  0
 15 16  2  0  0  0  0
 16 17  1  0  0  0  0
 17 19  1  0  0  0  0
 17 18  1  0  0  0  0
 20 19  1  1  0  0  0
 20 22  1  0  0  0  0
 20 21  1  0  0  0  0
 22 24  1  0  0  0  0
 22 23  1  6  0  0  0
 24 26  1  1  0  0  0
 24 25  1  0  0  0  0
 26 27  1  0  0  0  0
 27 28  1  0  0  0  0
 28 30  1  0  0  0  0
 28 29  2  0  0  0  0
 28 31  1  0  0  0  0
M  CHG  2  30  -1  31  -1
M  END
>  <CHROM.1>
124.47318165,89.52057737,100.17926898,-170.04555461,69.44091777,-166.95259466
-33.91089380,-58.59254691,-175.41097525,172.55333088,-11.04959770,-2.88799863
1.16217288,0.34560044,0.92852574,-1.51838976

>  <Name>
1fmn_cryst

>  <RI>
0

>  <Rbt.Current_Directory>
/home/itssahil/PROJECTS/Mol_Feturizer/New_Systems/rnas/1fmn

>  <Rbt.Executable>
rbdock ($Id: //depot/dev/client3/rdock/2013.1/src/exe/rbdock.cxx#4 $)

>  <Rbt.Library>
libRbt.so (2013.1, Build901 2013/11/27)

>  <Rbt.Parameter_File>
/export/apps/rDock/src/rDock_2013.1_src/data/scripts/dock_solv.prm

>  <Rbt.Receptor>
prm/blind_docking_40.prm

>  <SCORE>
-39.1268

>  <SCORE.INTER>
-35.0573

>  <SCORE.INTER.CONST>
1

>  <SCORE.INTER.POLAR>
-1.2284

>  <SCORE.INTER.ROT>
7

>  <SCORE.INTER.SOLV>
26.0961

>  <SCORE.INTER.VDW>
-36.2422

>  <SCORE.INTER.norm>
-1.13088

>  <SCORE.INTRA>
-5.08072

>  <SCORE.INTRA.DIHEDRAL>
-2.97655

>  <SCORE.INTRA.DIHEDRAL.0>
15.5708

>  <SCORE.INTRA.POLAR>
-1.11032

>  <SCORE.INTRA.POLAR.0>
-0.0677885

>  <SCORE.INTRA.REPUL>
0

>  <SCORE.INTRA.REPUL.0>
0

>  <SCORE.INTRA.SOLV>
-2.89698

>  <SCORE.INTRA.SOLV.lig_0>
-87.6316

>  <SCORE.INTRA.VDW>
1.63112

>  <SCORE.INTRA.VDW.0>
-2.87309

>  <SCORE.INTRA.norm>
-0.163894

>  <SCORE.RESTR>
1.01127

>  <SCORE.RESTR.CAVITY>
1.01127

>  <SCORE.RESTR.norm>
0.0326215

>  <SCORE.SYSTEM>
0

>  <SCORE.SYSTEM.CONST>
0

>  <SCORE.SYSTEM.DIHEDRAL>
0

>  <SCORE.SYSTEM.SOLV>
0

>  <SCORE.SYSTEM.norm>
0

>  <SCORE.heavy>
31

>  <SCORE.norm>
-1.26215

>  <SYMMETRIC_BONDS>
33 34 3

>  <RMSD>
9.372

$$$$
1fmn_cryst
 OpenBabel11021811393D
libRbt.so/2013.1/901 2013/11/27
 31 33  0  0  0  0  0  0  0  0999 V2000
  -10.9340   -4.4265   -2.1080 N   0  0  0  0  0  0  0  0  0  0  0  0
  -10.5279   -4.1999   -3.4023 C   0  0  0  0  0  0  0  0  0  0  0  0
  -11.3312   -3.9816   -4.3097 O   0  0  0  0  0  0  0  0  0  0  0  0
   -9.1285   -4.2387   -3.6254 N   0  0  0  0  0  0  0  0  0  0  0  0
   -8.1266   -4.4855   -2.6613 C   0  0  0  0  0  0  0  0  0  0  0  0
   -6.9348   -4.4888   -2.9944 O   0  0  0  0  0  0  0  0  0  0  0  0
   -8.6400   -4.7177   -1.3094 C   0  0  0  0  0  0  0  0  0  0  0  0
   -7.7289   -4.9650   -0.3129 N   0  0  0  0  0  0  0  0  0  0  0  0
   -8.2137   -5.3580    0.9008 C   0  0  0  0  0  0  0  0  0  0  0  0
   -7.3044   -5.7864    1.8517 C   0  0  0  0  0  0  0  0  0  0  0  0
   -7.7134   -6.1899    3.0770 C   0  0  0  0  0  0  0  0  0  0  0  0
   -6.6897   -6.6407    4.0695 C   0  0  0  0  0  0  0  0  0  0  0  0
   -9.0357   -6.1830    3.3971 C   0  0  0  0  0  0  0  0  0  0  0  0
   -9.4791   -6.6366    4.7498 C   0  0  0  0  0  0  0  0  0  0  0  0
   -9.9637   -5.7701    2.4965 C   0  0  0  0  0  0  0  0  0  0  0  0
   -9.5949   -5.3441    1.2205 C   0  0  0  0  0  0  0  0  0  0  0  0
  -10.5057   -4.8999    0.2391 N   0  0  0  0  0  0  0  0  0  0  0  0
  -10.0654   -4.6756   -1.0814 C   0  0  0  0  0  0  0  0  0  0  0  0
  -11.7300   -4.1456    0.6980 C   0  0  0  0  0  0  0  0  0  0  0  0
  -11.7431   -2.6121    0.4182 C   0  0  1  0  0  0  0  0  0  0  0  0
  -12.0284   -2.3670   -0.9517 O   0  0  0  0  0  0  0  0  0  0  0  0
  -12.6886   -1.8281    1.3592 C   0  0  1  0  0  0  0  0  0  0  0  0
  -12.3469   -2.0754    2.7199 O   0  0  0  0  0  0  0  0  0  0  0  0
  -12.8143   -0.3041    1.1158 C   0  0  1  0  0  0  0  0  0  0  0  0
  -13.9730   -0.0697    0.3230 O   0  0  0  0  0  0  0  0  0  0  0  0
  -12.9350    0.5074    2.4252 C   0  0  0  0  0  0  0  0  0  0  0  0
  -13.0896    1.9017    2.1881 O   0  0  0  0  0  0  0  0  0  0  0  0
  -12.0225    2.7579    1.3885 P   0  0  0  0  0  0  0  0  0  0  0  0
  -12.2580    4.2073    1.5786 O   0  0  0  0  0  0  0  0  0  0  0  0
  -10.6593    2.2276    1.6067 O   0  5  0  0  0  0  0  0  0  0  0  0
  -12.3723    2.4673   -0.1372 O   0  5  0  0  0  0  0  0  0  0  0  0
  1 18  1  0  0  0  0
  1  2  1  0  0  0  0
  2  4  1  0  0  0  0
  2  3  2  0  0  0  0
  4  5  1  0  0  0  0
  5  7  1  0  0  0  0
  5  6  2  0  0  0  0
  7 18  2  0  0  0  0
  7  8  1  0  0  0  0
  8  9  1  0  0  0  0
  9 10  2  0  0  0  0
  9 16  1  0  0  0  0
 10 11  1  0  0  0  0
 11 12  1  0  0  0  0
 11 13  2  0  0  0  0
 13 14  1  0  0  0  0
 13 15  1  0  0  0  0
 15 16  2  0  0  0  0
 16 17  1  0  0  0  0
 17 19  1  0  0  0  0
 17 18  1  0  0  0  0
 20 19  1  6  0  0  0
 20 22  1  0  0  0  0
 20 21  1  0  0  0  0
 22 24  1  0  0  0  0
 22 23  1  1  0  0  0
 24 26  1  1  0  0  0
 24 25  1  0  0  0  0
 26 27  1  0  0  0  0
 27 28  1  0  0  0  0
 28 30  1  0  0  0  0
 28 29  2  0  0  0  0
 28 31  1  0  0  0  0
M  CHG  2  30  -1  31  -1
M  END
>  <CHROM.1>
107.02484773,76.46161503,56.10290019,69.88611147,96.74038205,57.59572611
-178.25445386,-48.85144930,-58.79846885,-165.90432286,-10.55665713,-2.59605911
0.50112732,0.11704771,1.08160490,-1.60295243

>  <Name>
1fmn_cryst

>  <RI>
0

>  <Rbt.Current_Directory>
/home/itssahil/PROJECTS/Mol_Feturizer/New_Systems/rnas/1fmn

>  <Rbt.Executable>
rbdock ($Id: //depot/dev/client3/rdock/2013.1/src/exe/rbdock.cxx#4 $)

>  <Rbt.Library>
libRbt.so (2013.1, Build901 2013/11/27)

>  <Rbt.Parameter_File>
/export/apps/rDock/src/rDock_2013.1_src/data/scripts/dock_solv.prm

>  <Rbt.Receptor>
prm/blind_docking_40.prm

>  <SCORE>
-36.262

>  <SCORE.INTER>
-36.665

>  <SCORE.INTER.CONST>
1

>  <SCORE.INTER.POLAR>
-2.10616

>  <SCORE.INTER.ROT>
7

>  <SCORE.INTER.SOLV>
29.0838

>  <SCORE.INTER.VDW>
-35.3841

>  <SCORE.INTER.norm>
-1.18274

>  <SCORE.INTRA>
-2.20799

>  <SCORE.INTRA.DIHEDRAL>
-7.39114

>  <SCORE.INTRA.DIHEDRAL.0>
15.5708

>  <SCORE.INTRA.POLAR>
0.0677885

>  <SCORE.INTRA.POLAR.0>
-0.0677885

>  <SCORE.INTRA.REPUL>
0

>  <SCORE.INTRA.REPUL.0>
0

>  <SCORE.INTRA.SOLV>
-0.18073

>  <SCORE.INTRA.SOLV.lig_0>
-87.6316

>  <SCORE.INTRA.VDW>
1.34747

>  <SCORE.INTRA.VDW.0>
-2.87309

>  <SCORE.INTRA.norm>
-0.0712254

>  <SCORE.RESTR>
2.611

>  <SCORE.RESTR.CAVITY>
2.611

>  <SCORE.RESTR.norm>
0.0842259

>  <SCORE.SYSTEM>
0

>  <SCORE.SYSTEM.CONST>
0

>  <SCORE.SYSTEM.DIHEDRAL>
0

>  <SCORE.SYSTEM.SOLV>
0

>  <SCORE.SYSTEM.norm>
0

>  <SCORE.heavy>
31

>  <SCORE.norm>
-1.16974

>  <SYMMETRIC_BONDS>
33 34 3

>  <RMSD>
9.378

$$$$
1fmn_cryst
 OpenBabel11021811393D
libRbt.so/2013.1/901 2013/11/27
 31 33  0  0  0  0  0  0  0  0999 V2000
  -12.6803   -2.3251   -1.0456 N   0  0  0  0  0  0  0  0  0  0  0  0
  -12.9502   -2.1283   -2.3798 C   0  0  0  0  0  0  0  0  0  0  0  0
  -13.8876   -1.4258   -2.7594 O   0  0  0  0  0  0  0  0  0  0  0  0
  -12.0850   -2.7885   -3.2880 N   0  0  0  0  0  0  0  0  0  0  0  0
  -10.9901   -3.6177   -2.9596 C   0  0  0  0  0  0  0  0  0  0  0  0
  -10.3129   -4.1330   -3.8581 O   0  0  0  0  0  0  0  0  0  0  0  0
  -10.7698   -3.7775   -1.5205 C   0  0  0  0  0  0  0  0  0  0  0  0
   -9.7233   -4.5692   -1.1176 N   0  0  0  0  0  0  0  0  0  0  0  0
   -9.6300   -4.8618    0.2121 C   0  0  0  0  0  0  0  0  0  0  0  0
   -8.6943   -5.8033    0.6024 C   0  0  0  0  0  0  0  0  0  0  0  0
   -8.5460   -6.1425    1.9040 C   0  0  0  0  0  0  0  0  0  0  0  0
   -7.5176   -7.1636    2.2732 C   0  0  0  0  0  0  0  0  0  0  0  0
   -9.3213   -5.5606    2.8587 C   0  0  0  0  0  0  0  0  0  0  0  0
   -9.1556   -5.9460    4.2926 C   0  0  0  0  0  0  0  0  0  0  0  0
  -10.2519   -4.6312    2.5227 C   0  0  0  0  0  0  0  0  0  0  0  0
  -10.4443   -4.2459    1.1960 C   0  0  0  0  0  0  0  0  0  0  0  0
  -11.3894   -3.2855    0.7786 N   0  0  0  0  0  0  0  0  0  0  0  0
  -11.6495   -3.1029   -0.5951 C   0  0  0  0  0  0  0  0  0  0  0  0
  -11.6687   -2.1204    1.6968 C   0  0  0  0  0  0  0  0  0  0  0  0
  -13.1684   -1.8247    2.0029 C   0  0  1  0  0  0  0  0  0  0  0  0
  -13.5846   -2.5464    3.1535 O   0  0  0  0  0  0  0  0  0  0  0  0
  -13.4812   -0.3138    2.1185 C   0  0  1  0  0  0  0  0  0  0  0  0
  -14.7448   -0.0248    1.5274 O   0  0  0  0  0  0  0  0  0  0  0  0
  -13.4056    0.3113    3.5332 C   0  0  1  0  0  0  0  0  0  0  0  0
  -13.6218   -0.7186    4.4916 O   0  0  0  0  0  0  0  0  0  0  0  0
  -12.0447    0.9831    3.8233 C   0  0  0  0  0  0  0  0  0  0  0  0
  -11.8557    1.2525    5.2074 O   0  0  0  0  0  0  0  0  0  0  0  0
  -13.0196    1.7817    6.1436 P   0  0  0  0  0  0  0  0  0  0  0  0
  -14.1557    0.8324    6.1627 O   0  0  0  0  0  0  0  0  0  0  0  0
  -12.4751    2.2601    7.4326 O   0  5  0  0  0  0  0  0  0  0  0  0
  -13.5579    3.0728    5.3832 O   0  5  0  0  0  0  0  0  0  0  0  0
  1 18  1  0  0  0  0
  1  2  1  0  0  0  0
  2  4  1  0  0  0  0
  2  3  2  0  0  0  0
  4  5  1  0  0  0  0
  5  7  1  0  0  0  0
  5  6  2  0  0  0  0
  7 18  2  0  0  0  0
  7  8  1  0  0  0  0
  8  9  1  0  0  0  0
  9 10  2  0  0  0  0
  9 16  1  0  0  0  0
 10 11  1  0  0  0  0
 11 12  1  0  0  0  0
 11 13  2  0  0  0  0
 13 14  1  0  0  0  0
 13 15  1  0  0  0  0
 15 16  2  0  0  0  0
 16 17  1  0  0  0  0
 17 19  1  0  0  0  0
 17 18  1  0  0  0  0
 20 19  1  1  0  0  0
 20 22  1  0  0  0  0
 20 21  1  0  0  0  0
 22 24  1  0  0  0  0
 22 23  1  1  0  0  0
 24 26  1  1  0  0  0
 24 25  1  0  0  0  0
 26 27  1  0  0  0  0
 27 28  1  0  0  0  0
 28 30  1  0  0  0  0
 28 29  2  0  0  0  0
 28 31  1  0  0  0  0
M  CHG  2  30  -1  31  -1
M  END
>  <CHROM.1>
-129.87381397,90.13189338,141.39794435,-178.14180688,-24.74443030,67.08445611
-165.20258338,-74.25522222,-39.82330174,59.09154176,-11.79064852,-2.05321637
1.87834471,1.02213708,0.89154679,-1.88492124

>  <Name>
1fmn_cryst

>  <RI>
0

>  <Rbt.Current_Directory>
/home/itssahil/PROJECTS/Mol_Feturizer/New_Systems/rnas/1fmn

>  <Rbt.Executable>
rbdock ($Id: //depot/dev/client3/rdock/2013.1/src/exe/rbdock.cxx#4 $)

>  <Rbt.Library>
libRbt.so (2013.1, Build901 2013/11/27)

>  <Rbt.Parameter_File>
/export/apps/rDock/src/rDock_2013.1_src/data/scripts/dock_solv.prm

>  <Rbt.Receptor>
prm/blind_docking_80.prm

>  <SCORE>
-12.8309

>  <SCORE.INTER>
-23.4223

>  <SCORE.INTER.CONST>
1

>  <SCORE.INTER.POLAR>
-1.66863

>  <SCORE.INTER.ROT>
7

>  <SCORE.INTER.SOLV>
29.4196

>  <SCORE.INTER.VDW>
-28.126

>  <SCORE.INTER.norm>
-0.755559

>  <SCORE.INTRA>
7.22911

>  <SCORE.INTRA.DIHEDRAL>
-0.0847814

>  <SCORE.INTRA.DIHEDRAL.0>
15.5708

>  <SCORE.INTRA.POLAR>
0.0677885

>  <SCORE.INTRA.POLAR.0>
-0.0677885

>  <SCORE.INTRA.REPUL>
0

>  <SCORE.INTRA.REPUL.0>
0

>  <SCORE.INTRA.SOLV>
1.94853

>  <SCORE.INTRA.SOLV.lig_0>
-87.6316

>  <SCORE.INTRA.VDW>
6.06675

>  <SCORE.INTRA.VDW.0>
-2.87309

>  <SCORE.INTRA.norm>
0.233197

>  <SCORE.RESTR>
3.36237

>  <SCORE.RESTR.CAVITY>
3.36237

>  <SCORE.RESTR.norm>
0.108463

>  <SCORE.SYSTEM>
0

>  <SCORE.SYSTEM.CONST>
0

>  <SCORE.SYSTEM.DIHEDRAL>
0

>  <SCORE.SYSTEM.SOLV>
0

>  <SCORE.SYSTEM.norm>
0

>  <SCORE.heavy>
31

>  <SCORE.norm>
-0.413898

>  <SYMMETRIC_BONDS>
33 34 3

>  <RMSD>
9.378

$$$$
1fmn_cryst
 OpenBabel11021811393D
libRbt.so/2013.1/901 2013/11/27
 31 33  0  0  0  0  0  0  0  0999 V2000
  -11.0610   -3.7272   -1.6499 N   0  0  0  0  0  0  0  0  0  0  0  0
  -10.5816   -3.5280   -2.9235 C   0  0  0  0  0  0  0  0  0  0  0  0
  -11.2869   -3.0675   -3.8218 O   0  0  0  0  0  0  0  0  0  0  0  0
   -9.2279   -3.8907   -3.1368 N   0  0  0  0  0  0  0  0  0  0  0  0
   -8.3381   -4.4301   -2.1821 C   0  0  0  0  0  0  0  0  0  0  0  0
   -7.1747   -4.7015   -2.5046 O   0  0  0  0  0  0  0  0  0  0  0  0
   -8.9244   -4.6124   -0.8523 C   0  0  0  0  0  0  0  0  0  0  0  0
   -8.1236   -5.1324    0.1339 N   0  0  0  0  0  0  0  0  0  0  0  0
   -8.7174   -5.4689    1.3157 C   0  0  0  0  0  0  0  0  0  0  0  0
   -7.9610   -6.1611    2.2448 C   0  0  0  0  0  0  0  0  0  0  0  0
   -8.4842   -6.5268    3.4381 C   0  0  0  0  0  0  0  0  0  0  0  0
   -7.6230   -7.2709    4.4083 C   0  0  0  0  0  0  0  0  0  0  0  0
   -9.7731   -6.2195    3.7468 C   0  0  0  0  0  0  0  0  0  0  0  0
  -10.3446   -6.6332    5.0637 C   0  0  0  0  0  0  0  0  0  0  0  0
  -10.5527   -5.5409    2.8667 C   0  0  0  0  0  0  0  0  0  0  0  0
  -10.0619   -5.1405    1.6240 C   0  0  0  0  0  0  0  0  0  0  0  0
  -10.8153   -4.4309    0.6655 N   0  0  0  0  0  0  0  0  0  0  0  0
  -10.3026   -4.2406   -0.6341 C   0  0  0  0  0  0  0  0  0  0  0  0
  -11.8323   -3.4319    1.1615 C   0  0  0  0  0  0  0  0  0  0  0  0
  -11.8042   -2.0249    0.4909 C   0  0  1  0  0  0  0  0  0  0  0  0
  -12.8729   -1.9037   -0.4371 O   0  0  0  0  0  0  0  0  0  0  0  0
  -11.7851   -0.8625    1.5120 C   0  0  1  0  0  0  0  0  0  0  0  0
  -11.5085    0.3694    0.8522 O   0  0  0  0  0  0  0  0  0  0  0  0
  -13.0299   -0.7065    2.4197 C   0  0  1  0  0  0  0  0  0  0  0  0
  -13.2226   -1.9240    3.1313 O   0  0  0  0  0  0  0  0  0  0  0  0
  -12.8927    0.4482    3.4374 C   0  0  0  0  0  0  0  0  0  0  0  0
  -14.1088    0.7121    4.1269 O   0  0  0  0  0  0  0  0  0  0  0  0
  -14.2160    1.7741    5.2983 P   0  0  0  0  0  0  0  0  0  0  0  0
  -15.4786    1.6036    6.0526 O   0  0  0  0  0  0  0  0  0  0  0  0
  -12.9457    1.8491    6.0518 O   0  5  0  0  0  0  0  0  0  0  0  0
  -14.3616    3.1639    4.5353 O   0  5  0  0  0  0  0  0  0  0  0  0
  1 18  1  0  0  0  0
  1  2  1  0  0  0  0
  2  4  1  0  0  0  0
  2  3  2  0  0  0  0
  4  5  1  0  0  0  0
  5  7  1  0  0  0  0
  5  6  2  0  0  0  0
  7 18  2  0  0  0  0
  7  8  1  0  0  0  0
  8  9  1  0  0  0  0
  9 10  2  0  0  0  0
  9 16  1  0  0  0  0
 10 11  1  0  0  0  0
 11 12  1  0  0  0  0
 11 13  2  0  0  0  0
 13 14  1  0  0  0  0
 13 15  1  0  0  0  0
 15 16  2  0  0  0  0
 16 17  1  0  0  0  0
 17 19  1  0  0  0  0
 17 18  1  0  0  0  0
 20 19  1  1  0  0  0
 20 22  1  0  0  0  0
 20 21  1  0  0  0  0
 22 24  1  0  0  0  0
 22 23  1  6  0  0  0
 24 26  1  1  0  0  0
 24 25  1  0  0  0  0
 26 27  1  0  0  0  0
 27 28  1  0  0  0  0
 28 30  1  0  0  0  0
 28 29  2  0  0  0  0
 28 31  1  0  0  0  0
M  CHG  2  30  -1  31  -1
M  END
>  <CHROM.1>
131.89492222,103.45873130,169.13949273,69.69883678,57.29315742,-166.17540387
171.20948620,-167.67294400,175.43130962,-165.68018125,-11.18097511,-2.62058528
1.68520304,0.38152133,0.97337682,-1.37249863

>  <Name>
1fmn_cryst

>  <RI>
0

>  <Rbt.Current_Directory>
/home/itssahil/PROJECTS/Mol_Feturizer/New_Systems/rnas/1fmn

>  <Rbt.Executable>
rbdock ($Id: //depot/dev/client3/rdock/2013.1/src/exe/rbdock.cxx#4 $)

>  <Rbt.Library>
libRbt.so (2013.1, Build901 2013/11/27)

>  <Rbt.Parameter_File>
/export/apps/rDock/src/rDock_2013.1_src/data/scripts/dock_solv.prm

>  <Rbt.Receptor>
prm/blind_docking_100.prm

>  <SCORE>
-35.1508

>  <SCORE.INTER>
-32.643

>  <SCORE.INTER.CONST>
1

>  <SCORE.INTER.POLAR>
-0.700233

>  <SCORE.INTER.ROT>
7

>  <SCORE.INTER.SOLV>
26.3775

>  <SCORE.INTER.VDW>
-36.4871

>  <SCORE.INTER.norm>
-1.053

>  <SCORE.INTRA>
-4.31975

>  <SCORE.INTRA.DIHEDRAL>
-5.13521

>  <SCORE.INTRA.DIHEDRAL.0>
15.5708

>  <SCORE.INTRA.POLAR>
-0.453774

>  <SCORE.INTRA.POLAR.0>
-0.0677885

>  <SCORE.INTRA.REPUL>
0

>  <SCORE.INTRA.REPUL.0>
0

>  <SCORE.INTRA.SOLV>
-4.13512

>  <SCORE.INTRA.SOLV.lig_0>
-87.6316

>  <SCORE.INTRA.VDW>
1.85825

>  <SCORE.INTRA.VDW.0>
-2.87309

>  <SCORE.INTRA.norm>
-0.139347

>  <SCORE.RESTR>
1.812

>  <SCORE.RESTR.CAVITY>
1.812

>  <SCORE.RESTR.norm>
0.0584515

>  <SCORE.SYSTEM>
0

>  <SCORE.SYSTEM.CONST>
0

>  <SCORE.SYSTEM.DIHEDRAL>
0

>  <SCORE.SYSTEM.SOLV>
0

>  <SCORE.SYSTEM.norm>
0

>  <SCORE.heavy>
31

>  <SCORE.norm>
-1.1339

>  <SYMMETRIC_BONDS>
33 34 3

>  <RMSD>
9.379

$$$$
1fmn_cryst
 OpenBabel11021811393D
libRbt.so/2013.1/901 2013/11/27
 31 33  0  0  0  0  0  0  0  0999 V2000
  -11.3406   -4.2100   -1.2281 N   0  0  0  0  0  0  0  0  0  0  0  0
  -11.0838   -3.8771   -2.5375 C   0  0  0  0  0  0  0  0  0  0  0  0
  -11.9816   -3.5603   -3.3186 O   0  0  0  0  0  0  0  0  0  0  0  0
   -9.7229   -3.9267   -2.9311 N   0  0  0  0  0  0  0  0  0  0  0  0
   -8.6222   -4.2812   -2.1205 C   0  0  0  0  0  0  0  0  0  0  0  0
   -7.4792   -4.2809   -2.5947 O   0  0  0  0  0  0  0  0  0  0  0  0
   -8.9788   -4.6225   -0.7416 C   0  0  0  0  0  0  0  0  0  0  0  0
   -7.9644   -4.9786    0.1119 N   0  0  0  0  0  0  0  0  0  0  0  0
   -8.3142   -5.4682    1.3369 C   0  0  0  0  0  0  0  0  0  0  0  0
   -7.3130   -6.0004    2.1299 C   0  0  0  0  0  0  0  0  0  0  0  0
   -7.5866   -6.5032    3.3561 C   0  0  0  0  0  0  0  0  0  0  0  0
   -6.4676   -7.0639    4.1745 C   0  0  0  0  0  0  0  0  0  0  0  0
   -8.8606   -6.4958    3.8335 C   0  0  0  0  0  0  0  0  0  0  0  0
   -9.1548   -7.0593    5.1856 C   0  0  0  0  0  0  0  0  0  0  0  0
   -9.8750   -5.9832    3.0911 C   0  0  0  0  0  0  0  0  0  0  0  0
   -9.6465   -5.4525    1.8216 C   0  0  0  0  0  0  0  0  0  0  0  0
  -10.6524   -4.9018    1.0000 N   0  0  0  0  0  0  0  0  0  0  0  0
  -10.3648   -4.5696   -0.3398 C   0  0  0  0  0  0  0  0  0  0  0  0
  -11.7881   -4.1649    1.6674 C   0  0  0  0  0  0  0  0  0  0  0  0
  -11.8050   -2.6159    1.4931 C   0  0  1  0  0  0  0  0  0  0  0  0
  -11.9574   -2.2795    0.1214 O   0  0  0  0  0  0  0  0  0  0  0  0
  -12.8556   -1.9128    2.3853 C   0  0  1  0  0  0  0  0  0  0  0  0
  -13.0836   -2.6709    3.5698 O   0  0  0  0  0  0  0  0  0  0  0  0
  -12.5869   -0.4322    2.7506 C   0  0  1  0  0  0  0  0  0  0  0  0
  -11.2020   -0.1661    2.5578 O   0  0  0  0  0  0  0  0  0  0  0  0
  -13.4076    0.5582    1.8943 C   0  0  0  0  0  0  0  0  0  0  0  0
  -13.6047    1.8069    2.5470 O   0  0  0  0  0  0  0  0  0  0  0  0
  -14.4911    1.9609    3.8515 P   0  0  0  0  0  0  0  0  0  0  0  0
  -15.8639    1.4568    3.6203 O   0  0  0  0  0  0  0  0  0  0  0  0
  -13.7536    1.4858    5.0420 O   0  5  0  0  0  0  0  0  0  0  0  0
  -14.6406    3.5368    4.0222 O   0  5  0  0  0  0  0  0  0  0  0  0
  1 18  1  0  0  0  0
  1  2  1  0  0  0  0
  2  4  1  0  0  0  0
  2  3  2  0  0  0  0
  4  5  1  0  0  0  0
  5  7  1  0  0  0  0
  5  6  2  0  0  0  0
  7 18  2  0  0  0  0
  7  8  1  0  0  0  0
  8  9  1  0  0  0  0
  9 10  2  0  0  0  0
  9 16  1  0  0  0  0
 10 11  1  0  0  0  0
 11 12  1  0  0  0  0
 11 13  2  0  0  0  0
 13 14  1  0  0  0  0
 13 15  1  0  0  0  0
 15 16  2  0  0  0  0
 16 17  1  0  0  0  0
 17 19  1  0  0  0  0
 17 18  1  0  0  0  0
 20 19  1  6  0  0  0
 20 22  1  0  0  0  0
 20 21  1  0  0  0  0
 22 24  1  0  0  0  0
 22 23  1  1  0  0  0
 24 26  1  6  0  0  0
 24 25  1  0  0  0  0
 26 27  1  0  0  0  0
 27 28  1  0  0  0  0
 28 30  1  0  0  0  0
 28 29  2  0  0  0  0
 28 31  1  0  0  0  0
M  CHG  2  30  -1  31  -1
M  END
>  <CHROM.1>
108.59805097,62.88121680,28.64705938,-167.28899923,-19.67855285,81.51899843
155.50968127,69.59387032,-67.05406234,-56.39731590,-11.09975921,-2.76642315
1.59272139,0.26672626,0.90888353,-1.53430234

>  <Name>
1fmn_cryst

>  <RI>
0

>  <Rbt.Current_Directory>
/home/itssahil/PROJECTS/Mol_Feturizer/New_Systems/rnas/1fmn

>  <Rbt.Executable>
rbdock ($Id: //depot/dev/client3/rdock/2013.1/src/exe/rbdock.cxx#4 $)

>  <Rbt.Library>
libRbt.so (2013.1, Build901 2013/11/27)

>  <Rbt.Parameter_File>
/export/apps/rDock/src/rDock_2013.1_src/data/scripts/dock_solv.prm

>  <Rbt.Receptor>
prm/blind_docking_20.prm

>  <SCORE>
-35.5515

>  <SCORE.INTER>
-39.6917

>  <SCORE.INTER.CONST>
1

>  <SCORE.INTER.POLAR>
-2.23634

>  <SCORE.INTER.ROT>
7

>  <SCORE.INTER.SOLV>
25.4006

>  <SCORE.INTER.VDW>
-35.7402

>  <SCORE.INTER.norm>
-1.28038

>  <SCORE.INTRA>
0.710106

>  <SCORE.INTRA.DIHEDRAL>
-1.4013

>  <SCORE.INTRA.DIHEDRAL.0>
15.5708

>  <SCORE.INTRA.POLAR>
0.0677885

>  <SCORE.INTRA.POLAR.0>
-0.0677885

>  <SCORE.INTRA.REPUL>
0.00146251

>  <SCORE.INTRA.REPUL.0>
0

>  <SCORE.INTRA.SOLV>
-1.36719

>  <SCORE.INTRA.SOLV.lig_0>
-87.6316

>  <SCORE.INTRA.VDW>
1.85656

>  <SCORE.INTRA.VDW.0>
-2.87309

>  <SCORE.INTRA.norm>
0.0229066

>  <SCORE.RESTR>
3.43008

>  <SCORE.RESTR.CAVITY>
3.43008

>  <SCORE.RESTR.norm>
0.110648

>  <SCORE.SYSTEM>
0

>  <SCORE.SYSTEM.CONST>
0

>  <SCORE.SYSTEM.DIHEDRAL>
0

>  <SCORE.SYSTEM.SOLV>
0

>  <SCORE.SYSTEM.norm>
0

>  <SCORE.heavy>
31

>  <SCORE.norm>
-1.14682

>  <SYMMETRIC_BONDS>
33 34 3

>  <RMSD>
9.382

$$$$
1fmn_cryst
 OpenBabel11021811393D
libRbt.so/2013.1/901 2013/11/27
 31 33  0  0  0  0  0  0  0  0999 V2000
  -10.8238   -4.3892   -1.9866 N   0  0  0  0  0  0  0  0  0  0  0  0
  -10.2671   -4.2430   -3.2357 C   0  0  0  0  0  0  0  0  0  0  0  0
  -10.9418   -3.9369   -4.2194 O   0  0  0  0  0  0  0  0  0  0  0  0
   -8.8706   -4.4717   -3.3192 N   0  0  0  0  0  0  0  0  0  0  0  0
   -8.0093   -4.8312   -2.2594 C   0  0  0  0  0  0  0  0  0  0  0  0
   -6.8021   -4.9992   -2.4731 O   0  0  0  0  0  0  0  0  0  0  0  0
   -8.6782   -4.9677   -0.9636 C   0  0  0  0  0  0  0  0  0  0  0  0
   -7.9097   -5.3151    0.1194 N   0  0  0  0  0  0  0  0  0  0  0  0
   -8.5584   -5.6172    1.2815 C   0  0  0  0  0  0  0  0  0  0  0  0
   -7.8116   -6.1448    2.3200 C   0  0  0  0  0  0  0  0  0  0  0  0
   -8.3882   -6.4672    3.5011 C   0  0  0  0  0  0  0  0  0  0  0  0
   -7.5355   -7.0313    4.5925 C   0  0  0  0  0  0  0  0  0  0  0  0
   -9.7224   -6.2785    3.6889 C   0  0  0  0  0  0  0  0  0  0  0  0
  -10.3519   -6.6437    4.9937 C   0  0  0  0  0  0  0  0  0  0  0  0
  -10.4947   -5.7630    2.6986 C   0  0  0  0  0  0  0  0  0  0  0  0
   -9.9498   -5.4138    1.4630 C   0  0  0  0  0  0  0  0  0  0  0  0
  -10.6931   -4.8711    0.3939 N   0  0  0  0  0  0  0  0  0  0  0  0
  -10.1004   -4.7322   -0.8779 C   0  0  0  0  0  0  0  0  0  0  0  0
  -11.8438   -3.9522    0.7253 C   0  0  0  0  0  0  0  0  0  0  0  0
  -11.7256   -2.4837    0.2155 C   0  0  1  0  0  0  0  0  0  0  0  0
  -12.3382   -2.3577   -1.0599 O   0  0  0  0  0  0  0  0  0  0  0  0
  -12.2636   -1.4421    1.2253 C   0  0  1  0  0  0  0  0  0  0  0  0
  -11.1833   -0.7362    1.8288 O   0  0  0  0  0  0  0  0  0  0  0  0
  -13.3214   -0.4397    0.7017 C   0  0  1  0  0  0  0  0  0  0  0  0
  -14.5945   -1.0756    0.7275 O   0  0  0  0  0  0  0  0  0  0  0  0
  -13.3944    0.8539    1.5437 C   0  0  0  0  0  0  0  0  0  0  0  0
  -13.0976    2.0169    0.7798 O   0  0  0  0  0  0  0  0  0  0  0  0
  -11.6650    2.6942    0.7726 P   0  0  0  0  0  0  0  0  0  0  0  0
  -11.7696    4.1548    0.9916 O   0  0  0  0  0  0  0  0  0  0  0  0
  -10.7181    1.9198    1.6036 O   0  5  0  0  0  0  0  0  0  0  0  0
  -11.1750    2.5246   -0.7327 O   0  5  0  0  0  0  0  0  0  0  0  0
  1 18  1  0  0  0  0
  1  2  1  0  0  0  0
  2  4  1  0  0  0  0
  2  3  2  0  0  0  0
  4  5  1  0  0  0  0
  5  7  1  0  0  0  0
  5  6  2  0  0  0  0
  7 18  2  0  0  0  0
  7  8  1  0  0  0  0
  8  9  1  0  0  0  0
  9 10  2  0  0  0  0
  9 16  1  0  0  0  0
 10 11  1  0  0  0  0
 11 12  1  0  0  0  0
 11 13  2  0  0  0  0
 13 14  1  0  0  0  0
 13 15  1  0  0  0  0
 15 16  2  0  0  0  0
 16 17  1  0  0  0  0
 17 19  1  0  0  0  0
 17 18  1  0  0  0  0
 20 19  1  1  0  0  0
 20 22  1  0  0  0  0
 20 21  1  0  0  0  0
 22 24  1  0  0  0  0
 22 23  1  6  0  0  0
 24 26  1  1  0  0  0
 24 25  1  0  0  0  0
 26 27  1  0  0  0  0
 27 28  1  0  0  0  0
 28 30  1  0  0  0  0
 28 29  2  0  0  0  0
 28 31  1  0  0  0  0
M  CHG  2  30  -1  31  -1
M  END
>  <CHROM.1>
117.22138233,92.23143606,106.79979813,-100.46447884,81.79055292,-95.74959898
119.51666727,60.90548075,-97.85089740,-131.35395154,-10.59840489,-2.66045802
0.46627629,-0.27883420,1.13255619,-1.31771069

>  <Name>
1fmn_cryst

>  <RI>
0

>  <Rbt.Current_Directory>
/home/itssahil/PROJECTS/Mol_Feturizer/New_Systems/rnas/1fmn

>  <Rbt.Executable>
rbdock ($Id: //depot/dev/client3/rdock/2013.1/src/exe/rbdock.cxx#4 $)

>  <Rbt.Library>
libRbt.so (2013.1, Build901 2013/11/27)

>  <Rbt.Parameter_File>
/export/apps/rDock/src/rDock_2013.1_src/data/scripts/dock_solv.prm

>  <Rbt.Receptor>
prm/blind_docking_60.prm

>  <SCORE>
-30.653

>  <SCORE.INTER>
-42.6556

>  <SCORE.INTER.CONST>
1

>  <SCORE.INTER.POLAR>
-3.85252

>  <SCORE.INTER.ROT>
7

>  <SCORE.INTER.SOLV>
34.0966

>  <SCORE.INTER.VDW>
-35.2276

>  <SCORE.INTER.norm>
-1.37599

>  <SCORE.INTRA>
10.4112

>  <SCORE.INTRA.DIHEDRAL>
17.6618

>  <SCORE.INTRA.DIHEDRAL.0>
15.5708

>  <SCORE.INTRA.POLAR>
0.0544362

>  <SCORE.INTRA.POLAR.0>
-0.0677885

>  <SCORE.INTRA.REPUL>
0

>  <SCORE.INTRA.REPUL.0>
0

>  <SCORE.INTRA.SOLV>
-0.240085

>  <SCORE.INTRA.SOLV.lig_0>
-87.6316

>  <SCORE.INTRA.VDW>
1.51525

>  <SCORE.INTRA.VDW.0>
-2.87309

>  <SCORE.INTRA.norm>
0.335844

>  <SCORE.RESTR>
1.59148

>  <SCORE.RESTR.CAVITY>
1.59148

>  <SCORE.RESTR.norm>
0.051338

>  <SCORE.SYSTEM>
0

>  <SCORE.SYSTEM.CONST>
0

>  <SCORE.SYSTEM.DIHEDRAL>
0

>  <SCORE.SYSTEM.SOLV>
0

>  <SCORE.SYSTEM.norm>
0

>  <SCORE.heavy>
31

>  <SCORE.norm>
-0.988806

>  <SYMMETRIC_BONDS>
33 34 3

>  <RMSD>
9.406

$$$$
1fmn_cryst
 OpenBabel11021811393D
libRbt.so/2013.1/901 2013/11/27
 31 33  0  0  0  0  0  0  0  0999 V2000
  -11.0578   -4.3202   -2.7807 N   0  0  0  0  0  0  0  0  0  0  0  0
  -10.7279   -4.0883   -4.0956 C   0  0  0  0  0  0  0  0  0  0  0  0
  -11.5848   -3.9549   -4.9699 O   0  0  0  0  0  0  0  0  0  0  0  0
   -9.3410   -4.0179   -4.3804 N   0  0  0  0  0  0  0  0  0  0  0  0
   -8.2815   -4.1623   -3.4579 C   0  0  0  0  0  0  0  0  0  0  0  0
   -7.1090   -4.0757   -3.8439 O   0  0  0  0  0  0  0  0  0  0  0  0
   -8.7154   -4.4074   -2.0806 C   0  0  0  0  0  0  0  0  0  0  0  0
   -7.7449   -4.5591   -1.1218 N   0  0  0  0  0  0  0  0  0  0  0  0
   -8.1429   -4.9648    0.1190 C   0  0  0  0  0  0  0  0  0  0  0  0
   -7.1613   -5.2981    1.0355 C   0  0  0  0  0  0  0  0  0  0  0  0
   -7.4826   -5.7080    2.2846 C   0  0  0  0  0  0  0  0  0  0  0  0
   -6.3834   -6.0533    3.2380 C   0  0  0  0  0  0  0  0  0  0  0  0
   -8.7859   -5.8019    2.6633 C   0  0  0  0  0  0  0  0  0  0  0  0
   -9.1317   -6.2619    4.0421 C   0  0  0  0  0  0  0  0  0  0  0  0
   -9.7827   -5.4846    1.7981 C   0  0  0  0  0  0  0  0  0  0  0  0
   -9.5055   -5.0566    0.4999 C   0  0  0  0  0  0  0  0  0  0  0  0
  -10.4912   -4.7084   -0.4473 N   0  0  0  0  0  0  0  0  0  0  0  0
  -10.1282   -4.4766   -1.7899 C   0  0  0  0  0  0  0  0  0  0  0  0
  -11.7523   -4.0467    0.0528 C   0  0  0  0  0  0  0  0  0  0  0  0
  -11.8080   -2.4926   -0.0555 C   0  0  1  0  0  0  0  0  0  0  0  0
  -12.2491   -2.1078   -1.3499 O   0  0  0  0  0  0  0  0  0  0  0  0
  -12.6458   -1.8324    1.0653 C   0  0  1  0  0  0  0  0  0  0  0  0
  -12.2455   -2.3300    2.3388 O   0  0  0  0  0  0  0  0  0  0  0  0
  -12.6842   -0.2846    1.0925 C   0  0  1  0  0  0  0  0  0  0  0  0
  -13.7623    0.1236    1.9273 O   0  0  0  0  0  0  0  0  0  0  0  0
  -11.3765    0.3413    1.6273 C   0  0  0  0  0  0  0  0  0  0  0  0
  -11.5347    1.7099    1.9824 O   0  0  0  0  0  0  0  0  0  0  0  0
  -11.8744    2.8363    0.9208 P   0  0  0  0  0  0  0  0  0  0  0  0
  -11.6639    4.1847    1.4950 O   0  0  0  0  0  0  0  0  0  0  0  0
  -11.2625    2.5208   -0.3880 O   0  5  0  0  0  0  0  0  0  0  0  0
  -13.4479    2.7019    0.7185 O   0  5  0  0  0  0  0  0  0  0  0  0
  1 18  1  0  0  0  0
  1  2  1  0  0  0  0
  2  4  1  0  0  0  0
  2  3  2  0  0  0  0
  4  5  1  0  0  0  0
  5  7  1  0  0  0  0
  5  6  2  0  0  0  0
  7 18  2  0  0  0  0
  7  8  1  0  0  0  0
  8  9  1  0  0  0  0
  9 10  2  0  0  0  0
  9 16  1  0  0  0  0
 10 11  1  0  0  0  0
 11 12  1  0  0  0  0
 11 13  2  0  0  0  0
 13 14  1  0  0  0  0
 13 15  1  0  0  0  0
 15 16  2  0  0  0  0
 16 17  1  0  0  0  0
 17 19  1  0  0  0  0
 17 18  1  0  0  0  0
 20 19  1  6  0  0  0
 20 22  1  0  0  0  0
 20 21  1  0  0  0  0
 22 24  1  0  0  0  0
 22 23  1  1  0  0  0
 24 26  1  1  0  0  0
 24 25  1  0  0  0  0
 26 27  1  0  0  0  0
 27 28  1  0  0  0  0
 28 30  1  0  0  0  0
 28 29  2  0  0  0  0
 28 31  1  0  0  0  0
M  CHG  2  30  -1  31  -1
M  END
>  <CHROM.1>
97.94079818,84.77639632,49.74888277,-71.77707109,164.28585934,-175.21850188
-164.40744702,-168.93552047,-64.74450550,-166.45630727,-10.46811830,-2.40213815
-0.01468941,0.31252379,1.07584787,-1.69691335

>  <Name>
1fmn_cryst

>  <RI>
0

>  <Rbt.Current_Directory>
/home/itssahil/PROJECTS/Mol_Feturizer/New_Systems/rnas/1fmn

>  <Rbt.Executable>
rbdock ($Id: //depot/dev/client3/rdock/2013.1/src/exe/rbdock.cxx#4 $)

>  <Rbt.Library>
libRbt.so (2013.1, Build901 2013/11/27)

>  <Rbt.Parameter_File>
/export/apps/rDock/src/rDock_2013.1_src/data/scripts/dock_solv.prm

>  <Rbt.Receptor>
prm/blind_docking_40.prm

>  <SCORE>
-37.5365

>  <SCORE.INTER>
-34.5354

>  <SCORE.INTER.CONST>
1

>  <SCORE.INTER.POLAR>
-1.84595

>  <SCORE.INTER.ROT>
7

>  <SCORE.INTER.SOLV>
28.2271

>  <SCORE.INTER.VDW>
-34.5461

>  <SCORE.INTER.norm>
-1.11404

>  <SCORE.INTRA>
-5.58252

>  <SCORE.INTRA.DIHEDRAL>
-7.82742

>  <SCORE.INTRA.DIHEDRAL.0>
15.5708

>  <SCORE.INTRA.POLAR>
-0.619516

>  <SCORE.INTRA.POLAR.0>
-0.0677885

>  <SCORE.INTRA.REPUL>
0

>  <SCORE.INTRA.REPUL.0>
0

>  <SCORE.INTRA.SOLV>
0.253181

>  <SCORE.INTRA.SOLV.lig_0>
-87.6316

>  <SCORE.INTRA.VDW>
0.31096

>  <SCORE.INTRA.VDW.0>
-2.87309

>  <SCORE.INTRA.norm>
-0.180081

>  <SCORE.RESTR>
2.58135

>  <SCORE.RESTR.CAVITY>
2.58135

>  <SCORE.RESTR.norm>
0.0832693

>  <SCORE.SYSTEM>
0

>  <SCORE.SYSTEM.CONST>
0

>  <SCORE.SYSTEM.DIHEDRAL>
0

>  <SCORE.SYSTEM.SOLV>
0

>  <SCORE.SYSTEM.norm>
0

>  <SCORE.heavy>
31

>  <SCORE.norm>
-1.21086

>  <SYMMETRIC_BONDS>
33 34 3

>  <RMSD>
9.407

$$$$
1fmn_cryst
 OpenBabel11021811393D
libRbt.so/2013.1/901 2013/11/27
 31 33  0  0  0  0  0  0  0  0999 V2000
  -10.9352   -4.0595   -2.3476 N   0  0  0  0  0  0  0  0  0  0  0  0
  -10.3878   -4.0809   -3.6091 C   0  0  0  0  0  0  0  0  0  0  0  0
  -11.0148   -3.7026   -4.5992 O   0  0  0  0  0  0  0  0  0  0  0  0
   -9.0602   -4.5700   -3.6972 N   0  0  0  0  0  0  0  0  0  0  0  0
   -8.2583   -5.0319   -2.6305 C   0  0  0  0  0  0  0  0  0  0  0  0
   -7.1082   -5.4325   -2.8495 O   0  0  0  0  0  0  0  0  0  0  0  0
   -8.9131   -4.9777   -1.3215 C   0  0  0  0  0  0  0  0  0  0  0  0
   -8.1996   -5.4093   -0.2311 N   0  0  0  0  0  0  0  0  0  0  0  0
   -8.8682   -5.5280    0.9527 C   0  0  0  0  0  0  0  0  0  0  0  0
   -8.2105   -6.1344    2.0082 C   0  0  0  0  0  0  0  0  0  0  0  0
   -8.8115   -6.2855    3.2112 C   0  0  0  0  0  0  0  0  0  0  0  0
   -8.0554   -6.9450    4.3202 C   0  0  0  0  0  0  0  0  0  0  0  0
  -10.0832   -5.8422    3.4049 C   0  0  0  0  0  0  0  0  0  0  0  0
  -10.7416   -6.0194    4.7343 C   0  0  0  0  0  0  0  0  0  0  0  0
  -10.7671   -5.2405    2.3984 C   0  0  0  0  0  0  0  0  0  0  0  0
  -10.1934   -5.0598    1.1400 C   0  0  0  0  0  0  0  0  0  0  0  0
  -10.8455   -4.4406    0.0531 N   0  0  0  0  0  0  0  0  0  0  0  0
  -10.2646   -4.4771   -1.2311 C   0  0  0  0  0  0  0  0  0  0  0  0
  -11.7981   -3.3081    0.3500 C   0  0  0  0  0  0  0  0  0  0  0  0
  -11.8249   -2.7942    1.8215 C   0  0  1  0  0  0  0  0  0  0  0  0
  -10.5330   -2.3468    2.2072 O   0  0  0  0  0  0  0  0  0  0  0  0
  -12.9117   -1.7222    2.0738 C   0  0  1  0  0  0  0  0  0  0  0  0
  -13.4440   -1.8591    3.3882 O   0  0  0  0  0  0  0  0  0  0  0  0
  -12.5148   -0.2477    1.8167 C   0  0  1  0  0  0  0  0  0  0  0  0
  -12.5053   -0.0235    0.4112 O   0  0  0  0  0  0  0  0  0  0  0  0
  -13.4834    0.7606    2.4747 C   0  0  0  0  0  0  0  0  0  0  0  0
  -13.3856    0.7611    3.8940 O   0  0  0  0  0  0  0  0  0  0  0  0
  -14.2478    1.7234    4.8115 P   0  0  0  0  0  0  0  0  0  0  0  0
  -14.1842    3.1188    4.3207 O   0  0  0  0  0  0  0  0  0  0  0  0
  -15.5739    1.1300    5.0881 O   0  5  0  0  0  0  0  0  0  0  0  0
  -13.4648    1.7247    6.1977 O   0  5  0  0  0  0  0  0  0  0  0  0
  1 18  1  0  0  0  0
  1  2  1  0  0  0  0
  2  4  1  0  0  0  0
  2  3  2  0  0  0  0
  4  5  1  0  0  0  0
  5  7  1  0  0  0  0
  5  6  2  0  0  0  0
  7 18  2  0  0  0  0
  7  8  1  0  0  0  0
  8  9  1  0  0  0  0
  9 10  2  0  0  0  0
  9 16  1  0  0  0  0
 10 11  1  0  0  0  0
 11 12  1  0  0  0  0
 11 13  2  0  0  0  0
 13 14  1  0  0  0  0
 13 15  1  0  0  0  0
 15 16  2  0  0  0  0
 16 17  1  0  0  0  0
 17 19  1  0  0  0  0
 17 18  1  0  0  0  0
 20 19  1  6  0  0  0
 20 22  1  0  0  0  0
 20 21  1  0  0  0  0
 22 24  1  0  0  0  0
 22 23  1  1  0  0  0
 24 26  1  1  0  0  0
 24 25  1  0  0  0  0
 26 27  1  0  0  0  0
 27 28  1  0  0  0  0
 28 30  1  0  0  0  0
 28 29  2  0  0  0  0
 28 31  1  0  0  0  0
M  CHG  2  30  -1  31  -1
M  END
>  <CHROM.1>
8.20630733,58.69339960,145.33346747,146.70386814,76.36300946,60.99000815
69.59520499,60.64112857,178.72371974,-48.53828786,-11.20176162,-2.77364661
1.43969874,0.47089042,0.97160381,-1.41359612

>  <Name>
1fmn_cryst

>  <RI>
0

>  <Rbt.Current_Directory>
/home/itssahil/PROJECTS/Mol_Feturizer/New_Systems/rnas/1fmn

>  <Rbt.Executable>
rbdock ($Id: //depot/dev/client3/rdock/2013.1/src/exe/rbdock.cxx#4 $)

>  <Rbt.Library>
libRbt.so (2013.1, Build901 2013/11/27)

>  <Rbt.Parameter_File>
/export/apps/rDock/src/rDock_2013.1_src/data/scripts/dock_solv.prm

>  <Rbt.Receptor>
prm/blind_docking_80.prm

>  <SCORE>
-25.0966

>  <SCORE.INTER>
-25.2388

>  <SCORE.INTER.CONST>
1

>  <SCORE.INTER.POLAR>
-2.41047

>  <SCORE.INTER.ROT>
7

>  <SCORE.INTER.SOLV>
26.3011

>  <SCORE.INTER.VDW>
-25.8246

>  <SCORE.INTER.norm>
-0.814154

>  <SCORE.INTRA>
-0.480054

>  <SCORE.INTRA.DIHEDRAL>
-3.89438

>  <SCORE.INTRA.DIHEDRAL.0>
15.5708

>  <SCORE.INTRA.POLAR>
0.0677885

>  <SCORE.INTRA.POLAR.0>
-0.0677885

>  <SCORE.INTRA.REPUL>
0

>  <SCORE.INTRA.REPUL.0>
0

>  <SCORE.INTRA.SOLV>
-3.98793

>  <SCORE.INTRA.SOLV.lig_0>
-87.6316

>  <SCORE.INTRA.VDW>
3.23062

>  <SCORE.INTRA.VDW.0>
-2.87309

>  <SCORE.INTRA.norm>
-0.0154856

>  <SCORE.RESTR>
0.622242

>  <SCORE.RESTR.CAVITY>
0.622242

>  <SCORE.RESTR.norm>
0.0200723

>  <SCORE.SYSTEM>
0

>  <SCORE.SYSTEM.CONST>
0

>  <SCORE.SYSTEM.DIHEDRAL>
0

>  <SCORE.SYSTEM.SOLV>
0

>  <SCORE.SYSTEM.norm>
0

>  <SCORE.heavy>
31

>  <SCORE.norm>
-0.809568

>  <SYMMETRIC_BONDS>
33 34 3

>  <RMSD>
9.414

$$$$
1fmn_cryst
 OpenBabel11021811393D
libRbt.so/2013.1/901 2013/11/27
 31 33  0  0  0  0  0  0  0  0999 V2000
  -11.0236   -3.9943   -1.7881 N   0  0  0  0  0  0  0  0  0  0  0  0
  -10.5459   -3.7955   -3.0624 C   0  0  0  0  0  0  0  0  0  0  0  0
  -11.2711   -3.4046   -3.9777 O   0  0  0  0  0  0  0  0  0  0  0  0
   -9.1694   -4.0734   -3.2555 N   0  0  0  0  0  0  0  0  0  0  0  0
   -8.2555   -4.5295   -2.2803 C   0  0  0  0  0  0  0  0  0  0  0  0
   -7.0737   -4.7317   -2.5865 O   0  0  0  0  0  0  0  0  0  0  0  0
   -8.8414   -4.7170   -0.9511 C   0  0  0  0  0  0  0  0  0  0  0  0
   -8.0179   -5.1587    0.0544 N   0  0  0  0  0  0  0  0  0  0  0  0
   -8.5998   -5.5043    1.2395 C   0  0  0  0  0  0  0  0  0  0  0  0
   -7.8087   -6.1221    2.1918 C   0  0  0  0  0  0  0  0  0  0  0  0
   -8.3183   -6.4919    3.3897 C   0  0  0  0  0  0  0  0  0  0  0  0
   -7.4197   -7.1535    4.3853 C   0  0  0  0  0  0  0  0  0  0  0  0
   -9.6276   -6.2625    3.6801 C   0  0  0  0  0  0  0  0  0  0  0  0
  -10.1835   -6.6802    5.0024 C   0  0  0  0  0  0  0  0  0  0  0  0
  -10.4413   -5.6585    2.7769 C   0  0  0  0  0  0  0  0  0  0  0  0
   -9.9658   -5.2576    1.5285 C   0  0  0  0  0  0  0  0  0  0  0  0
  -10.7548   -4.6229    0.5463 N   0  0  0  0  0  0  0  0  0  0  0  0
  -10.2431   -4.4314   -0.7535 C   0  0  0  0  0  0  0  0  0  0  0  0
  -11.8399   -3.6810    1.0087 C   0  0  0  0  0  0  0  0  0  0  0  0
  -11.8260   -2.2513    0.3875 C   0  0  1  0  0  0  0  0  0  0  0  0
  -12.6403   -2.2153   -0.7759 O   0  0  0  0  0  0  0  0  0  0  0  0
  -12.2057   -1.1431    1.3984 C   0  0  1  0  0  0  0  0  0  0  0  0
  -11.0373   -0.4609    1.8446 O   0  0  0  0  0  0  0  0  0  0  0  0
  -13.2743   -0.1178    0.9459 C   0  0  1  0  0  0  0  0  0  0  0  0
  -14.5152   -0.7987    0.7961 O   0  0  0  0  0  0  0  0  0  0  0  0
  -13.4610    1.0411    1.9507 C   0  0  0  0  0  0  0  0  0  0  0  0
  -13.7527    0.5796    3.2645 O   0  0  0  0  0  0  0  0  0  0  0  0
  -13.9372    1.5605    4.4954 P   0  0  0  0  0  0  0  0  0  0  0  0
  -14.0710    0.8023    5.7601 O   0  0  0  0  0  0  0  0  0  0  0  0
  -12.9566    2.6656    4.4330 O   0  5  0  0  0  0  0  0  0  0  0  0
  -15.3644    2.2193    4.2423 O   0  5  0  0  0  0  0  0  0  0  0  0
  1 18  1  0  0  0  0
  1  2  1  0  0  0  0
  2  4  1  0  0  0  0
  2  3  2  0  0  0  0
  4  5  1  0  0  0  0
  5  7  1  0  0  0  0
  5  6  2  0  0  0  0
  7 18  2  0  0  0  0
  7  8  1  0  0  0  0
  8  9  1  0  0  0  0
  9 10  2  0  0  0  0
  9 16  1  0  0  0  0
 10 11  1  0  0  0  0
 11 12  1  0  0  0  0
 11 13  2  0  0  0  0
 13 14  1  0  0  0  0
 13 15  1  0  0  0  0
 15 16  2  0  0  0  0
 16 17  1  0  0  0  0
 17 19  1  0  0  0  0
 17 18  1  0  0  0  0
 20 19  1  1  0  0  0
 20 22  1  0  0  0  0
 20 21  1  0  0  0  0
 22 24  1  0  0  0  0
 22 23  1  6  0  0  0
 24 26  1  1  0  0  0
 24 25  1  0  0  0  0
 26 27  1  0  0  0  0
 27 28  1  0  0  0  0
 28 30  1  0  0  0  0
 28 29  2  0  0  0  0
 28 31  1  0  0  0  0
M  CHG  2  30  -1  31  -1
M  END
>  <CHROM.1>
127.05180592,91.64066499,102.39708345,76.23259917,66.27952617,-97.25522930
-54.67242281,66.32821656,177.69859792,-173.22734468,-11.14103497,-2.71907898
1.31336445,0.36249537,0.93123718,-1.48649915

>  <Name>
1fmn_cryst

>  <RI>
0

>  <Rbt.Current_Directory>
/home/itssahil/PROJECTS/Mol_Feturizer/New_Systems/rnas/1fmn

>  <Rbt.Executable>
rbdock ($Id: //depot/dev/client3/rdock/2013.1/src/exe/rbdock.cxx#4 $)

>  <Rbt.Library>
libRbt.so (2013.1, Build901 2013/11/27)

>  <Rbt.Parameter_File>
/export/apps/rDock/src/rDock_2013.1_src/data/scripts/dock_solv.prm

>  <Rbt.Receptor>
prm/blind_docking_40.prm

>  <SCORE>
-42.6517

>  <SCORE.INTER>
-40.7268

>  <SCORE.INTER.CONST>
1

>  <SCORE.INTER.POLAR>
-2.20205

>  <SCORE.INTER.ROT>
7

>  <SCORE.INTER.SOLV>
26.1563

>  <SCORE.INTER.VDW>
-36.7965

>  <SCORE.INTER.norm>
-1.31377

>  <SCORE.INTRA>
-2.86321

>  <SCORE.INTRA.DIHEDRAL>
0.291721

>  <SCORE.INTRA.DIHEDRAL.0>
15.5708

>  <SCORE.INTRA.POLAR>
-0.76173

>  <SCORE.INTRA.POLAR.0>
-0.0677885

>  <SCORE.INTRA.REPUL>
0

>  <SCORE.INTRA.REPUL.0>
0

>  <SCORE.INTRA.SOLV>
-3.54641

>  <SCORE.INTRA.SOLV.lig_0>
-87.6316

>  <SCORE.INTRA.VDW>
1.35402

>  <SCORE.INTRA.VDW.0>
-2.87309

>  <SCORE.INTRA.norm>
-0.0923615

>  <SCORE.RESTR>
0.9383

>  <SCORE.RESTR.CAVITY>
0.9383

>  <SCORE.RESTR.norm>
0.0302677

>  <SCORE.SYSTEM>
0

>  <SCORE.SYSTEM.CONST>
0

>  <SCORE.SYSTEM.DIHEDRAL>
0

>  <SCORE.SYSTEM.SOLV>
0

>  <SCORE.SYSTEM.norm>
0

>  <SCORE.heavy>
31

>  <SCORE.norm>
-1.37586

>  <SYMMETRIC_BONDS>
33 34 3

>  <RMSD>
9.421

$$$$
1fmn_cryst
 OpenBabel11021811393D
libRbt.so/2013.1/901 2013/11/27
 31 33  0  0  0  0  0  0  0  0999 V2000
  -11.1245   -3.6703   -1.5795 N   0  0  0  0  0  0  0  0  0  0  0  0
  -10.6629   -3.4641   -2.8586 C   0  0  0  0  0  0  0  0  0  0  0  0
  -11.3780   -2.9899   -3.7420 O   0  0  0  0  0  0  0  0  0  0  0  0
   -9.3158   -3.8361   -3.0957 N   0  0  0  0  0  0  0  0  0  0  0  0
   -8.4161   -4.3912   -2.1595 C   0  0  0  0  0  0  0  0  0  0  0  0
   -7.2601   -4.6695   -2.5022 O   0  0  0  0  0  0  0  0  0  0  0  0
   -8.9834   -4.5801   -0.8225 C   0  0  0  0  0  0  0  0  0  0  0  0
   -8.1721   -5.1154    0.1468 N   0  0  0  0  0  0  0  0  0  0  0  0
   -8.7506   -5.4572    1.3347 C   0  0  0  0  0  0  0  0  0  0  0  0
   -7.9859   -6.1637    2.2460 C   0  0  0  0  0  0  0  0  0  0  0  0
   -8.4938   -6.5355    3.4441 C   0  0  0  0  0  0  0  0  0  0  0  0
   -7.6243   -7.2951    4.3945 C   0  0  0  0  0  0  0  0  0  0  0  0
   -9.7752   -6.2201    3.7752 C   0  0  0  0  0  0  0  0  0  0  0  0
  -10.3300   -6.6405    5.0971 C   0  0  0  0  0  0  0  0  0  0  0  0
  -10.5624   -5.5274    2.9130 C   0  0  0  0  0  0  0  0  0  0  0  0
  -10.0873   -5.1204    1.6664 C   0  0  0  0  0  0  0  0  0  0  0  0
  -10.8493   -4.3961    0.7257 N   0  0  0  0  0  0  0  0  0  0  0  0
  -10.3550   -4.1988   -0.5800 C   0  0  0  0  0  0  0  0  0  0  0  0
  -11.8501   -3.3931    1.2458 C   0  0  0  0  0  0  0  0  0  0  0  0
  -11.8662   -2.0025    0.5413 C   0  0  1  0  0  0  0  0  0  0  0  0
  -12.9645   -1.9212   -0.3559 O   0  0  0  0  0  0  0  0  0  0  0  0
  -11.8355   -0.8155    1.5334 C   0  0  1  0  0  0  0  0  0  0  0  0
  -11.6488    0.4098    0.8310 O   0  0  0  0  0  0  0  0  0  0  0  0
  -13.0307   -0.6868    2.5095 C   0  0  1  0  0  0  0  0  0  0  0  0
  -13.0897   -1.8654    3.3054 O   0  0  0  0  0  0  0  0  0  0  0  0
  -12.9167    0.5389    3.4435 C   0  0  0  0  0  0  0  0  0  0  0  0
  -14.0747    0.7166    4.2507 O   0  0  0  0  0  0  0  0  0  0  0  0
  -14.2477    1.9404    5.2424 P   0  0  0  0  0  0  0  0  0  0  0  0
  -13.1219    2.0069    6.2015 O   0  0  0  0  0  0  0  0  0  0  0  0
  -14.6185    3.1645    4.5000 O   0  5  0  0  0  0  0  0  0  0  0  0
  -15.5225    1.5452    6.1105 O   0  5  0  0  0  0  0  0  0  0  0  0
  1 18  1  0  0  0  0
  1  2  1  0  0  0  0
  2  4  1  0  0  0  0
  2  3  2  0  0  0  0
  4  5  1  0  0  0  0
  5  7  1  0  0  0  0
  5  6  2  0  0  0  0
  7 18  2  0  0  0  0
  7  8  1  0  0  0  0
  8  9  1  0  0  0  0
  9 10  2  0  0  0  0
  9 16  1  0  0  0  0
 10 11  1  0  0  0  0
 11 12  1  0  0  0  0
 11 13  2  0  0  0  0
 13 14  1  0  0  0  0
 13 15  1  0  0  0  0
 15 16  2  0  0  0  0
 16 17  1  0  0  0  0
 17 19  1  0  0  0  0
 17 18  1  0  0  0  0
 20 19  1  1  0  0  0
 20 22  1  0  0  0  0
 20 21  1  0  0  0  0
 22 24  1  0  0  0  0
 22 23  1  6  0  0  0
 24 26  1  1  0  0  0
 24 25  1  0  0  0  0
 26 27  1  0  0  0  0
 27 28  1  0  0  0  0
 28 30  1  0  0  0  0
 28 29  2  0  0  0  0
 28 31  1  0  0  0  0
M  CHG  2  30  -1  31  -1
M  END
>  <CHROM.1>
134.69433917,102.36829179,171.26333378,77.41321031,60.20509274,-38.23470519
174.65117534,75.09802905,-176.80242335,-56.06829453,-11.22580314,-2.58389528
1.72328097,0.37516267,0.97405349,-1.37576489

>  <Name>
1fmn_cryst

>  <RI>
0

>  <Rbt.Current_Directory>
/home/itssahil/PROJECTS/Mol_Feturizer/New_Systems/rnas/1fmn

>  <Rbt.Executable>
rbdock ($Id: //depot/dev/client3/rdock/2013.1/src/exe/rbdock.cxx#4 $)

>  <Rbt.Library>
libRbt.so (2013.1, Build901 2013/11/27)

>  <Rbt.Parameter_File>
/export/apps/rDock/src/rDock_2013.1_src/data/scripts/dock_solv.prm

>  <Rbt.Receptor>
prm/blind_docking_100.prm

>  <SCORE>
-39.0777

>  <SCORE.INTER>
-37.4225

>  <SCORE.INTER.CONST>
1

>  <SCORE.INTER.POLAR>
-1.50991

>  <SCORE.INTER.ROT>
7

>  <SCORE.INTER.SOLV>
25.4668

>  <SCORE.INTER.VDW>
-36.6709

>  <SCORE.INTER.norm>
-1.20718

>  <SCORE.INTRA>
-3.54667

>  <SCORE.INTRA.DIHEDRAL>
-3.77218

>  <SCORE.INTRA.DIHEDRAL.0>
15.5708

>  <SCORE.INTRA.POLAR>
-0.56979

>  <SCORE.INTRA.POLAR.0>
-0.0677885

>  <SCORE.INTRA.REPUL>
0

>  <SCORE.INTRA.REPUL.0>
0

>  <SCORE.INTRA.SOLV>
-4.21842

>  <SCORE.INTRA.SOLV.lig_0>
-87.6316

>  <SCORE.INTRA.VDW>
2.38592

>  <SCORE.INTRA.VDW.0>
-2.87309

>  <SCORE.INTRA.norm>
-0.114409

>  <SCORE.RESTR>
1.89144

>  <SCORE.RESTR.CAVITY>
1.89144

>  <SCORE.RESTR.norm>
0.0610142

>  <SCORE.SYSTEM>
0

>  <SCORE.SYSTEM.CONST>
0

>  <SCORE.SYSTEM.DIHEDRAL>
0

>  <SCORE.SYSTEM.SOLV>
0

>  <SCORE.SYSTEM.norm>
0

>  <SCORE.heavy>
31

>  <SCORE.norm>
-1.26057

>  <SYMMETRIC_BONDS>
33 34 3

>  <RMSD>
9.430

$$$$
1fmn_cryst
 OpenBabel11021811393D
libRbt.so/2013.1/901 2013/11/27
 31 33  0  0  0  0  0  0  0  0999 V2000
  -11.4404   -4.0655   -1.2495 N   0  0  0  0  0  0  0  0  0  0  0  0
  -11.1822   -3.7741   -2.5686 C   0  0  0  0  0  0  0  0  0  0  0  0
  -12.0645   -3.3900   -3.3370 O   0  0  0  0  0  0  0  0  0  0  0  0
   -9.8392   -3.9485   -2.9873 N   0  0  0  0  0  0  0  0  0  0  0  0
   -8.7576   -4.3877   -2.1927 C   0  0  0  0  0  0  0  0  0  0  0  0
   -7.6288   -4.4944   -2.6886 O   0  0  0  0  0  0  0  0  0  0  0  0
   -9.1145   -4.6778   -0.8022 C   0  0  0  0  0  0  0  0  0  0  0  0
   -8.1181   -5.1103    0.0371 N   0  0  0  0  0  0  0  0  0  0  0  0
   -8.4844   -5.5508    1.2757 C   0  0  0  0  0  0  0  0  0  0  0  0
   -7.5179   -6.1584    2.0574 C   0  0  0  0  0  0  0  0  0  0  0  0
   -7.8095   -6.6188    3.2961 C   0  0  0  0  0  0  0  0  0  0  0  0
   -6.7275   -7.2648    4.1013 C   0  0  0  0  0  0  0  0  0  0  0  0
   -9.0679   -6.4928    3.7977 C   0  0  0  0  0  0  0  0  0  0  0  0
   -9.3828   -7.0100    5.1635 C   0  0  0  0  0  0  0  0  0  0  0  0
  -10.0483   -5.9029    3.0671 C   0  0  0  0  0  0  0  0  0  0  0  0
   -9.8001   -5.4114    1.7856 C   0  0  0  0  0  0  0  0  0  0  0  0
  -10.7703   -4.7854    0.9752 N   0  0  0  0  0  0  0  0  0  0  0  0
  -10.4821   -4.4977   -0.3747 C   0  0  0  0  0  0  0  0  0  0  0  0
  -11.8231   -3.9424    1.6530 C   0  0  0  0  0  0  0  0  0  0  0  0
  -11.7687   -2.4099    1.3724 C   0  0  1  0  0  0  0  0  0  0  0  0
  -12.1610   -2.1434    0.0334 O   0  0  0  0  0  0  0  0  0  0  0  0
  -12.5766   -1.5737    2.3933 C   0  0  1  0  0  0  0  0  0  0  0  0
  -12.9495   -2.3803    3.5068 O   0  0  0  0  0  0  0  0  0  0  0  0
  -11.9295   -0.2572    2.8892 C   0  0  1  0  0  0  0  0  0  0  0  0
  -11.8539    0.6472    1.7926 O   0  0  0  0  0  0  0  0  0  0  0  0
  -12.7254    0.4123    4.0320 C   0  0  0  0  0  0  0  0  0  0  0  0
  -13.7348    1.2910    3.5492 O   0  0  0  0  0  0  0  0  0  0  0  0
  -14.7145    2.0812    4.5119 P   0  0  0  0  0  0  0  0  0  0  0  0
  -15.0521    3.4084    3.9491 O   0  0  0  0  0  0  0  0  0  0  0  0
  -15.8149    1.2054    4.9692 O   0  5  0  0  0  0  0  0  0  0  0  0
  -13.8221    2.3792    5.7964 O   0  5  0  0  0  0  0  0  0  0  0  0
  1 18  1  0  0  0  0
  1  2  1  0  0  0  0
  2  4  1  0  0  0  0
  2  3  2  0  0  0  0
  4  5  1  0  0  0  0
  5  7  1  0  0  0  0
  5  6  2  0  0  0  0
  7 18  2  0  0  0  0
  7  8  1  0  0  0  0
  8  9  1  0  0  0  0
  9 10  2  0  0  0  0
  9 16  1  0  0  0  0
 10 11  1  0  0  0  0
 11 12  1  0  0  0  0
 11 13  2  0  0  0  0
 13 14  1  0  0  0  0
 13 15  1  0  0  0  0
 15 16  2  0  0  0  0
 16 17  1  0  0  0  0
 17 19  1  0  0  0  0
 17 18  1  0  0  0  0
 20 19  1  1  0  0  0
 20 22  1  0  0  0  0
 20 21  1  0  0  0  0
 22 24  1  0  0  0  0
 22 23  1  1  0  0  0
 24 26  1  1  0  0  0
 24 25  1  0  0  0  0
 26 27  1  0  0  0  0
 27 28  1  0  0  0  0
 28 30  1  0  0  0  0
 28 29  2  0  0  0  0
 28 31  1  0  0  0  0
M  CHG  2  30  -1  31  -1
M  END
>  <CHROM.1>
112.85227718,70.64544631,12.08570029,-149.17190799,66.63778417,-153.38584614
-88.04552372,-62.47450914,178.67998239,145.98506822,-11.19914818,-2.69925182
1.74937796,0.36362770,0.93242075,-1.52545142

>  <Name>
1fmn_cryst

>  <RI>
0

>  <Rbt.Current_Directory>
/home/itssahil/PROJECTS/Mol_Feturizer/New_Systems/rnas/1fmn

>  <Rbt.Executable>
rbdock ($Id: //depot/dev/client3/rdock/2013.1/src/exe/rbdock.cxx#4 $)

>  <Rbt.Library>
libRbt.so (2013.1, Build901 2013/11/27)

>  <Rbt.Parameter_File>
/export/apps/rDock/src/rDock_2013.1_src/data/scripts/dock_solv.prm

>  <Rbt.Receptor>
prm/blind_docking_20.prm

>  <SCORE>
-36.1801

>  <SCORE.INTER>
-40.4967

>  <SCORE.INTER.CONST>
1

>  <SCORE.INTER.POLAR>
-2.12675

>  <SCORE.INTER.ROT>
7

>  <SCORE.INTER.SOLV>
24.1302

>  <SCORE.INTER.VDW>
-36.2187

>  <SCORE.INTER.norm>
-1.30635

>  <SCORE.INTRA>
1.72339

>  <SCORE.INTRA.DIHEDRAL>
1.51555

>  <SCORE.INTRA.DIHEDRAL.0>
15.5708

>  <SCORE.INTRA.POLAR>
0.0677885

>  <SCORE.INTRA.POLAR.0>
-0.0677885

>  <SCORE.INTRA.REPUL>
0

>  <SCORE.INTRA.REPUL.0>
0

>  <SCORE.INTRA.SOLV>
-3.52938

>  <SCORE.INTRA.SOLV.lig_0>
-87.6316

>  <SCORE.INTRA.VDW>
2.49982

>  <SCORE.INTRA.VDW.0>
-2.87309

>  <SCORE.INTRA.norm>
0.0555931

>  <SCORE.RESTR>
2.59327

>  <SCORE.RESTR.CAVITY>
2.59327

>  <SCORE.RESTR.norm>
0.0836538

>  <SCORE.SYSTEM>
0

>  <SCORE.SYSTEM.CONST>
0

>  <SCORE.SYSTEM.DIHEDRAL>
0

>  <SCORE.SYSTEM.SOLV>
0

>  <SCORE.SYSTEM.norm>
0

>  <SCORE.heavy>
31

>  <SCORE.norm>
-1.1671

>  <SYMMETRIC_BONDS>
33 34 3

>  <RMSD>
9.435

$$$$
1fmn_cryst
 OpenBabel11021811393D
libRbt.so/2013.1/901 2013/11/27
 31 33  0  0  0  0  0  0  0  0999 V2000
  -10.4827   -4.4357   -2.3569 N   0  0  0  0  0  0  0  0  0  0  0  0
   -9.8493   -4.4506   -3.5776 C   0  0  0  0  0  0  0  0  0  0  0  0
  -10.4199   -4.1067   -4.6133 O   0  0  0  0  0  0  0  0  0  0  0  0
   -8.5018   -4.8908   -3.5681 N   0  0  0  0  0  0  0  0  0  0  0  0
   -7.7590   -5.3108   -2.4429 C   0  0  0  0  0  0  0  0  0  0  0  0
   -6.5827   -5.6706   -2.5773 O   0  0  0  0  0  0  0  0  0  0  0  0
   -8.5039   -5.2667   -1.1826 C   0  0  0  0  0  0  0  0  0  0  0  0
   -7.8520   -5.6594   -0.0403 N   0  0  0  0  0  0  0  0  0  0  0  0
   -8.5957   -5.7900    1.0965 C   0  0  0  0  0  0  0  0  0  0  0  0
   -7.9906   -6.3598    2.2027 C   0  0  0  0  0  0  0  0  0  0  0  0
   -8.6672   -6.5201    3.3637 C   0  0  0  0  0  0  0  0  0  0  0  0
   -7.9657   -7.1387    4.5306 C   0  0  0  0  0  0  0  0  0  0  0  0
   -9.9644   -6.1224    3.4639 C   0  0  0  0  0  0  0  0  0  0  0  0
  -10.7059   -6.3094    4.7473 C   0  0  0  0  0  0  0  0  0  0  0  0
  -10.5989   -5.5576    2.4050 C   0  0  0  0  0  0  0  0  0  0  0  0
   -9.9468   -5.3695    1.1864 C   0  0  0  0  0  0  0  0  0  0  0  0
  -10.5447   -4.7870    0.0492 N   0  0  0  0  0  0  0  0  0  0  0  0
   -9.8758   -4.8158   -1.1917 C   0  0  0  0  0  0  0  0  0  0  0  0
  -11.5561   -3.6876    0.2649 C   0  0  0  0  0  0  0  0  0  0  0  0
  -11.6056   -3.0633    1.6925 C   0  0  1  0  0  0  0  0  0  0  0  0
  -10.2967   -2.7121    2.1186 O   0  0  0  0  0  0  0  0  0  0  0  0
  -12.5927   -1.8772    1.8059 C   0  0  1  0  0  0  0  0  0  0  0  0
  -13.0822   -1.7685    3.1394 O   0  0  0  0  0  0  0  0  0  0  0  0
  -12.0899   -0.4974    1.3148 C   0  0  1  0  0  0  0  0  0  0  0  0
  -12.7876   -0.1643    0.1197 O   0  0  0  0  0  0  0  0  0  0  0  0
  -12.3112    0.6281    2.3501 C   0  0  0  0  0  0  0  0  0  0  0  0
  -13.6875    0.8267    2.6510 O   0  0  0  0  0  0  0  0  0  0  0  0
  -14.2142    2.0821    3.4621 P   0  0  0  0  0  0  0  0  0  0  0  0
  -13.7263    2.0512    4.8596 O   0  0  0  0  0  0  0  0  0  0  0  0
  -14.0352    3.3225    2.6770 O   0  5  0  0  0  0  0  0  0  0  0  0
  -15.7849    1.8391    3.5552 O   0  5  0  0  0  0  0  0  0  0  0  0
  1 18  1  0  0  0  0
  1  2  1  0  0  0  0
  2  4  1  0  0  0  0
  2  3  2  0  0  0  0
  4  5  1  0  0  0  0
  5  7  1  0  0  0  0
  5  6  2  0  0  0  0
  7 18  2  0  0  0  0
  7  8  1  0  0  0  0
  8  9  1  0  0  0  0
  9 10  2  0  0  0  0
  9 16  1  0  0  0  0
 10 11  1  0  0  0  0
 11 12  1  0  0  0  0
 11 13  2  0  0  0  0
 13 14  1  0  0  0  0
 13 15  1  0  0  0  0
 15 16  2  0  0  0  0
 16 17  1  0  0  0  0
 17 19  1  0  0  0  0
 17 18  1  0  0  0  0
 20 19  1  6  0  0  0
 20 22  1  0  0  0  0
 20 21  1  0  0  0  0
 22 24  1  0  0  0  0
 22 23  1  1  0  0  0
 24 26  1  1  0  0  0
 24 25  1  0  0  0  0
 26 27  1  0  0  0  0
 27 28  1  0  0  0  0
 28 30  1  0  0  0  0
 28 29  2  0  0  0  0
 28 31  1  0  0  0  0
M  CHG  2  30  -1  31  -1
M  END
>  <CHROM.1>
13.95389765,49.41098763,152.12431187,-76.49979739,109.87695531,-57.06370244
-61.52498168,-86.04013828,-168.18756626,-66.37105725,-10.95952992,-2.91790876
1.14156973,0.20355461,0.97343456,-1.32381240

>  <Name>
1fmn_cryst

>  <RI>
0

>  <Rbt.Current_Directory>
/home/itssahil/PROJECTS/Mol_Feturizer/New_Systems/rnas/1fmn

>  <Rbt.Executable>
rbdock ($Id: //depot/dev/client3/rdock/2013.1/src/exe/rbdock.cxx#4 $)

>  <Rbt.Library>
libRbt.so (2013.1, Build901 2013/11/27)

>  <Rbt.Parameter_File>
/export/apps/rDock/src/rDock_2013.1_src/data/scripts/dock_solv.prm

>  <Rbt.Receptor>
prm/blind_docking_60.prm

>  <SCORE>
-19.4132

>  <SCORE.INTER>
-24.7364

>  <SCORE.INTER.CONST>
1

>  <SCORE.INTER.POLAR>
-1.66261

>  <SCORE.INTER.ROT>
7

>  <SCORE.INTER.SOLV>
23.1011

>  <SCORE.INTER.VDW>
-26.9159

>  <SCORE.INTER.norm>
-0.797947

>  <SCORE.INTRA>
3.44749

>  <SCORE.INTRA.DIHEDRAL>
-0.467901

>  <SCORE.INTRA.DIHEDRAL.0>
15.5708

>  <SCORE.INTRA.POLAR>
0.0677885

>  <SCORE.INTRA.POLAR.0>
-0.0677885

>  <SCORE.INTRA.REPUL>
0.000136467

>  <SCORE.INTRA.REPUL.0>
0

>  <SCORE.INTRA.SOLV>
-4.13925

>  <SCORE.INTRA.SOLV.lig_0>
-87.6316

>  <SCORE.INTRA.VDW>
5.5199

>  <SCORE.INTRA.VDW.0>
-2.87309

>  <SCORE.INTRA.norm>
0.111209

>  <SCORE.RESTR>
1.87566

>  <SCORE.RESTR.CAVITY>
1.87566

>  <SCORE.RESTR.norm>
0.060505

>  <SCORE.SYSTEM>
0

>  <SCORE.SYSTEM.CONST>
0

>  <SCORE.SYSTEM.DIHEDRAL>
0

>  <SCORE.SYSTEM.SOLV>
0

>  <SCORE.SYSTEM.norm>
0

>  <SCORE.heavy>
31

>  <SCORE.norm>
-0.626233

>  <SYMMETRIC_BONDS>
33 34 3

>  <RMSD>
9.443

$$$$
1fmn_cryst
 OpenBabel11021811393D
libRbt.so/2013.1/901 2013/11/27
 31 33  0  0  0  0  0  0  0  0999 V2000
  -12.3510   -2.7469   -1.1826 N   0  0  0  0  0  0  0  0  0  0  0  0
  -12.1750   -2.5193   -2.5275 C   0  0  0  0  0  0  0  0  0  0  0  0
  -13.0143   -1.9243   -3.2042 O   0  0  0  0  0  0  0  0  0  0  0  0
  -10.9703   -3.0169   -3.0848 N   0  0  0  0  0  0  0  0  0  0  0  0
   -9.9496   -3.7146   -2.4025 C   0  0  0  0  0  0  0  0  0  0  0  0
   -8.9431   -4.0932   -3.0148 O   0  0  0  0  0  0  0  0  0  0  0  0
  -10.2126   -3.9171   -0.9759 C   0  0  0  0  0  0  0  0  0  0  0  0
   -9.2674   -4.5876   -0.2402 N   0  0  0  0  0  0  0  0  0  0  0  0
   -9.5930   -4.9324    1.0395 C   0  0  0  0  0  0  0  0  0  0  0  0
   -8.7260   -5.7649    1.7248 C   0  0  0  0  0  0  0  0  0  0  0  0
   -8.9845   -6.1474    2.9969 C   0  0  0  0  0  0  0  0  0  0  0  0
   -8.0132   -7.0458    3.6940 C   0  0  0  0  0  0  0  0  0  0  0  0
  -10.1106   -5.7182    3.6284 C   0  0  0  0  0  0  0  0  0  0  0  0
  -10.3915   -6.1509    5.0305 C   0  0  0  0  0  0  0  0  0  0  0  0
  -10.9896   -4.8998    2.9958 C   0  0  0  0  0  0  0  0  0  0  0  0
  -10.7700   -4.4761    1.6852 C   0  0  0  0  0  0  0  0  0  0  0  0
  -11.6391   -3.6247    0.9712 N   0  0  0  0  0  0  0  0  0  0  0  0
  -11.4386   -3.4080   -0.4075 C   0  0  0  0  0  0  0  0  0  0  0  0
  -12.3715   -2.5526    1.7410 C   0  0  0  0  0  0  0  0  0  0  0  0
  -12.3217   -1.1143    1.1421 C   0  0  1  0  0  0  0  0  0  0  0  0
  -13.6323   -0.6749    0.8146 O   0  0  0  0  0  0  0  0  0  0  0  0
  -11.5770   -0.1026    2.0454 C   0  0  1  0  0  0  0  0  0  0  0  0
  -10.3311    0.2601    1.4574 O   0  0  0  0  0  0  0  0  0  0  0  0
  -12.3544    1.1707    2.4607 C   0  0  1  0  0  0  0  0  0  0  0  0
  -12.6097    1.9424    1.2923 O   0  0  0  0  0  0  0  0  0  0  0  0
  -13.6996    0.8564    3.1531 C   0  0  0  0  0  0  0  0  0  0  0  0
  -13.9909    1.7621    4.2109 O   0  0  0  0  0  0  0  0  0  0  0  0
  -13.4932    1.5311    5.6975 P   0  0  0  0  0  0  0  0  0  0  0  0
  -13.6256    2.7697    6.4978 O   0  0  0  0  0  0  0  0  0  0  0  0
  -14.0470    0.2731    6.2431 O   0  5  0  0  0  0  0  0  0  0  0  0
  -11.9269    1.2938    5.5384 O   0  5  0  0  0  0  0  0  0  0  0  0
  1 18  1  0  0  0  0
  1  2  1  0  0  0  0
  2  4  1  0  0  0  0
  2  3  2  0  0  0  0
  4  5  1  0  0  0  0
  5  7  1  0  0  0  0
  5  6  2  0  0  0  0
  7 18  2  0  0  0  0
  7  8  1  0  0  0  0
  8  9  1  0  0  0  0
  9 10  2  0  0  0  0
  9 16  1  0  0  0  0
 10 11  1  0  0  0  0
 11 12  1  0  0  0  0
 11 13  2  0  0  0  0
 13 14  1  0  0  0  0
 13 15  1  0  0  0  0
 15 16  2  0  0  0  0
 16 17  1  0  0  0  0
 17 19  1  0  0  0  0
 17 18  1  0  0  0  0
 20 19  1  1  0  0  0
 20 22  1  0  0  0  0
 20 21  1  0  0  0  0
 22 24  1  0  0  0  0
 22 23  1  6  0  0  0
 24 26  1  6  0  0  0
 24 25  1  0  0  0  0
 26 27  1  0  0  0  0
 27 28  1  0  0  0  0
 28 30  1  0  0  0  0
 28 29  2  0  0  0  0
 28 31  1  0  0  0  0
M  CHG  2  30  -1  31  -1
M  END
>  <CHROM.1>
131.40346108,118.15305674,109.29245778,-42.06401897,-65.26976555,61.96117232
142.66943723,56.61724950,-87.79698372,165.17945142,-11.55406260,-1.99863845
1.77871998,0.64033479,1.06880757,-1.58288474

>  <Name>
1fmn_cryst

>  <RI>
0

>  <Rbt.Current_Directory>
/home/itssahil/PROJECTS/Mol_Feturizer/New_Systems/rnas/1fmn

>  <Rbt.Executable>
rbdock ($Id: //depot/dev/client3/rdock/2013.1/src/exe/rbdock.cxx#4 $)

>  <Rbt.Library>
libRbt.so (2013.1, Build901 2013/11/27)

>  <Rbt.Parameter_File>
/export/apps/rDock/src/rDock_2013.1_src/data/scripts/dock_solv.prm

>  <Rbt.Receptor>
prm/blind_docking_20.prm

>  <SCORE>
-25.7273

>  <SCORE.INTER>
-29.701

>  <SCORE.INTER.CONST>
1

>  <SCORE.INTER.POLAR>
-0.756144

>  <SCORE.INTER.ROT>
7

>  <SCORE.INTER.SOLV>
30.467

>  <SCORE.INTER.VDW>
-35.7025

>  <SCORE.INTER.norm>
-0.958096

>  <SCORE.INTRA>
3.14662

>  <SCORE.INTRA.DIHEDRAL>
5.48816

>  <SCORE.INTRA.DIHEDRAL.0>
15.5708

>  <SCORE.INTRA.POLAR>
-0.478586

>  <SCORE.INTRA.POLAR.0>
-0.0677885

>  <SCORE.INTRA.REPUL>
0

>  <SCORE.INTRA.REPUL.0>
0

>  <SCORE.INTRA.SOLV>
-1.74261

>  <SCORE.INTRA.SOLV.lig_0>
-87.6316

>  <SCORE.INTRA.VDW>
2.90104

>  <SCORE.INTRA.VDW.0>
-2.87309

>  <SCORE.INTRA.norm>
0.101504

>  <SCORE.RESTR>
0.827023

>  <SCORE.RESTR.CAVITY>
0.827023

>  <SCORE.RESTR.norm>
0.0266782

>  <SCORE.SYSTEM>
0

>  <SCORE.SYSTEM.CONST>
0

>  <SCORE.SYSTEM.DIHEDRAL>
0

>  <SCORE.SYSTEM.SOLV>
0

>  <SCORE.SYSTEM.norm>
0

>  <SCORE.heavy>
31

>  <SCORE.norm>
-0.829914

>  <SYMMETRIC_BONDS>
33 34 3

>  <RMSD>
9.446

$$$$
1fmn_cryst
 OpenBabel11021811393D
libRbt.so/2013.1/901 2013/11/27
 31 33  0  0  0  0  0  0  0  0999 V2000
  -11.1874   -3.7257   -1.7047 N   0  0  0  0  0  0  0  0  0  0  0  0
  -10.7466   -3.5614   -2.9970 C   0  0  0  0  0  0  0  0  0  0  0  0
  -11.4703   -3.0990   -3.8797 O   0  0  0  0  0  0  0  0  0  0  0  0
   -9.4104   -3.9621   -3.2487 N   0  0  0  0  0  0  0  0  0  0  0  0
   -8.5025   -4.5071   -2.3144 C   0  0  0  0  0  0  0  0  0  0  0  0
   -7.3577   -4.8137   -2.6706 O   0  0  0  0  0  0  0  0  0  0  0  0
   -9.0477   -4.6508   -0.9626 C   0  0  0  0  0  0  0  0  0  0  0  0
   -8.2271   -5.1735    0.0057 N   0  0  0  0  0  0  0  0  0  0  0  0
   -8.7887   -5.4739    1.2127 C   0  0  0  0  0  0  0  0  0  0  0  0
   -8.0188   -6.1686    2.1287 C   0  0  0  0  0  0  0  0  0  0  0  0
   -8.5101   -6.4997    3.3453 C   0  0  0  0  0  0  0  0  0  0  0  0
   -7.6354   -7.2482    4.2998 C   0  0  0  0  0  0  0  0  0  0  0  0
   -9.7798   -6.1543    3.6912 C   0  0  0  0  0  0  0  0  0  0  0  0
  -10.3165   -6.5299    5.0340 C   0  0  0  0  0  0  0  0  0  0  0  0
  -10.5716   -5.4716    2.8252 C   0  0  0  0  0  0  0  0  0  0  0  0
  -10.1134   -5.1060    1.5596 C   0  0  0  0  0  0  0  0  0  0  0  0
  -10.8809   -4.3944    0.6138 N   0  0  0  0  0  0  0  0  0  0  0  0
  -10.4081   -4.2402   -0.7055 C   0  0  0  0  0  0  0  0  0  0  0  0
  -11.8554   -3.3612    1.1250 C   0  0  0  0  0  0  0  0  0  0  0  0
  -11.9388   -2.0299    0.3182 C   0  0  1  0  0  0  0  0  0  0  0  0
  -12.9125   -2.1411   -0.7102 O   0  0  0  0  0  0  0  0  0  0  0  0
  -12.1747   -0.7888    1.2116 C   0  0  1  0  0  0  0  0  0  0  0  0
  -11.0338   -0.5456    2.0295 O   0  0  0  0  0  0  0  0  0  0  0  0
  -12.5998    0.5180    0.4979 C   0  0  1  0  0  0  0  0  0  0  0  0
  -14.0214    0.5551    0.4377 O   0  0  0  0  0  0  0  0  0  0  0  0
  -12.0992    1.7892    1.2197 C   0  0  0  0  0  0  0  0  0  0  0  0
  -13.1012    2.3786    2.0399 O   0  0  0  0  0  0  0  0  0  0  0  0
  -13.6465    1.6860    3.3568 P   0  0  0  0  0  0  0  0  0  0  0  0
  -15.0230    1.1790    3.1563 O   0  0  0  0  0  0  0  0  0  0  0  0
  -12.6312    0.7726    3.9242 O   0  5  0  0  0  0  0  0  0  0  0  0
  -13.7839    2.8914    4.3878 O   0  5  0  0  0  0  0  0  0  0  0  0
  1 18  1  0  0  0  0
  1  2  1  0  0  0  0
  2  4  1  0  0  0  0
  2  3  2  0  0  0  0
  4  5  1  0  0  0  0
  5  7  1  0  0  0  0
  5  6  2  0  0  0  0
  7 18  2  0  0  0  0
  7  8  1  0  0  0  0
  8  9  1  0  0  0  0
  9 10  2  0  0  0  0
  9 16  1  0  0  0  0
 10 11  1  0  0  0  0
 11 12  1  0  0  0  0
 11 13  2  0  0  0  0
 13 14  1  0  0  0  0
 13 15  1  0  0  0  0
 15 16  2  0  0  0  0
 16 17  1  0  0  0  0
 17 19  1  0  0  0  0
 17 18  1  0  0  0  0
 20 19  1  1  0  0  0
 20 22  1  0  0  0  0
 20 21  1  0  0  0  0
 22 24  1  0  0  0  0
 22 23  1  6  0  0  0
 24 26  1  1  0  0  0
 24 25  1  0  0  0  0
 26 27  1  0  0  0  0
 27 28  1  0  0  0  0
 28 30  1  0  0  0  0
 28 29  2  0  0  0  0
 28 31  1  0  0  0  0
M  CHG  2  30  -1  31  -1
M  END
>  <CHROM.1>
139.14845342,89.37856666,67.43760775,179.86555894,90.39435493,-160.57142894
-98.66843074,-60.37396014,68.16332271,-107.92368298,-11.09931467,-2.50322083
1.04395105,0.15618893,1.00849815,-1.45406322

>  <Name>
1fmn_cryst

>  <RI>
0

>  <Rbt.Current_Directory>
/home/itssahil/PROJECTS/Mol_Feturizer/New_Systems/rnas/1fmn

>  <Rbt.Executable>
rbdock ($Id: //depot/dev/client3/rdock/2013.1/src/exe/rbdock.cxx#4 $)

>  <Rbt.Library>
libRbt.so (2013.1, Build901 2013/11/27)

>  <Rbt.Parameter_File>
/export/apps/rDock/src/rDock_2013.1_src/data/scripts/dock_solv.prm

>  <Rbt.Receptor>
prm/blind_docking_40.prm

>  <SCORE>
-33.4658

>  <SCORE.INTER>
-32.4738

>  <SCORE.INTER.CONST>
1

>  <SCORE.INTER.POLAR>
-0.908104

>  <SCORE.INTER.ROT>
7

>  <SCORE.INTER.SOLV>
23.3231

>  <SCORE.INTER.VDW>
-34.6632

>  <SCORE.INTER.norm>
-1.04754

>  <SCORE.INTRA>
-1.55446

>  <SCORE.INTRA.DIHEDRAL>
-0.102982

>  <SCORE.INTRA.DIHEDRAL.0>
15.5708

>  <SCORE.INTRA.POLAR>
-1.85059

>  <SCORE.INTRA.POLAR.0>
-0.0677885

>  <SCORE.INTRA.REPUL>
0

>  <SCORE.INTRA.REPUL.0>
0

>  <SCORE.INTRA.SOLV>
3.97187

>  <SCORE.INTRA.SOLV.lig_0>
-87.6316

>  <SCORE.INTRA.VDW>
2.80311

>  <SCORE.INTRA.VDW.0>
-2.87309

>  <SCORE.INTRA.norm>
-0.0501438

>  <SCORE.RESTR>
0.562431

>  <SCORE.RESTR.CAVITY>
0.562431

>  <SCORE.RESTR.norm>
0.0181429

>  <SCORE.SYSTEM>
0

>  <SCORE.SYSTEM.CONST>
0

>  <SCORE.SYSTEM.DIHEDRAL>
0

>  <SCORE.SYSTEM.SOLV>
0

>  <SCORE.SYSTEM.norm>
0

>  <SCORE.heavy>
31

>  <SCORE.norm>
-1.07954

>  <SYMMETRIC_BONDS>
33 34 3

>  <RMSD>
9.450

$$$$
1fmn_cryst
 OpenBabel11021811393D
libRbt.so/2013.1/901 2013/11/27
 31 33  0  0  0  0  0  0  0  0999 V2000
  -10.6696   -4.0395   -3.0066 N   0  0  0  0  0  0  0  0  0  0  0  0
   -9.9501   -4.1842   -4.1698 C   0  0  0  0  0  0  0  0  0  0  0  0
  -10.4171   -3.8807   -5.2681 O   0  0  0  0  0  0  0  0  0  0  0  0
   -8.6412   -4.7085   -4.0243 N   0  0  0  0  0  0  0  0  0  0  0  0
   -8.0149   -5.0922   -2.8182 C   0  0  0  0  0  0  0  0  0  0  0  0
   -6.8598   -5.5360   -2.8347 O   0  0  0  0  0  0  0  0  0  0  0  0
   -8.8462   -4.9084   -1.6264 C   0  0  0  0  0  0  0  0  0  0  0  0
   -8.3097   -5.2580   -0.4122 N   0  0  0  0  0  0  0  0  0  0  0  0
   -9.1429   -5.2571    0.6686 C   0  0  0  0  0  0  0  0  0  0  0  0
   -8.6627   -5.7825    1.8551 C   0  0  0  0  0  0  0  0  0  0  0  0
   -9.4329   -5.8137    2.9673 C   0  0  0  0  0  0  0  0  0  0  0  0
   -8.8648   -6.3895    4.2252 C   0  0  0  0  0  0  0  0  0  0  0  0
  -10.7031   -5.3269    2.9378 C   0  0  0  0  0  0  0  0  0  0  0  0
  -11.5488   -5.3717    4.1686 C   0  0  0  0  0  0  0  0  0  0  0  0
  -11.2164   -4.8012    1.7963 C   0  0  0  0  0  0  0  0  0  0  0  0
  -10.4643   -4.7449    0.6230 C   0  0  0  0  0  0  0  0  0  0  0  0
  -10.9341   -4.2096   -0.5947 N   0  0  0  0  0  0  0  0  0  0  0  0
  -10.1788   -4.3719   -1.7741 C   0  0  0  0  0  0  0  0  0  0  0  0
  -11.8794   -3.0344   -0.5343 C   0  0  0  0  0  0  0  0  0  0  0  0
  -12.1675   -2.4501    0.8819 C   0  0  1  0  0  0  0  0  0  0  0  0
  -10.9479   -2.2121    1.5703 O   0  0  0  0  0  0  0  0  0  0  0  0
  -13.0736   -1.1963    0.8520 C   0  0  1  0  0  0  0  0  0  0  0  0
  -14.2623   -1.4641    0.1139 O   0  0  0  0  0  0  0  0  0  0  0  0
  -13.4327   -0.5583    2.2165 C   0  0  1  0  0  0  0  0  0  0  0  0
  -12.2614   -0.5373    3.0249 O   0  0  0  0  0  0  0  0  0  0  0  0
  -13.9717    0.8838    2.0843 C   0  0  0  0  0  0  0  0  0  0  0  0
  -12.9603    1.8629    2.2898 O   0  0  0  0  0  0  0  0  0  0  0  0
  -12.1044    2.4722    1.1035 P   0  0  0  0  0  0  0  0  0  0  0  0
  -12.9828    3.0020    0.0358 O   0  0  0  0  0  0  0  0  0  0  0  0
  -11.0274    3.3387    1.6291 O   0  5  0  0  0  0  0  0  0  0  0  0
  -11.3824    1.2032    0.4687 O   0  5  0  0  0  0  0  0  0  0  0  0
  1 18  1  0  0  0  0
  1  2  1  0  0  0  0
  2  4  1  0  0  0  0
  2  3  2  0  0  0  0
  4  5  1  0  0  0  0
  5  7  1  0  0  0  0
  5  6  2  0  0  0  0
  7 18  2  0  0  0  0
  7  8  1  0  0  0  0
  8  9  1  0  0  0  0
  9 10  2  0  0  0  0
  9 16  1  0  0  0  0
 10 11  1  0  0  0  0
 11 12  1  0  0  0  0
 11 13  2  0  0  0  0
 13 14  1  0  0  0  0
 13 15  1  0  0  0  0
 15 16  2  0  0  0  0
 16 17  1  0  0  0  0
 17 19  1  0  0  0  0
 17 18  1  0  0  0  0
 20 19  1  6  0  0  0
 20 22  1  0  0  0  0
 20 21  1  0  0  0  0
 22 24  1  0  0  0  0
 22 23  1  1  0  0  0
 24 26  1  6  0  0  0
 24 25  1  0  0  0  0
 26 27  1  0  0  0  0
 27 28  1  0  0  0  0
 28 30  1  0  0  0  0
 28 29  2  0  0  0  0
 28 31  1  0  0  0  0
M  CHG  2  30  -1  31  -1
M  END
>  <CHROM.1>
4.42330801,50.00119447,52.60497669,-178.15853919,42.49782794,-176.70958833
-96.54749432,-139.35830718,92.06854285,53.03151114,-10.92126126,-2.49795318
0.31730035,-0.06137560,1.11070139,-1.12066644

>  <Name>
1fmn_cryst

>  <RI>
0

>  <Rbt.Current_Directory>
/home/itssahil/PROJECTS/Mol_Feturizer/New_Systems/rnas/1fmn

>  <Rbt.Executable>
rbdock ($Id: //depot/dev/client3/rdock/2013.1/src/exe/rbdock.cxx#4 $)

>  <Rbt.Library>
libRbt.so (2013.1, Build901 2013/11/27)

>  <Rbt.Parameter_File>
/export/apps/rDock/src/rDock_2013.1_src/data/scripts/dock_solv.prm

>  <Rbt.Receptor>
prm/blind_docking_60.prm

>  <SCORE>
-35.285

>  <SCORE.INTER>
-39.646

>  <SCORE.INTER.CONST>
1

>  <SCORE.INTER.POLAR>
-1.98513

>  <SCORE.INTER.ROT>
7

>  <SCORE.INTER.SOLV>
28.212

>  <SCORE.INTER.VDW>
-37.4842

>  <SCORE.INTER.norm>
-1.2789

>  <SCORE.INTRA>
3.36686

>  <SCORE.INTRA.DIHEDRAL>
1.80512

>  <SCORE.INTRA.DIHEDRAL.0>
15.5708

>  <SCORE.INTRA.POLAR>
-0.542602

>  <SCORE.INTRA.POLAR.0>
-0.0677885

>  <SCORE.INTRA.REPUL>
0

>  <SCORE.INTRA.REPUL.0>
0

>  <SCORE.INTRA.SOLV>
1.58353

>  <SCORE.INTRA.SOLV.lig_0>
-87.6316

>  <SCORE.INTRA.VDW>
3.51738

>  <SCORE.INTRA.VDW.0>
-2.87309

>  <SCORE.INTRA.norm>
0.108608

>  <SCORE.RESTR>
0.994093

>  <SCORE.RESTR.CAVITY>
0.994093

>  <SCORE.RESTR.norm>
0.0320675

>  <SCORE.SYSTEM>
0

>  <SCORE.SYSTEM.CONST>
0

>  <SCORE.SYSTEM.DIHEDRAL>
0

>  <SCORE.SYSTEM.SOLV>
0

>  <SCORE.SYSTEM.norm>
0

>  <SCORE.heavy>
31

>  <SCORE.norm>
-1.13823

>  <SYMMETRIC_BONDS>
33 34 3

>  <RMSD>
9.457

$$$$
1fmn_cryst
 OpenBabel11021811393D
libRbt.so/2013.1/901 2013/11/27
 31 33  0  0  0  0  0  0  0  0999 V2000
  -11.2998   -3.6103   -1.5549 N   0  0  0  0  0  0  0  0  0  0  0  0
  -10.8881   -3.4037   -2.8508 C   0  0  0  0  0  0  0  0  0  0  0  0
  -11.6335   -2.9195   -3.7031 O   0  0  0  0  0  0  0  0  0  0  0  0
   -9.5552   -3.7877   -3.1432 N   0  0  0  0  0  0  0  0  0  0  0  0
   -8.6241   -4.3548   -2.2458 C   0  0  0  0  0  0  0  0  0  0  0  0
   -7.4855   -4.6428   -2.6356 O   0  0  0  0  0  0  0  0  0  0  0  0
   -9.1390   -4.5432   -0.8876 C   0  0  0  0  0  0  0  0  0  0  0  0
   -8.2945   -5.0897    0.0465 N   0  0  0  0  0  0  0  0  0  0  0  0
   -8.8281   -5.4304    1.2555 C   0  0  0  0  0  0  0  0  0  0  0  0
   -8.0343   -6.1475    2.1330 C   0  0  0  0  0  0  0  0  0  0  0  0
   -8.4971   -6.5188    3.3493 C   0  0  0  0  0  0  0  0  0  0  0  0
   -7.5975   -7.2902    4.2614 C   0  0  0  0  0  0  0  0  0  0  0  0
   -9.7611   -6.1925    3.7327 C   0  0  0  0  0  0  0  0  0  0  0  0
  -10.2663   -6.6124    5.0746 C   0  0  0  0  0  0  0  0  0  0  0  0
  -10.5756   -5.4892    2.9052 C   0  0  0  0  0  0  0  0  0  0  0  0
  -10.1471   -5.0821    1.6418 C   0  0  0  0  0  0  0  0  0  0  0  0
  -10.9392   -4.3472    0.7350 N   0  0  0  0  0  0  0  0  0  0  0  0
  -10.4959   -4.1497   -0.5889 C   0  0  0  0  0  0  0  0  0  0  0  0
  -11.9086   -3.3365    1.2983 C   0  0  0  0  0  0  0  0  0  0  0  0
  -11.9271   -1.9376    0.6106 C   0  0  1  0  0  0  0  0  0  0  0  0
  -13.0645   -1.8218   -0.2325 O   0  0  0  0  0  0  0  0  0  0  0  0
  -11.8235   -0.7635    1.6130 C   0  0  1  0  0  0  0  0  0  0  0  0
  -11.6848    0.4705    0.9149 O   0  0  0  0  0  0  0  0  0  0  0  0
  -12.9459   -0.6461    2.6734 C   0  0  1  0  0  0  0  0  0  0  0  0
  -13.2804   -1.9554    3.1204 O   0  0  0  0  0  0  0  0  0  0  0  0
  -12.5343    0.2064    3.8946 C   0  0  0  0  0  0  0  0  0  0  0  0
  -12.4395    1.5914    3.5834 O   0  0  0  0  0  0  0  0  0  0  0  0
  -13.7107    2.5286    3.4519 P   0  0  0  0  0  0  0  0  0  0  0  0
  -13.5247    3.5231    2.3710 O   0  0  0  0  0  0  0  0  0  0  0  0
  -14.9534    1.7271    3.4704 O   0  5  0  0  0  0  0  0  0  0  0  0
  -13.7033    3.3664    4.8057 O   0  5  0  0  0  0  0  0  0  0  0  0
  1 18  1  0  0  0  0
  1  2  1  0  0  0  0
  2  4  1  0  0  0  0
  2  3  2  0  0  0  0
  4  5  1  0  0  0  0
  5  7  1  0  0  0  0
  5  6  2  0  0  0  0
  7 18  2  0  0  0  0
  7  8  1  0  0  0  0
  8  9  1  0  0  0  0
  9 10  2  0  0  0  0
  9 16  1  0  0  0  0
 10 11  1  0  0  0  0
 11 12  1  0  0  0  0
 11 13  2  0  0  0  0
 13 14  1  0  0  0  0
 13 15  1  0  0  0  0
 15 16  2  0  0  0  0
 16 17  1  0  0  0  0
 17 19  1  0  0  0  0
 17 18  1  0  0  0  0
 20 19  1  1  0  0  0
 20 22  1  0  0  0  0
 20 21  1  0  0  0  0
 22 24  1  0  0  0  0
 22 23  1  6  0  0  0
 24 26  1  1  0  0  0
 24 25  1  0  0  0  0
 26 27  1  0  0  0  0
 27 28  1  0  0  0  0
 28 30  1  0  0  0  0
 28 29  2  0  0  0  0
 28 31  1  0  0  0  0
M  CHG  2  30  -1  31  -1
M  END
>  <CHROM.1>
133.97443777,103.35928940,173.06139616,178.65850595,39.47257440,-45.51616210
71.27189874,-163.41975022,78.17784349,-143.16707324,-11.15556216,-2.42674143
1.35899488,0.17887384,1.04239808,-1.40560739

>  <Name>
1fmn_cryst

>  <RI>
0

>  <Rbt.Current_Directory>
/home/itssahil/PROJECTS/Mol_Feturizer/New_Systems/rnas/1fmn

>  <Rbt.Executable>
rbdock ($Id: //depot/dev/client3/rdock/2013.1/src/exe/rbdock.cxx#4 $)

>  <Rbt.Library>
libRbt.so (2013.1, Build901 2013/11/27)

>  <Rbt.Parameter_File>
/export/apps/rDock/src/rDock_2013.1_src/data/scripts/dock_solv.prm

>  <Rbt.Receptor>
prm/blind_docking_80.prm

>  <SCORE>
-31.9979

>  <SCORE.INTER>
-34.0459

>  <SCORE.INTER.CONST>
1

>  <SCORE.INTER.POLAR>
-1.11016

>  <SCORE.INTER.ROT>
7

>  <SCORE.INTER.SOLV>
24.9511

>  <SCORE.INTER.VDW>
-35.5804

>  <SCORE.INTER.norm>
-1.09825

>  <SCORE.INTRA>
0.109457

>  <SCORE.INTRA.DIHEDRAL>
-0.933815

>  <SCORE.INTRA.DIHEDRAL.0>
15.5708

>  <SCORE.INTRA.POLAR>
-0.342256

>  <SCORE.INTRA.POLAR.0>
-0.0677885

>  <SCORE.INTRA.REPUL>
0

>  <SCORE.INTRA.REPUL.0>
0

>  <SCORE.INTRA.SOLV>
-0.930583

>  <SCORE.INTRA.SOLV.lig_0>
-87.6316

>  <SCORE.INTRA.VDW>
2.20533

>  <SCORE.INTRA.VDW.0>
-2.87309

>  <SCORE.INTRA.norm>
0.00353088

>  <SCORE.RESTR>
1.93854

>  <SCORE.RESTR.CAVITY>
1.93854

>  <SCORE.RESTR.norm>
0.0625335

>  <SCORE.SYSTEM>
0

>  <SCORE.SYSTEM.CONST>
0

>  <SCORE.SYSTEM.DIHEDRAL>
0

>  <SCORE.SYSTEM.SOLV>
0

>  <SCORE.SYSTEM.norm>
0

>  <SCORE.heavy>
31

>  <SCORE.norm>
-1.03219

>  <SYMMETRIC_BONDS>
33 34 3

>  <RMSD>
9.461

$$$$
1fmn_cryst
 OpenBabel11021811393D
libRbt.so/2013.1/901 2013/11/27
 31 33  0  0  0  0  0  0  0  0999 V2000
  -10.7372   -4.4686   -2.0058 N   0  0  0  0  0  0  0  0  0  0  0  0
  -10.1835   -4.3547   -3.2596 C   0  0  0  0  0  0  0  0  0  0  0  0
  -10.8569   -4.0528   -4.2455 O   0  0  0  0  0  0  0  0  0  0  0  0
   -8.7920   -4.6112   -3.3450 N   0  0  0  0  0  0  0  0  0  0  0  0
   -7.9329   -4.9688   -2.2828 C   0  0  0  0  0  0  0  0  0  0  0  0
   -6.7300   -5.1633   -2.4987 O   0  0  0  0  0  0  0  0  0  0  0  0
   -8.5983   -5.0700   -0.9820 C   0  0  0  0  0  0  0  0  0  0  0  0
   -7.8315   -5.4133    0.1036 N   0  0  0  0  0  0  0  0  0  0  0  0
   -8.4805   -5.6829    1.2735 C   0  0  0  0  0  0  0  0  0  0  0  0
   -7.7391   -6.2066    2.3178 C   0  0  0  0  0  0  0  0  0  0  0  0
   -8.3162   -6.4975    3.5068 C   0  0  0  0  0  0  0  0  0  0  0  0
   -7.4694   -7.0588    4.6042 C   0  0  0  0  0  0  0  0  0  0  0  0
   -9.6458   -6.2803    3.6970 C   0  0  0  0  0  0  0  0  0  0  0  0
  -10.2761   -6.6108    5.0106 C   0  0  0  0  0  0  0  0  0  0  0  0
  -10.4127   -5.7673    2.7012 C   0  0  0  0  0  0  0  0  0  0  0  0
   -9.8669   -5.4500    1.4574 C   0  0  0  0  0  0  0  0  0  0  0  0
  -10.6047   -4.9117    0.3822 N   0  0  0  0  0  0  0  0  0  0  0  0
  -10.0153   -4.8062   -0.8943 C   0  0  0  0  0  0  0  0  0  0  0  0
  -11.7363   -3.9656    0.7025 C   0  0  0  0  0  0  0  0  0  0  0  0
  -11.7972   -2.6515   -0.1339 C   0  0  1  0  0  0  0  0  0  0  0  0
  -12.5104   -2.8732   -1.3423 O   0  0  0  0  0  0  0  0  0  0  0  0
  -12.3577   -1.4479    0.6606 C   0  0  1  0  0  0  0  0  0  0  0  0
  -11.3779   -0.9587    1.5717 O   0  0  0  0  0  0  0  0  0  0  0  0
  -12.9430   -0.2751   -0.1639 C   0  0  1  0  0  0  0  0  0  0  0  0
  -14.0010   -0.7782   -0.9723 O   0  0  0  0  0  0  0  0  0  0  0  0
  -13.4921    0.8676    0.7194 C   0  0  0  0  0  0  0  0  0  0  0  0
  -12.4811    1.4707    1.5183 O   0  0  0  0  0  0  0  0  0  0  0  0
  -12.7578    2.7247    2.4469 P   0  0  0  0  0  0  0  0  0  0  0  0
  -13.2472    3.8736    1.6516 O   0  0  0  0  0  0  0  0  0  0  0  0
  -13.5154    2.3239    3.6521 O   0  5  0  0  0  0  0  0  0  0  0  0
  -11.3085    3.1457    2.9540 O   0  5  0  0  0  0  0  0  0  0  0  0
  1 18  1  0  0  0  0
  1  2  1  0  0  0  0
  2  4  1  0  0  0  0
  2  3  2  0  0  0  0
  4  5  1  0  0  0  0
  5  7  1  0  0  0  0
  5  6  2  0  0  0  0
  7 18  2  0  0  0  0
  7  8  1  0  0  0  0
  8  9  1  0  0  0  0
  9 10  2  0  0  0  0
  9 16  1  0  0  0  0
 10 11  1  0  0  0  0
 11 12  1  0  0  0  0
 11 13  2  0  0  0  0
 13 14  1  0  0  0  0
 13 15  1  0  0  0  0
 15 16  2  0  0  0  0
 16 17  1  0  0  0  0
 17 19  1  0  0  0  0
 17 18  1  0  0  0  0
 20 19  1  1  0  0  0
 20 22  1  0  0  0  0
 20 21  1  0  0  0  0
 22 24  1  0  0  0  0
 22 23  1  6  0  0  0
 24 26  1  1  0  0  0
 24 25  1  0  0  0  0
 26 27  1  0  0  0  0
 27 28  1  0  0  0  0
 28 30  1  0  0  0  0
 28 29  2  0  0  0  0
 28 31  1  0  0  0  0
M  CHG  2  30  -1  31  -1
M  END
>  <CHROM.1>
133.30046592,86.26395412,75.41140737,178.62440430,58.65182620,-70.69023342
62.30399763,62.53258920,176.09205679,-59.36306553,-10.75160994,-2.70497176
0.66375077,0.22404147,1.06896334,-1.65181831

>  <Name>
1fmn_cryst

>  <RI>
0

>  <Rbt.Current_Directory>
/home/itssahil/PROJECTS/Mol_Feturizer/New_Systems/rnas/1fmn

>  <Rbt.Executable>
rbdock ($Id: //depot/dev/client3/rdock/2013.1/src/exe/rbdock.cxx#4 $)

>  <Rbt.Library>
libRbt.so (2013.1, Build901 2013/11/27)

>  <Rbt.Parameter_File>
/export/apps/rDock/src/rDock_2013.1_src/data/scripts/dock_solv.prm

>  <Rbt.Receptor>
prm/blind_docking_60.prm

>  <SCORE>
-39.0546

>  <SCORE.INTER>
-34.8306

>  <SCORE.INTER.CONST>
1

>  <SCORE.INTER.POLAR>
-1.67387

>  <SCORE.INTER.ROT>
7

>  <SCORE.INTER.SOLV>
29.4118

>  <SCORE.INTER.VDW>
-35.7114

>  <SCORE.INTER.norm>
-1.12357

>  <SCORE.INTRA>
-6.00069

>  <SCORE.INTRA.DIHEDRAL>
-9.23449

>  <SCORE.INTRA.DIHEDRAL.0>
15.5708

>  <SCORE.INTRA.POLAR>
-0.627546

>  <SCORE.INTRA.POLAR.0>
-0.0677885

>  <SCORE.INTRA.REPUL>
0

>  <SCORE.INTRA.REPUL.0>
0

>  <SCORE.INTRA.SOLV>
-3.25488

>  <SCORE.INTRA.SOLV.lig_0>
-87.6316

>  <SCORE.INTRA.VDW>
2.37765

>  <SCORE.INTRA.VDW.0>
-2.87309

>  <SCORE.INTRA.norm>
-0.193571

>  <SCORE.RESTR>
1.77668

>  <SCORE.RESTR.CAVITY>
1.77668

>  <SCORE.RESTR.norm>
0.0573124

>  <SCORE.SYSTEM>
0

>  <SCORE.SYSTEM.CONST>
0

>  <SCORE.SYSTEM.DIHEDRAL>
0

>  <SCORE.SYSTEM.SOLV>
0

>  <SCORE.SYSTEM.norm>
0

>  <SCORE.heavy>
31

>  <SCORE.norm>
-1.25983

>  <SYMMETRIC_BONDS>
33 34 3

>  <RMSD>
9.463

$$$$
1fmn_cryst
 OpenBabel11021811393D
libRbt.so/2013.1/901 2013/11/27
 31 33  0  0  0  0  0  0  0  0999 V2000
  -10.3962   -4.2138   -2.9609 N   0  0  0  0  0  0  0  0  0  0  0  0
   -9.5433   -4.4397   -4.0159 C   0  0  0  0  0  0  0  0  0  0  0  0
   -9.8715   -4.2124   -5.1808 O   0  0  0  0  0  0  0  0  0  0  0  0
   -8.2666   -4.9547   -3.6776 N   0  0  0  0  0  0  0  0  0  0  0  0
   -7.7941   -5.2549   -2.3811 C   0  0  0  0  0  0  0  0  0  0  0  0
   -6.6499   -5.7004   -2.2275 O   0  0  0  0  0  0  0  0  0  0  0  0
   -8.7611   -4.9877   -1.3140 C   0  0  0  0  0  0  0  0  0  0  0  0
   -8.3782   -5.2531   -0.0228 N   0  0  0  0  0  0  0  0  0  0  0  0
   -9.3356   -5.1760    0.9468 C   0  0  0  0  0  0  0  0  0  0  0  0
   -9.0070   -5.6187    2.2158 C   0  0  0  0  0  0  0  0  0  0  0  0
   -9.9059   -5.5716    3.2263 C   0  0  0  0  0  0  0  0  0  0  0  0
   -9.4992   -6.0597    4.5801 C   0  0  0  0  0  0  0  0  0  0  0  0
  -11.1584   -5.0861    3.0101 C   0  0  0  0  0  0  0  0  0  0  0  0
  -12.1467   -5.0442    4.1297 C   0  0  0  0  0  0  0  0  0  0  0  0
  -11.5252   -4.6400    1.7816 C   0  0  0  0  0  0  0  0  0  0  0  0
  -10.6367   -4.6662    0.7067 C   0  0  0  0  0  0  0  0  0  0  0  0
  -10.9510   -4.2159   -0.5926 N   0  0  0  0  0  0  0  0  0  0  0  0
  -10.0607   -4.4607   -1.6582 C   0  0  0  0  0  0  0  0  0  0  0  0
  -11.8851   -3.0380   -0.7278 C   0  0  0  0  0  0  0  0  0  0  0  0
  -12.1840   -2.2387    0.5768 C   0  0  1  0  0  0  0  0  0  0  0  0
  -11.0307   -2.2056    1.4055 O   0  0  0  0  0  0  0  0  0  0  0  0
  -12.7496   -0.8235    0.3093 C   0  0  1  0  0  0  0  0  0  0  0  0
  -14.1101   -0.9061   -0.1054 O   0  0  0  0  0  0  0  0  0  0  0  0
  -12.6081    0.2148    1.4494 C   0  0  1  0  0  0  0  0  0  0  0  0
  -13.2749    1.4089    1.0549 O   0  0  0  0  0  0  0  0  0  0  0  0
  -13.2100   -0.2725    2.7865 C   0  0  0  0  0  0  0  0  0  0  0  0
  -12.8157    0.5379    3.8873 O   0  0  0  0  0  0  0  0  0  0  0  0
  -13.4489    1.9624    4.1722 P   0  0  0  0  0  0  0  0  0  0  0  0
  -14.8323    2.0400    3.6503 O   0  0  0  0  0  0  0  0  0  0  0  0
  -13.1951    2.3757    5.5693 O   0  5  0  0  0  0  0  0  0  0  0  0
  -12.5939    2.9452    3.2568 O   0  5  0  0  0  0  0  0  0  0  0  0
  1 18  1  0  0  0  0
  1  2  1  0  0  0  0
  2  4  1  0  0  0  0
  2  3  2  0  0  0  0
  4  5  1  0  0  0  0
  5  7  1  0  0  0  0
  5  6  2  0  0  0  0
  7 18  2  0  0  0  0
  7  8  1  0  0  0  0
  8  9  1  0  0  0  0
  9 10  2  0  0  0  0
  9 16  1  0  0  0  0
 10 11  1  0  0  0  0
 11 12  1  0  0  0  0
 11 13  2  0  0  0  0
 13 14  1  0  0  0  0
 13 15  1  0  0  0  0
 15 16  2  0  0  0  0
 16 17  1  0  0  0  0
 17 19  1  0  0  0  0
 17 18  1  0  0  0  0
 20 19  1  6  0  0  0
 20 22  1  0  0  0  0
 20 21  1  0  0  0  0
 22 24  1  0  0  0  0
 22 23  1  1  0  0  0
 24 26  1  1  0  0  0
 24 25  1  0  0  0  0
 26 27  1  0  0  0  0
 27 28  1  0  0  0  0
 28 30  1  0  0  0  0
 28 29  2  0  0  0  0
 28 31  1  0  0  0  0
M  CHG  2  30  -1  31  -1
M  END
>  <CHROM.1>
12.36992516,34.96853360,74.74562547,-165.48886285,-175.51561686,61.06083648
166.64442100,-60.37469558,76.71218428,27.86425059,-11.19529550,-2.48926464
0.93960587,0.38919509,1.04198898,-1.33055349

>  <Name>
1fmn_cryst

>  <RI>
0

>  <Rbt.Current_Directory>
/home/itssahil/PROJECTS/Mol_Feturizer/New_Systems/rnas/1fmn

>  <Rbt.Executable>
rbdock ($Id: //depot/dev/client3/rdock/2013.1/src/exe/rbdock.cxx#4 $)

>  <Rbt.Library>
libRbt.so (2013.1, Build901 2013/11/27)

>  <Rbt.Parameter_File>
/export/apps/rDock/src/rDock_2013.1_src/data/scripts/dock_solv.prm

>  <Rbt.Receptor>
prm/blind_docking_20.prm

>  <SCORE>
-34.3545

>  <SCORE.INTER>
-37.9699

>  <SCORE.INTER.CONST>
1

>  <SCORE.INTER.POLAR>
-0.991801

>  <SCORE.INTER.ROT>
7

>  <SCORE.INTER.SOLV>
23.6222

>  <SCORE.INTER.VDW>
-38.148

>  <SCORE.INTER.norm>
-1.22484

>  <SCORE.INTRA>
1.61678

>  <SCORE.INTRA.DIHEDRAL>
-6.34485

>  <SCORE.INTRA.DIHEDRAL.0>
15.5708

>  <SCORE.INTRA.POLAR>
0.0677885

>  <SCORE.INTRA.POLAR.0>
-0.0677885

>  <SCORE.INTRA.REPUL>
0

>  <SCORE.INTRA.REPUL.0>
0

>  <SCORE.INTRA.SOLV>
0.248333

>  <SCORE.INTRA.SOLV.lig_0>
-87.6316

>  <SCORE.INTRA.VDW>
4.43456

>  <SCORE.INTRA.VDW.0>
-2.87309

>  <SCORE.INTRA.norm>
0.0521542

>  <SCORE.RESTR>
1.99865

>  <SCORE.RESTR.CAVITY>
1.99865

>  <SCORE.RESTR.norm>
0.0644727

>  <SCORE.SYSTEM>
0

>  <SCORE.SYSTEM.CONST>
0

>  <SCORE.SYSTEM.DIHEDRAL>
0

>  <SCORE.SYSTEM.SOLV>
0

>  <SCORE.SYSTEM.norm>
0

>  <SCORE.heavy>
31

>  <SCORE.norm>
-1.10821

>  <SYMMETRIC_BONDS>
33 34 3

>  <RMSD>
9.468

$$$$
1fmn_cryst
 OpenBabel11021811393D
libRbt.so/2013.1/901 2013/11/27
 31 33  0  0  0  0  0  0  0  0999 V2000
  -11.6529   -3.5569   -1.2232 N   0  0  0  0  0  0  0  0  0  0  0  0
  -11.3799   -3.2641   -2.5389 C   0  0  0  0  0  0  0  0  0  0  0  0
  -12.2306   -2.7891   -3.2920 O   0  0  0  0  0  0  0  0  0  0  0  0
  -10.0607   -3.5481   -2.9732 N   0  0  0  0  0  0  0  0  0  0  0  0
   -9.0161   -4.0961   -2.1968 C   0  0  0  0  0  0  0  0  0  0  0  0
   -7.9050   -4.2923   -2.7049 O   0  0  0  0  0  0  0  0  0  0  0  0
   -9.3868   -4.3803   -0.8086 C   0  0  0  0  0  0  0  0  0  0  0  0
   -8.4261   -4.9149    0.0132 N   0  0  0  0  0  0  0  0  0  0  0  0
   -8.8206   -5.3452    1.2469 C   0  0  0  0  0  0  0  0  0  0  0  0
   -7.9055   -6.0505    2.0082 C   0  0  0  0  0  0  0  0  0  0  0  0
   -8.2273   -6.5071    3.2409 C   0  0  0  0  0  0  0  0  0  0  0  0
   -7.2005   -7.2613    4.0240 C   0  0  0  0  0  0  0  0  0  0  0  0
   -9.4659   -6.2804    3.7562 C   0  0  0  0  0  0  0  0  0  0  0  0
   -9.8148   -6.7940    5.1151 C   0  0  0  0  0  0  0  0  0  0  0  0
  -10.3958   -5.5925    3.0458 C   0  0  0  0  0  0  0  0  0  0  0  0
  -10.1149   -5.1002    1.7713 C   0  0  0  0  0  0  0  0  0  0  0  0
  -11.0321   -4.3757    0.9816 N   0  0  0  0  0  0  0  0  0  0  0  0
  -10.7298   -4.0886   -0.3654 C   0  0  0  0  0  0  0  0  0  0  0  0
  -12.0013   -3.4564    1.6845 C   0  0  0  0  0  0  0  0  0  0  0  0
  -11.9234   -1.9468    1.3035 C   0  0  1  0  0  0  0  0  0  0  0  0
  -12.4174   -1.7485   -0.0136 O   0  0  0  0  0  0  0  0  0  0  0  0
  -12.6175   -1.0215    2.3312 C   0  0  1  0  0  0  0  0  0  0  0  0
  -11.6466   -0.2653    3.0489 O   0  0  0  0  0  0  0  0  0  0  0  0
  -13.7248   -0.0823    1.7930 C   0  0  1  0  0  0  0  0  0  0  0  0
  -14.3574    0.5479    2.9014 O   0  0  0  0  0  0  0  0  0  0  0  0
  -13.1805    1.0092    0.8443 C   0  0  0  0  0  0  0  0  0  0  0  0
  -12.0791    1.7152    1.4033 O   0  0  0  0  0  0  0  0  0  0  0  0
  -11.5670    3.0992    0.8258 P   0  0  0  0  0  0  0  0  0  0  0  0
  -10.9286    2.9161   -0.4974 O   0  0  0  0  0  0  0  0  0  0  0  0
  -12.6056    4.1417    0.9726 O   0  5  0  0  0  0  0  0  0  0  0  0
  -10.3870    3.5068    1.8138 O   0  5  0  0  0  0  0  0  0  0  0  0
  1 18  1  0  0  0  0
  1  2  1  0  0  0  0
  2  4  1  0  0  0  0
  2  3  2  0  0  0  0
  4  5  1  0  0  0  0
  5  7  1  0  0  0  0
  5  6  2  0  0  0  0
  7 18  2  0  0  0  0
  7  8  1  0  0  0  0
  8  9  1  0  0  0  0
  9 10  2  0  0  0  0
  9 16  1  0  0  0  0
 10 11  1  0  0  0  0
 11 12  1  0  0  0  0
 11 13  2  0  0  0  0
 13 14  1  0  0  0  0
 13 15  1  0  0  0  0
 15 16  2  0  0  0  0
 16 17  1  0  0  0  0
 17 19  1  0  0  0  0
 17 18  1  0  0  0  0
 20 19  1  1  0  0  0
 20 22  1  0  0  0  0
 20 21  1  0  0  0  0
 22 24  1  0  0  0  0
 22 23  1  6  0  0  0
 24 26  1  6  0  0  0
 24 25  1  0  0  0  0
 26 27  1  0  0  0  0
 27 28  1  0  0  0  0
 28 30  1  0  0  0  0
 28 29  2  0  0  0  0
 28 31  1  0  0  0  0
M  CHG  2  30  -1  31  -1
M  END
>  <CHROM.1>
119.81087010,70.82139897,109.54331303,-137.93263198,172.30782753,-49.62061646
-50.77652044,49.90378400,-164.16354318,-69.77582593,-10.83973389,-2.17573276
0.87379802,-0.25527091,1.18136476,-1.37057873

>  <Name>
1fmn_cryst

>  <RI>
0

>  <Rbt.Current_Directory>
/home/itssahil/PROJECTS/Mol_Feturizer/New_Systems/rnas/1fmn

>  <Rbt.Executable>
rbdock ($Id: //depot/dev/client3/rdock/2013.1/src/exe/rbdock.cxx#4 $)

>  <Rbt.Library>
libRbt.so (2013.1, Build901 2013/11/27)

>  <Rbt.Parameter_File>
/export/apps/rDock/src/rDock_2013.1_src/data/scripts/dock_solv.prm

>  <Rbt.Receptor>
prm/blind_docking_20.prm

>  <SCORE>
-31.0581

>  <SCORE.INTER>
-34.636

>  <SCORE.INTER.CONST>
1

>  <SCORE.INTER.POLAR>
-2.8714

>  <SCORE.INTER.ROT>
7

>  <SCORE.INTER.SOLV>
34.8099

>  <SCORE.INTER.VDW>
-33.3893

>  <SCORE.INTER.norm>
-1.11729

>  <SCORE.INTRA>
1.25957

>  <SCORE.INTRA.DIHEDRAL>
0.198156

>  <SCORE.INTRA.DIHEDRAL.0>
15.5708

>  <SCORE.INTRA.POLAR>
-0.0371953

>  <SCORE.INTRA.POLAR.0>
-0.0677885

>  <SCORE.INTRA.REPUL>
0.0274553

>  <SCORE.INTRA.REPUL.0>
0

>  <SCORE.INTRA.SOLV>
-3.05377

>  <SCORE.INTRA.SOLV.lig_0>
-87.6316

>  <SCORE.INTRA.VDW>
2.67656

>  <SCORE.INTRA.VDW.0>
-2.87309

>  <SCORE.INTRA.norm>
0.0406313

>  <SCORE.RESTR>
2.31835

>  <SCORE.RESTR.CAVITY>
2.31835

>  <SCORE.RESTR.norm>
0.0747855

>  <SCORE.SYSTEM>
0

>  <SCORE.SYSTEM.CONST>
0

>  <SCORE.SYSTEM.DIHEDRAL>
0

>  <SCORE.SYSTEM.SOLV>
0

>  <SCORE.SYSTEM.norm>
0

>  <SCORE.heavy>
31

>  <SCORE.norm>
-1.00187

>  <SYMMETRIC_BONDS>
33 34 3

>  <RMSD>
9.475

$$$$
1fmn_cryst
 OpenBabel11021811393D
libRbt.so/2013.1/901 2013/11/27
 31 33  0  0  0  0  0  0  0  0999 V2000
  -11.3036   -3.8133   -2.2524 N   0  0  0  0  0  0  0  0  0  0  0  0
  -10.8115   -3.8275   -3.5366 C   0  0  0  0  0  0  0  0  0  0  0  0
  -11.4871   -3.4605   -4.4985 O   0  0  0  0  0  0  0  0  0  0  0  0
   -9.4813   -4.2953   -3.6822 N   0  0  0  0  0  0  0  0  0  0  0  0
   -8.6263   -4.7429   -2.6513 C   0  0  0  0  0  0  0  0  0  0  0  0
   -7.4805   -5.1252   -2.9201 O   0  0  0  0  0  0  0  0  0  0  0  0
   -9.2241   -4.6976   -1.3150 C   0  0  0  0  0  0  0  0  0  0  0  0
   -8.4569   -5.1163   -0.2566 N   0  0  0  0  0  0  0  0  0  0  0  0
   -9.0712   -5.2442    0.9554 C   0  0  0  0  0  0  0  0  0  0  0  0
   -8.3583   -5.8386    1.9815 C   0  0  0  0  0  0  0  0  0  0  0  0
   -8.9038   -5.9979    3.2097 C   0  0  0  0  0  0  0  0  0  0  0  0
   -8.0895   -6.6437    4.2850 C   0  0  0  0  0  0  0  0  0  0  0  0
  -10.1727   -5.5748    3.4584 C   0  0  0  0  0  0  0  0  0  0  0  0
  -10.7696   -5.7609    4.8153 C   0  0  0  0  0  0  0  0  0  0  0  0
  -10.9096   -4.9855    2.4824 C   0  0  0  0  0  0  0  0  0  0  0  0
  -10.3943   -4.7972    1.2001 C   0  0  0  0  0  0  0  0  0  0  0  0
  -11.1031   -4.1900    0.1423 N   0  0  0  0  0  0  0  0  0  0  0  0
  -10.5783   -4.2186   -1.1660 C   0  0  0  0  0  0  0  0  0  0  0  0
  -12.0600   -3.0725    0.4799 C   0  0  0  0  0  0  0  0  0  0  0  0
  -11.7083   -2.2155    1.7337 C   0  0  1  0  0  0  0  0  0  0  0  0
  -11.0729   -1.0080    1.3384 O   0  0  0  0  0  0  0  0  0  0  0  0
  -12.9225   -1.9591    2.6578 C   0  0  1  0  0  0  0  0  0  0  0  0
  -12.9786   -2.9457    3.6839 O   0  0  0  0  0  0  0  0  0  0  0  0
  -13.0450   -0.5456    3.2782 C   0  0  1  0  0  0  0  0  0  0  0  0
  -11.7416   -0.0948    3.6299 O   0  0  0  0  0  0  0  0  0  0  0  0
  -13.6839    0.4813    2.3165 C   0  0  0  0  0  0  0  0  0  0  0  0
  -13.5956    1.8137    2.8074 O   0  0  0  0  0  0  0  0  0  0  0  0
  -14.1699    2.2458    4.2198 P   0  0  0  0  0  0  0  0  0  0  0  0
  -13.2510    1.8449    5.3093 O   0  0  0  0  0  0  0  0  0  0  0  0
  -14.6544    3.6425    4.1804 O   0  5  0  0  0  0  0  0  0  0  0  0
  -15.4623    1.3330    4.3969 O   0  5  0  0  0  0  0  0  0  0  0  0
  1 18  1  0  0  0  0
  1  2  1  0  0  0  0
  2  4  1  0  0  0  0
  2  3  2  0  0  0  0
  4  5  1  0  0  0  0
  5  7  1  0  0  0  0
  5  6  2  0  0  0  0
  7 18  2  0  0  0  0
  7  8  1  0  0  0  0
  8  9  1  0  0  0  0
  9 10  2  0  0  0  0
  9 16  1  0  0  0  0
 10 11  1  0  0  0  0
 11 12  1  0  0  0  0
 11 13  2  0  0  0  0
 13 14  1  0  0  0  0
 13 15  1  0  0  0  0
 15 16  2  0  0  0  0
 16 17  1  0  0  0  0
 17 19  1  0  0  0  0
 17 18  1  0  0  0  0
 20 19  1  6  0  0  0
 20 22  1  0  0  0  0
 20 21  1  0  0  0  0
 22 24  1  0  0  0  0
 22 23  1  1  0  0  0
 24 26  1  6  0  0  0
 24 25  1  0  0  0  0
 26 27  1  0  0  0  0
 27 28  1  0  0  0  0
 28 30  1  0  0  0  0
 28 29  2  0  0  0  0
 28 31  1  0  0  0  0
M  CHG  2  30  -1  31  -1
M  END
>  <CHROM.1>
29.56613680,98.93367107,93.53075156,58.78494794,-38.57261901,-60.25132670
-170.46316344,-75.28888400,-56.42557946,78.69244293,-11.34487812,-2.52300061
1.46824615,0.46578094,0.99469436,-1.45147946

>  <Name>
1fmn_cryst

>  <RI>
0

>  <Rbt.Current_Directory>
/home/itssahil/PROJECTS/Mol_Feturizer/New_Systems/rnas/1fmn

>  <Rbt.Executable>
rbdock ($Id: //depot/dev/client3/rdock/2013.1/src/exe/rbdock.cxx#4 $)

>  <Rbt.Library>
libRbt.so (2013.1, Build901 2013/11/27)

>  <Rbt.Parameter_File>
/export/apps/rDock/src/rDock_2013.1_src/data/scripts/dock_solv.prm

>  <Rbt.Receptor>
prm/blind_docking_20.prm

>  <SCORE>
-35.2867

>  <SCORE.INTER>
-37.3897

>  <SCORE.INTER.CONST>
1

>  <SCORE.INTER.POLAR>
-1.93667

>  <SCORE.INTER.ROT>
7

>  <SCORE.INTER.SOLV>
25.0431

>  <SCORE.INTER.VDW>
-35.0853

>  <SCORE.INTER.norm>
-1.20612

>  <SCORE.INTRA>
0.0717691

>  <SCORE.INTRA.DIHEDRAL>
-2.46179

>  <SCORE.INTRA.DIHEDRAL.0>
15.5708

>  <SCORE.INTRA.POLAR>
0.0677885

>  <SCORE.INTRA.POLAR.0>
-0.0677885

>  <SCORE.INTRA.REPUL>
0

>  <SCORE.INTRA.REPUL.0>
0

>  <SCORE.INTRA.SOLV>
0.202632

>  <SCORE.INTRA.SOLV.lig_0>
-87.6316

>  <SCORE.INTRA.VDW>
0.970866

>  <SCORE.INTRA.VDW.0>
-2.87309

>  <SCORE.INTRA.norm>
0.00231513

>  <SCORE.RESTR>
2.03127

>  <SCORE.RESTR.CAVITY>
2.03127

>  <SCORE.RESTR.norm>
0.0655248

>  <SCORE.SYSTEM>
0

>  <SCORE.SYSTEM.CONST>
0

>  <SCORE.SYSTEM.DIHEDRAL>
0

>  <SCORE.SYSTEM.SOLV>
0

>  <SCORE.SYSTEM.norm>
0

>  <SCORE.heavy>
31

>  <SCORE.norm>
-1.13828

>  <SYMMETRIC_BONDS>
33 34 3

>  <RMSD>
9.478

$$$$
1fmn_cryst
 OpenBabel11021811393D
libRbt.so/2013.1/901 2013/11/27
 31 33  0  0  0  0  0  0  0  0999 V2000
  -10.8088   -3.8223   -2.9576 N   0  0  0  0  0  0  0  0  0  0  0  0
   -9.9589   -3.9610   -4.0299 C   0  0  0  0  0  0  0  0  0  0  0  0
  -10.3227   -3.7355   -5.1846 O   0  0  0  0  0  0  0  0  0  0  0  0
   -8.6415   -4.3842   -3.7221 N   0  0  0  0  0  0  0  0  0  0  0  0
   -8.1260   -4.6741   -2.4398 C   0  0  0  0  0  0  0  0  0  0  0  0
   -6.9490   -5.0344   -2.3131 O   0  0  0  0  0  0  0  0  0  0  0  0
   -9.0926   -4.5032   -1.3527 C   0  0  0  0  0  0  0  0  0  0  0  0
   -8.6693   -4.7651   -0.0735 N   0  0  0  0  0  0  0  0  0  0  0  0
   -9.6134   -4.7810    0.9119 C   0  0  0  0  0  0  0  0  0  0  0  0
   -9.2312   -5.2234    2.1659 C   0  0  0  0  0  0  0  0  0  0  0  0
  -10.1141   -5.2656    3.1906 C   0  0  0  0  0  0  0  0  0  0  0  0
   -9.6491   -5.7490    4.5272 C   0  0  0  0  0  0  0  0  0  0  0  0
  -11.4032   -4.8724    3.0038 C   0  0  0  0  0  0  0  0  0  0  0  0
  -12.3731   -4.9288    4.1389 C   0  0  0  0  0  0  0  0  0  0  0  0
  -11.8232   -4.4304    1.7910 C   0  0  0  0  0  0  0  0  0  0  0  0
  -10.9532   -4.3669    0.7026 C   0  0  0  0  0  0  0  0  0  0  0  0
  -11.3224   -3.9152   -0.5818 N   0  0  0  0  0  0  0  0  0  0  0  0
  -10.4340   -4.0696   -1.6658 C   0  0  0  0  0  0  0  0  0  0  0  0
  -12.3451   -2.8092   -0.6773 C   0  0  0  0  0  0  0  0  0  0  0  0
  -11.8923   -1.4032   -0.1789 C   0  0  1  0  0  0  0  0  0  0  0  0
  -12.5766   -0.3859   -0.8965 O   0  0  0  0  0  0  0  0  0  0  0  0
  -12.0263   -1.2263    1.3523 C   0  0  1  0  0  0  0  0  0  0  0  0
  -10.8162   -0.7078    1.8969 O   0  0  0  0  0  0  0  0  0  0  0  0
  -13.2309   -0.3957    1.8592 C   0  0  1  0  0  0  0  0  0  0  0  0
  -14.4225   -1.1320    1.6065 O   0  0  0  0  0  0  0  0  0  0  0  0
  -13.1522   -0.0799    3.3697 C   0  0  0  0  0  0  0  0  0  0  0  0
  -14.1576    0.8364    3.7865 O   0  0  0  0  0  0  0  0  0  0  0  0
  -14.2571    1.3818    5.2710 P   0  0  0  0  0  0  0  0  0  0  0  0
  -15.3784    0.7416    5.9954 O   0  0  0  0  0  0  0  0  0  0  0  0
  -12.9229    1.4039    5.9087 O   0  5  0  0  0  0  0  0  0  0  0  0
  -14.6852    2.9041    5.0857 O   0  5  0  0  0  0  0  0  0  0  0  0
  1 18  1  0  0  0  0
  1  2  1  0  0  0  0
  2  4  1  0  0  0  0
  2  3  2  0  0  0  0
  4  5  1  0  0  0  0
  5  7  1  0  0  0  0
  5  6  2  0  0  0  0
  7 18  2  0  0  0  0
  7  8  1  0  0  0  0
  8  9  1  0  0  0  0
  9 10  2  0  0  0  0
  9 16  1  0  0  0  0
 10 11  1  0  0  0  0
 11 12  1  0  0  0  0
 11 13  2  0  0  0  0
 13 14  1  0  0  0  0
 13 15  1  0  0  0  0
 15 16  2  0  0  0  0
 16 17  1  0  0  0  0
 17 19  1  0  0  0  0
 17 18  1  0  0  0  0
 20 19  1  6  0  0  0
 20 22  1  0  0  0  0
 20 21  1  0  0  0  0
 22 24  1  0  0  0  0
 22 23  1  6  0  0  0
 24 26  1  1  0  0  0
 24 25  1  0  0  0  0
 26 27  1  0  0  0  0
 27 28  1  0  0  0  0
 28 30  1  0  0  0  0
 28 29  2  0  0  0  0
 28 31  1  0  0  0  0
M  CHG  2  30  -1  31  -1
M  END
>  <CHROM.1>
68.75668008,150.21947541,130.55757818,59.63393271,68.85101655,-160.34396255
171.71099654,-52.96983994,-176.96427647,-105.27518850,-11.52649881,-2.40117989
1.20252902,0.57919836,0.96360456,-1.33575323

>  <Name>
1fmn_cryst

>  <RI>
0

>  <Rbt.Current_Directory>
/home/itssahil/PROJECTS/Mol_Feturizer/New_Systems/rnas/1fmn

>  <Rbt.Executable>
rbdock ($Id: //depot/dev/client3/rdock/2013.1/src/exe/rbdock.cxx#4 $)

>  <Rbt.Library>
libRbt.so (2013.1, Build901 2013/11/27)

>  <Rbt.Parameter_File>
/export/apps/rDock/src/rDock_2013.1_src/data/scripts/dock_solv.prm

>  <Rbt.Receptor>
prm/blind_docking_100.prm

>  <SCORE>
-8.90383

>  <SCORE.INTER>
-8.52295

>  <SCORE.INTER.CONST>
1

>  <SCORE.INTER.POLAR>
-1.44316

>  <SCORE.INTER.ROT>
7

>  <SCORE.INTER.SOLV>
28.9981

>  <SCORE.INTER.VDW>
-18.8041

>  <SCORE.INTER.norm>
-0.274934

>  <SCORE.INTRA>
-3.03201

>  <SCORE.INTRA.DIHEDRAL>
-2.80597

>  <SCORE.INTRA.DIHEDRAL.0>
15.5708

>  <SCORE.INTRA.POLAR>
0.0677885

>  <SCORE.INTRA.POLAR.0>
-0.0677885

>  <SCORE.INTRA.REPUL>
0.0445526

>  <SCORE.INTRA.REPUL.0>
0

>  <SCORE.INTRA.SOLV>
-5.14672

>  <SCORE.INTRA.SOLV.lig_0>
-87.6316

>  <SCORE.INTRA.VDW>
0.491084

>  <SCORE.INTRA.VDW.0>
-2.87309

>  <SCORE.INTRA.norm>
-0.0978069

>  <SCORE.RESTR>
2.65114

>  <SCORE.RESTR.CAVITY>
2.65114

>  <SCORE.RESTR.norm>
0.0855206

>  <SCORE.SYSTEM>
0

>  <SCORE.SYSTEM.CONST>
0

>  <SCORE.SYSTEM.DIHEDRAL>
0

>  <SCORE.SYSTEM.SOLV>
0

>  <SCORE.SYSTEM.norm>
0

>  <SCORE.heavy>
31

>  <SCORE.norm>
-0.28722

>  <SYMMETRIC_BONDS>
33 34 3

>  <RMSD>
9.481

$$$$
1fmn_cryst
 OpenBabel11021811393D
libRbt.so/2013.1/901 2013/11/27
 31 33  0  0  0  0  0  0  0  0999 V2000
  -11.1263   -3.6361   -1.6830 N   0  0  0  0  0  0  0  0  0  0  0  0
  -10.6446   -3.4460   -2.9571 C   0  0  0  0  0  0  0  0  0  0  0  0
  -11.3441   -2.9786   -3.8564 O   0  0  0  0  0  0  0  0  0  0  0  0
   -9.2957   -3.8264   -3.1697 N   0  0  0  0  0  0  0  0  0  0  0  0
   -8.4127   -4.3750   -2.2139 C   0  0  0  0  0  0  0  0  0  0  0  0
   -7.2529   -4.6620   -2.5360 O   0  0  0  0  0  0  0  0  0  0  0  0
   -9.0010   -4.5467   -0.8836 C   0  0  0  0  0  0  0  0  0  0  0  0
   -8.2068   -5.0746    0.1036 N   0  0  0  0  0  0  0  0  0  0  0  0
   -8.8046   -5.4008    1.2863 C   0  0  0  0  0  0  0  0  0  0  0  0
   -8.0570   -6.1004    2.2169 C   0  0  0  0  0  0  0  0  0  0  0  0
   -8.5845   -6.4567    3.4111 C   0  0  0  0  0  0  0  0  0  0  0  0
   -7.7328   -7.2094    4.3829 C   0  0  0  0  0  0  0  0  0  0  0  0
   -9.8694   -6.1322    3.7193 C   0  0  0  0  0  0  0  0  0  0  0  0
  -10.4459   -6.5355    5.0372 C   0  0  0  0  0  0  0  0  0  0  0  0
  -10.6403   -5.4457    2.8377 C   0  0  0  0  0  0  0  0  0  0  0  0
  -10.1447   -5.0545    1.5940 C   0  0  0  0  0  0  0  0  0  0  0  0
  -10.8891   -4.3375    0.6340 N   0  0  0  0  0  0  0  0  0  0  0  0
  -10.3743   -4.1568   -0.6661 C   0  0  0  0  0  0  0  0  0  0  0  0
  -11.8932   -3.3245    1.1278 C   0  0  0  0  0  0  0  0  0  0  0  0
  -11.9773   -1.9879    0.3299 C   0  0  1  0  0  0  0  0  0  0  0  0
  -12.7648   -2.1646   -0.8391 O   0  0  0  0  0  0  0  0  0  0  0  0
  -12.4661   -0.7956    1.1865 C   0  0  1  0  0  0  0  0  0  0  0  0
  -13.6957   -1.1205    1.8284 O   0  0  0  0  0  0  0  0  0  0  0  0
  -11.4676   -0.2196    2.2205 C   0  0  1  0  0  0  0  0  0  0  0  0
  -10.2408    0.0577    1.5543 O   0  0  0  0  0  0  0  0  0  0  0  0
  -11.9745    1.0777    2.8896 C   0  0  0  0  0  0  0  0  0  0  0  0
  -13.2046    0.8888    3.5790 O   0  0  0  0  0  0  0  0  0  0  0  0
  -14.4679    1.8167    3.3464 P   0  0  0  0  0  0  0  0  0  0  0  0
  -15.4930    1.5854    4.3894 O   0  0  0  0  0  0  0  0  0  0  0  0
  -14.0489    3.2060    3.0614 O   0  5  0  0  0  0  0  0  0  0  0  0
  -15.1022    1.2592    1.9967 O   0  5  0  0  0  0  0  0  0  0  0  0
  1 18  1  0  0  0  0
  1  2  1  0  0  0  0
  2  4  1  0  0  0  0
  2  3  2  0  0  0  0
  4  5  1  0  0  0  0
  5  7  1  0  0  0  0
  5  6  2  0  0  0  0
  7 18  2  0  0  0  0
  7  8  1  0  0  0  0
  8  9  1  0  0  0  0
  9 10  2  0  0  0  0
  9 16  1  0  0  0  0
 10 11  1  0  0  0  0
 11 12  1  0  0  0  0
 11 13  2  0  0  0  0
 13 14  1  0  0  0  0
 13 15  1  0  0  0  0
 15 16  2  0  0  0  0
 16 17  1  0  0  0  0
 17 19  1  0  0  0  0
 17 18  1  0  0  0  0
 20 19  1  1  0  0  0
 20 22  1  0  0  0  0
 20 21  1  0  0  0  0
 22 24  1  0  0  0  0
 22 23  1  1  0  0  0
 24 26  1  6  0  0  0
 24 25  1  0  0  0  0
 26 27  1  0  0  0  0
 27 28  1  0  0  0  0
 28 30  1  0  0  0  0
 28 29  2  0  0  0  0
 28 31  1  0  0  0  0
M  CHG  2  30  -1  31  -1
M  END
>  <CHROM.1>
139.78959755,80.63545809,-53.21640310,68.90414084,51.71899848,-127.99578790
59.47234450,-169.11431118,-128.41204501,-167.64867877,-11.19347365,-2.54336547
1.18854702,0.12728517,0.94916545,-1.35604566

>  <Name>
1fmn_cryst

>  <RI>
0

>  <Rbt.Current_Directory>
/home/itssahil/PROJECTS/Mol_Feturizer/New_Systems/rnas/1fmn

>  <Rbt.Executable>
rbdock ($Id: //depot/dev/client3/rdock/2013.1/src/exe/rbdock.cxx#4 $)

>  <Rbt.Library>
libRbt.so (2013.1, Build901 2013/11/27)

>  <Rbt.Parameter_File>
/export/apps/rDock/src/rDock_2013.1_src/data/scripts/dock_solv.prm

>  <Rbt.Receptor>
prm/blind_docking_60.prm

>  <SCORE>
-27.4329

>  <SCORE.INTER>
-29.8969

>  <SCORE.INTER.CONST>
1

>  <SCORE.INTER.POLAR>
-0.699088

>  <SCORE.INTER.ROT>
7

>  <SCORE.INTER.SOLV>
24.4669

>  <SCORE.INTER.VDW>
-34.0233

>  <SCORE.INTER.norm>
-0.964416

>  <SCORE.INTRA>
0.507249

>  <SCORE.INTRA.DIHEDRAL>
3.58266

>  <SCORE.INTRA.DIHEDRAL.0>
15.5708

>  <SCORE.INTRA.POLAR>
-1.3422

>  <SCORE.INTRA.POLAR.0>
-0.0677885

>  <SCORE.INTRA.REPUL>
0

>  <SCORE.INTRA.REPUL.0>
0

>  <SCORE.INTRA.SOLV>
0.684489

>  <SCORE.INTRA.SOLV.lig_0>
-87.6316

>  <SCORE.INTRA.VDW>
2.93716

>  <SCORE.INTRA.VDW.0>
-2.87309

>  <SCORE.INTRA.norm>
0.0163629

>  <SCORE.RESTR>
1.9568

>  <SCORE.RESTR.CAVITY>
1.9568

>  <SCORE.RESTR.norm>
0.0631225

>  <SCORE.SYSTEM>
0

>  <SCORE.SYSTEM.CONST>
0

>  <SCORE.SYSTEM.DIHEDRAL>
0

>  <SCORE.SYSTEM.SOLV>
0

>  <SCORE.SYSTEM.norm>
0

>  <SCORE.heavy>
31

>  <SCORE.norm>
-0.884931

>  <SYMMETRIC_BONDS>
33 34 3

>  <RMSD>
9.488

$$$$
1fmn_cryst
 OpenBabel11021811393D
libRbt.so/2013.1/901 2013/11/27
 31 33  0  0  0  0  0  0  0  0999 V2000
  -10.9376   -3.4810   -2.3787 N   0  0  0  0  0  0  0  0  0  0  0  0
  -10.3237   -3.4644   -3.6093 C   0  0  0  0  0  0  0  0  0  0  0  0
  -10.8987   -3.0594   -4.6202 O   0  0  0  0  0  0  0  0  0  0  0  0
   -8.9912   -3.9469   -3.6405 N   0  0  0  0  0  0  0  0  0  0  0  0
   -8.2452   -4.4372   -2.5462 C   0  0  0  0  0  0  0  0  0  0  0  0
   -7.0833   -4.8280   -2.7150 O   0  0  0  0  0  0  0  0  0  0  0  0
   -8.9690   -4.4228   -1.2730 C   0  0  0  0  0  0  0  0  0  0  0  0
   -8.3127   -4.8837   -0.1590 N   0  0  0  0  0  0  0  0  0  0  0  0
   -9.0428   -5.0385    0.9836 C   0  0  0  0  0  0  0  0  0  0  0  0
   -8.4395   -5.6733    2.0548 C   0  0  0  0  0  0  0  0  0  0  0  0
   -9.1031   -5.8608    3.2192 C   0  0  0  0  0  0  0  0  0  0  0  0
   -8.4043   -6.5499    4.3476 C   0  0  0  0  0  0  0  0  0  0  0  0
  -10.3852   -5.4269    3.3574 C   0  0  0  0  0  0  0  0  0  0  0  0
  -11.1127   -5.6444    4.6441 C   0  0  0  0  0  0  0  0  0  0  0  0
  -11.0173   -4.7983    2.3336 C   0  0  0  0  0  0  0  0  0  0  0  0
  -10.3781   -4.5797    1.1133 C   0  0  0  0  0  0  0  0  0  0  0  0
  -10.9741   -3.9312    0.0114 N   0  0  0  0  0  0  0  0  0  0  0  0
  -10.3255   -3.9288   -1.2406 C   0  0  0  0  0  0  0  0  0  0  0  0
  -11.9462   -2.8104    0.2895 C   0  0  0  0  0  0  0  0  0  0  0  0
  -11.8758   -2.1698    1.7089 C   0  0  1  0  0  0  0  0  0  0  0  0
  -10.9606   -1.0834    1.7106 O   0  0  0  0  0  0  0  0  0  0  0  0
  -13.2618   -1.7644    2.2648 C   0  0  1  0  0  0  0  0  0  0  0  0
  -13.4050   -2.2140    3.6090 O   0  0  0  0  0  0  0  0  0  0  0  0
  -13.6462   -0.2677    2.1657 C   0  0  1  0  0  0  0  0  0  0  0  0
  -12.6336    0.4997    2.8073 O   0  0  0  0  0  0  0  0  0  0  0  0
  -13.7923    0.2217    0.7074 C   0  0  0  0  0  0  0  0  0  0  0  0
  -13.4698    1.5997    0.5617 O   0  0  0  0  0  0  0  0  0  0  0  0
  -12.0761    2.0979   -0.0046 P   0  0  0  0  0  0  0  0  0  0  0  0
  -10.9634    1.2892    0.5431 O   0  0  0  0  0  0  0  0  0  0  0  0
  -12.1504    2.3009   -1.4676 O   0  5  0  0  0  0  0  0  0  0  0  0
  -11.9043    3.5454    0.6357 O   0  5  0  0  0  0  0  0  0  0  0  0
  1 18  1  0  0  0  0
  1  2  1  0  0  0  0
  2  4  1  0  0  0  0
  2  3  2  0  0  0  0
  4  5  1  0  0  0  0
  5  7  1  0  0  0  0
  5  6  2  0  0  0  0
  7 18  2  0  0  0  0
  7  8  1  0  0  0  0
  8  9  1  0  0  0  0
  9 10  2  0  0  0  0
  9 16  1  0  0  0  0
 10 11  1  0  0  0  0
 11 12  1  0  0  0  0
 11 13  2  0  0  0  0
 13 14  1  0  0  0  0
 13 15  1  0  0  0  0
 15 16  2  0  0  0  0
 16 17  1  0  0  0  0
 17 19  1  0  0  0  0
 17 18  1  0  0  0  0
 20 19  1  6  0  0  0
 20 22  1  0  0  0  0
 20 21  1  0  0  0  0
 22 24  1  0  0  0  0
 22 23  1  1  0  0  0
 24 26  1  6  0  0  0
 24 25  1  0  0  0  0
 26 27  1  0  0  0  0
 27 28  1  0  0  0  0
 28 30  1  0  0  0  0
 28 29  2  0  0  0  0
 28 31  1  0  0  0  0
M  CHG  2  30  -1  31  -1
M  END
>  <CHROM.1>
18.61979144,90.01844808,133.03530045,61.21420644,-55.69113979,61.65571496
-150.06964578,-59.45285935,100.92001785,-41.40534657,-10.90906122,-2.33373949
0.47932740,-0.45024173,1.03333860,-1.03318752

>  <Name>
1fmn_cryst

>  <RI>
0

>  <Rbt.Current_Directory>
/home/itssahil/PROJECTS/Mol_Feturizer/New_Systems/rnas/1fmn

>  <Rbt.Executable>
rbdock ($Id: //depot/dev/client3/rdock/2013.1/src/exe/rbdock.cxx#4 $)

>  <Rbt.Library>
libRbt.so (2013.1, Build901 2013/11/27)

>  <Rbt.Parameter_File>
/export/apps/rDock/src/rDock_2013.1_src/data/scripts/dock_solv.prm

>  <Rbt.Receptor>
prm/blind_docking_20.prm

>  <SCORE>
-32.0184

>  <SCORE.INTER>
-35.6969

>  <SCORE.INTER.CONST>
1

>  <SCORE.INTER.POLAR>
-1.84343

>  <SCORE.INTER.ROT>
7

>  <SCORE.INTER.SOLV>
26.778

>  <SCORE.INTER.VDW>
-34.8458

>  <SCORE.INTER.norm>
-1.15151

>  <SCORE.INTRA>
0.359459

>  <SCORE.INTRA.DIHEDRAL>
3.45567

>  <SCORE.INTRA.DIHEDRAL.0>
15.5708

>  <SCORE.INTRA.POLAR>
-1.08091

>  <SCORE.INTRA.POLAR.0>
-0.0677885

>  <SCORE.INTRA.REPUL>
0

>  <SCORE.INTRA.REPUL.0>
0

>  <SCORE.INTRA.SOLV>
2.21994

>  <SCORE.INTRA.SOLV.lig_0>
-87.6316

>  <SCORE.INTRA.VDW>
1.19676

>  <SCORE.INTRA.VDW.0>
-2.87309

>  <SCORE.INTRA.norm>
0.0115955

>  <SCORE.RESTR>
3.31907

>  <SCORE.RESTR.CAVITY>
3.31907

>  <SCORE.RESTR.norm>
0.107067

>  <SCORE.SYSTEM>
0

>  <SCORE.SYSTEM.CONST>
0

>  <SCORE.SYSTEM.DIHEDRAL>
0

>  <SCORE.SYSTEM.SOLV>
0

>  <SCORE.SYSTEM.norm>
0

>  <SCORE.heavy>
31

>  <SCORE.norm>
-1.03285

>  <SYMMETRIC_BONDS>
33 34 3

>  <RMSD>
9.489

$$$$
1fmn_cryst
 OpenBabel11021811393D
libRbt.so/2013.1/901 2013/11/27
 31 33  0  0  0  0  0  0  0  0999 V2000
  -10.9315   -3.4366   -2.4438 N   0  0  0  0  0  0  0  0  0  0  0  0
  -10.3056   -3.4520   -3.6684 C   0  0  0  0  0  0  0  0  0  0  0  0
  -10.8569   -3.0371   -4.6884 O   0  0  0  0  0  0  0  0  0  0  0  0
   -8.9899   -3.9795   -3.6821 N   0  0  0  0  0  0  0  0  0  0  0  0
   -8.2715   -4.4846   -2.5763 C   0  0  0  0  0  0  0  0  0  0  0  0
   -7.1218   -4.9159   -2.7301 O   0  0  0  0  0  0  0  0  0  0  0  0
   -9.0065   -4.4341   -1.3104 C   0  0  0  0  0  0  0  0  0  0  0  0
   -8.3768   -4.9066   -0.1859 N   0  0  0  0  0  0  0  0  0  0  0  0
   -9.1227   -5.0262    0.9507 C   0  0  0  0  0  0  0  0  0  0  0  0
   -8.5515   -5.6711    2.0334 C   0  0  0  0  0  0  0  0  0  0  0  0
   -9.2322   -5.8255    3.1928 C   0  0  0  0  0  0  0  0  0  0  0  0
   -8.5679   -6.5273    4.3341 C   0  0  0  0  0  0  0  0  0  0  0  0
  -10.5001   -5.3473    3.3145 C   0  0  0  0  0  0  0  0  0  0  0  0
  -11.2468   -5.5282    4.5958 C   0  0  0  0  0  0  0  0  0  0  0  0
  -11.1008   -4.7071    2.2790 C   0  0  0  0  0  0  0  0  0  0  0  0
  -10.4429   -4.5214    1.0631 C   0  0  0  0  0  0  0  0  0  0  0  0
  -11.0061   -3.8634   -0.0503 N   0  0  0  0  0  0  0  0  0  0  0  0
  -10.3458   -3.8943   -1.2957 C   0  0  0  0  0  0  0  0  0  0  0  0
  -11.9423   -2.7079    0.2082 C   0  0  0  0  0  0  0  0  0  0  0  0
  -11.8449   -2.0395    1.6132 C   0  0  1  0  0  0  0  0  0  0  0  0
  -10.8170   -1.0591    1.6184 O   0  0  0  0  0  0  0  0  0  0  0  0
  -13.1943   -1.4711    2.1133 C   0  0  1  0  0  0  0  0  0  0  0  0
  -13.3756   -1.7728    3.4938 O   0  0  0  0  0  0  0  0  0  0  0  0
  -13.4561    0.0346    1.8640 C   0  0  1  0  0  0  0  0  0  0  0  0
  -14.8360    0.2953    2.0963 O   0  0  0  0  0  0  0  0  0  0  0  0
  -12.6155    0.9522    2.7801 C   0  0  0  0  0  0  0  0  0  0  0  0
  -12.9128    0.7635    4.1585 O   0  0  0  0  0  0  0  0  0  0  0  0
  -14.0441    1.5800    4.9102 P   0  0  0  0  0  0  0  0  0  0  0  0
  -13.9993    3.0120    4.5366 O   0  0  0  0  0  0  0  0  0  0  0  0
  -15.3383    0.8686    4.8340 O   0  5  0  0  0  0  0  0  0  0  0  0
  -13.5973    1.5254    6.4373 O   0  5  0  0  0  0  0  0  0  0  0  0
  1 18  1  0  0  0  0
  1  2  1  0  0  0  0
  2  4  1  0  0  0  0
  2  3  2  0  0  0  0
  4  5  1  0  0  0  0
  5  7  1  0  0  0  0
  5  6  2  0  0  0  0
  7 18  2  0  0  0  0
  7  8  1  0  0  0  0
  8  9  1  0  0  0  0
  9 10  2  0  0  0  0
  9 16  1  0  0  0  0
 10 11  1  0  0  0  0
 11 12  1  0  0  0  0
 11 13  2  0  0  0  0
 13 14  1  0  0  0  0
 13 15  1  0  0  0  0
 15 16  2  0  0  0  0
 16 17  1  0  0  0  0
 17 19  1  0  0  0  0
 17 18  1  0  0  0  0
 20 19  1  6  0  0  0
 20 22  1  0  0  0  0
 20 21  1  0  0  0  0
 22 24  1  0  0  0  0
 22 23  1  1  0  0  0
 24 26  1  1  0  0  0
 24 25  1  0  0  0  0
 26 27  1  0  0  0  0
 27 28  1  0  0  0  0
 28 30  1  0  0  0  0
 28 29  2  0  0  0  0
 28 31  1  0  0  0  0
M  CHG  2  30  -1  31  -1
M  END
>  <CHROM.1>
19.74700481,85.03853030,137.73257640,-170.39826608,166.46274541,-176.38085780
-62.07476802,59.11809758,-89.43797276,-43.30007325,-11.36490993,-2.39264238
1.49524224,0.48662616,0.96117468,-1.34223019

>  <Name>
1fmn_cryst

>  <RI>
0

>  <Rbt.Current_Directory>
/home/itssahil/PROJECTS/Mol_Feturizer/New_Systems/rnas/1fmn

>  <Rbt.Executable>
rbdock ($Id: //depot/dev/client3/rdock/2013.1/src/exe/rbdock.cxx#4 $)

>  <Rbt.Library>
libRbt.so (2013.1, Build901 2013/11/27)

>  <Rbt.Parameter_File>
/export/apps/rDock/src/rDock_2013.1_src/data/scripts/dock_solv.prm

>  <Rbt.Receptor>
prm/blind_docking_100.prm

>  <SCORE>
-32.1128

>  <SCORE.INTER>
-35.3645

>  <SCORE.INTER.CONST>
1

>  <SCORE.INTER.POLAR>
-1.5422

>  <SCORE.INTER.ROT>
7

>  <SCORE.INTER.SOLV>
26.033

>  <SCORE.INTER.VDW>
-35.38

>  <SCORE.INTER.norm>
-1.14079

>  <SCORE.INTRA>
0.305292

>  <SCORE.INTRA.DIHEDRAL>
-1.31992

>  <SCORE.INTRA.DIHEDRAL.0>
15.5708

>  <SCORE.INTRA.POLAR>
-0.399864

>  <SCORE.INTRA.POLAR.0>
-0.0677885

>  <SCORE.INTRA.REPUL>
0

>  <SCORE.INTRA.REPUL.0>
0

>  <SCORE.INTRA.SOLV>
1.481

>  <SCORE.INTRA.SOLV.lig_0>
-87.6316

>  <SCORE.INTRA.VDW>
1.58429

>  <SCORE.INTRA.VDW.0>
-2.87309

>  <SCORE.INTRA.norm>
0.00984813

>  <SCORE.RESTR>
2.94641

>  <SCORE.RESTR.CAVITY>
2.94641

>  <SCORE.RESTR.norm>
0.0950454

>  <SCORE.SYSTEM>
0

>  <SCORE.SYSTEM.CONST>
0

>  <SCORE.SYSTEM.DIHEDRAL>
0

>  <SCORE.SYSTEM.SOLV>
0

>  <SCORE.SYSTEM.norm>
0

>  <SCORE.heavy>
31

>  <SCORE.norm>
-1.0359

>  <SYMMETRIC_BONDS>
33 34 3

>  <RMSD>
9.498

$$$$
1fmn_cryst
 OpenBabel11021811393D
libRbt.so/2013.1/901 2013/11/27
 31 33  0  0  0  0  0  0  0  0999 V2000
  -11.0604   -3.4449   -2.3802 N   0  0  0  0  0  0  0  0  0  0  0  0
  -10.4605   -3.4490   -3.6178 C   0  0  0  0  0  0  0  0  0  0  0  0
  -11.0411   -3.0453   -4.6259 O   0  0  0  0  0  0  0  0  0  0  0  0
   -9.1356   -3.9514   -3.6593 N   0  0  0  0  0  0  0  0  0  0  0  0
   -8.3844   -4.4421   -2.5689 C   0  0  0  0  0  0  0  0  0  0  0  0
   -7.2303   -4.8515   -2.7469 O   0  0  0  0  0  0  0  0  0  0  0  0
   -9.0932   -4.4049   -1.2877 C   0  0  0  0  0  0  0  0  0  0  0  0
   -8.4310   -4.8647   -0.1768 N   0  0  0  0  0  0  0  0  0  0  0  0
   -9.1502   -4.9978    0.9755 C   0  0  0  0  0  0  0  0  0  0  0  0
   -8.5440   -5.6311    2.0459 C   0  0  0  0  0  0  0  0  0  0  0  0
   -9.1969   -5.7978    3.2195 C   0  0  0  0  0  0  0  0  0  0  0  0
   -8.4953   -6.4863    4.3465 C   0  0  0  0  0  0  0  0  0  0  0  0
  -10.4709   -5.3438    3.3680 C   0  0  0  0  0  0  0  0  0  0  0  0
  -11.1866   -5.5382    4.6649 C   0  0  0  0  0  0  0  0  0  0  0  0
  -11.1054   -4.7158    2.3453 C   0  0  0  0  0  0  0  0  0  0  0  0
  -10.4771   -4.5182    1.1158 C   0  0  0  0  0  0  0  0  0  0  0  0
  -11.0762   -3.8716    0.0144 N   0  0  0  0  0  0  0  0  0  0  0  0
  -10.4420   -3.8907   -1.2447 C   0  0  0  0  0  0  0  0  0  0  0  0
  -12.0285   -2.7341    0.2926 C   0  0  0  0  0  0  0  0  0  0  0  0
  -11.8303   -1.9801    1.6426 C   0  0  1  0  0  0  0  0  0  0  0  0
  -10.9669   -0.8671    1.4592 O   0  0  0  0  0  0  0  0  0  0  0  0
  -13.1629   -1.5782    2.3184 C   0  0  1  0  0  0  0  0  0  0  0  0
  -13.4885   -2.5002    3.3545 O   0  0  0  0  0  0  0  0  0  0  0  0
  -13.2693   -0.1279    2.8506 C   0  0  1  0  0  0  0  0  0  0  0  0
  -12.0496    0.2007    3.5065 O   0  0  0  0  0  0  0  0  0  0  0  0
  -13.5273    0.9069    1.7325 C   0  0  0  0  0  0  0  0  0  0  0  0
  -12.4502    0.9863    0.8065 O   0  0  0  0  0  0  0  0  0  0  0  0
  -12.2978    2.1753   -0.2300 P   0  0  0  0  0  0  0  0  0  0  0  0
  -11.0955    1.9902   -1.0739 O   0  0  0  0  0  0  0  0  0  0  0  0
  -13.5899    2.4594   -0.8910 O   0  5  0  0  0  0  0  0  0  0  0  0
  -11.9823    3.4376    0.6876 O   0  5  0  0  0  0  0  0  0  0  0  0
  1 18  1  0  0  0  0
  1  2  1  0  0  0  0
  2  4  1  0  0  0  0
  2  3  2  0  0  0  0
  4  5  1  0  0  0  0
  5  7  1  0  0  0  0
  5  6  2  0  0  0  0
  7 18  2  0  0  0  0
  7  8  1  0  0  0  0
  8  9  1  0  0  0  0
  9 10  2  0  0  0  0
  9 16  1  0  0  0  0
 10 11  1  0  0  0  0
 11 12  1  0  0  0  0
 11 13  2  0  0  0  0
 13 14  1  0  0  0  0
 13 15  1  0  0  0  0
 15 16  2  0  0  0  0
 16 17  1  0  0  0  0
 17 19  1  0  0  0  0
 17 18  1  0  0  0  0
 20 19  1  6  0  0  0
 20 22  1  0  0  0  0
 20 21  1  0  0  0  0
 22 24  1  0  0  0  0
 22 23  1  1  0  0  0
 24 26  1  6  0  0  0
 24 25  1  0  0  0  0
 26 27  1  0  0  0  0
 27 28  1  0  0  0  0
 28 30  1  0  0  0  0
 28 29  2  0  0  0  0
 28 31  1  0  0  0  0
M  CHG  2  30  -1  31  -1
M  END
>  <CHROM.1>
25.04582547,92.06479714,100.09747075,172.54039444,-42.91055113,70.40433388
-64.04495087,-177.69197423,-165.63803152,-179.42284651,-10.96767846,-2.27713003
0.49533648,-0.42328223,1.06020738,-1.07337773

>  <Name>
1fmn_cryst

>  <RI>
0

>  <Rbt.Current_Directory>
/home/itssahil/PROJECTS/Mol_Feturizer/New_Systems/rnas/1fmn

>  <Rbt.Executable>
rbdock ($Id: //depot/dev/client3/rdock/2013.1/src/exe/rbdock.cxx#4 $)

>  <Rbt.Library>
libRbt.so (2013.1, Build901 2013/11/27)

>  <Rbt.Parameter_File>
/export/apps/rDock/src/rDock_2013.1_src/data/scripts/dock_solv.prm

>  <Rbt.Receptor>
prm/blind_docking_60.prm

>  <SCORE>
-43.9084

>  <SCORE.INTER>
-42.8809

>  <SCORE.INTER.CONST>
1

>  <SCORE.INTER.POLAR>
-2.99289

>  <SCORE.INTER.ROT>
7

>  <SCORE.INTER.SOLV>
26.1845

>  <SCORE.INTER.VDW>
-35.6058

>  <SCORE.INTER.norm>
-1.38326

>  <SCORE.INTRA>
-3.51962

>  <SCORE.INTRA.DIHEDRAL>
-3.41765

>  <SCORE.INTRA.DIHEDRAL.0>
15.5708

>  <SCORE.INTRA.POLAR>
-0.699721

>  <SCORE.INTRA.POLAR.0>
-0.0677885

>  <SCORE.INTRA.REPUL>
0

>  <SCORE.INTRA.REPUL.0>
0

>  <SCORE.INTRA.SOLV>
-2.68531

>  <SCORE.INTRA.SOLV.lig_0>
-87.6316

>  <SCORE.INTRA.VDW>
1.91091

>  <SCORE.INTRA.VDW.0>
-2.87309

>  <SCORE.INTRA.norm>
-0.113536

>  <SCORE.RESTR>
2.49211

>  <SCORE.RESTR.CAVITY>
2.49211

>  <SCORE.RESTR.norm>
0.0803908

>  <SCORE.SYSTEM>
0

>  <SCORE.SYSTEM.CONST>
0

>  <SCORE.SYSTEM.DIHEDRAL>
0

>  <SCORE.SYSTEM.SOLV>
0

>  <SCORE.SYSTEM.norm>
0

>  <SCORE.heavy>
31

>  <SCORE.norm>
-1.4164

>  <SYMMETRIC_BONDS>
33 34 3

>  <RMSD>
9.527

$$$$
1fmn_cryst
 OpenBabel11021811393D
libRbt.so/2013.1/901 2013/11/27
 31 33  0  0  0  0  0  0  0  0999 V2000
  -10.5331   -4.1424   -2.9459 N   0  0  0  0  0  0  0  0  0  0  0  0
   -9.7444   -4.3300   -4.0569 C   0  0  0  0  0  0  0  0  0  0  0  0
  -10.1423   -4.0658   -5.1920 O   0  0  0  0  0  0  0  0  0  0  0  0
   -8.4487   -4.8505   -3.8128 N   0  0  0  0  0  0  0  0  0  0  0  0
   -7.8986   -5.1913   -2.5576 C   0  0  0  0  0  0  0  0  0  0  0  0
   -6.7463   -5.6370   -2.4875 O   0  0  0  0  0  0  0  0  0  0  0  0
   -8.8005   -4.9634   -1.4263 C   0  0  0  0  0  0  0  0  0  0  0  0
   -8.3405   -5.2696   -0.1698 N   0  0  0  0  0  0  0  0  0  0  0  0
   -9.2382   -5.2285    0.8573 C   0  0  0  0  0  0  0  0  0  0  0  0
   -8.8332   -5.7114    2.0890 C   0  0  0  0  0  0  0  0  0  0  0  0
   -9.6701   -5.7013    3.1525 C   0  0  0  0  0  0  0  0  0  0  0  0
   -9.1819   -6.2321    4.4626 C   0  0  0  0  0  0  0  0  0  0  0  0
  -10.9343   -5.2142    3.0278 C   0  0  0  0  0  0  0  0  0  0  0  0
  -11.8538   -5.2132    4.2053 C   0  0  0  0  0  0  0  0  0  0  0  0
  -11.3750   -4.7293    1.8389 C   0  0  0  0  0  0  0  0  0  0  0  0
  -10.5524   -4.7165    0.7125 C   0  0  0  0  0  0  0  0  0  0  0  0
  -10.9450   -4.2249   -0.5501 N   0  0  0  0  0  0  0  0  0  0  0  0
  -10.1196   -4.4307   -1.6745 C   0  0  0  0  0  0  0  0  0  0  0  0
  -11.8880   -3.0470   -0.5900 C   0  0  0  0  0  0  0  0  0  0  0  0
  -12.1700   -2.3399    0.7704 C   0  0  1  0  0  0  0  0  0  0  0  0
  -10.9743   -2.2497    1.5321 O   0  0  0  0  0  0  0  0  0  0  0  0
  -12.8644   -0.9664    0.6118 C   0  0  1  0  0  0  0  0  0  0  0  0
  -14.2321   -1.0571    1.0002 O   0  0  0  0  0  0  0  0  0  0  0  0
  -12.1964    0.2419    1.3130 C   0  0  1  0  0  0  0  0  0  0  0  0
  -12.8821    1.4254    0.9193 O   0  0  0  0  0  0  0  0  0  0  0  0
  -12.2288    0.1376    2.8544 C   0  0  0  0  0  0  0  0  0  0  0  0
  -13.5154    0.4212    3.3913 O   0  0  0  0  0  0  0  0  0  0  0  0
  -13.9090    1.8449    3.9652 P   0  0  0  0  0  0  0  0  0  0  0  0
  -13.4737    1.9861    5.3733 O   0  0  0  0  0  0  0  0  0  0  0  0
  -13.5533    2.9110    3.0040 O   0  5  0  0  0  0  0  0  0  0  0  0
  -15.4999    1.8052    4.0145 O   0  5  0  0  0  0  0  0  0  0  0  0
  1 18  1  0  0  0  0
  1  2  1  0  0  0  0
  2  4  1  0  0  0  0
  2  3  2  0  0  0  0
  4  5  1  0  0  0  0
  5  7  1  0  0  0  0
  5  6  2  0  0  0  0
  7 18  2  0  0  0  0
  7  8  1  0  0  0  0
  8  9  1  0  0  0  0
  9 10  2  0  0  0  0
  9 16  1  0  0  0  0
 10 11  1  0  0  0  0
 11 12  1  0  0  0  0
 11 13  2  0  0  0  0
 13 14  1  0  0  0  0
 13 15  1  0  0  0  0
 15 16  2  0  0  0  0
 16 17  1  0  0  0  0
 17 19  1  0  0  0  0
 17 18  1  0  0  0  0
 20 19  1  6  0  0  0
 20 22  1  0  0  0  0
 20 21  1  0  0  0  0
 22 24  1  0  0  0  0
 22 23  1  1  0  0  0
 24 26  1  1  0  0  0
 24 25  1  0  0  0  0
 26 27  1  0  0  0  0
 27 28  1  0  0  0  0
 28 30  1  0  0  0  0
 28 29  2  0  0  0  0
 28 31  1  0  0  0  0
M  CHG  2  30  -1  31  -1
M  END
>  <CHROM.1>
9.16997070,40.11184307,106.58640401,-166.81011461,173.02096222,79.42810009
-75.52782558,172.20776774,-97.34661678,-84.08835940,-11.25225048,-2.53073666
0.93296038,0.34998093,1.01021133,-1.29953118

>  <Name>
1fmn_cryst

>  <RI>
0

>  <Rbt.Current_Directory>
/home/itssahil/PROJECTS/Mol_Feturizer/New_Systems/rnas/1fmn

>  <Rbt.Executable>
rbdock ($Id: //depot/dev/client3/rdock/2013.1/src/exe/rbdock.cxx#4 $)

>  <Rbt.Library>
libRbt.so (2013.1, Build901 2013/11/27)

>  <Rbt.Parameter_File>
/export/apps/rDock/src/rDock_2013.1_src/data/scripts/dock_solv.prm

>  <Rbt.Receptor>
prm/blind_docking_20.prm

>  <SCORE>
-36.5782

>  <SCORE.INTER>
-41.4823

>  <SCORE.INTER.CONST>
1

>  <SCORE.INTER.POLAR>
-1.5835

>  <SCORE.INTER.ROT>
7

>  <SCORE.INTER.SOLV>
21.9849

>  <SCORE.INTER.VDW>
-37.9715

>  <SCORE.INTER.norm>
-1.33814

>  <SCORE.INTRA>
3.24594

>  <SCORE.INTRA.DIHEDRAL>
1.98978

>  <SCORE.INTRA.DIHEDRAL.0>
15.5708

>  <SCORE.INTRA.POLAR>
-0.966858

>  <SCORE.INTRA.POLAR.0>
-0.0677885

>  <SCORE.INTRA.REPUL>
0

>  <SCORE.INTRA.REPUL.0>
0

>  <SCORE.INTRA.SOLV>
0.114821

>  <SCORE.INTRA.SOLV.lig_0>
-87.6316

>  <SCORE.INTRA.VDW>
5.48095

>  <SCORE.INTRA.VDW.0>
-2.87309

>  <SCORE.INTRA.norm>
0.104708

>  <SCORE.RESTR>
1.65822

>  <SCORE.RESTR.CAVITY>
1.65822

>  <SCORE.RESTR.norm>
0.0534911

>  <SCORE.SYSTEM>
0

>  <SCORE.SYSTEM.CONST>
0

>  <SCORE.SYSTEM.DIHEDRAL>
0

>  <SCORE.SYSTEM.SOLV>
0

>  <SCORE.SYSTEM.norm>
0

>  <SCORE.heavy>
31

>  <SCORE.norm>
-1.17994

>  <SYMMETRIC_BONDS>
33 34 3

>  <RMSD>
9.529

$$$$
1fmn_cryst
 OpenBabel11021811393D
libRbt.so/2013.1/901 2013/11/27
 31 33  0  0  0  0  0  0  0  0999 V2000
  -11.1049   -3.4135   -2.4103 N   0  0  0  0  0  0  0  0  0  0  0  0
  -10.5003   -3.4154   -3.6456 C   0  0  0  0  0  0  0  0  0  0  0  0
  -11.0788   -3.0144   -4.6560 O   0  0  0  0  0  0  0  0  0  0  0  0
   -9.1732   -3.9122   -3.6820 N   0  0  0  0  0  0  0  0  0  0  0  0
   -8.4240   -4.3994   -2.5886 C   0  0  0  0  0  0  0  0  0  0  0  0
   -7.2675   -4.8040   -2.7622 O   0  0  0  0  0  0  0  0  0  0  0  0
   -9.1378   -4.3648   -1.3101 C   0  0  0  0  0  0  0  0  0  0  0  0
   -8.4778   -4.8216   -0.1966 N   0  0  0  0  0  0  0  0  0  0  0  0
   -9.2008   -4.9574    0.9530 C   0  0  0  0  0  0  0  0  0  0  0  0
   -8.5960   -5.5879    2.0259 C   0  0  0  0  0  0  0  0  0  0  0  0
   -9.2526   -5.7570    3.1971 C   0  0  0  0  0  0  0  0  0  0  0  0
   -8.5523   -6.4422    4.3269 C   0  0  0  0  0  0  0  0  0  0  0  0
  -10.5290   -5.3084    3.3406 C   0  0  0  0  0  0  0  0  0  0  0  0
  -11.2488   -5.5055    4.6349 C   0  0  0  0  0  0  0  0  0  0  0  0
  -11.1623   -4.6833    2.3154 C   0  0  0  0  0  0  0  0  0  0  0  0
  -10.5302   -4.4834    1.0882 C   0  0  0  0  0  0  0  0  0  0  0  0
  -11.1279   -3.8397   -0.0156 N   0  0  0  0  0  0  0  0  0  0  0  0
  -10.4889   -3.8564   -1.2724 C   0  0  0  0  0  0  0  0  0  0  0  0
  -12.0861   -2.7061    0.2586 C   0  0  0  0  0  0  0  0  0  0  0  0
  -11.8557   -1.9093    1.5786 C   0  0  1  0  0  0  0  0  0  0  0  0
  -10.8908   -0.8876    1.3713 O   0  0  0  0  0  0  0  0  0  0  0  0
  -13.1636   -1.3586    2.1951 C   0  0  1  0  0  0  0  0  0  0  0  0
  -13.4871   -2.0724    3.3848 O   0  0  0  0  0  0  0  0  0  0  0  0
  -13.2255    0.1655    2.4615 C   0  0  1  0  0  0  0  0  0  0  0  0
  -14.5929    0.5554    2.5256 O   0  0  0  0  0  0  0  0  0  0  0  0
  -12.5289    0.5759    3.7784 C   0  0  0  0  0  0  0  0  0  0  0  0
  -13.3704    0.4085    4.9132 O   0  0  0  0  0  0  0  0  0  0  0  0
  -14.3556    1.5402    5.4232 P   0  0  0  0  0  0  0  0  0  0  0  0
  -14.5304    2.5914    4.3954 O   0  0  0  0  0  0  0  0  0  0  0  0
  -15.5611    0.9436    6.0379 O   0  5  0  0  0  0  0  0  0  0  0  0
  -13.5510    2.2347    6.6085 O   0  5  0  0  0  0  0  0  0  0  0  0
  1 18  1  0  0  0  0
  1  2  1  0  0  0  0
  2  4  1  0  0  0  0
  2  3  2  0  0  0  0
  4  5  1  0  0  0  0
  5  7  1  0  0  0  0
  5  6  2  0  0  0  0
  7 18  2  0  0  0  0
  7  8  1  0  0  0  0
  8  9  1  0  0  0  0
  9 10  2  0  0  0  0
  9 16  1  0  0  0  0
 10 11  1  0  0  0  0
 11 12  1  0  0  0  0
 11 13  2  0  0  0  0
 13 14  1  0  0  0  0
 13 15  1  0  0  0  0
 15 16  2  0  0  0  0
 16 17  1  0  0  0  0
 17 19  1  0  0  0  0
 17 18  1  0  0  0  0
 20 19  1  6  0  0  0
 20 22  1  0  0  0  0
 20 21  1  0  0  0  0
 22 24  1  0  0  0  0
 22 23  1  1  0  0  0
 24 26  1  1  0  0  0
 24 25  1  0  0  0  0
 26 27  1  0  0  0  0
 27 28  1  0  0  0  0
 28 30  1  0  0  0  0
 28 29  2  0  0  0  0
 28 31  1  0  0  0  0
M  CHG  2  30  -1  31  -1
M  END
>  <CHROM.1>
27.73632524,85.19532539,109.01425048,63.91522351,158.02797557,56.56643097
-82.98612790,179.70452516,-88.32315942,14.64776785,-11.47284179,-2.35864828
1.65492396,0.55048372,0.95555814,-1.36183876

>  <Name>
1fmn_cryst

>  <RI>
0

>  <Rbt.Current_Directory>
/home/itssahil/PROJECTS/Mol_Feturizer/New_Systems/rnas/1fmn

>  <Rbt.Executable>
rbdock ($Id: //depot/dev/client3/rdock/2013.1/src/exe/rbdock.cxx#4 $)

>  <Rbt.Library>
libRbt.so (2013.1, Build901 2013/11/27)

>  <Rbt.Parameter_File>
/export/apps/rDock/src/rDock_2013.1_src/data/scripts/dock_solv.prm

>  <Rbt.Receptor>
prm/blind_docking_100.prm

>  <SCORE>
-32.8275

>  <SCORE.INTER>
-36.3162

>  <SCORE.INTER.CONST>
1

>  <SCORE.INTER.POLAR>
-1.53638

>  <SCORE.INTER.ROT>
7

>  <SCORE.INTER.SOLV>
26.2819

>  <SCORE.INTER.VDW>
-36.1169

>  <SCORE.INTER.norm>
-1.17149

>  <SCORE.INTRA>
0.705221

>  <SCORE.INTRA.DIHEDRAL>
2.05908

>  <SCORE.INTRA.DIHEDRAL.0>
15.5708

>  <SCORE.INTRA.POLAR>
-0.40785

>  <SCORE.INTRA.POLAR.0>
-0.0677885

>  <SCORE.INTRA.REPUL>
0

>  <SCORE.INTRA.REPUL.0>
0

>  <SCORE.INTRA.SOLV>
-0.361816

>  <SCORE.INTRA.SOLV.lig_0>
-87.6316

>  <SCORE.INTRA.VDW>
1.24328

>  <SCORE.INTRA.VDW.0>
-2.87309

>  <SCORE.INTRA.norm>
0.0227491

>  <SCORE.RESTR>
2.78353

>  <SCORE.RESTR.CAVITY>
2.78353

>  <SCORE.RESTR.norm>
0.0897913

>  <SCORE.SYSTEM>
0

>  <SCORE.SYSTEM.CONST>
0

>  <SCORE.SYSTEM.DIHEDRAL>
0

>  <SCORE.SYSTEM.SOLV>
0

>  <SCORE.SYSTEM.norm>
0

>  <SCORE.heavy>
31

>  <SCORE.norm>
-1.05895

>  <SYMMETRIC_BONDS>
33 34 3

>  <RMSD>
9.530

$$$$
1fmn_cryst
 OpenBabel11021811393D
libRbt.so/2013.1/901 2013/11/27
 31 33  0  0  0  0  0  0  0  0999 V2000
  -11.8901   -3.0196   -1.2484 N   0  0  0  0  0  0  0  0  0  0  0  0
  -11.6374   -2.7995   -2.5823 C   0  0  0  0  0  0  0  0  0  0  0  0
  -12.4288   -2.1930   -3.3051 O   0  0  0  0  0  0  0  0  0  0  0  0
  -10.4127   -3.3188   -3.0720 N   0  0  0  0  0  0  0  0  0  0  0  0
   -9.4424   -4.0310   -2.3334 C   0  0  0  0  0  0  0  0  0  0  0  0
   -8.4105   -4.4281   -2.8890 O   0  0  0  0  0  0  0  0  0  0  0  0
   -9.7859   -4.2242   -0.9227 C   0  0  0  0  0  0  0  0  0  0  0  0
   -8.8935   -4.9078   -0.1350 N   0  0  0  0  0  0  0  0  0  0  0  0
   -9.2938   -5.2429    1.1259 C   0  0  0  0  0  0  0  0  0  0  0  0
   -8.4794   -6.0873    1.8594 C   0  0  0  0  0  0  0  0  0  0  0  0
   -8.8130   -6.4611    3.1166 C   0  0  0  0  0  0  0  0  0  0  0  0
   -7.8961   -7.3731    3.8677 C   0  0  0  0  0  0  0  0  0  0  0  0
   -9.9644   -6.0113    3.6848 C   0  0  0  0  0  0  0  0  0  0  0  0
  -10.3284   -6.4346    5.0706 C   0  0  0  0  0  0  0  0  0  0  0  0
  -10.7940   -5.1806    3.0032 C   0  0  0  0  0  0  0  0  0  0  0  0
  -10.4964   -4.7651    1.7054 C   0  0  0  0  0  0  0  0  0  0  0  0
  -11.3111   -3.9018    0.9432 N   0  0  0  0  0  0  0  0  0  0  0  0
  -11.0323   -3.6931   -0.4231 C   0  0  0  0  0  0  0  0  0  0  0  0
  -12.0664   -2.8152    1.6694 C   0  0  0  0  0  0  0  0  0  0  0  0
  -11.9396   -1.3755    1.0851 C   0  0  1  0  0  0  0  0  0  0  0  0
  -13.1493   -1.0001    0.4420 O   0  0  0  0  0  0  0  0  0  0  0  0
  -11.4880   -0.3297    2.1322 C   0  0  1  0  0  0  0  0  0  0  0  0
  -10.8057    0.7454    1.4933 O   0  0  0  0  0  0  0  0  0  0  0  0
  -12.5773    0.2272    3.0815 C   0  0  1  0  0  0  0  0  0  0  0  0
  -13.2303   -0.8707    3.7093 O   0  0  0  0  0  0  0  0  0  0  0  0
  -12.0055    1.1572    4.1751 C   0  0  0  0  0  0  0  0  0  0  0  0
  -12.9227    1.3698    5.2417 O   0  0  0  0  0  0  0  0  0  0  0  0
  -14.2782    2.1701    5.0588 P   0  0  0  0  0  0  0  0  0  0  0  0
  -14.8384    2.5677    6.3703 O   0  0  0  0  0  0  0  0  0  0  0  0
  -14.1375    3.2004    4.0073 O   0  5  0  0  0  0  0  0  0  0  0  0
  -15.2844    1.0805    4.4799 O   0  5  0  0  0  0  0  0  0  0  0  0
  1 18  1  0  0  0  0
  1  2  1  0  0  0  0
  2  4  1  0  0  0  0
  2  3  2  0  0  0  0
  4  5  1  0  0  0  0
  5  7  1  0  0  0  0
  5  6  2  0  0  0  0
  7 18  2  0  0  0  0
  7  8  1  0  0  0  0
  8  9  1  0  0  0  0
  9 10  2  0  0  0  0
  9 16  1  0  0  0  0
 10 11  1  0  0  0  0
 11 12  1  0  0  0  0
 11 13  2  0  0  0  0
 13 14  1  0  0  0  0
 13 15  1  0  0  0  0
 15 16  2  0  0  0  0
 16 17  1  0  0  0  0
 17 19  1  0  0  0  0
 17 18  1  0  0  0  0
 20 19  1  1  0  0  0
 20 22  1  0  0  0  0
 20 21  1  0  0  0  0
 22 24  1  0  0  0  0
 22 23  1  6  0  0  0
 24 26  1  1  0  0  0
 24 25  1  0  0  0  0
 26 27  1  0  0  0  0
 27 28  1  0  0  0  0
 28 30  1  0  0  0  0
 28 29  2  0  0  0  0
 28 31  1  0  0  0  0
M  CHG  2  30  -1  31  -1
M  END
>  <CHROM.1>
130.35393344,106.97651276,152.89398236,60.91594149,53.79995310,58.70991654
-163.96646098,-154.01372826,-67.25004378,-163.93094232,-11.50334324,-2.17570602
1.80326670,0.41689636,1.03384916,-1.45191260

>  <Name>
1fmn_cryst

>  <RI>
0

>  <Rbt.Current_Directory>
/home/itssahil/PROJECTS/Mol_Feturizer/New_Systems/rnas/1fmn

>  <Rbt.Executable>
rbdock ($Id: //depot/dev/client3/rdock/2013.1/src/exe/rbdock.cxx#4 $)

>  <Rbt.Library>
libRbt.so (2013.1, Build901 2013/11/27)

>  <Rbt.Parameter_File>
/export/apps/rDock/src/rDock_2013.1_src/data/scripts/dock_solv.prm

>  <Rbt.Receptor>
prm/blind_docking_80.prm

>  <SCORE>
-34.352

>  <SCORE.INTER>
-32.4109

>  <SCORE.INTER.CONST>
1

>  <SCORE.INTER.POLAR>
-0.696718

>  <SCORE.INTER.ROT>
7

>  <SCORE.INTER.SOLV>
23.7742

>  <SCORE.INTER.VDW>
-35.4763

>  <SCORE.INTER.norm>
-1.04551

>  <SCORE.INTRA>
-3.45353

>  <SCORE.INTRA.DIHEDRAL>
-1.21174

>  <SCORE.INTRA.DIHEDRAL.0>
15.5708

>  <SCORE.INTRA.POLAR>
-1.08578

>  <SCORE.INTRA.POLAR.0>
-0.0677885

>  <SCORE.INTRA.REPUL>
0

>  <SCORE.INTRA.REPUL.0>
0

>  <SCORE.INTRA.SOLV>
0.253389

>  <SCORE.INTRA.SOLV.lig_0>
-87.6316

>  <SCORE.INTRA.VDW>
0.717287

>  <SCORE.INTRA.VDW.0>
-2.87309

>  <SCORE.INTRA.norm>
-0.111404

>  <SCORE.RESTR>
1.51242

>  <SCORE.RESTR.CAVITY>
1.51242

>  <SCORE.RESTR.norm>
0.0487878

>  <SCORE.SYSTEM>
0

>  <SCORE.SYSTEM.CONST>
0

>  <SCORE.SYSTEM.DIHEDRAL>
0

>  <SCORE.SYSTEM.SOLV>
0

>  <SCORE.SYSTEM.norm>
0

>  <SCORE.heavy>
31

>  <SCORE.norm>
-1.10813

>  <SYMMETRIC_BONDS>
33 34 3

>  <RMSD>
9.531

$$$$
1fmn_cryst
 OpenBabel11021811393D
libRbt.so/2013.1/901 2013/11/27
 31 33  0  0  0  0  0  0  0  0999 V2000
  -10.8138   -3.5607   -2.4755 N   0  0  0  0  0  0  0  0  0  0  0  0
  -10.1648   -3.5956   -3.6876 C   0  0  0  0  0  0  0  0  0  0  0  0
  -10.7018   -3.2107   -4.7268 O   0  0  0  0  0  0  0  0  0  0  0  0
   -8.8427   -4.1065   -3.6649 N   0  0  0  0  0  0  0  0  0  0  0  0
   -8.1391   -4.5776   -2.5348 C   0  0  0  0  0  0  0  0  0  0  0  0
   -6.9816   -4.9976   -2.6574 O   0  0  0  0  0  0  0  0  0  0  0  0
   -8.8984   -4.5081   -1.2843 C   0  0  0  0  0  0  0  0  0  0  0  0
   -8.2844   -4.9473   -0.1379 N   0  0  0  0  0  0  0  0  0  0  0  0
   -9.0500   -5.0509    0.9871 C   0  0  0  0  0  0  0  0  0  0  0  0
   -8.4915   -5.6641    2.0946 C   0  0  0  0  0  0  0  0  0  0  0  0
   -9.1920   -5.8011    3.2443 C   0  0  0  0  0  0  0  0  0  0  0  0
   -8.5408   -6.4688    4.4133 C   0  0  0  0  0  0  0  0  0  0  0  0
  -10.4678   -5.3364    3.3316 C   0  0  0  0  0  0  0  0  0  0  0  0
  -11.2362   -5.4981    4.6026 C   0  0  0  0  0  0  0  0  0  0  0  0
  -11.0565   -4.7273    2.2708 C   0  0  0  0  0  0  0  0  0  0  0  0
  -10.3782   -4.5605    1.0635 C   0  0  0  0  0  0  0  0  0  0  0  0
  -10.9283   -3.9347   -0.0748 N   0  0  0  0  0  0  0  0  0  0  0  0
  -10.2443   -3.9852   -1.3067 C   0  0  0  0  0  0  0  0  0  0  0  0
  -11.8833   -2.7858    0.1401 C   0  0  0  0  0  0  0  0  0  0  0  0
  -11.8757   -2.1355    1.5569 C   0  0  1  0  0  0  0  0  0  0  0  0
  -10.9096   -1.0955    1.6128 O   0  0  0  0  0  0  0  0  0  0  0  0
  -13.2736   -1.6568    2.0161 C   0  0  1  0  0  0  0  0  0  0  0  0
  -13.4921   -2.0077    3.3795 O   0  0  0  0  0  0  0  0  0  0  0  0
  -13.6096   -0.1613    1.7963 C   0  0  1  0  0  0  0  0  0  0  0  0
  -14.9945   -0.0527    1.4865 O   0  0  0  0  0  0  0  0  0  0  0  0
  -13.3067    0.7126    3.0342 C   0  0  0  0  0  0  0  0  0  0  0  0
  -13.3354    2.1037    2.7374 O   0  0  0  0  0  0  0  0  0  0  0  0
  -12.2556    2.8047    1.8133 P   0  0  0  0  0  0  0  0  0  0  0  0
  -12.8803    3.8473    0.9678 O   0  0  0  0  0  0  0  0  0  0  0  0
  -11.0497    3.1551    2.5942 O   0  5  0  0  0  0  0  0  0  0  0  0
  -11.8135    1.6516    0.8084 O   0  5  0  0  0  0  0  0  0  0  0  0
  1 18  1  0  0  0  0
  1  2  1  0  0  0  0
  2  4  1  0  0  0  0
  2  3  2  0  0  0  0
  4  5  1  0  0  0  0
  5  7  1  0  0  0  0
  5  6  2  0  0  0  0
  7 18  2  0  0  0  0
  7  8  1  0  0  0  0
  8  9  1  0  0  0  0
  9 10  2  0  0  0  0
  9 16  1  0  0  0  0
 10 11  1  0  0  0  0
 11 12  1  0  0  0  0
 11 13  2  0  0  0  0
 13 14  1  0  0  0  0
 13 15  1  0  0  0  0
 15 16  2  0  0  0  0
 16 17  1  0  0  0  0
 17 19  1  0  0  0  0
 17 18  1  0  0  0  0
 20 19  1  6  0  0  0
 20 22  1  0  0  0  0
 20 21  1  0  0  0  0
 22 24  1  0  0  0  0
 22 23  1  1  0  0  0
 24 26  1  1  0  0  0
 24 25  1  0  0  0  0
 26 27  1  0  0  0  0
 27 28  1  0  0  0  0
 28 30  1  0  0  0  0
 28 29  2  0  0  0  0
 28 31  1  0  0  0  0
M  CHG  2  30  -1  31  -1
M  END
>  <CHROM.1>
16.50321480,88.61295619,136.92104748,68.12623153,145.25312023,52.07833604
167.05858992,-53.46232479,-68.11149391,142.46238754,-10.99724117,-2.22445262
0.80976366,-0.13239969,1.08150856,-1.05328390

>  <Name>
1fmn_cryst

>  <RI>
0

>  <Rbt.Current_Directory>
/home/itssahil/PROJECTS/Mol_Feturizer/New_Systems/rnas/1fmn

>  <Rbt.Executable>
rbdock ($Id: //depot/dev/client3/rdock/2013.1/src/exe/rbdock.cxx#4 $)

>  <Rbt.Library>
libRbt.so (2013.1, Build901 2013/11/27)

>  <Rbt.Parameter_File>
/export/apps/rDock/src/rDock_2013.1_src/data/scripts/dock_solv.prm

>  <Rbt.Receptor>
prm/blind_docking_20.prm

>  <SCORE>
-33.05

>  <SCORE.INTER>
-34.8935

>  <SCORE.INTER.CONST>
1

>  <SCORE.INTER.POLAR>
-1.57448

>  <SCORE.INTER.ROT>
7

>  <SCORE.INTER.SOLV>
29.4149

>  <SCORE.INTER.VDW>
-36.0857

>  <SCORE.INTER.norm>
-1.1256

>  <SCORE.INTRA>
-1.45486

>  <SCORE.INTRA.DIHEDRAL>
-0.0280185

>  <SCORE.INTRA.DIHEDRAL.0>
15.5708

>  <SCORE.INTRA.POLAR>
-1.26554

>  <SCORE.INTRA.POLAR.0>
-0.0677885

>  <SCORE.INTRA.REPUL>
0

>  <SCORE.INTRA.REPUL.0>
0

>  <SCORE.INTRA.SOLV>
0.409676

>  <SCORE.INTRA.SOLV.lig_0>
-87.6316

>  <SCORE.INTRA.VDW>
2.65716

>  <SCORE.INTRA.VDW.0>
-2.87309

>  <SCORE.INTRA.norm>
-0.0469311

>  <SCORE.RESTR>
3.29833

>  <SCORE.RESTR.CAVITY>
3.29833

>  <SCORE.RESTR.norm>
0.106398

>  <SCORE.SYSTEM>
0

>  <SCORE.SYSTEM.CONST>
0

>  <SCORE.SYSTEM.DIHEDRAL>
0

>  <SCORE.SYSTEM.SOLV>
0

>  <SCORE.SYSTEM.norm>
0

>  <SCORE.heavy>
31

>  <SCORE.norm>
-1.06613

>  <SYMMETRIC_BONDS>
33 34 3

>  <RMSD>
9.535

$$$$
1fmn_cryst
 OpenBabel11021811393D
libRbt.so/2013.1/901 2013/11/27
 31 33  0  0  0  0  0  0  0  0999 V2000
  -10.7970   -3.5701   -2.4990 N   0  0  0  0  0  0  0  0  0  0  0  0
  -10.1332   -3.5891   -3.7034 C   0  0  0  0  0  0  0  0  0  0  0  0
  -10.6639   -3.2080   -4.7473 O   0  0  0  0  0  0  0  0  0  0  0  0
   -8.8035   -4.0790   -3.6672 N   0  0  0  0  0  0  0  0  0  0  0  0
   -8.1059   -4.5439   -2.5308 C   0  0  0  0  0  0  0  0  0  0  0  0
   -6.9405   -4.9449   -2.6414 O   0  0  0  0  0  0  0  0  0  0  0  0
   -8.8811   -4.4922   -1.2891 C   0  0  0  0  0  0  0  0  0  0  0  0
   -8.2738   -4.9268   -0.1374 N   0  0  0  0  0  0  0  0  0  0  0  0
   -9.0510   -5.0477    0.9779 C   0  0  0  0  0  0  0  0  0  0  0  0
   -8.4959   -5.6569    2.0893 C   0  0  0  0  0  0  0  0  0  0  0  0
   -9.2077   -5.8103    3.2299 C   0  0  0  0  0  0  0  0  0  0  0  0
   -8.5599   -6.4728    4.4037 C   0  0  0  0  0  0  0  0  0  0  0  0
  -10.4917   -5.3664    3.3039 C   0  0  0  0  0  0  0  0  0  0  0  0
  -11.2725   -5.5461    4.5649 C   0  0  0  0  0  0  0  0  0  0  0  0
  -11.0775   -4.7619    2.2389 C   0  0  0  0  0  0  0  0  0  0  0  0
  -10.3876   -4.5789    1.0406 C   0  0  0  0  0  0  0  0  0  0  0  0
  -10.9341   -3.9568   -0.1015 N   0  0  0  0  0  0  0  0  0  0  0  0
  -10.2348   -3.9907   -1.3254 C   0  0  0  0  0  0  0  0  0  0  0  0
  -11.9099   -2.8242    0.1070 C   0  0  0  0  0  0  0  0  0  0  0  0
  -11.8684   -2.1224    1.4984 C   0  0  1  0  0  0  0  0  0  0  0  0
  -10.9167   -1.0679    1.4864 O   0  0  0  0  0  0  0  0  0  0  0  0
  -13.2585   -1.6468    1.9836 C   0  0  1  0  0  0  0  0  0  0  0  0
  -13.4970   -2.0961    3.3142 O   0  0  0  0  0  0  0  0  0  0  0  0
  -13.5569   -0.1310    1.8776 C   0  0  1  0  0  0  0  0  0  0  0  0
  -14.9586    0.0395    1.6981 O   0  0  0  0  0  0  0  0  0  0  0  0
  -13.1161    0.6590    3.1303 C   0  0  0  0  0  0  0  0  0  0  0  0
  -14.1526    0.7638    4.0992 O   0  0  0  0  0  0  0  0  0  0  0  0
  -14.0729    1.7528    5.3349 P   0  0  0  0  0  0  0  0  0  0  0  0
  -13.0348    1.3157    6.2957 O   0  0  0  0  0  0  0  0  0  0  0  0
  -14.0671    3.1591    4.8775 O   0  5  0  0  0  0  0  0  0  0  0  0
  -15.4618    1.5354    6.0823 O   0  5  0  0  0  0  0  0  0  0  0  0
  1 18  1  0  0  0  0
  1  2  1  0  0  0  0
  2  4  1  0  0  0  0
  2  3  2  0  0  0  0
  4  5  1  0  0  0  0
  5  7  1  0  0  0  0
  5  6  2  0  0  0  0
  7 18  2  0  0  0  0
  7  8  1  0  0  0  0
  8  9  1  0  0  0  0
  9 10  2  0  0  0  0
  9 16  1  0  0  0  0
 10 11  1  0  0  0  0
 11 12  1  0  0  0  0
 11 13  2  0  0  0  0
 13 14  1  0  0  0  0
 13 15  1  0  0  0  0
 15 16  2  0  0  0  0
 16 17  1  0  0  0  0
 17 19  1  0  0  0  0
 17 18  1  0  0  0  0
 20 19  1  6  0  0  0
 20 22  1  0  0  0  0
 20 21  1  0  0  0  0
 22 24  1  0  0  0  0
 22 23  1  1  0  0  0
 24 26  1  1  0  0  0
 24 25  1  0  0  0  0
 26 27  1  0  0  0  0
 27 28  1  0  0  0  0
 28 30  1  0  0  0  0
 28 29  2  0  0  0  0
 28 31  1  0  0  0  0
M  CHG  2  30  -1  31  -1
M  END
>  <CHROM.1>
20.14427975,87.94954723,129.69904277,68.65778639,150.87596206,54.58007014
-91.14055761,-56.24777850,-167.48513760,-68.85320115,-11.37722083,-2.43560746
1.54336222,0.51943382,0.94240824,-1.36782450

>  <Name>
1fmn_cryst

>  <RI>
0

>  <Rbt.Current_Directory>
/home/itssahil/PROJECTS/Mol_Feturizer/New_Systems/rnas/1fmn

>  <Rbt.Executable>
rbdock ($Id: //depot/dev/client3/rdock/2013.1/src/exe/rbdock.cxx#4 $)

>  <Rbt.Library>
libRbt.so (2013.1, Build901 2013/11/27)

>  <Rbt.Parameter_File>
/export/apps/rDock/src/rDock_2013.1_src/data/scripts/dock_solv.prm

>  <Rbt.Receptor>
prm/blind_docking_100.prm

>  <SCORE>
-33.5965

>  <SCORE.INTER>
-36.5478

>  <SCORE.INTER.CONST>
1

>  <SCORE.INTER.POLAR>
-1.54638

>  <SCORE.INTER.ROT>
7

>  <SCORE.INTER.SOLV>
27.2188

>  <SCORE.INTER.VDW>
-36.5502

>  <SCORE.INTER.norm>
-1.17896

>  <SCORE.INTRA>
0.243241

>  <SCORE.INTRA.DIHEDRAL>
0.945413

>  <SCORE.INTRA.DIHEDRAL.0>
15.5708

>  <SCORE.INTRA.POLAR>
0.0677885

>  <SCORE.INTRA.POLAR.0>
-0.0677885

>  <SCORE.INTRA.REPUL>
0

>  <SCORE.INTRA.REPUL.0>
0

>  <SCORE.INTRA.SOLV>
-4.96499

>  <SCORE.INTRA.SOLV.lig_0>
-87.6316

>  <SCORE.INTRA.VDW>
2.02255

>  <SCORE.INTRA.VDW.0>
-2.87309

>  <SCORE.INTRA.norm>
0.00784649

>  <SCORE.RESTR>
2.70801

>  <SCORE.RESTR.CAVITY>
2.70801

>  <SCORE.RESTR.norm>
0.0873551

>  <SCORE.SYSTEM>
0

>  <SCORE.SYSTEM.CONST>
0

>  <SCORE.SYSTEM.DIHEDRAL>
0

>  <SCORE.SYSTEM.SOLV>
0

>  <SCORE.SYSTEM.norm>
0

>  <SCORE.heavy>
31

>  <SCORE.norm>
-1.08376

>  <SYMMETRIC_BONDS>
33 34 3

>  <RMSD>
9.539

$$$$
1fmn_cryst
 OpenBabel11021811393D
libRbt.so/2013.1/901 2013/11/27
 31 33  0  0  0  0  0  0  0  0999 V2000
  -12.1334    1.1094   -1.1593 N   0  0  0  0  0  0  0  0  0  0  0  0
  -11.6038    1.9163   -2.1391 C   0  0  0  0  0  0  0  0  0  0  0  0
  -11.2416    1.4690   -3.2278 O   0  0  0  0  0  0  0  0  0  0  0  0
  -11.4971    3.2920   -1.8145 N   0  0  0  0  0  0  0  0  0  0  0  0
  -11.8752    3.9043   -0.5994 C   0  0  0  0  0  0  0  0  0  0  0  0
  -11.7280    5.1237   -0.4491 O   0  0  0  0  0  0  0  0  0  0  0  0
  -12.4288    2.9784    0.3913 C   0  0  0  0  0  0  0  0  0  0  0  0
  -12.8214    3.4956    1.6007 N   0  0  0  0  0  0  0  0  0  0  0  0
  -13.1654    2.6119    2.5822 C   0  0  0  0  0  0  0  0  0  0  0  0
  -13.3829    3.1113    3.8540 C   0  0  0  0  0  0  0  0  0  0  0  0
  -13.7276    2.2936    4.8758 C   0  0  0  0  0  0  0  0  0  0  0  0
  -13.9544    2.8844    6.2307 C   0  0  0  0  0  0  0  0  0  0  0  0
  -13.8657    0.9559    4.6691 C   0  0  0  0  0  0  0  0  0  0  0  0
  -14.2398    0.0595    5.8043 C   0  0  0  0  0  0  0  0  0  0  0  0
  -13.6631    0.4212    3.4379 C   0  0  0  0  0  0  0  0  0  0  0  0
  -13.3069    1.2201    2.3514 C   0  0  0  0  0  0  0  0  0  0  0  0
  -13.0851    0.7309    1.0470 N   0  0  0  0  0  0  0  0  0  0  0  0
  -12.5400    1.5773    0.0598 C   0  0  0  0  0  0  0  0  0  0  0  0
  -13.9212   -0.4339    0.5751 C   0  0  0  0  0  0  0  0  0  0  0  0
  -13.1414   -1.6836    0.0649 C   0  0  1  0  0  0  0  0  0  0  0  0
  -12.6245   -1.4404   -1.2357 O   0  0  0  0  0  0  0  0  0  0  0  0
  -12.0455   -2.1619    1.0470 C   0  0  1  0  0  0  0  0  0  0  0  0
  -12.4180   -1.8581    2.3880 O   0  0  0  0  0  0  0  0  0  0  0  0
  -11.6104   -3.6444    0.9436 C   0  0  1  0  0  0  0  0  0  0  0  0
  -11.4217   -3.9625   -0.4308 O   0  0  0  0  0  0  0  0  0  0  0  0
  -10.3007   -3.9427    1.7075 C   0  0  0  0  0  0  0  0  0  0  0  0
   -9.9223   -5.3115    1.6235 O   0  0  0  0  0  0  0  0  0  0  0  0
   -8.8383   -5.9606    2.5799 P   0  0  0  0  0  0  0  0  0  0  0  0
   -7.8139   -4.9654    2.9702 O   0  0  0  0  0  0  0  0  0  0  0  0
   -9.4901   -6.7589    3.6406 O   0  5  0  0  0  0  0  0  0  0  0  0
   -8.0829   -7.0022    1.6421 O   0  5  0  0  0  0  0  0  0  0  0  0
  1 18  1  0  0  0  0
  1  2  1  0  0  0  0
  2  4  1  0  0  0  0
  2  3  2  0  0  0  0
  4  5  1  0  0  0  0
  5  7  1  0  0  0  0
  5  6  2  0  0  0  0
  7 18  2  0  0  0  0
  7  8  1  0  0  0  0
  8  9  1  0  0  0  0
  9 10  2  0  0  0  0
  9 16  1  0  0  0  0
 10 11  1  0  0  0  0
 11 12  1  0  0  0  0
 11 13  2  0  0  0  0
 13 14  1  0  0  0  0
 13 15  1  0  0  0  0
 15 16  2  0  0  0  0
 16 17  1  0  0  0  0
 17 19  1  0  0  0  0
 17 18  1  0  0  0  0
 20 19  1  1  0  0  0
 20 22  1  0  0  0  0
 20 21  1  0  0  0  0
 22 24  1  0  0  0  0
 22 23  1  1  0  0  0
 24 26  1  1  0  0  0
 24 25  1  0  0  0  0
 26 27  1  0  0  0  0
 27 28  1  0  0  0  0
 28 30  1  0  0  0  0
 28 29  2  0  0  0  0
 28 31  1  0  0  0  0
M  CHG  2  30  -1  31  -1
M  END
>  <CHROM.1>
-124.74304130,-76.22340482,30.01993146,-178.72553481,45.52252423,54.56454398
179.05309824,-81.35357624,-164.91326936,-31.34397537,-11.79807383,-0.69702313
1.45764565,-2.51423285,-1.09662298,2.14233157

>  <Name>
1fmn_cryst

>  <RI>
0

>  <Rbt.Current_Directory>
/home/itssahil/PROJECTS/Mol_Feturizer/New_Systems/rnas/1fmn

>  <Rbt.Executable>
rbdock ($Id: //depot/dev/client3/rdock/2013.1/src/exe/rbdock.cxx#4 $)

>  <Rbt.Library>
libRbt.so (2013.1, Build901 2013/11/27)

>  <Rbt.Parameter_File>
/export/apps/rDock/src/rDock_2013.1_src/data/scripts/dock_solv.prm

>  <Rbt.Receptor>
prm/blind_docking_20.prm

>  <SCORE>
-10.7179

>  <SCORE.INTER>
-7.90269

>  <SCORE.INTER.CONST>
1

>  <SCORE.INTER.POLAR>
-1.50476

>  <SCORE.INTER.ROT>
7

>  <SCORE.INTER.SOLV>
31.4103

>  <SCORE.INTER.VDW>
-18.9894

>  <SCORE.INTER.norm>
-0.254925

>  <SCORE.INTRA>
-6.20396

>  <SCORE.INTRA.DIHEDRAL>
-4.21619

>  <SCORE.INTRA.DIHEDRAL.0>
15.5708

>  <SCORE.INTRA.POLAR>
-1.01787

>  <SCORE.INTRA.POLAR.0>
-0.0677885

>  <SCORE.INTRA.REPUL>
0

>  <SCORE.INTRA.REPUL.0>
0

>  <SCORE.INTRA.SOLV>
-2.68583

>  <SCORE.INTRA.SOLV.lig_0>
-87.6316

>  <SCORE.INTRA.VDW>
0.707818

>  <SCORE.INTRA.VDW.0>
-2.87309

>  <SCORE.INTRA.norm>
-0.200128

>  <SCORE.RESTR>
3.38877

>  <SCORE.RESTR.CAVITY>
3.38877

>  <SCORE.RESTR.norm>
0.109315

>  <SCORE.SYSTEM>
0

>  <SCORE.SYSTEM.CONST>
0

>  <SCORE.SYSTEM.DIHEDRAL>
0

>  <SCORE.SYSTEM.SOLV>
0

>  <SCORE.SYSTEM.norm>
0

>  <SCORE.heavy>
31

>  <SCORE.norm>
-0.345738

>  <SYMMETRIC_BONDS>
33 34 3

>  <RMSD>
9.541

$$$$
1fmn_cryst
 OpenBabel11021811393D
libRbt.so/2013.1/901 2013/11/27
 31 33  0  0  0  0  0  0  0  0999 V2000
  -10.8215   -3.9171   -3.0248 N   0  0  0  0  0  0  0  0  0  0  0  0
  -10.1080   -4.0482   -4.1932 C   0  0  0  0  0  0  0  0  0  0  0  0
  -10.5892   -3.7552   -5.2883 O   0  0  0  0  0  0  0  0  0  0  0  0
   -8.7877   -4.5460   -4.0572 N   0  0  0  0  0  0  0  0  0  0  0  0
   -8.1448   -4.9161   -2.8556 C   0  0  0  0  0  0  0  0  0  0  0  0
   -6.9812   -5.3365   -2.8805 O   0  0  0  0  0  0  0  0  0  0  0  0
   -8.9707   -4.7480   -1.6577 C   0  0  0  0  0  0  0  0  0  0  0  0
   -8.4182   -5.0857   -0.4474 N   0  0  0  0  0  0  0  0  0  0  0  0
   -9.2431   -5.1006    0.6397 C   0  0  0  0  0  0  0  0  0  0  0  0
   -8.7435   -5.6154    1.8229 C   0  0  0  0  0  0  0  0  0  0  0  0
   -9.5046   -5.6611    2.9409 C   0  0  0  0  0  0  0  0  0  0  0  0
   -8.9156   -6.2243    4.1948 C   0  0  0  0  0  0  0  0  0  0  0  0
  -10.7845   -5.2000    2.9206 C   0  0  0  0  0  0  0  0  0  0  0  0
  -11.6199   -5.2606    4.1577 C   0  0  0  0  0  0  0  0  0  0  0  0
  -11.3168   -4.6856    1.7826 C   0  0  0  0  0  0  0  0  0  0  0  0
  -10.5748   -4.6152    0.6037 C   0  0  0  0  0  0  0  0  0  0  0  0
  -11.0644   -4.0905   -0.6108 N   0  0  0  0  0  0  0  0  0  0  0  0
  -10.3148   -4.2385   -1.7958 C   0  0  0  0  0  0  0  0  0  0  0  0
  -12.0327   -2.9345   -0.5442 C   0  0  0  0  0  0  0  0  0  0  0  0
  -12.2615   -2.3038    0.8630 C   0  0  1  0  0  0  0  0  0  0  0  0
  -11.0187   -2.1275    1.5281 O   0  0  0  0  0  0  0  0  0  0  0  0
  -13.0888   -0.9970    0.8187 C   0  0  1  0  0  0  0  0  0  0  0  0
  -14.3924   -1.2201    1.3482 O   0  0  0  0  0  0  0  0  0  0  0  0
  -12.4587    0.2541    1.4787 C   0  0  1  0  0  0  0  0  0  0  0  0
  -12.0111    1.1283    0.4484 O   0  0  0  0  0  0  0  0  0  0  0  0
  -13.4480    1.0197    2.3858 C   0  0  0  0  0  0  0  0  0  0  0  0
  -13.6503    0.3730    3.6367 O   0  0  0  0  0  0  0  0  0  0  0  0
  -14.4332    1.0524    4.8353 P   0  0  0  0  0  0  0  0  0  0  0  0
  -15.8417    1.3176    4.4640 O   0  0  0  0  0  0  0  0  0  0  0  0
  -14.1567    0.3466    6.1051 O   0  5  0  0  0  0  0  0  0  0  0  0
  -13.7517    2.4852    4.9670 O   0  5  0  0  0  0  0  0  0  0  0  0
  1 18  1  0  0  0  0
  1  2  1  0  0  0  0
  2  4  1  0  0  0  0
  2  3  2  0  0  0  0
  4  5  1  0  0  0  0
  5  7  1  0  0  0  0
  5  6  2  0  0  0  0
  7 18  2  0  0  0  0
  7  8  1  0  0  0  0
  8  9  1  0  0  0  0
  9 10  2  0  0  0  0
  9 16  1  0  0  0  0
 10 11  1  0  0  0  0
 11 12  1  0  0  0  0
 11 13  2  0  0  0  0
 13 14  1  0  0  0  0
 13 15  1  0  0  0  0
 15 16  2  0  0  0  0
 16 17  1  0  0  0  0
 17 19  1  0  0  0  0
 17 18  1  0  0  0  0
 20 19  1  6  0  0  0
 20 22  1  0  0  0  0
 20 21  1  0  0  0  0
 22 24  1  0  0  0  0
 22 23  1  1  0  0  0
 24 26  1  6  0  0  0
 24 25  1  0  0  0  0
 26 27  1  0  0  0  0
 27 28  1  0  0  0  0
 28 30  1  0  0  0  0
 28 29  2  0  0  0  0
 28 31  1  0  0  0  0
M  CHG  2  30  -1  31  -1
M  END
>  <CHROM.1>
7.69607006,44.65788492,108.24354123,-169.26050540,105.66354598,76.14178169
76.45044905,-56.31158087,170.23058312,62.76679883,-11.41629503,-2.57547256
1.00785890,0.50693193,0.95140431,-1.33306575

>  <Name>
1fmn_cryst

>  <RI>
0

>  <Rbt.Current_Directory>
/home/itssahil/PROJECTS/Mol_Feturizer/New_Systems/rnas/1fmn

>  <Rbt.Executable>
rbdock ($Id: //depot/dev/client3/rdock/2013.1/src/exe/rbdock.cxx#4 $)

>  <Rbt.Library>
libRbt.so (2013.1, Build901 2013/11/27)

>  <Rbt.Parameter_File>
/export/apps/rDock/src/rDock_2013.1_src/data/scripts/dock_solv.prm

>  <Rbt.Receptor>
prm/blind_docking_80.prm

>  <SCORE>
-38.2081

>  <SCORE.INTER>
-42.3426

>  <SCORE.INTER.CONST>
1

>  <SCORE.INTER.POLAR>
-2.05672

>  <SCORE.INTER.ROT>
7

>  <SCORE.INTER.SOLV>
28.3392

>  <SCORE.INTER.VDW>
-39.0857

>  <SCORE.INTER.norm>
-1.36589

>  <SCORE.INTRA>
2.65177

>  <SCORE.INTRA.DIHEDRAL>
0.244631

>  <SCORE.INTRA.DIHEDRAL.0>
15.5708

>  <SCORE.INTRA.POLAR>
-0.333849

>  <SCORE.INTRA.POLAR.0>
-0.0677885

>  <SCORE.INTRA.REPUL>
0

>  <SCORE.INTRA.REPUL.0>
0

>  <SCORE.INTRA.SOLV>
-3.8338

>  <SCORE.INTRA.SOLV.lig_0>
-87.6316

>  <SCORE.INTRA.VDW>
5.58143

>  <SCORE.INTRA.VDW.0>
-2.87309

>  <SCORE.INTRA.norm>
0.0855408

>  <SCORE.RESTR>
1.48273

>  <SCORE.RESTR.CAVITY>
1.48273

>  <SCORE.RESTR.norm>
0.04783

>  <SCORE.SYSTEM>
0

>  <SCORE.SYSTEM.CONST>
0

>  <SCORE.SYSTEM.DIHEDRAL>
0

>  <SCORE.SYSTEM.SOLV>
0

>  <SCORE.SYSTEM.norm>
0

>  <SCORE.heavy>
31

>  <SCORE.norm>
-1.23252

>  <SYMMETRIC_BONDS>
33 34 3

>  <RMSD>
9.549

$$$$
1fmn_cryst
 OpenBabel11021811393D
libRbt.so/2013.1/901 2013/11/27
 31 33  0  0  0  0  0  0  0  0999 V2000
  -10.8459   -4.3819   -1.9507 N   0  0  0  0  0  0  0  0  0  0  0  0
  -10.3111   -4.2351   -3.2093 C   0  0  0  0  0  0  0  0  0  0  0  0
  -11.0018   -3.9216   -4.1795 O   0  0  0  0  0  0  0  0  0  0  0  0
   -8.9178   -4.4720   -3.3190 N   0  0  0  0  0  0  0  0  0  0  0  0
   -8.0396   -4.8403   -2.2762 C   0  0  0  0  0  0  0  0  0  0  0  0
   -6.8375   -5.0149   -2.5124 O   0  0  0  0  0  0  0  0  0  0  0  0
   -8.6856   -4.9769   -0.9688 C   0  0  0  0  0  0  0  0  0  0  0  0
   -7.8997   -5.3326    0.0989 N   0  0  0  0  0  0  0  0  0  0  0  0
   -8.5289   -5.6346    1.2716 C   0  0  0  0  0  0  0  0  0  0  0  0
   -7.7666   -6.1701    2.2946 C   0  0  0  0  0  0  0  0  0  0  0  0
   -8.3235   -6.4929    3.4850 C   0  0  0  0  0  0  0  0  0  0  0  0
   -7.4546   -7.0658    4.5589 C   0  0  0  0  0  0  0  0  0  0  0  0
   -9.6529   -6.2967    3.6978 C   0  0  0  0  0  0  0  0  0  0  0  0
  -10.2608   -6.6623    5.0126 C   0  0  0  0  0  0  0  0  0  0  0  0
  -10.4399   -5.7732    2.7234 C   0  0  0  0  0  0  0  0  0  0  0  0
   -9.9155   -5.4233    1.4792 C   0  0  0  0  0  0  0  0  0  0  0  0
  -10.6748   -4.8725    0.4255 N   0  0  0  0  0  0  0  0  0  0  0  0
  -10.1045   -4.7331   -0.8564 C   0  0  0  0  0  0  0  0  0  0  0  0
  -11.8136   -3.9477    0.7808 C   0  0  0  0  0  0  0  0  0  0  0  0
  -11.6779   -2.4690    0.3062 C   0  0  1  0  0  0  0  0  0  0  0  0
  -12.2438   -2.3164   -0.9877 O   0  0  0  0  0  0  0  0  0  0  0  0
  -12.2529   -1.4485    1.3173 C   0  0  1  0  0  0  0  0  0  0  0  0
  -11.2090   -0.6357    1.8457 O   0  0  0  0  0  0  0  0  0  0  0  0
  -13.4187   -0.5557    0.8257 C   0  0  1  0  0  0  0  0  0  0  0  0
  -14.1038   -0.0443    1.9638 O   0  0  0  0  0  0  0  0  0  0  0  0
  -12.9443    0.6303   -0.0437 C   0  0  0  0  0  0  0  0  0  0  0  0
  -12.3099    1.6468    0.7233 O   0  0  0  0  0  0  0  0  0  0  0  0
  -11.9978    3.0882    0.1435 P   0  0  0  0  0  0  0  0  0  0  0  0
  -10.9737    3.0184   -0.9236 O   0  0  0  0  0  0  0  0  0  0  0  0
  -13.2517    3.8245   -0.1257 O   0  5  0  0  0  0  0  0  0  0  0  0
  -11.2946    3.8395    1.3584 O   0  5  0  0  0  0  0  0  0  0  0  0
  1 18  1  0  0  0  0
  1  2  1  0  0  0  0
  2  4  1  0  0  0  0
  2  3  2  0  0  0  0
  4  5  1  0  0  0  0
  5  7  1  0  0  0  0
  5  6  2  0  0  0  0
  7 18  2  0  0  0  0
  7  8  1  0  0  0  0
  8  9  1  0  0  0  0
  9 10  2  0  0  0  0
  9 16  1  0  0  0  0
 10 11  1  0  0  0  0
 11 12  1  0  0  0  0
 11 13  2  0  0  0  0
 13 14  1  0  0  0  0
 13 15  1  0  0  0  0
 15 16  2  0  0  0  0
 16 17  1  0  0  0  0
 17 19  1  0  0  0  0
 17 18  1  0  0  0  0
 20 19  1  1  0  0  0
 20 22  1  0  0  0  0
 20 21  1  0  0  0  0
 22 24  1  0  0  0  0
 22 23  1  6  0  0  0
 24 26  1  1  0  0  0
 24 25  1  0  0  0  0
 26 27  1  0  0  0  0
 27 28  1  0  0  0  0
 28 30  1  0  0  0  0
 28 29  2  0  0  0  0
 28 31  1  0  0  0  0
M  CHG  2  30  -1  31  -1
M  END
>  <CHROM.1>
115.64984593,89.93925006,114.35262338,67.49699247,160.05202257,-165.89221946
-73.34634984,-65.96727289,-167.13418628,-67.02518272,-10.62257323,-2.54441429
0.38034984,-0.39210134,1.12340344,-1.25157594

>  <Name>
1fmn_cryst

>  <RI>
0

>  <Rbt.Current_Directory>
/home/itssahil/PROJECTS/Mol_Feturizer/New_Systems/rnas/1fmn

>  <Rbt.Executable>
rbdock ($Id: //depot/dev/client3/rdock/2013.1/src/exe/rbdock.cxx#4 $)

>  <Rbt.Library>
libRbt.so (2013.1, Build901 2013/11/27)

>  <Rbt.Parameter_File>
/export/apps/rDock/src/rDock_2013.1_src/data/scripts/dock_solv.prm

>  <Rbt.Receptor>
prm/blind_docking_60.prm

>  <SCORE>
-41.4542

>  <SCORE.INTER>
-40.9562

>  <SCORE.INTER.CONST>
1

>  <SCORE.INTER.POLAR>
-3.37289

>  <SCORE.INTER.ROT>
7

>  <SCORE.INTER.SOLV>
31.0658

>  <SCORE.INTER.VDW>
-34.6831

>  <SCORE.INTER.norm>
-1.32117

>  <SCORE.INTRA>
-2.5396

>  <SCORE.INTRA.DIHEDRAL>
-1.64326

>  <SCORE.INTRA.DIHEDRAL.0>
15.5708

>  <SCORE.INTRA.POLAR>
-0.0819271

>  <SCORE.INTRA.POLAR.0>
-0.0677885

>  <SCORE.INTRA.REPUL>
0

>  <SCORE.INTRA.REPUL.0>
0

>  <SCORE.INTRA.SOLV>
-3.83886

>  <SCORE.INTRA.SOLV.lig_0>
-87.6316

>  <SCORE.INTRA.VDW>
0.480012

>  <SCORE.INTRA.VDW.0>
-2.87309

>  <SCORE.INTRA.norm>
-0.0819225

>  <SCORE.RESTR>
2.04155

>  <SCORE.RESTR.CAVITY>
2.04155

>  <SCORE.RESTR.norm>
0.0658564

>  <SCORE.SYSTEM>
0

>  <SCORE.SYSTEM.CONST>
0

>  <SCORE.SYSTEM.DIHEDRAL>
0

>  <SCORE.SYSTEM.SOLV>
0

>  <SCORE.SYSTEM.norm>
0

>  <SCORE.heavy>
31

>  <SCORE.norm>
-1.33723

>  <SYMMETRIC_BONDS>
33 34 3

>  <RMSD>
9.550

$$$$
1fmn_cryst
 OpenBabel11021811393D
libRbt.so/2013.1/901 2013/11/27
 31 33  0  0  0  0  0  0  0  0999 V2000
  -10.0930   -4.2409   -3.2241 N   0  0  0  0  0  0  0  0  0  0  0  0
   -9.1526   -4.4852   -4.1974 C   0  0  0  0  0  0  0  0  0  0  0  0
   -9.3861   -4.2988   -5.3921 O   0  0  0  0  0  0  0  0  0  0  0  0
   -7.9015   -4.9689   -3.7389 N   0  0  0  0  0  0  0  0  0  0  0  0
   -7.5341   -5.2219   -2.3990 C   0  0  0  0  0  0  0  0  0  0  0  0
   -6.4006   -5.6441   -2.1375 O   0  0  0  0  0  0  0  0  0  0  0  0
   -8.5897   -4.9379   -1.4243 C   0  0  0  0  0  0  0  0  0  0  0  0
   -8.3117   -5.1576   -0.0981 N   0  0  0  0  0  0  0  0  0  0  0  0
   -9.3471   -5.0664    0.7863 C   0  0  0  0  0  0  0  0  0  0  0  0
   -9.1188   -5.4649    2.0915 C   0  0  0  0  0  0  0  0  0  0  0  0
  -10.0990   -5.4015    3.0224 C   0  0  0  0  0  0  0  0  0  0  0  0
   -9.7993   -5.8415    4.4199 C   0  0  0  0  0  0  0  0  0  0  0  0
  -11.3357   -4.9430    2.6884 C   0  0  0  0  0  0  0  0  0  0  0  0
  -12.4139   -4.8829    3.7209 C   0  0  0  0  0  0  0  0  0  0  0  0
  -11.6054   -4.5405    1.4203 C   0  0  0  0  0  0  0  0  0  0  0  0
  -10.6305   -4.5852    0.4238 C   0  0  0  0  0  0  0  0  0  0  0  0
  -10.8422   -4.1798   -0.9107 N   0  0  0  0  0  0  0  0  0  0  0  0
   -9.8634   -4.4426   -1.8910 C   0  0  0  0  0  0  0  0  0  0  0  0
  -11.7777   -3.0217   -1.1597 C   0  0  0  0  0  0  0  0  0  0  0  0
  -12.3483   -2.3091    0.1040 C   0  0  1  0  0  0  0  0  0  0  0  0
  -11.2986   -2.0112    1.0136 O   0  0  0  0  0  0  0  0  0  0  0  0
  -13.1999   -1.0616   -0.2313 C   0  0  1  0  0  0  0  0  0  0  0  0
  -14.4997   -1.1836    0.3389 O   0  0  0  0  0  0  0  0  0  0  0  0
  -12.5942    0.3176    0.1276 C   0  0  1  0  0  0  0  0  0  0  0  0
  -13.0697    1.2754   -0.8117 O   0  0  0  0  0  0  0  0  0  0  0  0
  -12.9688    0.7883    1.5509 C   0  0  0  0  0  0  0  0  0  0  0  0
  -11.9453    1.5739    2.1505 O   0  0  0  0  0  0  0  0  0  0  0  0
  -11.4012    2.9125    1.4998 P   0  0  0  0  0  0  0  0  0  0  0  0
  -10.3485    3.5211    2.3446 O   0  0  0  0  0  0  0  0  0  0  0  0
  -11.1287    2.7186    0.0592 O   0  5  0  0  0  0  0  0  0  0  0  0
  -12.6424    3.9058    1.5865 O   0  5  0  0  0  0  0  0  0  0  0  0
  1 18  1  0  0  0  0
  1  2  1  0  0  0  0
  2  4  1  0  0  0  0
  2  3  2  0  0  0  0
  4  5  1  0  0  0  0
  5  7  1  0  0  0  0
  5  6  2  0  0  0  0
  7 18  2  0  0  0  0
  7  8  1  0  0  0  0
  8  9  1  0  0  0  0
  9 10  2  0  0  0  0
  9 16  1  0  0  0  0
 10 11  1  0  0  0  0
 11 12  1  0  0  0  0
 11 13  2  0  0  0  0
 13 14  1  0  0  0  0
 13 15  1  0  0  0  0
 15 16  2  0  0  0  0
 16 17  1  0  0  0  0
 17 19  1  0  0  0  0
 17 18  1  0  0  0  0
 20 19  1  6  0  0  0
 20 22  1  0  0  0  0
 20 21  1  0  0  0  0
 22 24  1  0  0  0  0
 22 23  1  1  0  0  0
 24 26  1  1  0  0  0
 24 25  1  0  0  0  0
 26 27  1  0  0  0  0
 27 28  1  0  0  0  0
 28 30  1  0  0  0  0
 28 29  2  0  0  0  0
 28 31  1  0  0  0  0
M  CHG  2  30  -1  31  -1
M  END
>  <CHROM.1>
4.30996647,48.67056249,124.04633563,-175.84452704,149.17644312,-77.99641799
148.03037009,-167.22836444,58.12798349,179.62578308,-10.77498043,-2.23456437
0.11394477,-0.39317971,1.14276964,-0.79623191

>  <Name>
1fmn_cryst

>  <RI>
0

>  <Rbt.Current_Directory>
/home/itssahil/PROJECTS/Mol_Feturizer/New_Systems/rnas/1fmn

>  <Rbt.Executable>
rbdock ($Id: //depot/dev/client3/rdock/2013.1/src/exe/rbdock.cxx#4 $)

>  <Rbt.Library>
libRbt.so (2013.1, Build901 2013/11/27)

>  <Rbt.Parameter_File>
/export/apps/rDock/src/rDock_2013.1_src/data/scripts/dock_solv.prm

>  <Rbt.Receptor>
prm/blind_docking_60.prm

>  <SCORE>
-35.7559

>  <SCORE.INTER>
-39.9682

>  <SCORE.INTER.CONST>
1

>  <SCORE.INTER.POLAR>
-1.87047

>  <SCORE.INTER.ROT>
7

>  <SCORE.INTER.SOLV>
34.6091

>  <SCORE.INTER.VDW>
-40.2136

>  <SCORE.INTER.norm>
-1.2893

>  <SCORE.INTRA>
3.29481

>  <SCORE.INTRA.DIHEDRAL>
0.584032

>  <SCORE.INTRA.DIHEDRAL.0>
15.5708

>  <SCORE.INTRA.POLAR>
-0.742477

>  <SCORE.INTRA.POLAR.0>
-0.0677885

>  <SCORE.INTRA.REPUL>
0

>  <SCORE.INTRA.REPUL.0>
0

>  <SCORE.INTRA.SOLV>
1.25665

>  <SCORE.INTRA.SOLV.lig_0>
-87.6316

>  <SCORE.INTRA.VDW>
4.89889

>  <SCORE.INTRA.VDW.0>
-2.87309

>  <SCORE.INTRA.norm>
0.106284

>  <SCORE.RESTR>
0.917536

>  <SCORE.RESTR.CAVITY>
0.917536

>  <SCORE.RESTR.norm>
0.0295979

>  <SCORE.SYSTEM>
0

>  <SCORE.SYSTEM.CONST>
0

>  <SCORE.SYSTEM.DIHEDRAL>
0

>  <SCORE.SYSTEM.SOLV>
0

>  <SCORE.SYSTEM.norm>
0

>  <SCORE.heavy>
31

>  <SCORE.norm>
-1.15342

>  <SYMMETRIC_BONDS>
33 34 3

>  <RMSD>
9.558

$$$$
1fmn_cryst
 OpenBabel11021811393D
libRbt.so/2013.1/901 2013/11/27
 31 33  0  0  0  0  0  0  0  0999 V2000
  -11.5346   -3.4134   -1.3814 N   0  0  0  0  0  0  0  0  0  0  0  0
  -11.1924   -3.2113   -2.6980 C   0  0  0  0  0  0  0  0  0  0  0  0
  -11.9572   -2.6669   -3.4950 O   0  0  0  0  0  0  0  0  0  0  0  0
   -9.9076   -3.6732   -3.0793 N   0  0  0  0  0  0  0  0  0  0  0  0
   -8.9602   -4.3127   -2.2501 C   0  0  0  0  0  0  0  0  0  0  0  0
   -7.8688   -4.6650   -2.7151 O   0  0  0  0  0  0  0  0  0  0  0  0
   -9.4001   -4.4913   -0.8646 C   0  0  0  0  0  0  0  0  0  0  0  0
   -8.5355   -5.1055    0.0069 N   0  0  0  0  0  0  0  0  0  0  0  0
   -9.0130   -5.4323    1.2429 C   0  0  0  0  0  0  0  0  0  0  0  0
   -8.2132   -6.2126    2.0589 C   0  0  0  0  0  0  0  0  0  0  0  0
   -8.6219   -6.5745    3.2972 C   0  0  0  0  0  0  0  0  0  0  0  0
   -7.7179   -7.4161    4.1404 C   0  0  0  0  0  0  0  0  0  0  0  0
   -9.8360   -6.1760    3.7643 C   0  0  0  0  0  0  0  0  0  0  0  0
  -10.2821   -6.5859    5.1300 C   0  0  0  0  0  0  0  0  0  0  0  0
  -10.6541   -5.4090    2.9993 C   0  0  0  0  0  0  0  0  0  0  0  0
  -10.2804   -5.0084    1.7166 C   0  0  0  0  0  0  0  0  0  0  0  0
  -11.0792   -4.2100    0.8713 N   0  0  0  0  0  0  0  0  0  0  0  0
  -10.7079   -4.0185   -0.4753 C   0  0  0  0  0  0  0  0  0  0  0  0
  -11.9451   -3.1501    1.5080 C   0  0  0  0  0  0  0  0  0  0  0  0
  -11.9192   -1.7420    0.8396 C   0  0  1  0  0  0  0  0  0  0  0  0
  -13.0195   -1.6012   -0.0477 O   0  0  0  0  0  0  0  0  0  0  0  0
  -11.8432   -0.5828    1.8615 C   0  0  1  0  0  0  0  0  0  0  0  0
  -11.5935    0.6497    1.1920 O   0  0  0  0  0  0  0  0  0  0  0  0
  -13.0405   -0.4232    2.8306 C   0  0  1  0  0  0  0  0  0  0  0  0
  -13.2669   -1.6721    3.4746 O   0  0  0  0  0  0  0  0  0  0  0  0
  -12.8025    0.6570    3.9096 C   0  0  0  0  0  0  0  0  0  0  0  0
  -13.8066    0.6488    4.9175 O   0  0  0  0  0  0  0  0  0  0  0  0
  -15.0374    1.6469    4.9083 P   0  0  0  0  0  0  0  0  0  0  0  0
  -15.9720    1.3235    3.8064 O   0  0  0  0  0  0  0  0  0  0  0  0
  -15.5826    1.8149    6.2727 O   0  5  0  0  0  0  0  0  0  0  0  0
  -14.3860    3.0456    4.5158 O   0  5  0  0  0  0  0  0  0  0  0  0
  1 18  1  0  0  0  0
  1  2  1  0  0  0  0
  2  4  1  0  0  0  0
  2  3  2  0  0  0  0
  4  5  1  0  0  0  0
  5  7  1  0  0  0  0
  5  6  2  0  0  0  0
  7 18  2  0  0  0  0
  7  8  1  0  0  0  0
  8  9  1  0  0  0  0
  9 10  2  0  0  0  0
  9 16  1  0  0  0  0
 10 11  1  0  0  0  0
 11 12  1  0  0  0  0
 11 13  2  0  0  0  0
 13 14  1  0  0  0  0
 13 15  1  0  0  0  0
 15 16  2  0  0  0  0
 16 17  1  0  0  0  0
 17 19  1  0  0  0  0
 17 18  1  0  0  0  0
 20 19  1  1  0  0  0
 20 22  1  0  0  0  0
 20 21  1  0  0  0  0
 22 24  1  0  0  0  0
 22 23  1  6  0  0  0
 24 26  1  1  0  0  0
 24 25  1  0  0  0  0
 26 27  1  0  0  0  0
 27 28  1  0  0  0  0
 28 30  1  0  0  0  0
 28 29  2  0  0  0  0
 28 31  1  0  0  0  0
M  CHG  2  30  -1  31  -1
M  END
>  <CHROM.1>
134.07150369,96.66256330,170.10497923,69.87758932,52.99568226,66.59471011
-170.54126820,-160.08889949,-98.14632363,69.64390266,-11.54838556,-2.51299226
1.72276737,0.31549480,0.94367511,-1.36188172

>  <Name>
1fmn_cryst

>  <RI>
0

>  <Rbt.Current_Directory>
/home/itssahil/PROJECTS/Mol_Feturizer/New_Systems/rnas/1fmn

>  <Rbt.Executable>
rbdock ($Id: //depot/dev/client3/rdock/2013.1/src/exe/rbdock.cxx#4 $)

>  <Rbt.Library>
libRbt.so (2013.1, Build901 2013/11/27)

>  <Rbt.Parameter_File>
/export/apps/rDock/src/rDock_2013.1_src/data/scripts/dock_solv.prm

>  <Rbt.Receptor>
prm/blind_docking_80.prm

>  <SCORE>
-33.0557

>  <SCORE.INTER>
-32.9574

>  <SCORE.INTER.CONST>
1

>  <SCORE.INTER.POLAR>
-0.66392

>  <SCORE.INTER.ROT>
7

>  <SCORE.INTER.SOLV>
24.9872

>  <SCORE.INTER.VDW>
-36.3543

>  <SCORE.INTER.norm>
-1.06314

>  <SCORE.INTRA>
-1.19828

>  <SCORE.INTRA.DIHEDRAL>
-0.568354

>  <SCORE.INTRA.DIHEDRAL.0>
15.5708

>  <SCORE.INTRA.POLAR>
-0.511574

>  <SCORE.INTRA.POLAR.0>
-0.0677885

>  <SCORE.INTRA.REPUL>
0

>  <SCORE.INTRA.REPUL.0>
0

>  <SCORE.INTRA.SOLV>
-1.97862

>  <SCORE.INTRA.SOLV.lig_0>
-87.6316

>  <SCORE.INTRA.VDW>
1.81456

>  <SCORE.INTRA.VDW.0>
-2.87309

>  <SCORE.INTRA.norm>
-0.0386541

>  <SCORE.RESTR>
1.10005

>  <SCORE.RESTR.CAVITY>
1.10005

>  <SCORE.RESTR.norm>
0.0354855

>  <SCORE.SYSTEM>
0

>  <SCORE.SYSTEM.CONST>
0

>  <SCORE.SYSTEM.DIHEDRAL>
0

>  <SCORE.SYSTEM.SOLV>
0

>  <SCORE.SYSTEM.norm>
0

>  <SCORE.heavy>
31

>  <SCORE.norm>
-1.06631

>  <SYMMETRIC_BONDS>
33 34 3

>  <RMSD>
9.561

$$$$
1fmn_cryst
 OpenBabel11021811393D
libRbt.so/2013.1/901 2013/11/27
 31 33  0  0  0  0  0  0  0  0999 V2000
  -10.2730   -4.2759   -3.0424 N   0  0  0  0  0  0  0  0  0  0  0  0
   -9.4511   -4.4630   -4.1291 C   0  0  0  0  0  0  0  0  0  0  0  0
   -9.8289   -4.2385   -5.2795 O   0  0  0  0  0  0  0  0  0  0  0  0
   -8.1457   -4.9346   -3.8413 N   0  0  0  0  0  0  0  0  0  0  0  0
   -7.6164   -5.2278   -2.5653 C   0  0  0  0  0  0  0  0  0  0  0  0
   -6.4523   -5.6334   -2.4567 O   0  0  0  0  0  0  0  0  0  0  0  0
   -8.5532   -5.0036   -1.4620 C   0  0  0  0  0  0  0  0  0  0  0  0
   -8.1150   -5.2652   -0.1877 N   0  0  0  0  0  0  0  0  0  0  0  0
   -9.0389   -5.2300    0.8161 C   0  0  0  0  0  0  0  0  0  0  0  0
   -8.6494   -5.6705    2.0685 C   0  0  0  0  0  0  0  0  0  0  0  0
   -9.5124   -5.6634    3.1108 C   0  0  0  0  0  0  0  0  0  0  0  0
   -9.0402   -6.1472    4.4447 C   0  0  0  0  0  0  0  0  0  0  0  0
  -10.7883   -5.2214    2.9439 C   0  0  0  0  0  0  0  0  0  0  0  0
  -11.7365   -5.2235    4.0984 C   0  0  0  0  0  0  0  0  0  0  0  0
  -11.2147   -4.7791    1.7333 C   0  0  0  0  0  0  0  0  0  0  0  0
  -10.3651   -4.7652    0.6273 C   0  0  0  0  0  0  0  0  0  0  0  0
  -10.7417   -4.3163   -0.6559 N   0  0  0  0  0  0  0  0  0  0  0  0
   -9.8823   -4.5208   -1.7548 C   0  0  0  0  0  0  0  0  0  0  0  0
  -11.7213   -3.1714   -0.7470 C   0  0  0  0  0  0  0  0  0  0  0  0
  -12.1445   -2.5141    0.6017 C   0  0  1  0  0  0  0  0  0  0  0  0
  -11.0027   -2.2902    1.4166 O   0  0  0  0  0  0  0  0  0  0  0  0
  -12.9884   -1.2305    0.4165 C   0  0  1  0  0  0  0  0  0  0  0  0
  -14.2960   -1.5615   -0.0420 O   0  0  0  0  0  0  0  0  0  0  0  0
  -13.0819   -0.2721    1.6292 C   0  0  1  0  0  0  0  0  0  0  0  0
  -13.1051   -1.0535    2.8187 O   0  0  0  0  0  0  0  0  0  0  0  0
  -11.8981    0.7180    1.7074 C   0  0  0  0  0  0  0  0  0  0  0  0
  -12.3032    2.0665    1.5043 O   0  0  0  0  0  0  0  0  0  0  0  0
  -13.3399    2.8012    2.4512 P   0  0  0  0  0  0  0  0  0  0  0  0
  -14.6639    2.1407    2.3988 O   0  0  0  0  0  0  0  0  0  0  0  0
  -12.7362    3.0731    3.7735 O   0  5  0  0  0  0  0  0  0  0  0  0
  -13.5452    4.2195    1.7575 O   0  5  0  0  0  0  0  0  0  0  0  0
  1 18  1  0  0  0  0
  1  2  1  0  0  0  0
  2  4  1  0  0  0  0
  2  3  2  0  0  0  0
  4  5  1  0  0  0  0
  5  7  1  0  0  0  0
  5  6  2  0  0  0  0
  7 18  2  0  0  0  0
  7  8  1  0  0  0  0
  8  9  1  0  0  0  0
  9 10  2  0  0  0  0
  9 16  1  0  0  0  0
 10 11  1  0  0  0  0
 11 12  1  0  0  0  0
 11 13  2  0  0  0  0
 13 14  1  0  0  0  0
 13 15  1  0  0  0  0
 15 16  2  0  0  0  0
 16 17  1  0  0  0  0
 17 19  1  0  0  0  0
 17 18  1  0  0  0  0
 20 19  1  6  0  0  0
 20 22  1  0  0  0  0
 20 21  1  0  0  0  0
 22 24  1  0  0  0  0
 22 23  1  1  0  0  0
 24 26  1  1  0  0  0
 24 25  1  0  0  0  0
 26 27  1  0  0  0  0
 27 28  1  0  0  0  0
 28 30  1  0  0  0  0
 28 29  2  0  0  0  0
 28 31  1  0  0  0  0
M  CHG  2  30  -1  31  -1
M  END
>  <CHROM.1>
4.60047462,45.50514342,72.18455900,-173.47578346,-35.42930232,-174.94596505
113.77183442,-76.71464463,60.72200673,-63.05410423,-11.02601296,-2.46080514
0.56088410,0.10660100,1.05647806,-1.21287878

>  <Name>
1fmn_cryst

>  <RI>
0

>  <Rbt.Current_Directory>
/home/itssahil/PROJECTS/Mol_Feturizer/New_Systems/rnas/1fmn

>  <Rbt.Executable>
rbdock ($Id: //depot/dev/client3/rdock/2013.1/src/exe/rbdock.cxx#4 $)

>  <Rbt.Library>
libRbt.so (2013.1, Build901 2013/11/27)

>  <Rbt.Parameter_File>
/export/apps/rDock/src/rDock_2013.1_src/data/scripts/dock_solv.prm

>  <Rbt.Receptor>
prm/blind_docking_60.prm

>  <SCORE>
-39.7227

>  <SCORE.INTER>
-41.2787

>  <SCORE.INTER.CONST>
1

>  <SCORE.INTER.POLAR>
-1.63967

>  <SCORE.INTER.ROT>
7

>  <SCORE.INTER.SOLV>
25.6195

>  <SCORE.INTER.VDW>
-38.8601

>  <SCORE.INTER.norm>
-1.33157

>  <SCORE.INTRA>
0.940688

>  <SCORE.INTRA.DIHEDRAL>
-3.12027

>  <SCORE.INTRA.DIHEDRAL.0>
15.5708

>  <SCORE.INTRA.POLAR>
-0.449653

>  <SCORE.INTRA.POLAR.0>
-0.0677885

>  <SCORE.INTRA.REPUL>
0

>  <SCORE.INTRA.REPUL.0>
0

>  <SCORE.INTRA.SOLV>
-0.82286

>  <SCORE.INTRA.SOLV.lig_0>
-87.6316

>  <SCORE.INTRA.VDW>
4.44107

>  <SCORE.INTRA.VDW.0>
-2.87309

>  <SCORE.INTRA.norm>
0.0303448

>  <SCORE.RESTR>
0.615286

>  <SCORE.RESTR.CAVITY>
0.615286

>  <SCORE.RESTR.norm>
0.0198479

>  <SCORE.SYSTEM>
0

>  <SCORE.SYSTEM.CONST>
0

>  <SCORE.SYSTEM.DIHEDRAL>
0

>  <SCORE.SYSTEM.SOLV>
0

>  <SCORE.SYSTEM.norm>
0

>  <SCORE.heavy>
31

>  <SCORE.norm>
-1.28138

>  <SYMMETRIC_BONDS>
33 34 3

>  <RMSD>
9.568

$$$$
1fmn_cryst
 OpenBabel11021811393D
libRbt.so/2013.1/901 2013/11/27
 31 33  0  0  0  0  0  0  0  0999 V2000
  -12.2941   -2.7484   -1.2942 N   0  0  0  0  0  0  0  0  0  0  0  0
  -12.1670   -2.6186   -2.6574 C   0  0  0  0  0  0  0  0  0  0  0  0
  -12.9927   -2.0053   -3.3345 O   0  0  0  0  0  0  0  0  0  0  0  0
  -11.0296   -3.2390   -3.2327 N   0  0  0  0  0  0  0  0  0  0  0  0
  -10.0304   -3.9678   -2.5511 C   0  0  0  0  0  0  0  0  0  0  0  0
   -9.0844   -4.4582   -3.1804 O   0  0  0  0  0  0  0  0  0  0  0  0
  -10.2384   -4.0610   -1.1043 C   0  0  0  0  0  0  0  0  0  0  0  0
   -9.3099   -4.7538   -0.3680 N   0  0  0  0  0  0  0  0  0  0  0  0
   -9.5976   -4.9931    0.9444 C   0  0  0  0  0  0  0  0  0  0  0  0
   -8.7611   -5.8444    1.6445 C   0  0  0  0  0  0  0  0  0  0  0  0
   -8.9851   -6.1267    2.9489 C   0  0  0  0  0  0  0  0  0  0  0  0
   -8.0489   -7.0506    3.6605 C   0  0  0  0  0  0  0  0  0  0  0  0
  -10.0455   -5.5757    3.5992 C   0  0  0  0  0  0  0  0  0  0  0  0
  -10.2893   -5.8983    5.0375 C   0  0  0  0  0  0  0  0  0  0  0  0
  -10.8926   -4.7343    2.9531 C   0  0  0  0  0  0  0  0  0  0  0  0
  -10.7061   -4.4105    1.6093 C   0  0  0  0  0  0  0  0  0  0  0  0
  -11.5448   -3.5420    0.8796 N   0  0  0  0  0  0  0  0  0  0  0  0
  -11.3956   -3.4269   -0.5177 C   0  0  0  0  0  0  0  0  0  0  0  0
  -12.1599   -2.3723    1.6087 C   0  0  0  0  0  0  0  0  0  0  0  0
  -11.9385   -0.9664    0.9724 C   0  0  1  0  0  0  0  0  0  0  0  0
  -13.0523   -0.6143    0.1641 O   0  0  0  0  0  0  0  0  0  0  0  0
  -11.6051    0.1288    2.0133 C   0  0  1  0  0  0  0  0  0  0  0  0
  -10.7043    1.0814    1.4559 O   0  0  0  0  0  0  0  0  0  0  0  0
  -12.8021    0.8576    2.6718 C   0  0  1  0  0  0  0  0  0  0  0  0
  -14.0031    0.2204    2.2504 O   0  0  0  0  0  0  0  0  0  0  0  0
  -12.7441    0.8384    4.2158 C   0  0  0  0  0  0  0  0  0  0  0  0
  -13.2242    2.0469    4.7928 O   0  0  0  0  0  0  0  0  0  0  0  0
  -13.8561    2.1109    6.2446 P   0  0  0  0  0  0  0  0  0  0  0  0
  -13.8640    3.5000    6.7570 O   0  0  0  0  0  0  0  0  0  0  0  0
  -15.1092    1.3278    6.3027 O   0  5  0  0  0  0  0  0  0  0  0  0
  -12.8034    1.3307    7.1490 O   0  5  0  0  0  0  0  0  0  0  0  0
  1 18  1  0  0  0  0
  1  2  1  0  0  0  0
  2  4  1  0  0  0  0
  2  3  2  0  0  0  0
  4  5  1  0  0  0  0
  5  7  1  0  0  0  0
  5  6  2  0  0  0  0
  7 18  2  0  0  0  0
  7  8  1  0  0  0  0
  8  9  1  0  0  0  0
  9 10  2  0  0  0  0
  9 16  1  0  0  0  0
 10 11  1  0  0  0  0
 11 12  1  0  0  0  0
 11 13  2  0  0  0  0
 13 14  1  0  0  0  0
 13 15  1  0  0  0  0
 15 16  2  0  0  0  0
 16 17  1  0  0  0  0
 17 19  1  0  0  0  0
 17 18  1  0  0  0  0
 20 19  1  1  0  0  0
 20 22  1  0  0  0  0
 20 21  1  0  0  0  0
 22 24  1  0  0  0  0
 22 23  1  6  0  0  0
 24 26  1  1  0  0  0
 24 25  1  0  0  0  0
 26 27  1  0  0  0  0
 27 28  1  0  0  0  0
 28 30  1  0  0  0  0
 28 29  2  0  0  0  0
 28 31  1  0  0  0  0
M  CHG  2  30  -1  31  -1
M  END
>  <CHROM.1>
126.75739800,95.72297035,146.14520538,179.42405201,6.44987051,-158.24636693
143.51607171,112.52186599,153.11331120,161.70121661,-11.63330516,-1.93067523
1.90026819,0.75767094,1.04453892,-1.63526632

>  <Name>
1fmn_cryst

>  <RI>
0

>  <Rbt.Current_Directory>
/home/itssahil/PROJECTS/Mol_Feturizer/New_Systems/rnas/1fmn

>  <Rbt.Executable>
rbdock ($Id: //depot/dev/client3/rdock/2013.1/src/exe/rbdock.cxx#4 $)

>  <Rbt.Library>
libRbt.so (2013.1, Build901 2013/11/27)

>  <Rbt.Parameter_File>
/export/apps/rDock/src/rDock_2013.1_src/data/scripts/dock_solv.prm

>  <Rbt.Receptor>
prm/blind_docking_20.prm

>  <SCORE>
-30.5344

>  <SCORE.INTER>
-38.8272

>  <SCORE.INTER.CONST>
1

>  <SCORE.INTER.POLAR>
-2.12015

>  <SCORE.INTER.ROT>
7

>  <SCORE.INTER.SOLV>
28.4321

>  <SCORE.INTER.VDW>
-36.5616

>  <SCORE.INTER.norm>
-1.25249

>  <SCORE.INTRA>
7.07478

>  <SCORE.INTRA.DIHEDRAL>
14.0854

>  <SCORE.INTRA.DIHEDRAL.0>
15.5708

>  <SCORE.INTRA.POLAR>
-0.417588

>  <SCORE.INTRA.POLAR.0>
-0.0677885

>  <SCORE.INTRA.REPUL>
0

>  <SCORE.INTRA.REPUL.0>
0

>  <SCORE.INTRA.SOLV>
-3.2058

>  <SCORE.INTRA.SOLV.lig_0>
-87.6316

>  <SCORE.INTRA.VDW>
3.0548

>  <SCORE.INTRA.VDW.0>
-2.87309

>  <SCORE.INTRA.norm>
0.228219

>  <SCORE.RESTR>
1.21798

>  <SCORE.RESTR.CAVITY>
1.21798

>  <SCORE.RESTR.norm>
0.0392897

>  <SCORE.SYSTEM>
0

>  <SCORE.SYSTEM.CONST>
0

>  <SCORE.SYSTEM.DIHEDRAL>
0

>  <SCORE.SYSTEM.SOLV>
0

>  <SCORE.SYSTEM.norm>
0

>  <SCORE.heavy>
31

>  <SCORE.norm>
-0.984981

>  <SYMMETRIC_BONDS>
33 34 3

>  <RMSD>
9.570

$$$$
1fmn_cryst
 OpenBabel11021811393D
libRbt.so/2013.1/901 2013/11/27
 31 33  0  0  0  0  0  0  0  0999 V2000
  -11.5476   -3.3117   -1.3886 N   0  0  0  0  0  0  0  0  0  0  0  0
  -11.1968   -3.1155   -2.7039 C   0  0  0  0  0  0  0  0  0  0  0  0
  -11.9466   -2.5530   -3.5025 O   0  0  0  0  0  0  0  0  0  0  0  0
   -9.9215   -3.6057   -3.0818 N   0  0  0  0  0  0  0  0  0  0  0  0
   -8.9913   -4.2675   -2.2506 C   0  0  0  0  0  0  0  0  0  0  0  0
   -7.9067   -4.6436   -2.7127 O   0  0  0  0  0  0  0  0  0  0  0  0
   -9.4396   -4.4380   -0.8667 C   0  0  0  0  0  0  0  0  0  0  0  0
   -8.5917   -5.0726    0.0066 N   0  0  0  0  0  0  0  0  0  0  0  0
   -9.0804   -5.3903    1.2406 C   0  0  0  0  0  0  0  0  0  0  0  0
   -8.3009   -6.1895    2.0581 C   0  0  0  0  0  0  0  0  0  0  0  0
   -8.7215   -6.5438    3.2946 C   0  0  0  0  0  0  0  0  0  0  0  0
   -7.8394   -7.4067    4.1394 C   0  0  0  0  0  0  0  0  0  0  0  0
   -9.9279   -6.1188    3.7584 C   0  0  0  0  0  0  0  0  0  0  0  0
  -10.3874   -6.5204    5.1221 C   0  0  0  0  0  0  0  0  0  0  0  0
  -10.7261   -5.3326    2.9919 C   0  0  0  0  0  0  0  0  0  0  0  0
  -10.3394   -4.9387    1.7110 C   0  0  0  0  0  0  0  0  0  0  0  0
  -11.1174   -4.1214    0.8644 N   0  0  0  0  0  0  0  0  0  0  0  0
  -10.7376   -3.9365   -0.4808 C   0  0  0  0  0  0  0  0  0  0  0  0
  -11.9613   -3.0432    1.4998 C   0  0  0  0  0  0  0  0  0  0  0  0
  -11.8567   -1.6212    0.8696 C   0  0  1  0  0  0  0  0  0  0  0  0
  -12.9937   -1.3604    0.0589 O   0  0  0  0  0  0  0  0  0  0  0  0
  -11.6192   -0.5061    1.9156 C   0  0  1  0  0  0  0  0  0  0  0  0
  -10.5163    0.3078    1.5274 O   0  0  0  0  0  0  0  0  0  0  0  0
  -12.8320    0.3865    2.2761 C   0  0  1  0  0  0  0  0  0  0  0  0
  -14.0183   -0.3859    2.1279 O   0  0  0  0  0  0  0  0  0  0  0  0
  -12.7708    0.9318    3.7206 C   0  0  0  0  0  0  0  0  0  0  0  0
  -14.0464    1.3369    4.2031 O   0  0  0  0  0  0  0  0  0  0  0  0
  -14.2248    2.2867    5.4590 P   0  0  0  0  0  0  0  0  0  0  0  0
  -13.1672    2.0376    6.4647 O   0  0  0  0  0  0  0  0  0  0  0  0
  -14.4783    3.6785    5.0281 O   0  5  0  0  0  0  0  0  0  0  0  0
  -15.5762    1.7768    6.1287 O   0  5  0  0  0  0  0  0  0  0  0  0
  1 18  1  0  0  0  0
  1  2  1  0  0  0  0
  2  4  1  0  0  0  0
  2  3  2  0  0  0  0
  4  5  1  0  0  0  0
  5  7  1  0  0  0  0
  5  6  2  0  0  0  0
  7 18  2  0  0  0  0
  7  8  1  0  0  0  0
  8  9  1  0  0  0  0
  9 10  2  0  0  0  0
  9 16  1  0  0  0  0
 10 11  1  0  0  0  0
 11 12  1  0  0  0  0
 11 13  2  0  0  0  0
 13 14  1  0  0  0  0
 13 15  1  0  0  0  0
 15 16  2  0  0  0  0
 16 17  1  0  0  0  0
 17 19  1  0  0  0  0
 17 18  1  0  0  0  0
 20 19  1  1  0  0  0
 20 22  1  0  0  0  0
 20 21  1  0  0  0  0
 22 24  1  0  0  0  0
 22 23  1  6  0  0  0
 24 26  1  1  0  0  0
 24 25  1  0  0  0  0
 26 27  1  0  0  0  0
 27 28  1  0  0  0  0
 28 30  1  0  0  0  0
 28 29  2  0  0  0  0
 28 31  1  0  0  0  0
M  CHG  2  30  -1  31  -1
M  END
>  <CHROM.1>
131.63964062,102.73972576,129.35653287,179.83174138,30.05799596,-177.23221708
-159.36412592,73.90506725,-162.46846564,-34.08259919,-11.40074423,-2.28151617
1.78754968,0.41085127,1.01946831,-1.43231151

>  <Name>
1fmn_cryst

>  <RI>
0

>  <Rbt.Current_Directory>
/home/itssahil/PROJECTS/Mol_Feturizer/New_Systems/rnas/1fmn

>  <Rbt.Executable>
rbdock ($Id: //depot/dev/client3/rdock/2013.1/src/exe/rbdock.cxx#4 $)

>  <Rbt.Library>
libRbt.so (2013.1, Build901 2013/11/27)

>  <Rbt.Parameter_File>
/export/apps/rDock/src/rDock_2013.1_src/data/scripts/dock_solv.prm

>  <Rbt.Receptor>
prm/blind_docking_80.prm

>  <SCORE>
-31.1444

>  <SCORE.INTER>
-33.2552

>  <SCORE.INTER.CONST>
1

>  <SCORE.INTER.POLAR>
-1.32602

>  <SCORE.INTER.ROT>
7

>  <SCORE.INTER.SOLV>
25.5704

>  <SCORE.INTER.VDW>
-34.5402

>  <SCORE.INTER.norm>
-1.07275

>  <SCORE.INTRA>
1.03173

>  <SCORE.INTRA.DIHEDRAL>
3.86929

>  <SCORE.INTRA.DIHEDRAL.0>
15.5708

>  <SCORE.INTRA.POLAR>
-0.351858

>  <SCORE.INTRA.POLAR.0>
-0.0677885

>  <SCORE.INTRA.REPUL>
0

>  <SCORE.INTRA.REPUL.0>
0

>  <SCORE.INTRA.SOLV>
-3.78096

>  <SCORE.INTRA.SOLV.lig_0>
-87.6316

>  <SCORE.INTRA.VDW>
2.18388

>  <SCORE.INTRA.VDW.0>
-2.87309

>  <SCORE.INTRA.norm>
0.0332818

>  <SCORE.RESTR>
1.07908

>  <SCORE.RESTR.CAVITY>
1.07908

>  <SCORE.RESTR.norm>
0.0348091

>  <SCORE.SYSTEM>
0

>  <SCORE.SYSTEM.CONST>
0

>  <SCORE.SYSTEM.DIHEDRAL>
0

>  <SCORE.SYSTEM.SOLV>
0

>  <SCORE.SYSTEM.norm>
0

>  <SCORE.heavy>
31

>  <SCORE.norm>
-1.00466

>  <SYMMETRIC_BONDS>
33 34 3

>  <RMSD>
9.571

$$$$
1fmn_cryst
 OpenBabel11021811393D
libRbt.so/2013.1/901 2013/11/27
 31 33  0  0  0  0  0  0  0  0999 V2000
  -10.5447   -4.0815   -2.9924 N   0  0  0  0  0  0  0  0  0  0  0  0
   -9.7520   -4.2728   -4.0999 C   0  0  0  0  0  0  0  0  0  0  0  0
  -10.1373   -3.9904   -5.2349 O   0  0  0  0  0  0  0  0  0  0  0  0
   -8.4677   -4.8193   -3.8523 N   0  0  0  0  0  0  0  0  0  0  0  0
   -7.9326   -5.1823   -2.5969 C   0  0  0  0  0  0  0  0  0  0  0  0
   -6.7891   -5.6497   -2.5235 O   0  0  0  0  0  0  0  0  0  0  0  0
   -8.8378   -4.9488   -1.4694 C   0  0  0  0  0  0  0  0  0  0  0  0
   -8.3920   -5.2755   -0.2130 N   0  0  0  0  0  0  0  0  0  0  0  0
   -9.2957   -5.2278    0.8086 C   0  0  0  0  0  0  0  0  0  0  0  0
   -8.9080   -5.7300    2.0382 C   0  0  0  0  0  0  0  0  0  0  0  0
   -9.7518   -5.7148    3.0961 C   0  0  0  0  0  0  0  0  0  0  0  0
   -9.2824   -6.2670    4.4042 C   0  0  0  0  0  0  0  0  0  0  0  0
  -11.0060   -5.2033    2.9678 C   0  0  0  0  0  0  0  0  0  0  0  0
  -11.9334   -5.1969    4.1391 C   0  0  0  0  0  0  0  0  0  0  0  0
  -11.4297   -4.6990    1.7808 C   0  0  0  0  0  0  0  0  0  0  0  0
  -10.5994   -4.6904    0.6601 C   0  0  0  0  0  0  0  0  0  0  0  0
  -10.9743   -4.1795   -0.6002 N   0  0  0  0  0  0  0  0  0  0  0  0
  -10.1452   -4.3896   -1.7212 C   0  0  0  0  0  0  0  0  0  0  0  0
  -11.8954   -2.9842   -0.6349 C   0  0  0  0  0  0  0  0  0  0  0  0
  -12.0787   -2.2128    0.7073 C   0  0  1  0  0  0  0  0  0  0  0  0
  -10.9273   -2.3714    1.5240 O   0  0  0  0  0  0  0  0  0  0  0  0
  -12.4518   -0.7242    0.5096 C   0  0  1  0  0  0  0  0  0  0  0  0
  -13.8565   -0.5894    0.3142 O   0  0  0  0  0  0  0  0  0  0  0  0
  -11.9730    0.2688    1.5970 C   0  0  1  0  0  0  0  0  0  0  0  0
  -10.9802    1.1147    1.0273 O   0  0  0  0  0  0  0  0  0  0  0  0
  -13.1148    1.1478    2.1551 C   0  0  0  0  0  0  0  0  0  0  0  0
  -13.2793    0.9973    3.5602 O   0  0  0  0  0  0  0  0  0  0  0  0
  -14.2562    1.9103    4.4107 P   0  0  0  0  0  0  0  0  0  0  0  0
  -13.5333    3.0695    4.9815 O   0  0  0  0  0  0  0  0  0  0  0  0
  -15.5153    2.1539    3.6744 O   0  5  0  0  0  0  0  0  0  0  0  0
  -14.6404    0.9947    5.6553 O   0  5  0  0  0  0  0  0  0  0  0  0
  1 18  1  0  0  0  0
  1  2  1  0  0  0  0
  2  4  1  0  0  0  0
  2  3  2  0  0  0  0
  4  5  1  0  0  0  0
  5  7  1  0  0  0  0
  5  6  2  0  0  0  0
  7 18  2  0  0  0  0
  7  8  1  0  0  0  0
  8  9  1  0  0  0  0
  9 10  2  0  0  0  0
  9 16  1  0  0  0  0
 10 11  1  0  0  0  0
 11 12  1  0  0  0  0
 11 13  2  0  0  0  0
 13 14  1  0  0  0  0
 13 15  1  0  0  0  0
 15 16  2  0  0  0  0
 16 17  1  0  0  0  0
 17 19  1  0  0  0  0
 17 18  1  0  0  0  0
 20 19  1  6  0  0  0
 20 22  1  0  0  0  0
 20 21  1  0  0  0  0
 22 24  1  0  0  0  0
 22 23  1  1  0  0  0
 24 26  1  6  0  0  0
 24 25  1  0  0  0  0
 26 27  1  0  0  0  0
 27 28  1  0  0  0  0
 28 30  1  0  0  0  0
 28 29  2  0  0  0  0
 28 31  1  0  0  0  0
M  CHG  2  30  -1  31  -1
M  END
>  <CHROM.1>
14.16108728,27.07193278,83.88445656,-168.16039234,111.62420154,54.66464252
121.21373103,-164.16933907,172.33012458,-93.53660846,-11.25293722,-2.46898771
0.96894444,0.33402541,1.02589760,-1.23661755

>  <Name>
1fmn_cryst

>  <RI>
0

>  <Rbt.Current_Directory>
/home/itssahil/PROJECTS/Mol_Feturizer/New_Systems/rnas/1fmn

>  <Rbt.Executable>
rbdock ($Id: //depot/dev/client3/rdock/2013.1/src/exe/rbdock.cxx#4 $)

>  <Rbt.Library>
libRbt.so (2013.1, Build901 2013/11/27)

>  <Rbt.Parameter_File>
/export/apps/rDock/src/rDock_2013.1_src/data/scripts/dock_solv.prm

>  <Rbt.Receptor>
prm/blind_docking_60.prm

>  <SCORE>
-30.0615

>  <SCORE.INTER>
-40.5057

>  <SCORE.INTER.CONST>
1

>  <SCORE.INTER.POLAR>
-2.09681

>  <SCORE.INTER.ROT>
7

>  <SCORE.INTER.SOLV>
25.4217

>  <SCORE.INTER.VDW>
-36.755

>  <SCORE.INTER.norm>
-1.30664

>  <SCORE.INTRA>
9.0266

>  <SCORE.INTRA.DIHEDRAL>
5.2875

>  <SCORE.INTRA.DIHEDRAL.0>
15.5708

>  <SCORE.INTRA.POLAR>
0.0677885

>  <SCORE.INTRA.POLAR.0>
-0.0677885

>  <SCORE.INTRA.REPUL>
0

>  <SCORE.INTRA.REPUL.0>
0

>  <SCORE.INTRA.SOLV>
-4.60651

>  <SCORE.INTRA.SOLV.lig_0>
-87.6316

>  <SCORE.INTRA.VDW>
8.45563

>  <SCORE.INTRA.VDW.0>
-2.87309

>  <SCORE.INTRA.norm>
0.291181

>  <SCORE.RESTR>
1.41761

>  <SCORE.RESTR.CAVITY>
1.41761

>  <SCORE.RESTR.norm>
0.0457292

>  <SCORE.SYSTEM>
0

>  <SCORE.SYSTEM.CONST>
0

>  <SCORE.SYSTEM.DIHEDRAL>
0

>  <SCORE.SYSTEM.SOLV>
0

>  <SCORE.SYSTEM.norm>
0

>  <SCORE.heavy>
31

>  <SCORE.norm>
-0.969726

>  <SYMMETRIC_BONDS>
33 34 3

>  <RMSD>
9.582

$$$$
1fmn_cryst
 OpenBabel11021811393D
libRbt.so/2013.1/901 2013/11/27
 31 33  0  0  0  0  0  0  0  0999 V2000
  -10.7091   -4.5017   -2.0215 N   0  0  0  0  0  0  0  0  0  0  0  0
  -10.1374   -4.3684   -3.2653 C   0  0  0  0  0  0  0  0  0  0  0  0
  -10.8009   -4.0765   -4.2608 O   0  0  0  0  0  0  0  0  0  0  0  0
   -8.7392   -4.5931   -3.3287 N   0  0  0  0  0  0  0  0  0  0  0  0
   -7.8899   -4.9369   -2.2541 C   0  0  0  0  0  0  0  0  0  0  0  0
   -6.6795   -5.1031   -2.4508 O   0  0  0  0  0  0  0  0  0  0  0  0
   -8.5744   -5.0603   -0.9651 C   0  0  0  0  0  0  0  0  0  0  0  0
   -7.8182   -5.3921    0.1314 N   0  0  0  0  0  0  0  0  0  0  0  0
   -8.4803   -5.6826    1.2889 C   0  0  0  0  0  0  0  0  0  0  0  0
   -7.7447   -6.1951    2.3428 C   0  0  0  0  0  0  0  0  0  0  0  0
   -8.3348   -6.5055    3.5204 C   0  0  0  0  0  0  0  0  0  0  0  0
   -7.4938   -7.0535    4.6290 C   0  0  0  0  0  0  0  0  0  0  0  0
   -9.6719   -6.3193    3.6895 C   0  0  0  0  0  0  0  0  0  0  0  0
  -10.3163   -6.6712    4.9906 C   0  0  0  0  0  0  0  0  0  0  0  0
  -10.4335   -5.8184    2.6836 C   0  0  0  0  0  0  0  0  0  0  0  0
   -9.8745   -5.4820    1.4508 C   0  0  0  0  0  0  0  0  0  0  0  0
  -10.6063   -4.9547    0.3661 N   0  0  0  0  0  0  0  0  0  0  0  0
   -9.9983   -4.8289   -0.8998 C   0  0  0  0  0  0  0  0  0  0  0  0
  -11.7642   -4.0361    0.6722 C   0  0  0  0  0  0  0  0  0  0  0  0
  -11.7122   -2.6183    0.0261 C   0  0  1  0  0  0  0  0  0  0  0  0
  -12.2508   -2.6592   -1.2877 O   0  0  0  0  0  0  0  0  0  0  0  0
  -12.3802   -1.5266    0.8956 C   0  0  1  0  0  0  0  0  0  0  0  0
  -11.3901   -0.6772    1.4680 O   0  0  0  0  0  0  0  0  0  0  0  0
  -13.4828   -0.6723    0.2231 C   0  0  1  0  0  0  0  0  0  0  0  0
  -14.7391   -1.0381    0.7836 O   0  0  0  0  0  0  0  0  0  0  0  0
  -13.2732    0.8458    0.4204 C   0  0  0  0  0  0  0  0  0  0  0  0
  -12.2071    1.3547   -0.3724 O   0  0  0  0  0  0  0  0  0  0  0  0
  -11.8298    2.8933   -0.4142 P   0  0  0  0  0  0  0  0  0  0  0  0
  -12.1176    3.5436    0.8844 O   0  0  0  0  0  0  0  0  0  0  0  0
  -10.4957    3.0865   -1.0224 O   0  5  0  0  0  0  0  0  0  0  0  0
  -12.8786    3.5112   -1.4403 O   0  5  0  0  0  0  0  0  0  0  0  0
  1 18  1  0  0  0  0
  1  2  1  0  0  0  0
  2  4  1  0  0  0  0
  2  3  2  0  0  0  0
  4  5  1  0  0  0  0
  5  7  1  0  0  0  0
  5  6  2  0  0  0  0
  7 18  2  0  0  0  0
  7  8  1  0  0  0  0
  8  9  1  0  0  0  0
  9 10  2  0  0  0  0
  9 16  1  0  0  0  0
 10 11  1  0  0  0  0
 11 12  1  0  0  0  0
 11 13  2  0  0  0  0
 13 14  1  0  0  0  0
 13 15  1  0  0  0  0
 15 16  2  0  0  0  0
 16 17  1  0  0  0  0
 17 19  1  0  0  0  0
 17 18  1  0  0  0  0
 20 19  1  1  0  0  0
 20 22  1  0  0  0  0
 20 21  1  0  0  0  0
 22 24  1  0  0  0  0
 22 23  1  6  0  0  0
 24 26  1  1  0  0  0
 24 25  1  0  0  0  0
 26 27  1  0  0  0  0
 27 28  1  0  0  0  0
 28 30  1  0  0  0  0
 28 29  2  0  0  0  0
 28 31  1  0  0  0  0
M  CHG  2  30  -1  31  -1
M  END
>  <CHROM.1>
123.17076867,85.42713190,107.72159929,-173.70611968,109.19455024,-163.14384926
73.39554791,59.09162759,176.81879365,31.48105420,-10.60778472,-2.67730412
0.13854553,-0.56652138,1.06917773,-1.15708361

>  <Name>
1fmn_cryst

>  <RI>
0

>  <Rbt.Current_Directory>
/home/itssahil/PROJECTS/Mol_Feturizer/New_Systems/rnas/1fmn

>  <Rbt.Executable>
rbdock ($Id: //depot/dev/client3/rdock/2013.1/src/exe/rbdock.cxx#4 $)

>  <Rbt.Library>
libRbt.so (2013.1, Build901 2013/11/27)

>  <Rbt.Parameter_File>
/export/apps/rDock/src/rDock_2013.1_src/data/scripts/dock_solv.prm

>  <Rbt.Receptor>
prm/blind_docking_60.prm

>  <SCORE>
-37.852

>  <SCORE.INTER>
-40.3975

>  <SCORE.INTER.CONST>
1

>  <SCORE.INTER.POLAR>
-3.07507

>  <SCORE.INTER.ROT>
7

>  <SCORE.INTER.SOLV>
30.8926

>  <SCORE.INTER.VDW>
-35.2457

>  <SCORE.INTER.norm>
-1.30315

>  <SCORE.INTRA>
0.511399

>  <SCORE.INTRA.DIHEDRAL>
0.986631

>  <SCORE.INTRA.DIHEDRAL.0>
15.5708

>  <SCORE.INTRA.POLAR>
-0.259533

>  <SCORE.INTRA.POLAR.0>
-0.0677885

>  <SCORE.INTRA.REPUL>
0

>  <SCORE.INTRA.REPUL.0>
0

>  <SCORE.INTRA.SOLV>
-3.67068

>  <SCORE.INTRA.SOLV.lig_0>
-87.6316

>  <SCORE.INTRA.VDW>
2.73584

>  <SCORE.INTRA.VDW.0>
-2.87309

>  <SCORE.INTRA.norm>
0.0164967

>  <SCORE.RESTR>
2.03416

>  <SCORE.RESTR.CAVITY>
2.03416

>  <SCORE.RESTR.norm>
0.0656179

>  <SCORE.SYSTEM>
0

>  <SCORE.SYSTEM.CONST>
0

>  <SCORE.SYSTEM.DIHEDRAL>
0

>  <SCORE.SYSTEM.SOLV>
0

>  <SCORE.SYSTEM.norm>
0

>  <SCORE.heavy>
31

>  <SCORE.norm>
-1.22103

>  <SYMMETRIC_BONDS>
33 34 3

>  <RMSD>
9.601

$$$$
1fmn_cryst
 OpenBabel11021811393D
libRbt.so/2013.1/901 2013/11/27
 31 33  0  0  0  0  0  0  0  0999 V2000
  -11.4839   -3.4001   -3.1373 N   0  0  0  0  0  0  0  0  0  0  0  0
  -10.7980   -3.4250   -4.3291 C   0  0  0  0  0  0  0  0  0  0  0  0
  -11.3378   -3.1414   -5.3990 O   0  0  0  0  0  0  0  0  0  0  0  0
   -9.4338   -3.8019   -4.2479 N   0  0  0  0  0  0  0  0  0  0  0  0
   -8.7227   -4.1507   -3.0788 C   0  0  0  0  0  0  0  0  0  0  0  0
   -7.5266   -4.4599   -3.1513 O   0  0  0  0  0  0  0  0  0  0  0  0
   -9.5230   -4.1006   -1.8532 C   0  0  0  0  0  0  0  0  0  0  0  0
   -8.9044   -4.4257   -0.6717 N   0  0  0  0  0  0  0  0  0  0  0  0
   -9.6903   -4.5539    0.4366 C   0  0  0  0  0  0  0  0  0  0  0  0
   -9.1090   -5.0592    1.5860 C   0  0  0  0  0  0  0  0  0  0  0  0
   -9.8276   -5.2131    2.7223 C   0  0  0  0  0  0  0  0  0  0  0  0
   -9.1507   -5.7608    3.9381 C   0  0  0  0  0  0  0  0  0  0  0  0
  -11.1445   -4.8727    2.7543 C   0  0  0  0  0  0  0  0  0  0  0  0
  -11.9321   -5.0524    4.0111 C   0  0  0  0  0  0  0  0  0  0  0  0
  -11.7570   -4.3723    1.6510 C   0  0  0  0  0  0  0  0  0  0  0  0
  -11.0615   -4.1936    0.4552 C   0  0  0  0  0  0  0  0  0  0  0  0
  -11.6348   -3.6762   -0.7254 N   0  0  0  0  0  0  0  0  0  0  0  0
  -10.9119   -3.7141   -1.9353 C   0  0  0  0  0  0  0  0  0  0  0  0
  -12.7029   -2.6183   -0.5900 C   0  0  0  0  0  0  0  0  0  0  0  0
  -12.2732   -1.2848    0.0935 C   0  0  1  0  0  0  0  0  0  0  0  0
  -13.2244   -0.2659   -0.1805 O   0  0  0  0  0  0  0  0  0  0  0  0
  -12.0019   -1.4357    1.6093 C   0  0  1  0  0  0  0  0  0  0  0  0
  -10.8680   -0.6606    1.9873 O   0  0  0  0  0  0  0  0  0  0  0  0
  -13.1839   -1.1418    2.5655 C   0  0  1  0  0  0  0  0  0  0  0  0
  -13.1422   -2.0816    3.6337 O   0  0  0  0  0  0  0  0  0  0  0  0
  -13.1403    0.2852    3.1566 C   0  0  0  0  0  0  0  0  0  0  0  0
  -14.1203    0.4844    4.1685 O   0  0  0  0  0  0  0  0  0  0  0  0
  -14.3195    1.8727    4.9064 P   0  0  0  0  0  0  0  0  0  0  0  0
  -13.1746    2.1665    5.7980 O   0  0  0  0  0  0  0  0  0  0  0  0
  -14.7578    2.9127    3.9508 O   0  5  0  0  0  0  0  0  0  0  0  0
  -15.5558    1.6112    5.8749 O   0  5  0  0  0  0  0  0  0  0  0  0
  1 18  1  0  0  0  0
  1  2  1  0  0  0  0
  2  4  1  0  0  0  0
  2  3  2  0  0  0  0
  4  5  1  0  0  0  0
  5  7  1  0  0  0  0
  5  6  2  0  0  0  0
  7 18  2  0  0  0  0
  7  8  1  0  0  0  0
  8  9  1  0  0  0  0
  9 10  2  0  0  0  0
  9 16  1  0  0  0  0
 10 11  1  0  0  0  0
 11 12  1  0  0  0  0
 11 13  2  0  0  0  0
 13 14  1  0  0  0  0
 13 15  1  0  0  0  0
 15 16  2  0  0  0  0
 16 17  1  0  0  0  0
 17 19  1  0  0  0  0
 17 18  1  0  0  0  0
 20 19  1  1  0  0  0
 20 22  1  0  0  0  0
 20 21  1  0  0  0  0
 22 24  1  0  0  0  0
 22 23  1  1  0  0  0
 24 26  1  1  0  0  0
 24 25  1  0  0  0  0
 26 27  1  0  0  0  0
 27 28  1  0  0  0  0
 28 30  1  0  0  0  0
 28 29  2  0  0  0  0
 28 31  1  0  0  0  0
M  CHG  2  30  -1  31  -1
M  END
>  <CHROM.1>
61.82282714,163.43215114,140.43760041,58.53986088,141.46703114,-175.03182876
-171.95892993,-170.19254914,-178.06901261,-69.94608597,-11.68360326,-2.20393637
1.07241643,0.66706719,0.98042318,-1.40628727

>  <Name>
1fmn_cryst

>  <RI>
0

>  <Rbt.Current_Directory>
/home/itssahil/PROJECTS/Mol_Feturizer/New_Systems/rnas/1fmn

>  <Rbt.Executable>
rbdock ($Id: //depot/dev/client3/rdock/2013.1/src/exe/rbdock.cxx#4 $)

>  <Rbt.Library>
libRbt.so (2013.1, Build901 2013/11/27)

>  <Rbt.Parameter_File>
/export/apps/rDock/src/rDock_2013.1_src/data/scripts/dock_solv.prm

>  <Rbt.Receptor>
prm/blind_docking_80.prm

>  <SCORE>
-30.3997

>  <SCORE.INTER>
-28.0361

>  <SCORE.INTER.CONST>
1

>  <SCORE.INTER.POLAR>
-1.60904

>  <SCORE.INTER.ROT>
7

>  <SCORE.INTER.SOLV>
23.7195

>  <SCORE.INTER.VDW>
-29.5004

>  <SCORE.INTER.norm>
-0.904391

>  <SCORE.INTRA>
-4.07608

>  <SCORE.INTRA.DIHEDRAL>
-4.53991

>  <SCORE.INTRA.DIHEDRAL.0>
15.5708

>  <SCORE.INTRA.POLAR>
0.0677885

>  <SCORE.INTRA.POLAR.0>
-0.0677885

>  <SCORE.INTRA.REPUL>
0

>  <SCORE.INTRA.REPUL.0>
0

>  <SCORE.INTRA.SOLV>
-4.78811

>  <SCORE.INTRA.SOLV.lig_0>
-87.6316

>  <SCORE.INTRA.VDW>
0.357447

>  <SCORE.INTRA.VDW.0>
-2.87309

>  <SCORE.INTRA.norm>
-0.131486

>  <SCORE.RESTR>
1.71254

>  <SCORE.RESTR.CAVITY>
1.71254

>  <SCORE.RESTR.norm>
0.0552431

>  <SCORE.SYSTEM>
0

>  <SCORE.SYSTEM.CONST>
0

>  <SCORE.SYSTEM.DIHEDRAL>
0

>  <SCORE.SYSTEM.SOLV>
0

>  <SCORE.SYSTEM.norm>
0

>  <SCORE.heavy>
31

>  <SCORE.norm>
-0.980634

>  <SYMMETRIC_BONDS>
33 34 3

>  <RMSD>
9.605

$$$$
1fmn_cryst
 OpenBabel11021811393D
libRbt.so/2013.1/901 2013/11/27
 31 33  0  0  0  0  0  0  0  0999 V2000
  -11.5454   -3.3907   -1.3998 N   0  0  0  0  0  0  0  0  0  0  0  0
  -11.2048   -3.1918   -2.7173 C   0  0  0  0  0  0  0  0  0  0  0  0
  -11.9758   -2.6617   -3.5180 O   0  0  0  0  0  0  0  0  0  0  0  0
   -9.9140   -3.6397   -3.0951 N   0  0  0  0  0  0  0  0  0  0  0  0
   -8.9592   -4.2624   -2.2616 C   0  0  0  0  0  0  0  0  0  0  0  0
   -7.8632   -4.6036   -2.7239 O   0  0  0  0  0  0  0  0  0  0  0  0
   -9.3979   -4.4386   -0.8754 C   0  0  0  0  0  0  0  0  0  0  0  0
   -8.5263   -5.0367    0.0002 N   0  0  0  0  0  0  0  0  0  0  0  0
   -9.0005   -5.3624    1.2378 C   0  0  0  0  0  0  0  0  0  0  0  0
   -8.1916   -6.1278    2.0589 C   0  0  0  0  0  0  0  0  0  0  0  0
   -8.5966   -6.4878    3.2989 C   0  0  0  0  0  0  0  0  0  0  0  0
   -7.6827   -7.3130    4.1476 C   0  0  0  0  0  0  0  0  0  0  0  0
   -9.8160   -6.1019    3.7629 C   0  0  0  0  0  0  0  0  0  0  0  0
  -10.2579   -6.5096    5.1306 C   0  0  0  0  0  0  0  0  0  0  0  0
  -10.6432   -5.3498    2.9929 C   0  0  0  0  0  0  0  0  0  0  0  0
  -10.2735   -4.9518    1.7081 C   0  0  0  0  0  0  0  0  0  0  0  0
  -11.0817   -4.1685    0.8578 N   0  0  0  0  0  0  0  0  0  0  0  0
  -10.7118   -3.9801   -0.4897 C   0  0  0  0  0  0  0  0  0  0  0  0
  -11.9614   -3.1160    1.4877 C   0  0  0  0  0  0  0  0  0  0  0  0
  -11.9604   -1.7144    0.8053 C   0  0  1  0  0  0  0  0  0  0  0  0
  -13.1208   -1.5613    0.0003 O   0  0  0  0  0  0  0  0  0  0  0  0
  -11.7888   -0.5480    1.8073 C   0  0  1  0  0  0  0  0  0  0  0  0
  -11.5173    0.6649    1.1109 O   0  0  0  0  0  0  0  0  0  0  0  0
  -12.9329   -0.3257    2.8268 C   0  0  1  0  0  0  0  0  0  0  0  0
  -13.1955   -1.5608    3.4838 O   0  0  0  0  0  0  0  0  0  0  0  0
  -12.5927    0.7414    3.8913 C   0  0  0  0  0  0  0  0  0  0  0  0
  -13.6767    0.9883    4.7791 O   0  0  0  0  0  0  0  0  0  0  0  0
  -14.7748    2.0968    4.5024 P   0  0  0  0  0  0  0  0  0  0  0  0
  -15.3032    2.6459    5.7718 O   0  0  0  0  0  0  0  0  0  0  0  0
  -14.3128    3.0399    3.4612 O   0  5  0  0  0  0  0  0  0  0  0  0
  -15.9806    1.2809    3.8581 O   0  5  0  0  0  0  0  0  0  0  0  0
  1 18  1  0  0  0  0
  1  2  1  0  0  0  0
  2  4  1  0  0  0  0
  2  3  2  0  0  0  0
  4  5  1  0  0  0  0
  5  7  1  0  0  0  0
  5  6  2  0  0  0  0
  7 18  2  0  0  0  0
  7  8  1  0  0  0  0
  8  9  1  0  0  0  0
  9 10  2  0  0  0  0
  9 16  1  0  0  0  0
 10 11  1  0  0  0  0
 11 12  1  0  0  0  0
 11 13  2  0  0  0  0
 13 14  1  0  0  0  0
 13 15  1  0  0  0  0
 15 16  2  0  0  0  0
 16 17  1  0  0  0  0
 17 19  1  0  0  0  0
 17 18  1  0  0  0  0
 20 19  1  1  0  0  0
 20 22  1  0  0  0  0
 20 21  1  0  0  0  0
 22 24  1  0  0  0  0
 22 23  1  6  0  0  0
 24 26  1  1  0  0  0
 24 25  1  0  0  0  0
 26 27  1  0  0  0  0
 27 28  1  0  0  0  0
 28 30  1  0  0  0  0
 28 29  2  0  0  0  0
 28 31  1  0  0  0  0
M  CHG  2  30  -1  31  -1
M  END
>  <CHROM.1>
134.48552893,101.09135549,167.90458926,178.14439468,52.20411908,-42.37949430
176.87130193,73.81215443,-90.28483875,-149.66768014,-11.49094036,-2.39858112
1.62654781,0.28453594,0.96252606,-1.39066037

>  <Name>
1fmn_cryst

>  <RI>
0

>  <Rbt.Current_Directory>
/home/itssahil/PROJECTS/Mol_Feturizer/New_Systems/rnas/1fmn

>  <Rbt.Executable>
rbdock ($Id: //depot/dev/client3/rdock/2013.1/src/exe/rbdock.cxx#4 $)

>  <Rbt.Library>
libRbt.so (2013.1, Build901 2013/11/27)

>  <Rbt.Parameter_File>
/export/apps/rDock/src/rDock_2013.1_src/data/scripts/dock_solv.prm

>  <Rbt.Receptor>
prm/blind_docking_80.prm

>  <SCORE>
-35.3359

>  <SCORE.INTER>
-35.8476

>  <SCORE.INTER.CONST>
1

>  <SCORE.INTER.POLAR>
-1.21048

>  <SCORE.INTER.ROT>
7

>  <SCORE.INTER.SOLV>
22.5094

>  <SCORE.INTER.VDW>
-35.6333

>  <SCORE.INTER.norm>
-1.15637

>  <SCORE.INTRA>
-0.638697

>  <SCORE.INTRA.DIHEDRAL>
-0.586275

>  <SCORE.INTRA.DIHEDRAL.0>
15.5708

>  <SCORE.INTRA.POLAR>
-0.379256

>  <SCORE.INTRA.POLAR.0>
-0.0677885

>  <SCORE.INTRA.REPUL>
0

>  <SCORE.INTRA.REPUL.0>
0

>  <SCORE.INTRA.SOLV>
-2.16451

>  <SCORE.INTRA.SOLV.lig_0>
-87.6316

>  <SCORE.INTRA.VDW>
2.02617

>  <SCORE.INTRA.VDW.0>
-2.87309

>  <SCORE.INTRA.norm>
-0.0206031

>  <SCORE.RESTR>
1.15045

>  <SCORE.RESTR.CAVITY>
1.15045

>  <SCORE.RESTR.norm>
0.0371114

>  <SCORE.SYSTEM>
0

>  <SCORE.SYSTEM.CONST>
0

>  <SCORE.SYSTEM.DIHEDRAL>
0

>  <SCORE.SYSTEM.SOLV>
0

>  <SCORE.SYSTEM.norm>
0

>  <SCORE.heavy>
31

>  <SCORE.norm>
-1.13987

>  <SYMMETRIC_BONDS>
33 34 3

>  <RMSD>
9.609

$$$$
1fmn_cryst
 OpenBabel11021811393D
libRbt.so/2013.1/901 2013/11/27
 31 33  0  0  0  0  0  0  0  0999 V2000
  -10.7950   -4.3534   -1.9537 N   0  0  0  0  0  0  0  0  0  0  0  0
  -10.2467   -4.2074   -3.2066 C   0  0  0  0  0  0  0  0  0  0  0  0
  -10.9253   -3.8858   -4.1826 O   0  0  0  0  0  0  0  0  0  0  0  0
   -8.8543   -4.4552   -3.3032 N   0  0  0  0  0  0  0  0  0  0  0  0
   -7.9894   -4.8335   -2.2530 C   0  0  0  0  0  0  0  0  0  0  0  0
   -6.7865   -5.0171   -2.4779 O   0  0  0  0  0  0  0  0  0  0  0  0
   -8.6493   -4.9685   -0.9524 C   0  0  0  0  0  0  0  0  0  0  0  0
   -7.8768   -5.3334    0.1219 N   0  0  0  0  0  0  0  0  0  0  0  0
   -8.5199   -5.6336    1.2876 C   0  0  0  0  0  0  0  0  0  0  0  0
   -7.7721   -6.1780    2.3165 C   0  0  0  0  0  0  0  0  0  0  0  0
   -8.3432   -6.4996    3.5005 C   0  0  0  0  0  0  0  0  0  0  0  0
   -7.4895   -7.0824    4.5812 C   0  0  0  0  0  0  0  0  0  0  0  0
   -9.6730   -6.2932    3.7007 C   0  0  0  0  0  0  0  0  0  0  0  0
  -10.2967   -6.6576    5.0086 C   0  0  0  0  0  0  0  0  0  0  0  0
  -10.4462   -5.7608    2.7202 C   0  0  0  0  0  0  0  0  0  0  0  0
   -9.9068   -5.4117    1.4822 C   0  0  0  0  0  0  0  0  0  0  0  0
  -10.6512   -4.8519    0.4227 N   0  0  0  0  0  0  0  0  0  0  0  0
  -10.0672   -4.7135   -0.8532 C   0  0  0  0  0  0  0  0  0  0  0  0
  -11.7860   -3.9189    0.7694 C   0  0  0  0  0  0  0  0  0  0  0  0
  -11.7868   -2.5343    0.0531 C   0  0  1  0  0  0  0  0  0  0  0  0
  -12.5223   -2.6113   -1.1598 O   0  0  0  0  0  0  0  0  0  0  0  0
  -12.2764   -1.3792    0.9586 C   0  0  1  0  0  0  0  0  0  0  0  0
  -11.1685   -0.6152    1.4261 O   0  0  0  0  0  0  0  0  0  0  0  0
  -13.3559   -0.4372    0.3711 C   0  0  1  0  0  0  0  0  0  0  0  0
  -14.5759   -1.1627    0.2653 O   0  0  0  0  0  0  0  0  0  0  0  0
  -13.5974    0.8181    1.2391 C   0  0  0  0  0  0  0  0  0  0  0  0
  -13.5809    2.0183    0.4753 O   0  0  0  0  0  0  0  0  0  0  0  0
  -12.2382    2.7090   -0.0057 P   0  0  0  0  0  0  0  0  0  0  0  0
  -11.8013    3.7441    0.9586 O   0  0  0  0  0  0  0  0  0  0  0  0
  -11.2580    1.6929   -0.4460 O   0  5  0  0  0  0  0  0  0  0  0  0
  -12.6710    3.5042   -1.3153 O   0  5  0  0  0  0  0  0  0  0  0  0
  1 18  1  0  0  0  0
  1  2  1  0  0  0  0
  2  4  1  0  0  0  0
  2  3  2  0  0  0  0
  4  5  1  0  0  0  0
  5  7  1  0  0  0  0
  5  6  2  0  0  0  0
  7 18  2  0  0  0  0
  7  8  1  0  0  0  0
  8  9  1  0  0  0  0
  9 10  2  0  0  0  0
  9 16  1  0  0  0  0
 10 11  1  0  0  0  0
 11 12  1  0  0  0  0
 11 13  2  0  0  0  0
 13 14  1  0  0  0  0
 13 15  1  0  0  0  0
 15 16  2  0  0  0  0
 16 17  1  0  0  0  0
 17 19  1  0  0  0  0
 17 18  1  0  0  0  0
 20 19  1  1  0  0  0
 20 22  1  0  0  0  0
 20 21  1  0  0  0  0
 22 24  1  0  0  0  0
 22 23  1  6  0  0  0
 24 26  1  1  0  0  0
 24 25  1  0  0  0  0
 26 27  1  0  0  0  0
 27 28  1  0  0  0  0
 28 30  1  0  0  0  0
 28 29  2  0  0  0  0
 28 31  1  0  0  0  0
M  CHG  2  30  -1  31  -1
M  END
>  <CHROM.1>
128.21324211,90.46402098,102.63298788,-172.77506598,69.54157587,81.28883534
131.13544548,-69.89347018,-78.48450413,-93.69090936,-10.72229807,-2.65246062
0.24436265,-0.41945469,1.06216024,-1.27168154

>  <Name>
1fmn_cryst

>  <RI>
0

>  <Rbt.Current_Directory>
/home/itssahil/PROJECTS/Mol_Feturizer/New_Systems/rnas/1fmn

>  <Rbt.Executable>
rbdock ($Id: //depot/dev/client3/rdock/2013.1/src/exe/rbdock.cxx#4 $)

>  <Rbt.Library>
libRbt.so (2013.1, Build901 2013/11/27)

>  <Rbt.Parameter_File>
/export/apps/rDock/src/rDock_2013.1_src/data/scripts/dock_solv.prm

>  <Rbt.Receptor>
prm/blind_docking_60.prm

>  <SCORE>
-37.864

>  <SCORE.INTER>
-36.2996

>  <SCORE.INTER.CONST>
1

>  <SCORE.INTER.POLAR>
-1.86552

>  <SCORE.INTER.ROT>
7

>  <SCORE.INTER.SOLV>
27.7024

>  <SCORE.INTER.VDW>
-35.4821

>  <SCORE.INTER.norm>
-1.17095

>  <SCORE.INTRA>
-3.43691

>  <SCORE.INTRA.DIHEDRAL>
3.99293

>  <SCORE.INTRA.DIHEDRAL.0>
15.5708

>  <SCORE.INTRA.POLAR>
-1.88471

>  <SCORE.INTRA.POLAR.0>
-0.0677885

>  <SCORE.INTRA.REPUL>
0

>  <SCORE.INTRA.REPUL.0>
0

>  <SCORE.INTRA.SOLV>
0.663889

>  <SCORE.INTRA.SOLV.lig_0>
-87.6316

>  <SCORE.INTRA.VDW>
0.642691

>  <SCORE.INTRA.VDW.0>
-2.87309

>  <SCORE.INTRA.norm>
-0.110868

>  <SCORE.RESTR>
1.87248

>  <SCORE.RESTR.CAVITY>
1.87248

>  <SCORE.RESTR.norm>
0.0604025

>  <SCORE.SYSTEM>
0

>  <SCORE.SYSTEM.CONST>
0

>  <SCORE.SYSTEM.DIHEDRAL>
0

>  <SCORE.SYSTEM.SOLV>
0

>  <SCORE.SYSTEM.norm>
0

>  <SCORE.heavy>
31

>  <SCORE.norm>
-1.22142

>  <SYMMETRIC_BONDS>
33 34 3

>  <RMSD>
9.612

$$$$
1fmn_cryst
 OpenBabel11021811393D
libRbt.so/2013.1/901 2013/11/27
 31 33  0  0  0  0  0  0  0  0999 V2000
  -11.9536   -3.0157   -1.2230 N   0  0  0  0  0  0  0  0  0  0  0  0
  -11.7009   -2.7804   -2.5543 C   0  0  0  0  0  0  0  0  0  0  0  0
  -12.5023   -2.1853   -3.2755 O   0  0  0  0  0  0  0  0  0  0  0  0
  -10.4638   -3.2702   -3.0433 N   0  0  0  0  0  0  0  0  0  0  0  0
   -9.4814   -3.9673   -2.3064 C   0  0  0  0  0  0  0  0  0  0  0  0
   -8.4394   -4.3385   -2.8612 O   0  0  0  0  0  0  0  0  0  0  0  0
   -9.8257   -4.1782   -0.8985 C   0  0  0  0  0  0  0  0  0  0  0  0
   -8.9218   -4.8487   -0.1126 N   0  0  0  0  0  0  0  0  0  0  0  0
   -9.3195   -5.2015    1.1444 C   0  0  0  0  0  0  0  0  0  0  0  0
   -8.4900   -6.0340    1.8747 C   0  0  0  0  0  0  0  0  0  0  0  0
   -8.8201   -6.4241    3.1278 C   0  0  0  0  0  0  0  0  0  0  0  0
   -7.8869   -7.3222    3.8755 C   0  0  0  0  0  0  0  0  0  0  0  0
   -9.9828   -6.0029    3.6950 C   0  0  0  0  0  0  0  0  0  0  0  0
  -10.3426   -6.4441    5.0763 C   0  0  0  0  0  0  0  0  0  0  0  0
  -10.8273   -5.1848    3.0166 C   0  0  0  0  0  0  0  0  0  0  0  0
  -10.5339   -4.7534    1.7230 C   0  0  0  0  0  0  0  0  0  0  0  0
  -11.3639   -3.9018    0.9641 N   0  0  0  0  0  0  0  0  0  0  0  0
  -11.0847   -3.6771   -0.3995 C   0  0  0  0  0  0  0  0  0  0  0  0
  -12.1444   -2.8368    1.6955 C   0  0  0  0  0  0  0  0  0  0  0  0
  -11.9691   -1.3753    1.1823 C   0  0  1  0  0  0  0  0  0  0  0  0
  -13.1437   -0.9498    0.5063 O   0  0  0  0  0  0  0  0  0  0  0  0
  -11.5458   -0.3851    2.2934 C   0  0  1  0  0  0  0  0  0  0  0  0
  -10.6419    0.5847    1.7719 O   0  0  0  0  0  0  0  0  0  0  0  0
  -12.6821    0.3195    3.0744 C   0  0  1  0  0  0  0  0  0  0  0  0
  -13.3615   -0.6561    3.8571 O   0  0  0  0  0  0  0  0  0  0  0  0
  -12.1677    1.4371    4.0094 C   0  0  0  0  0  0  0  0  0  0  0  0
  -13.0268    1.6525    5.1227 O   0  0  0  0  0  0  0  0  0  0  0  0
  -14.4501    2.3358    4.9865 P   0  0  0  0  0  0  0  0  0  0  0  0
  -14.7958    3.0866    6.2149 O   0  0  0  0  0  0  0  0  0  0  0  0
  -14.5782    3.0176    3.6805 O   0  5  0  0  0  0  0  0  0  0  0  0
  -15.4577    1.1038    4.9442 O   0  5  0  0  0  0  0  0  0  0  0  0
  1 18  1  0  0  0  0
  1  2  1  0  0  0  0
  2  4  1  0  0  0  0
  2  3  2  0  0  0  0
  4  5  1  0  0  0  0
  5  7  1  0  0  0  0
  5  6  2  0  0  0  0
  7 18  2  0  0  0  0
  7  8  1  0  0  0  0
  8  9  1  0  0  0  0
  9 10  2  0  0  0  0
  9 16  1  0  0  0  0
 10 11  1  0  0  0  0
 11 12  1  0  0  0  0
 11 13  2  0  0  0  0
 13 14  1  0  0  0  0
 13 15  1  0  0  0  0
 15 16  2  0  0  0  0
 16 17  1  0  0  0  0
 17 19  1  0  0  0  0
 17 18  1  0  0  0  0
 20 19  1  1  0  0  0
 20 22  1  0  0  0  0
 20 21  1  0  0  0  0
 22 24  1  0  0  0  0
 22 23  1  6  0  0  0
 24 26  1  1  0  0  0
 24 25  1  0  0  0  0
 26 27  1  0  0  0  0
 27 28  1  0  0  0  0
 28 30  1  0  0  0  0
 28 29  2  0  0  0  0
 28 31  1  0  0  0  0
M  CHG  2  30  -1  31  -1
M  END
>  <CHROM.1>
126.30655087,107.67527129,143.56076055,-107.98129416,67.97989773,-84.03753433
-152.93250333,55.94808716,-71.59282135,-149.05508730,-11.56028666,-2.11594317
1.82403494,0.40629602,1.02691200,-1.46077806

>  <Name>
1fmn_cryst

>  <RI>
0

>  <Rbt.Current_Directory>
/home/itssahil/PROJECTS/Mol_Feturizer/New_Systems/rnas/1fmn

>  <Rbt.Executable>
rbdock ($Id: //depot/dev/client3/rdock/2013.1/src/exe/rbdock.cxx#4 $)

>  <Rbt.Library>
libRbt.so (2013.1, Build901 2013/11/27)

>  <Rbt.Parameter_File>
/export/apps/rDock/src/rDock_2013.1_src/data/scripts/dock_solv.prm

>  <Rbt.Receptor>
prm/blind_docking_80.prm

>  <SCORE>
-25.255

>  <SCORE.INTER>
-32.0028

>  <SCORE.INTER.CONST>
1

>  <SCORE.INTER.POLAR>
-1.35815

>  <SCORE.INTER.ROT>
7

>  <SCORE.INTER.SOLV>
22.8953

>  <SCORE.INTER.VDW>
-32.7065

>  <SCORE.INTER.norm>
-1.03235

>  <SCORE.INTRA>
5.42636

>  <SCORE.INTRA.DIHEDRAL>
8.36364

>  <SCORE.INTRA.DIHEDRAL.0>
15.5708

>  <SCORE.INTRA.POLAR>
0.0677885

>  <SCORE.INTRA.POLAR.0>
-0.0677885

>  <SCORE.INTRA.REPUL>
0

>  <SCORE.INTRA.REPUL.0>
0

>  <SCORE.INTRA.SOLV>
-0.565553

>  <SCORE.INTRA.SOLV.lig_0>
-87.6316

>  <SCORE.INTRA.VDW>
1.29684

>  <SCORE.INTRA.VDW.0>
-2.87309

>  <SCORE.INTRA.norm>
0.175044

>  <SCORE.RESTR>
1.3214

>  <SCORE.RESTR.CAVITY>
1.3214

>  <SCORE.RESTR.norm>
0.0426257

>  <SCORE.SYSTEM>
0

>  <SCORE.SYSTEM.CONST>
0

>  <SCORE.SYSTEM.DIHEDRAL>
0

>  <SCORE.SYSTEM.SOLV>
0

>  <SCORE.SYSTEM.norm>
0

>  <SCORE.heavy>
31

>  <SCORE.norm>
-0.814679

>  <SYMMETRIC_BONDS>
33 34 3

>  <RMSD>
9.617

$$$$
1fmn_cryst
 OpenBabel11021811393D
libRbt.so/2013.1/901 2013/11/27
 31 33  0  0  0  0  0  0  0  0999 V2000
  -11.1492   -3.4407   -2.2934 N   0  0  0  0  0  0  0  0  0  0  0  0
  -10.5809   -3.4117   -3.5454 C   0  0  0  0  0  0  0  0  0  0  0  0
  -11.1953   -3.0042   -4.5318 O   0  0  0  0  0  0  0  0  0  0  0  0
   -9.2471   -3.8846   -3.6286 N   0  0  0  0  0  0  0  0  0  0  0  0
   -8.4582   -4.3766   -2.5657 C   0  0  0  0  0  0  0  0  0  0  0  0
   -7.3006   -4.7581   -2.7795 O   0  0  0  0  0  0  0  0  0  0  0  0
   -9.1350   -4.3757   -1.2668 C   0  0  0  0  0  0  0  0  0  0  0  0
   -8.4352   -4.8392   -0.1807 N   0  0  0  0  0  0  0  0  0  0  0  0
   -9.1219   -5.0067    0.9868 C   0  0  0  0  0  0  0  0  0  0  0  0
   -8.4755   -5.6441    2.0309 C   0  0  0  0  0  0  0  0  0  0  0  0
   -9.0947   -5.8440    3.2175 C   0  0  0  0  0  0  0  0  0  0  0  0
   -8.3503   -6.5355    4.3148 C   0  0  0  0  0  0  0  0  0  0  0  0
  -10.3738   -5.4201    3.4054 C   0  0  0  0  0  0  0  0  0  0  0  0
  -11.0522   -5.6512    4.7163 C   0  0  0  0  0  0  0  0  0  0  0  0
  -11.0473   -4.7893    2.4097 C   0  0  0  0  0  0  0  0  0  0  0  0
  -10.4547   -4.5582    1.1683 C   0  0  0  0  0  0  0  0  0  0  0  0
  -11.0951   -3.9068    0.0934 N   0  0  0  0  0  0  0  0  0  0  0  0
  -10.4928   -3.8916   -1.1814 C   0  0  0  0  0  0  0  0  0  0  0  0
  -12.0640   -2.7948    0.4144 C   0  0  0  0  0  0  0  0  0  0  0  0
  -11.7668   -1.9685    1.7025 C   0  0  1  0  0  0  0  0  0  0  0  0
  -10.9860   -0.8260    1.3817 O   0  0  0  0  0  0  0  0  0  0  0  0
  -13.0415   -1.5982    2.4975 C   0  0  1  0  0  0  0  0  0  0  0  0
  -13.2121   -2.4864    3.5982 O   0  0  0  0  0  0  0  0  0  0  0  0
  -13.1657   -0.1318    2.9793 C   0  0  1  0  0  0  0  0  0  0  0  0
  -14.1721    0.5118    2.2053 O   0  0  0  0  0  0  0  0  0  0  0  0
  -13.5394   -0.0183    4.4743 C   0  0  0  0  0  0  0  0  0  0  0  0
  -13.2515    1.2678    5.0103 O   0  0  0  0  0  0  0  0  0  0  0  0
  -14.3829    2.2699    5.4867 P   0  0  0  0  0  0  0  0  0  0  0  0
  -14.6026    3.3353    4.4824 O   0  0  0  0  0  0  0  0  0  0  0  0
  -15.5548    1.5275    5.9991 O   0  5  0  0  0  0  0  0  0  0  0  0
  -13.7354    2.9994    6.7450 O   0  5  0  0  0  0  0  0  0  0  0  0
  1 18  1  0  0  0  0
  1  2  1  0  0  0  0
  2  4  1  0  0  0  0
  2  3  2  0  0  0  0
  4  5  1  0  0  0  0
  5  7  1  0  0  0  0
  5  6  2  0  0  0  0
  7 18  2  0  0  0  0
  7  8  1  0  0  0  0
  8  9  1  0  0  0  0
  9 10  2  0  0  0  0
  9 16  1  0  0  0  0
 10 11  1  0  0  0  0
 11 12  1  0  0  0  0
 11 13  2  0  0  0  0
 13 14  1  0  0  0  0
 13 15  1  0  0  0  0
 15 16  2  0  0  0  0
 16 17  1  0  0  0  0
 17 19  1  0  0  0  0
 17 18  1  0  0  0  0
 20 19  1  6  0  0  0
 20 22  1  0  0  0  0
 20 21  1  0  0  0  0
 22 24  1  0  0  0  0
 22 23  1  1  0  0  0
 24 26  1  1  0  0  0
 24 25  1  0  0  0  0
 26 27  1  0  0  0  0
 27 28  1  0  0  0  0
 28 30  1  0  0  0  0
 28 29  2  0  0  0  0
 28 31  1  0  0  0  0
M  CHG  2  30  -1  31  -1
M  END
>  <CHROM.1>
30.76956443,92.64246451,99.91984568,58.89795114,108.49825387,-60.21197064
161.71722525,61.88421670,112.97759822,-102.63898350,-11.46112523,-2.28590332
1.74678545,0.51035163,0.98682457,-1.36912481

>  <Name>
1fmn_cryst

>  <RI>
0

>  <Rbt.Current_Directory>
/home/itssahil/PROJECTS/Mol_Feturizer/New_Systems/rnas/1fmn

>  <Rbt.Executable>
rbdock ($Id: //depot/dev/client3/rdock/2013.1/src/exe/rbdock.cxx#4 $)

>  <Rbt.Library>
libRbt.so (2013.1, Build901 2013/11/27)

>  <Rbt.Parameter_File>
/export/apps/rDock/src/rDock_2013.1_src/data/scripts/dock_solv.prm

>  <Rbt.Receptor>
prm/blind_docking_100.prm

>  <SCORE>
-26.9493

>  <SCORE.INTER>
-34.132

>  <SCORE.INTER.CONST>
1

>  <SCORE.INTER.POLAR>
-1.25953

>  <SCORE.INTER.ROT>
7

>  <SCORE.INTER.SOLV>
24.7925

>  <SCORE.INTER.VDW>
-35.087

>  <SCORE.INTER.norm>
-1.10103

>  <SCORE.INTRA>
4.45978

>  <SCORE.INTRA.DIHEDRAL>
8.02838

>  <SCORE.INTRA.DIHEDRAL.0>
15.5708

>  <SCORE.INTRA.POLAR>
0.0677885

>  <SCORE.INTRA.POLAR.0>
-0.0677885

>  <SCORE.INTRA.REPUL>
0

>  <SCORE.INTRA.REPUL.0>
0

>  <SCORE.INTRA.SOLV>
-3.38548

>  <SCORE.INTRA.SOLV.lig_0>
-87.6316

>  <SCORE.INTRA.VDW>
1.90784

>  <SCORE.INTRA.VDW.0>
-2.87309

>  <SCORE.INTRA.norm>
0.143864

>  <SCORE.RESTR>
2.7229

>  <SCORE.RESTR.CAVITY>
2.7229

>  <SCORE.RESTR.norm>
0.0878356

>  <SCORE.SYSTEM>
0

>  <SCORE.SYSTEM.CONST>
0

>  <SCORE.SYSTEM.DIHEDRAL>
0

>  <SCORE.SYSTEM.SOLV>
0

>  <SCORE.SYSTEM.norm>
0

>  <SCORE.heavy>
31

>  <SCORE.norm>
-0.869331

>  <SYMMETRIC_BONDS>
33 34 3

>  <RMSD>
9.622

$$$$
1fmn_cryst
 OpenBabel11021811393D
libRbt.so/2013.1/901 2013/11/27
 31 33  0  0  0  0  0  0  0  0999 V2000
  -11.2620   -3.5064   -2.1838 N   0  0  0  0  0  0  0  0  0  0  0  0
  -10.7312   -3.4492   -3.4513 C   0  0  0  0  0  0  0  0  0  0  0  0
  -11.3844   -3.0477   -4.4150 O   0  0  0  0  0  0  0  0  0  0  0  0
   -9.3885   -3.8857   -3.5781 N   0  0  0  0  0  0  0  0  0  0  0  0
   -8.5565   -4.3679   -2.5440 C   0  0  0  0  0  0  0  0  0  0  0  0
   -7.3960   -4.7163   -2.7952 O   0  0  0  0  0  0  0  0  0  0  0  0
   -9.1951   -4.3985   -1.2262 C   0  0  0  0  0  0  0  0  0  0  0  0
   -8.4522   -4.8547   -0.1659 N   0  0  0  0  0  0  0  0  0  0  0  0
   -9.1001   -5.0525    1.0188 C   0  0  0  0  0  0  0  0  0  0  0  0
   -8.4072   -5.6836    2.0367 C   0  0  0  0  0  0  0  0  0  0  0  0
   -8.9863   -5.9122    3.2383 C   0  0  0  0  0  0  0  0  0  0  0  0
   -8.1925   -6.5952    4.3059 C   0  0  0  0  0  0  0  0  0  0  0  0
  -10.2700   -5.5243    3.4676 C   0  0  0  0  0  0  0  0  0  0  0  0
  -10.9037   -5.7869    4.7949 C   0  0  0  0  0  0  0  0  0  0  0  0
  -10.9883   -4.9011    2.4989 C   0  0  0  0  0  0  0  0  0  0  0  0
  -10.4383   -4.6414    1.2436 C   0  0  0  0  0  0  0  0  0  0  0  0
  -11.1265   -3.9959    0.1950 N   0  0  0  0  0  0  0  0  0  0  0  0
  -10.5620   -3.9514   -1.0964 C   0  0  0  0  0  0  0  0  0  0  0  0
  -12.1143   -2.9133    0.5562 C   0  0  0  0  0  0  0  0  0  0  0  0
  -11.7114   -1.9736    1.7330 C   0  0  1  0  0  0  0  0  0  0  0  0
  -11.0939   -0.7972    1.2303 O   0  0  0  0  0  0  0  0  0  0  0  0
  -12.8864   -1.6523    2.6870 C   0  0  1  0  0  0  0  0  0  0  0  0
  -13.2626   -2.8169    3.4162 O   0  0  0  0  0  0  0  0  0  0  0  0
  -12.6953   -0.4612    3.6580 C   0  0  1  0  0  0  0  0  0  0  0  0
  -11.3638    0.0224    3.5192 O   0  0  0  0  0  0  0  0  0  0  0  0
  -13.6773    0.7006    3.3871 C   0  0  0  0  0  0  0  0  0  0  0  0
  -13.5279    1.7665    4.3175 O   0  0  0  0  0  0  0  0  0  0  0  0
  -14.7637    2.4988    4.9866 P   0  0  0  0  0  0  0  0  0  0  0  0
  -15.4610    3.3618    4.0063 O   0  0  0  0  0  0  0  0  0  0  0  0
  -15.5637    1.5461    5.7862 O   0  5  0  0  0  0  0  0  0  0  0  0
  -14.0916    3.4973    6.0288 O   0  5  0  0  0  0  0  0  0  0  0  0
  1 18  1  0  0  0  0
  1  2  1  0  0  0  0
  2  4  1  0  0  0  0
  2  3  2  0  0  0  0
  4  5  1  0  0  0  0
  5  7  1  0  0  0  0
  5  6  2  0  0  0  0
  7 18  2  0  0  0  0
  7  8  1  0  0  0  0
  8  9  1  0  0  0  0
  9 10  2  0  0  0  0
  9 16  1  0  0  0  0
 10 11  1  0  0  0  0
 11 12  1  0  0  0  0
 11 13  2  0  0  0  0
 13 14  1  0  0  0  0
 13 15  1  0  0  0  0
 15 16  2  0  0  0  0
 16 17  1  0  0  0  0
 17 19  1  0  0  0  0
 17 18  1  0  0  0  0
 20 19  1  6  0  0  0
 20 22  1  0  0  0  0
 20 21  1  0  0  0  0
 22 24  1  0  0  0  0
 22 23  1  1  0  0  0
 24 26  1  6  0  0  0
 24 25  1  0  0  0  0
 26 27  1  0  0  0  0
 27 28  1  0  0  0  0
 28 30  1  0  0  0  0
 28 29  2  0  0  0  0
 28 31  1  0  0  0  0
M  CHG  2  30  -1  31  -1
M  END
>  <CHROM.1>
38.42769007,94.89897277,68.83581530,56.63162334,-5.06608141,-21.92750637
177.68948697,57.85086381,-136.34951892,-72.31780687,-11.43392296,-2.28146657
1.69853800,0.44090757,0.99065435,-1.37112272

>  <Name>
1fmn_cryst

>  <RI>
0

>  <Rbt.Current_Directory>
/home/itssahil/PROJECTS/Mol_Feturizer/New_Systems/rnas/1fmn

>  <Rbt.Executable>
rbdock ($Id: //depot/dev/client3/rdock/2013.1/src/exe/rbdock.cxx#4 $)

>  <Rbt.Library>
libRbt.so (2013.1, Build901 2013/11/27)

>  <Rbt.Parameter_File>
/export/apps/rDock/src/rDock_2013.1_src/data/scripts/dock_solv.prm

>  <Rbt.Receptor>
prm/blind_docking_100.prm

>  <SCORE>
-21.3521

>  <SCORE.INTER>
-26.8632

>  <SCORE.INTER.CONST>
1

>  <SCORE.INTER.POLAR>
-0.662378

>  <SCORE.INTER.ROT>
7

>  <SCORE.INTER.SOLV>
24.5345

>  <SCORE.INTER.VDW>
-32.1457

>  <SCORE.INTER.norm>
-0.866555

>  <SCORE.INTRA>
2.69509

>  <SCORE.INTRA.DIHEDRAL>
6.09536

>  <SCORE.INTRA.DIHEDRAL.0>
15.5708

>  <SCORE.INTRA.POLAR>
-0.314996

>  <SCORE.INTRA.POLAR.0>
-0.0677885

>  <SCORE.INTRA.REPUL>
0

>  <SCORE.INTRA.REPUL.0>
0

>  <SCORE.INTRA.SOLV>
-4.30783

>  <SCORE.INTRA.SOLV.lig_0>
-87.6316

>  <SCORE.INTRA.VDW>
2.87232

>  <SCORE.INTRA.VDW.0>
-2.87309

>  <SCORE.INTRA.norm>
0.0869385

>  <SCORE.RESTR>
2.81599

>  <SCORE.RESTR.CAVITY>
2.81599

>  <SCORE.RESTR.norm>
0.0908383

>  <SCORE.SYSTEM>
0

>  <SCORE.SYSTEM.CONST>
0

>  <SCORE.SYSTEM.DIHEDRAL>
0

>  <SCORE.SYSTEM.SOLV>
0

>  <SCORE.SYSTEM.norm>
0

>  <SCORE.heavy>
31

>  <SCORE.norm>
-0.688778

>  <SYMMETRIC_BONDS>
33 34 3

>  <RMSD>
9.636

$$$$
1fmn_cryst
 OpenBabel11021811393D
libRbt.so/2013.1/901 2013/11/27
 31 33  0  0  0  0  0  0  0  0999 V2000
  -11.3461   -3.7154   -3.0373 N   0  0  0  0  0  0  0  0  0  0  0  0
  -10.7453   -3.8475   -4.2674 C   0  0  0  0  0  0  0  0  0  0  0  0
  -11.3061   -3.5029   -5.3081 O   0  0  0  0  0  0  0  0  0  0  0  0
   -9.4438   -4.4093   -4.2610 N   0  0  0  0  0  0  0  0  0  0  0  0
   -8.7164   -4.8412   -3.1303 C   0  0  0  0  0  0  0  0  0  0  0  0
   -7.5812   -5.3141   -3.2685 O   0  0  0  0  0  0  0  0  0  0  0  0
   -9.4246   -4.6678   -1.8601 C   0  0  0  0  0  0  0  0  0  0  0  0
   -8.7848   -5.0634   -0.7119 N   0  0  0  0  0  0  0  0  0  0  0  0
   -9.5106   -5.0697    0.4438 C   0  0  0  0  0  0  0  0  0  0  0  0
   -8.9344   -5.6389    1.5656 C   0  0  0  0  0  0  0  0  0  0  0  0
   -9.5956   -5.6798    2.7457 C   0  0  0  0  0  0  0  0  0  0  0  0
   -8.9265   -6.3034    3.9288 C   0  0  0  0  0  0  0  0  0  0  0  0
  -10.8484   -5.1596    2.8501 C   0  0  0  0  0  0  0  0  0  0  0  0
  -11.5738   -5.2152    4.1550 C   0  0  0  0  0  0  0  0  0  0  0  0
  -11.4532   -4.5905    1.7763 C   0  0  0  0  0  0  0  0  0  0  0  0
  -10.8153   -4.5224    0.5378 C   0  0  0  0  0  0  0  0  0  0  0  0
  -11.3838   -3.9428   -0.6158 N   0  0  0  0  0  0  0  0  0  0  0  0
  -10.7494   -4.0931   -1.8660 C   0  0  0  0  0  0  0  0  0  0  0  0
  -12.2854   -2.7456   -0.4366 C   0  0  0  0  0  0  0  0  0  0  0  0
  -12.3614   -2.1456    1.0002 C   0  0  1  0  0  0  0  0  0  0  0  0
  -11.0592   -2.0474    1.5590 O   0  0  0  0  0  0  0  0  0  0  0  0
  -13.1238   -0.8005    1.0602 C   0  0  1  0  0  0  0  0  0  0  0  0
  -14.5168   -1.0309    1.2497 O   0  0  0  0  0  0  0  0  0  0  0  0
  -12.6185    0.2464    2.0832 C   0  0  1  0  0  0  0  0  0  0  0  0
  -11.3926    0.7879    1.6037 O   0  0  0  0  0  0  0  0  0  0  0  0
  -13.6193    1.4024    2.3066 C   0  0  0  0  0  0  0  0  0  0  0  0
  -14.5086    1.1499    3.3880 O   0  0  0  0  0  0  0  0  0  0  0  0
  -14.2821    1.7438    4.8396 P   0  0  0  0  0  0  0  0  0  0  0  0
  -14.0737    3.2086    4.7848 O   0  0  0  0  0  0  0  0  0  0  0  0
  -15.2841    1.2062    5.7851 O   0  5  0  0  0  0  0  0  0  0  0  0
  -12.8808    1.1319    5.2832 O   0  5  0  0  0  0  0  0  0  0  0  0
  1 18  1  0  0  0  0
  1  2  1  0  0  0  0
  2  4  1  0  0  0  0
  2  3  2  0  0  0  0
  4  5  1  0  0  0  0
  5  7  1  0  0  0  0
  5  6  2  0  0  0  0
  7 18  2  0  0  0  0
  7  8  1  0  0  0  0
  8  9  1  0  0  0  0
  9 10  2  0  0  0  0
  9 16  1  0  0  0  0
 10 11  1  0  0  0  0
 11 12  1  0  0  0  0
 11 13  2  0  0  0  0
 13 14  1  0  0  0  0
 13 15  1  0  0  0  0
 15 16  2  0  0  0  0
 16 17  1  0  0  0  0
 17 19  1  0  0  0  0
 17 18  1  0  0  0  0
 20 19  1  6  0  0  0
 20 22  1  0  0  0  0
 20 21  1  0  0  0  0
 22 24  1  0  0  0  0
 22 23  1  1  0  0  0
 24 26  1  6  0  0  0
 24 25  1  0  0  0  0
 26 27  1  0  0  0  0
 27 28  1  0  0  0  0
 28 30  1  0  0  0  0
 28 29  2  0  0  0  0
 28 31  1  0  0  0  0
M  CHG  2  30  -1  31  -1
M  END
>  <CHROM.1>
7.54877245,44.60593744,88.10961235,-171.04093740,72.84661357,71.86158954
91.97197847,-176.64954074,98.41877855,51.92792395,-11.57636071,-2.38168675
1.00560534,0.60847653,1.00216084,-1.45563921

>  <Name>
1fmn_cryst

>  <RI>
0

>  <Rbt.Current_Directory>
/home/itssahil/PROJECTS/Mol_Feturizer/New_Systems/rnas/1fmn

>  <Rbt.Executable>
rbdock ($Id: //depot/dev/client3/rdock/2013.1/src/exe/rbdock.cxx#4 $)

>  <Rbt.Library>
libRbt.so (2013.1, Build901 2013/11/27)

>  <Rbt.Parameter_File>
/export/apps/rDock/src/rDock_2013.1_src/data/scripts/dock_solv.prm

>  <Rbt.Receptor>
prm/blind_docking_80.prm

>  <SCORE>
-36.6401

>  <SCORE.INTER>
-41.7492

>  <SCORE.INTER.CONST>
1

>  <SCORE.INTER.POLAR>
-2.06854

>  <SCORE.INTER.ROT>
7

>  <SCORE.INTER.SOLV>
26.7037

>  <SCORE.INTER.VDW>
-38.1056

>  <SCORE.INTER.norm>
-1.34675

>  <SCORE.INTRA>
2.99103

>  <SCORE.INTRA.DIHEDRAL>
-0.157446

>  <SCORE.INTRA.DIHEDRAL.0>
15.5708

>  <SCORE.INTRA.POLAR>
0.0677885

>  <SCORE.INTRA.POLAR.0>
-0.0677885

>  <SCORE.INTRA.REPUL>
0

>  <SCORE.INTRA.REPUL.0>
0

>  <SCORE.INTRA.SOLV>
-2.6209

>  <SCORE.INTRA.SOLV.lig_0>
-87.6316

>  <SCORE.INTRA.VDW>
4.14972

>  <SCORE.INTRA.VDW.0>
-2.87309

>  <SCORE.INTRA.norm>
0.0964847

>  <SCORE.RESTR>
2.11808

>  <SCORE.RESTR.CAVITY>
2.11808

>  <SCORE.RESTR.norm>
0.0683253

>  <SCORE.SYSTEM>
0

>  <SCORE.SYSTEM.CONST>
0

>  <SCORE.SYSTEM.DIHEDRAL>
0

>  <SCORE.SYSTEM.SOLV>
0

>  <SCORE.SYSTEM.norm>
0

>  <SCORE.heavy>
31

>  <SCORE.norm>
-1.18194

>  <SYMMETRIC_BONDS>
33 34 3

>  <RMSD>
9.640

$$$$
1fmn_cryst
 OpenBabel11021811393D
libRbt.so/2013.1/901 2013/11/27
 31 33  0  0  0  0  0  0  0  0999 V2000
   -0.2662   -9.3181    6.1074 N   0  0  0  0  0  0  0  0  0  0  0  0
    0.4140   -8.2265    6.5946 C   0  0  0  0  0  0  0  0  0  0  0  0
    1.3749   -7.7374    5.9997 O   0  0  0  0  0  0  0  0  0  0  0  0
   -0.0578   -7.7046    7.8252 N   0  0  0  0  0  0  0  0  0  0  0  0
   -1.1417   -8.1913    8.5884 C   0  0  0  0  0  0  0  0  0  0  0  0
   -1.4493   -7.6359    9.6506 O   0  0  0  0  0  0  0  0  0  0  0  0
   -1.8122   -9.3545    8.0031 C   0  0  0  0  0  0  0  0  0  0  0  0
   -2.8775   -9.8885    8.6843 N   0  0  0  0  0  0  0  0  0  0  0  0
   -3.3836  -11.0733    8.2340 C   0  0  0  0  0  0  0  0  0  0  0  0
   -4.3304  -11.7105    9.0162 C   0  0  0  0  0  0  0  0  0  0  0  0
   -4.8759  -12.8878    8.6320 C   0  0  0  0  0  0  0  0  0  0  0  0
   -5.8977  -13.5336    9.5125 C   0  0  0  0  0  0  0  0  0  0  0  0
   -4.4988  -13.4708    7.4619 C   0  0  0  0  0  0  0  0  0  0  0  0
   -5.1011  -14.7742    7.0488 C   0  0  0  0  0  0  0  0  0  0  0  0
   -3.5738  -12.8818    6.6618 C   0  0  0  0  0  0  0  0  0  0  0  0
   -2.9817  -11.6683    7.0113 C   0  0  0  0  0  0  0  0  0  0  0  0
   -2.0183  -11.0011    6.2259 N   0  0  0  0  0  0  0  0  0  0  0  0
   -1.3334   -9.8848    6.7481 C   0  0  0  0  0  0  0  0  0  0  0  0
   -2.1354  -11.1011    4.7244 C   0  0  0  0  0  0  0  0  0  0  0  0
   -3.0787  -10.0699    4.0337 C   0  0  1  0  0  0  0  0  0  0  0  0
   -2.6013   -8.7494    4.2490 O   0  0  0  0  0  0  0  0  0  0  0  0
   -3.3133  -10.3669    2.5335 C   0  0  1  0  0  0  0  0  0  0  0  0
   -4.0973  -11.5466    2.3807 O   0  0  0  0  0  0  0  0  0  0  0  0
   -3.9102   -9.2228    1.6775 C   0  0  1  0  0  0  0  0  0  0  0  0
   -4.1103   -9.7088    0.3547 O   0  0  0  0  0  0  0  0  0  0  0  0
   -5.2575   -8.7006    2.2248 C   0  0  0  0  0  0  0  0  0  0  0  0
   -5.0878   -7.7106    3.2323 O   0  0  0  0  0  0  0  0  0  0  0  0
   -6.3070   -6.9455    3.8951 P   0  0  0  0  0  0  0  0  0  0  0  0
   -7.2444   -6.4493    2.8620 O   0  0  0  0  0  0  0  0  0  0  0  0
   -6.8514   -7.7184    5.0324 O   0  5  0  0  0  0  0  0  0  0  0  0
   -5.6392   -5.6437    4.5230 O   0  5  0  0  0  0  0  0  0  0  0  0
  1 18  1  0  0  0  0
  1  2  1  0  0  0  0
  2  4  1  0  0  0  0
  2  3  2  0  0  0  0
  4  5  1  0  0  0  0
  5  7  1  0  0  0  0
  5  6  2  0  0  0  0
  7 18  2  0  0  0  0
  7  8  1  0  0  0  0
  8  9  1  0  0  0  0
  9 10  2  0  0  0  0
  9 16  1  0  0  0  0
 10 11  1  0  0  0  0
 11 12  1  0  0  0  0
 11 13  2  0  0  0  0
 13 14  1  0  0  0  0
 13 15  1  0  0  0  0
 15 16  2  0  0  0  0
 16 17  1  0  0  0  0
 17 19  1  0  0  0  0
 17 18  1  0  0  0  0
 20 19  1  6  0  0  0
 20 22  1  0  0  0  0
 20 21  1  0  0  0  0
 22 24  1  0  0  0  0
 22 23  1  1  0  0  0
 24 26  1  1  0  0  0
 24 25  1  0  0  0  0
 26 27  1  0  0  0  0
 27 28  1  0  0  0  0
 28 30  1  0  0  0  0
 28 29  2  0  0  0  0
 28 31  1  0  0  0  0
M  CHG  2  30  -1  31  -1
M  END
>  <CHROM.1>
85.49942900,62.28113549,69.35900582,-174.19890274,-177.17188667,59.22132117
85.12529869,76.55648375,176.06203515,-47.65227796,-3.50044857,-9.63397496
5.61256777,-1.03223636,-0.64980468,-0.71344813

>  <Name>
1fmn_cryst

>  <RI>
0

>  <Rbt.Current_Directory>
/home/itssahil/PROJECTS/Mol_Feturizer/New_Systems/rnas/1fmn

>  <Rbt.Executable>
rbdock ($Id: //depot/dev/client3/rdock/2013.1/src/exe/rbdock.cxx#4 $)

>  <Rbt.Library>
libRbt.so (2013.1, Build901 2013/11/27)

>  <Rbt.Parameter_File>
/export/apps/rDock/src/rDock_2013.1_src/data/scripts/dock_solv.prm

>  <Rbt.Receptor>
prm/pocket_docking_7.prm

>  <SCORE>
-20.7731

>  <SCORE.INTER>
-10.9629

>  <SCORE.INTER.CONST>
1

>  <SCORE.INTER.POLAR>
-2.68365

>  <SCORE.INTER.ROT>
7

>  <SCORE.INTER.SOLV>
15.2745

>  <SCORE.INTER.VDW>
-11.7213

>  <SCORE.INTER.norm>
-0.353642

>  <SCORE.INTRA>
-9.8102

>  <SCORE.INTRA.DIHEDRAL>
-9.7596

>  <SCORE.INTRA.DIHEDRAL.0>
15.5708

>  <SCORE.INTRA.POLAR>
-0.922001

>  <SCORE.INTRA.POLAR.0>
-0.0677885

>  <SCORE.INTRA.REPUL>
0

>  <SCORE.INTRA.REPUL.0>
0

>  <SCORE.INTRA.SOLV>
-3.99152

>  <SCORE.INTRA.SOLV.lig_0>
-87.6316

>  <SCORE.INTRA.VDW>
0.200163

>  <SCORE.INTRA.VDW.0>
-2.87309

>  <SCORE.INTRA.norm>
-0.316458

>  <SCORE.RESTR>
0

>  <SCORE.RESTR.CAVITY>
0

>  <SCORE.RESTR.norm>
0

>  <SCORE.SYSTEM>
0

>  <SCORE.SYSTEM.CONST>
0

>  <SCORE.SYSTEM.DIHEDRAL>
0

>  <SCORE.SYSTEM.SOLV>
0

>  <SCORE.SYSTEM.norm>
0

>  <SCORE.heavy>
31

>  <SCORE.norm>
-0.6701

>  <SYMMETRIC_BONDS>
33 34 3

>  <RMSD>
9.651

$$$$
1fmn_cryst
 OpenBabel11021811393D
libRbt.so/2013.1/901 2013/11/27
 31 33  0  0  0  0  0  0  0  0999 V2000
  -12.0270   -3.1256   -1.1888 N   0  0  0  0  0  0  0  0  0  0  0  0
  -11.8274   -2.9330   -2.5359 C   0  0  0  0  0  0  0  0  0  0  0  0
  -12.6487   -2.3444   -3.2398 O   0  0  0  0  0  0  0  0  0  0  0  0
  -10.6206   -3.4586   -3.0620 N   0  0  0  0  0  0  0  0  0  0  0  0
   -9.6195   -4.1519   -2.3471 C   0  0  0  0  0  0  0  0  0  0  0  0
   -8.6084   -4.5575   -2.9342 O   0  0  0  0  0  0  0  0  0  0  0  0
   -9.9069   -4.3164   -0.9204 C   0  0  0  0  0  0  0  0  0  0  0  0
   -8.9817   -4.9803   -0.1539 N   0  0  0  0  0  0  0  0  0  0  0  0
   -9.3313   -5.2899    1.1284 C   0  0  0  0  0  0  0  0  0  0  0  0
   -8.4855   -6.1160    1.8472 C   0  0  0  0  0  0  0  0  0  0  0  0
   -8.7684   -6.4643    3.1239 C   0  0  0  0  0  0  0  0  0  0  0  0
   -7.8193   -7.3572    3.8577 C   0  0  0  0  0  0  0  0  0  0  0  0
   -9.8986   -6.0062    3.7271 C   0  0  0  0  0  0  0  0  0  0  0  0
  -10.2066   -6.4013    5.1347 C   0  0  0  0  0  0  0  0  0  0  0  0
  -10.7575   -5.1928    3.0612 C   0  0  0  0  0  0  0  0  0  0  0  0
  -10.5123   -4.8038    1.7443 C   0  0  0  0  0  0  0  0  0  0  0  0
  -11.3595   -3.9594    0.9965 N   0  0  0  0  0  0  0  0  0  0  0  0
  -11.1350   -3.7788   -0.3837 C   0  0  0  0  0  0  0  0  0  0  0  0
  -12.0903   -2.8602    1.7286 C   0  0  0  0  0  0  0  0  0  0  0  0
  -12.0693   -1.4516    1.0611 C   0  0  1  0  0  0  0  0  0  0  0  0
  -13.2856   -1.2223    0.3640 O   0  0  0  0  0  0  0  0  0  0  0  0
  -11.7432   -0.3106    2.0540 C   0  0  1  0  0  0  0  0  0  0  0  0
  -10.6678    0.4820    1.5589 O   0  0  0  0  0  0  0  0  0  0  0  0
  -12.9179    0.6030    2.4821 C   0  0  1  0  0  0  0  0  0  0  0  0
  -12.4136    1.5992    3.3650 O   0  0  0  0  0  0  0  0  0  0  0  0
  -13.6059    1.2999    1.2869 C   0  0  0  0  0  0  0  0  0  0  0  0
  -12.6813    1.6840    0.2760 O   0  0  0  0  0  0  0  0  0  0  0  0
  -11.9375    3.0832    0.2827 P   0  0  0  0  0  0  0  0  0  0  0  0
  -12.8536    4.1708   -0.1298 O   0  0  0  0  0  0  0  0  0  0  0  0
  -11.1536    3.2510    1.5254 O   0  5  0  0  0  0  0  0  0  0  0  0
  -10.8761    2.9519   -0.8967 O   0  5  0  0  0  0  0  0  0  0  0  0
  1 18  1  0  0  0  0
  1  2  1  0  0  0  0
  2  4  1  0  0  0  0
  2  3  2  0  0  0  0
  4  5  1  0  0  0  0
  5  7  1  0  0  0  0
  5  6  2  0  0  0  0
  7 18  2  0  0  0  0
  7  8  1  0  0  0  0
  8  9  1  0  0  0  0
  9 10  2  0  0  0  0
  9 16  1  0  0  0  0
 10 11  1  0  0  0  0
 11 12  1  0  0  0  0
 11 13  2  0  0  0  0
 13 14  1  0  0  0  0
 13 15  1  0  0  0  0
 15 16  2  0  0  0  0
 16 17  1  0  0  0  0
 17 19  1  0  0  0  0
 17 18  1  0  0  0  0
 20 19  1  1  0  0  0
 20 22  1  0  0  0  0
 20 21  1  0  0  0  0
 22 24  1  0  0  0  0
 22 23  1  6  0  0  0
 24 26  1  6  0  0  0
 24 25  1  0  0  0  0
 26 27  1  0  0  0  0
 27 28  1  0  0  0  0
 28 30  1  0  0  0  0
 28 29  2  0  0  0  0
 28 31  1  0  0  0  0
M  CHG  2  30  -1  31  -1
M  END
>  <CHROM.1>
134.17793337,99.65980138,127.52040121,59.19421208,-178.69578499,-107.02109967
-37.05923767,-58.98941445,-88.49308641,-75.34797280,-11.07861350,-1.93127133
0.69639439,-0.10143578,1.24201586,-1.59592757

>  <Name>
1fmn_cryst

>  <RI>
0

>  <Rbt.Current_Directory>
/home/itssahil/PROJECTS/Mol_Feturizer/New_Systems/rnas/1fmn

>  <Rbt.Executable>
rbdock ($Id: //depot/dev/client3/rdock/2013.1/src/exe/rbdock.cxx#4 $)

>  <Rbt.Library>
libRbt.so (2013.1, Build901 2013/11/27)

>  <Rbt.Parameter_File>
/export/apps/rDock/src/rDock_2013.1_src/data/scripts/dock_solv.prm

>  <Rbt.Receptor>
prm/blind_docking_60.prm

>  <SCORE>
-27.7161

>  <SCORE.INTER>
-34.6984

>  <SCORE.INTER.CONST>
1

>  <SCORE.INTER.POLAR>
-1.72262

>  <SCORE.INTER.ROT>
7

>  <SCORE.INTER.SOLV>
28.5467

>  <SCORE.INTER.VDW>
-35.1724

>  <SCORE.INTER.norm>
-1.1193

>  <SCORE.INTRA>
5.11542

>  <SCORE.INTRA.DIHEDRAL>
6.81986

>  <SCORE.INTRA.DIHEDRAL.0>
15.5708

>  <SCORE.INTRA.POLAR>
-0.409887

>  <SCORE.INTRA.POLAR.0>
-0.0677885

>  <SCORE.INTRA.REPUL>
0

>  <SCORE.INTRA.REPUL.0>
0

>  <SCORE.INTRA.SOLV>
2.77388

>  <SCORE.INTRA.SOLV.lig_0>
-87.6316

>  <SCORE.INTRA.VDW>
1.71217

>  <SCORE.INTRA.VDW.0>
-2.87309

>  <SCORE.INTRA.norm>
0.165014

>  <SCORE.RESTR>
1.86684

>  <SCORE.RESTR.CAVITY>
1.86684

>  <SCORE.RESTR.norm>
0.0602207

>  <SCORE.SYSTEM>
0

>  <SCORE.SYSTEM.CONST>
0

>  <SCORE.SYSTEM.DIHEDRAL>
0

>  <SCORE.SYSTEM.SOLV>
0

>  <SCORE.SYSTEM.norm>
0

>  <SCORE.heavy>
31

>  <SCORE.norm>
-0.894068

>  <SYMMETRIC_BONDS>
33 34 3

>  <RMSD>
9.655

$$$$
1fmn_cryst
 OpenBabel11021811393D
libRbt.so/2013.1/901 2013/11/27
 31 33  0  0  0  0  0  0  0  0999 V2000
  -11.9445   -3.0089   -0.7132 N   0  0  0  0  0  0  0  0  0  0  0  0
  -12.0696   -2.8431   -2.0727 C   0  0  0  0  0  0  0  0  0  0  0  0
  -12.9757   -2.1720   -2.5678 O   0  0  0  0  0  0  0  0  0  0  0  0
  -11.0937   -3.4969   -2.8663 N   0  0  0  0  0  0  0  0  0  0  0  0
  -10.0225   -4.2914   -2.4021 C   0  0  0  0  0  0  0  0  0  0  0  0
   -9.2379   -4.8050   -3.2096 O   0  0  0  0  0  0  0  0  0  0  0  0
   -9.9591   -4.4196   -0.9444 C   0  0  0  0  0  0  0  0  0  0  0  0
   -8.9451   -5.1765   -0.4124 N   0  0  0  0  0  0  0  0  0  0  0  0
   -8.9927   -5.4427    0.9253 C   0  0  0  0  0  0  0  0  0  0  0  0
   -8.0837   -6.3525    1.4357 C   0  0  0  0  0  0  0  0  0  0  0  0
   -8.0724   -6.6644    2.7525 C   0  0  0  0  0  0  0  0  0  0  0  0
   -7.0673   -7.6517    3.2538 C   0  0  0  0  0  0  0  0  0  0  0  0
   -8.9623   -6.0857    3.6036 C   0  0  0  0  0  0  0  0  0  0  0  0
   -8.9472   -6.4410    5.0547 C   0  0  0  0  0  0  0  0  0  0  0  0
   -9.8718   -5.1869    3.1480 C   0  0  0  0  0  0  0  0  0  0  0  0
   -9.9253   -4.8307    1.8005 C   0  0  0  0  0  0  0  0  0  0  0  0
  -10.8410   -3.9026    1.2617 N   0  0  0  0  0  0  0  0  0  0  0  0
  -10.9516   -3.7515   -0.1358 C   0  0  0  0  0  0  0  0  0  0  0  0
  -11.2478   -2.7290    2.1192 C   0  0  0  0  0  0  0  0  0  0  0  0
  -12.7719   -2.4057    2.1715 C   0  0  1  0  0  0  0  0  0  0  0  0
  -13.2188   -2.3709    3.5195 O   0  0  0  0  0  0  0  0  0  0  0  0
  -13.1496   -1.1190    1.3995 C   0  0  1  0  0  0  0  0  0  0  0  0
  -14.5659   -0.9754    1.3427 O   0  0  0  0  0  0  0  0  0  0  0  0
  -12.5046    0.2032    1.8828 C   0  0  1  0  0  0  0  0  0  0  0  0
  -11.6846    0.7119    0.8365 O   0  0  0  0  0  0  0  0  0  0  0  0
  -13.5472    1.2778    2.2649 C   0  0  0  0  0  0  0  0  0  0  0  0
  -12.9761    2.5768    2.3674 O   0  0  0  0  0  0  0  0  0  0  0  0
  -12.5578    3.4308    1.0998 P   0  0  0  0  0  0  0  0  0  0  0  0
  -13.0397    2.7959   -0.1479 O   0  0  0  0  0  0  0  0  0  0  0  0
  -12.8432    4.8650    1.3202 O   0  5  0  0  0  0  0  0  0  0  0  0
  -10.9719    3.2953    1.0601 O   0  5  0  0  0  0  0  0  0  0  0  0
  1 18  1  0  0  0  0
  1  2  1  0  0  0  0
  2  4  1  0  0  0  0
  2  3  2  0  0  0  0
  4  5  1  0  0  0  0
  5  7  1  0  0  0  0
  5  6  2  0  0  0  0
  7 18  2  0  0  0  0
  7  8  1  0  0  0  0
  8  9  1  0  0  0  0
  9 10  2  0  0  0  0
  9 16  1  0  0  0  0
 10 11  1  0  0  0  0
 11 12  1  0  0  0  0
 11 13  2  0  0  0  0
 13 14  1  0  0  0  0
 13 15  1  0  0  0  0
 15 16  2  0  0  0  0
 16 17  1  0  0  0  0
 17 19  1  0  0  0  0
 17 18  1  0  0  0  0
 20 19  1  1  0  0  0
 20 22  1  0  0  0  0
 20 21  1  0  0  0  0
 22 24  1  0  0  0  0
 22 23  1  1  0  0  0
 24 26  1  6  0  0  0
 24 25  1  0  0  0  0
 26 27  1  0  0  0  0
 27 28  1  0  0  0  0
 28 30  1  0  0  0  0
 28 29  2  0  0  0  0
 28 31  1  0  0  0  0
M  CHG  2  30  -1  31  -1
M  END
>  <CHROM.1>
-134.02544543,125.62456560,172.60315099,-171.96209171,116.72199780,65.39020747
-164.57515357,-28.98389478,74.52290326,9.17223427,-11.21261066,-2.08196958
0.93936186,0.09676976,1.13829538,-1.71718269

>  <Name>
1fmn_cryst

>  <RI>
0

>  <Rbt.Current_Directory>
/home/itssahil/PROJECTS/Mol_Feturizer/New_Systems/rnas/1fmn

>  <Rbt.Executable>
rbdock ($Id: //depot/dev/client3/rdock/2013.1/src/exe/rbdock.cxx#4 $)

>  <Rbt.Library>
libRbt.so (2013.1, Build901 2013/11/27)

>  <Rbt.Parameter_File>
/export/apps/rDock/src/rDock_2013.1_src/data/scripts/dock_solv.prm

>  <Rbt.Receptor>
prm/blind_docking_60.prm

>  <SCORE>
0.686583

>  <SCORE.INTER>
-10.5417

>  <SCORE.INTER.CONST>
1

>  <SCORE.INTER.POLAR>
-2.21087

>  <SCORE.INTER.ROT>
7

>  <SCORE.INTER.SOLV>
27.4404

>  <SCORE.INTER.VDW>
-17.0717

>  <SCORE.INTER.norm>
-0.340055

>  <SCORE.INTRA>
8.75042

>  <SCORE.INTRA.DIHEDRAL>
4.74398

>  <SCORE.INTRA.DIHEDRAL.0>
15.5708

>  <SCORE.INTRA.POLAR>
0.0677885

>  <SCORE.INTRA.POLAR.0>
-0.0677885

>  <SCORE.INTRA.REPUL>
0

>  <SCORE.INTRA.REPUL.0>
0

>  <SCORE.INTRA.SOLV>
1.17873

>  <SCORE.INTRA.SOLV.lig_0>
-87.6316

>  <SCORE.INTRA.VDW>
5.55858

>  <SCORE.INTRA.VDW.0>
-2.87309

>  <SCORE.INTRA.norm>
0.282272

>  <SCORE.RESTR>
2.47785

>  <SCORE.RESTR.CAVITY>
2.47785

>  <SCORE.RESTR.norm>
0.0799308

>  <SCORE.SYSTEM>
0

>  <SCORE.SYSTEM.CONST>
0

>  <SCORE.SYSTEM.DIHEDRAL>
0

>  <SCORE.SYSTEM.SOLV>
0

>  <SCORE.SYSTEM.norm>
0

>  <SCORE.heavy>
31

>  <SCORE.norm>
0.0221478

>  <SYMMETRIC_BONDS>
33 34 3

>  <RMSD>
9.658

$$$$
1fmn_cryst
 OpenBabel11021811393D
libRbt.so/2013.1/901 2013/11/27
 31 33  0  0  0  0  0  0  0  0999 V2000
  -10.3485   -4.0307   -2.9709 N   0  0  0  0  0  0  0  0  0  0  0  0
   -9.4806   -4.2404   -4.0169 C   0  0  0  0  0  0  0  0  0  0  0  0
   -9.7917   -3.9941   -5.1827 O   0  0  0  0  0  0  0  0  0  0  0  0
   -8.2093   -4.7619   -3.6685 N   0  0  0  0  0  0  0  0  0  0  0  0
   -7.7558   -5.0834   -2.3704 C   0  0  0  0  0  0  0  0  0  0  0  0
   -6.6142   -5.5324   -2.2074 O   0  0  0  0  0  0  0  0  0  0  0  0
   -8.7379   -4.8326   -1.3132 C   0  0  0  0  0  0  0  0  0  0  0  0
   -8.3740   -5.1191   -0.0210 N   0  0  0  0  0  0  0  0  0  0  0  0
   -9.3452   -5.0567    0.9357 C   0  0  0  0  0  0  0  0  0  0  0  0
   -9.0353   -5.5201    2.2021 C   0  0  0  0  0  0  0  0  0  0  0  0
   -9.9487   -5.4885    3.2001 C   0  0  0  0  0  0  0  0  0  0  0  0
   -9.5620   -5.9987    4.5516 C   0  0  0  0  0  0  0  0  0  0  0  0
  -11.1976   -4.9984    2.9737 C   0  0  0  0  0  0  0  0  0  0  0  0
  -12.2020   -4.9736    4.0794 C   0  0  0  0  0  0  0  0  0  0  0  0
  -11.5463   -4.5322    1.7473 C   0  0  0  0  0  0  0  0  0  0  0  0
  -10.6423   -4.5420    0.6851 C   0  0  0  0  0  0  0  0  0  0  0  0
  -10.9375   -4.0705   -0.6112 N   0  0  0  0  0  0  0  0  0  0  0  0
  -10.0321   -4.2989   -1.6676 C   0  0  0  0  0  0  0  0  0  0  0  0
  -11.8688   -2.8897   -0.7409 C   0  0  0  0  0  0  0  0  0  0  0  0
  -12.3083   -2.2058    0.5893 C   0  0  1  0  0  0  0  0  0  0  0  0
  -11.1669   -1.8306    1.3471 O   0  0  0  0  0  0  0  0  0  0  0  0
  -13.2797   -1.0208    0.3742 C   0  0  1  0  0  0  0  0  0  0  0  0
  -14.5530   -1.4975   -0.0513 O   0  0  0  0  0  0  0  0  0  0  0  0
  -13.4538   -0.0341    1.5548 C   0  0  1  0  0  0  0  0  0  0  0  0
  -13.3023   -0.7575    2.7712 O   0  0  0  0  0  0  0  0  0  0  0  0
  -12.4272    1.1205    1.5316 C   0  0  0  0  0  0  0  0  0  0  0  0
  -12.7407    2.1070    0.5555 O   0  0  0  0  0  0  0  0  0  0  0  0
  -11.8197    3.3680    0.2857 P   0  0  0  0  0  0  0  0  0  0  0  0
  -12.6097    4.4908   -0.2686 O   0  0  0  0  0  0  0  0  0  0  0  0
  -10.9379    3.6268    1.4444 O   0  5  0  0  0  0  0  0  0  0  0  0
  -10.8675    2.8932   -0.8987 O   0  5  0  0  0  0  0  0  0  0  0  0
  1 18  1  0  0  0  0
  1  2  1  0  0  0  0
  2  4  1  0  0  0  0
  2  3  2  0  0  0  0
  4  5  1  0  0  0  0
  5  7  1  0  0  0  0
  5  6  2  0  0  0  0
  7 18  2  0  0  0  0
  7  8  1  0  0  0  0
  8  9  1  0  0  0  0
  9 10  2  0  0  0  0
  9 16  1  0  0  0  0
 10 11  1  0  0  0  0
 11 12  1  0  0  0  0
 11 13  2  0  0  0  0
 13 14  1  0  0  0  0
 13 15  1  0  0  0  0
 15 16  2  0  0  0  0
 16 17  1  0  0  0  0
 17 19  1  0  0  0  0
 17 18  1  0  0  0  0
 20 19  1  6  0  0  0
 20 22  1  0  0  0  0
 20 21  1  0  0  0  0
 22 24  1  0  0  0  0
 22 23  1  1  0  0  0
 24 26  1  6  0  0  0
 24 25  1  0  0  0  0
 26 27  1  0  0  0  0
 27 28  1  0  0  0  0
 28 30  1  0  0  0  0
 28 29  2  0  0  0  0
 28 31  1  0  0  0  0
M  CHG  2  30  -1  31  -1
M  END
>  <CHROM.1>
5.98458653,54.55929726,70.61116744,-161.66158515,-31.96403502,-179.57451911
76.03011238,-76.72635435,-177.56712443,-154.15194805,-10.90393486,-2.18970575
0.15540759,-0.61535740,1.07597515,-0.72800958

>  <Name>
1fmn_cryst

>  <RI>
0

>  <Rbt.Current_Directory>
/home/itssahil/PROJECTS/Mol_Feturizer/New_Systems/rnas/1fmn

>  <Rbt.Executable>
rbdock ($Id: //depot/dev/client3/rdock/2013.1/src/exe/rbdock.cxx#4 $)

>  <Rbt.Library>
libRbt.so (2013.1, Build901 2013/11/27)

>  <Rbt.Parameter_File>
/export/apps/rDock/src/rDock_2013.1_src/data/scripts/dock_solv.prm

>  <Rbt.Receptor>
prm/blind_docking_60.prm

>  <SCORE>
-48.0509

>  <SCORE.INTER>
-45.6168

>  <SCORE.INTER.CONST>
1

>  <SCORE.INTER.POLAR>
-3.17139

>  <SCORE.INTER.ROT>
7

>  <SCORE.INTER.SOLV>
32.7129

>  <SCORE.INTER.VDW>
-39.0109

>  <SCORE.INTER.norm>
-1.47151

>  <SCORE.INTRA>
-3.04215

>  <SCORE.INTRA.DIHEDRAL>
-5.14022

>  <SCORE.INTRA.DIHEDRAL.0>
15.5708

>  <SCORE.INTRA.POLAR>
-0.346512

>  <SCORE.INTRA.POLAR.0>
-0.0677885

>  <SCORE.INTRA.REPUL>
0

>  <SCORE.INTRA.REPUL.0>
0

>  <SCORE.INTRA.SOLV>
-4.03194

>  <SCORE.INTRA.SOLV.lig_0>
-87.6316

>  <SCORE.INTRA.VDW>
2.72207

>  <SCORE.INTRA.VDW.0>
-2.87309

>  <SCORE.INTRA.norm>
-0.0981338

>  <SCORE.RESTR>
0.608081

>  <SCORE.RESTR.CAVITY>
0.608081

>  <SCORE.RESTR.norm>
0.0196155

>  <SCORE.SYSTEM>
0

>  <SCORE.SYSTEM.CONST>
0

>  <SCORE.SYSTEM.DIHEDRAL>
0

>  <SCORE.SYSTEM.SOLV>
0

>  <SCORE.SYSTEM.norm>
0

>  <SCORE.heavy>
31

>  <SCORE.norm>
-1.55003

>  <SYMMETRIC_BONDS>
33 34 3

>  <RMSD>
9.669

$$$$
1fmn_cryst
 OpenBabel11021811393D
libRbt.so/2013.1/901 2013/11/27
 31 33  0  0  0  0  0  0  0  0999 V2000
  -12.3057   -2.8125   -1.1925 N   0  0  0  0  0  0  0  0  0  0  0  0
  -12.1433   -2.5874   -2.5396 C   0  0  0  0  0  0  0  0  0  0  0  0
  -12.9888   -1.9922   -3.2085 O   0  0  0  0  0  0  0  0  0  0  0  0
  -10.9452   -3.0877   -3.1085 N   0  0  0  0  0  0  0  0  0  0  0  0
   -9.9186   -3.7859   -2.4356 C   0  0  0  0  0  0  0  0  0  0  0  0
   -8.9190   -4.1669   -3.0577 O   0  0  0  0  0  0  0  0  0  0  0  0
  -10.1670   -3.9856   -1.0061 C   0  0  0  0  0  0  0  0  0  0  0  0
   -9.2153   -4.6564   -0.2791 N   0  0  0  0  0  0  0  0  0  0  0  0
   -9.5281   -4.9986    1.0045 C   0  0  0  0  0  0  0  0  0  0  0  0
   -8.6553   -5.8313    1.6821 C   0  0  0  0  0  0  0  0  0  0  0  0
   -8.9012   -6.2113    2.9575 C   0  0  0  0  0  0  0  0  0  0  0  0
   -7.9241   -7.1100    3.6460 C   0  0  0  0  0  0  0  0  0  0  0  0
  -10.0200   -5.7795    3.5999 C   0  0  0  0  0  0  0  0  0  0  0  0
  -10.2871   -6.2095    5.0056 C   0  0  0  0  0  0  0  0  0  0  0  0
  -10.9044   -4.9607    2.9751 C   0  0  0  0  0  0  0  0  0  0  0  0
  -10.6977   -4.5395    1.6616 C   0  0  0  0  0  0  0  0  0  0  0  0
  -11.5729   -3.6879    0.9553 N   0  0  0  0  0  0  0  0  0  0  0  0
  -11.3863   -3.4738   -0.4258 C   0  0  0  0  0  0  0  0  0  0  0  0
  -12.2957   -2.6135    1.7309 C   0  0  0  0  0  0  0  0  0  0  0  0
  -12.1603   -1.1585    1.1880 C   0  0  1  0  0  0  0  0  0  0  0  0
  -13.0194   -0.9705    0.0725 O   0  0  0  0  0  0  0  0  0  0  0  0
  -12.3738   -0.0790    2.2758 C   0  0  1  0  0  0  0  0  0  0  0  0
  -11.9632   -0.5723    3.5477 O   0  0  0  0  0  0  0  0  0  0  0  0
  -11.7391    1.3099    2.0191 C   0  0  1  0  0  0  0  0  0  0  0  0
  -10.6489    1.1462    1.1188 O   0  0  0  0  0  0  0  0  0  0  0  0
  -12.7351    2.3251    1.4149 C   0  0  0  0  0  0  0  0  0  0  0  0
  -13.9813    2.3382    2.1011 O   0  0  0  0  0  0  0  0  0  0  0  0
  -14.0903    2.4777    3.6759 P   0  0  0  0  0  0  0  0  0  0  0  0
  -15.0710    3.5228    4.0474 O   0  0  0  0  0  0  0  0  0  0  0  0
  -14.1994    1.1466    4.3109 O   0  5  0  0  0  0  0  0  0  0  0  0
  -12.6701    3.0573    4.1025 O   0  5  0  0  0  0  0  0  0  0  0  0
  1 18  1  0  0  0  0
  1  2  1  0  0  0  0
  2  4  1  0  0  0  0
  2  3  2  0  0  0  0
  4  5  1  0  0  0  0
  5  7  1  0  0  0  0
  5  6  2  0  0  0  0
  7 18  2  0  0  0  0
  7  8  1  0  0  0  0
  8  9  1  0  0  0  0
  9 10  2  0  0  0  0
  9 16  1  0  0  0  0
 10 11  1  0  0  0  0
 11 12  1  0  0  0  0
 11 13  2  0  0  0  0
 13 14  1  0  0  0  0
 13 15  1  0  0  0  0
 15 16  2  0  0  0  0
 16 17  1  0  0  0  0
 17 19  1  0  0  0  0
 17 18  1  0  0  0  0
 20 19  1  1  0  0  0
 20 22  1  0  0  0  0
 20 21  1  0  0  0  0
 22 24  1  0  0  0  0
 22 23  1  1  0  0  0
 24 26  1  6  0  0  0
 24 25  1  0  0  0  0
 26 27  1  0  0  0  0
 27 28  1  0  0  0  0
 28 30  1  0  0  0  0
 28 29  2  0  0  0  0
 28 31  1  0  0  0  0
M  CHG  2  30  -1  31  -1
M  END
>  <CHROM.1>
126.94210221,78.16088378,30.13219731,-177.35001482,-23.91309168,-151.07494248
47.06048307,58.67805320,50.67538491,130.91647591,-11.57789558,-1.85175992
1.33748114,0.30004570,1.08267529,-1.57760976

>  <Name>
1fmn_cryst

>  <RI>
0

>  <Rbt.Current_Directory>
/home/itssahil/PROJECTS/Mol_Feturizer/New_Systems/rnas/1fmn

>  <Rbt.Executable>
rbdock ($Id: //depot/dev/client3/rdock/2013.1/src/exe/rbdock.cxx#4 $)

>  <Rbt.Library>
libRbt.so (2013.1, Build901 2013/11/27)

>  <Rbt.Parameter_File>
/export/apps/rDock/src/rDock_2013.1_src/data/scripts/dock_solv.prm

>  <Rbt.Receptor>
prm/blind_docking_20.prm

>  <SCORE>
-24.2834

>  <SCORE.INTER>
-27.1264

>  <SCORE.INTER.CONST>
1

>  <SCORE.INTER.POLAR>
-0.435515

>  <SCORE.INTER.ROT>
7

>  <SCORE.INTER.SOLV>
23.8299

>  <SCORE.INTER.VDW>
-32.8425

>  <SCORE.INTER.norm>
-0.875044

>  <SCORE.INTRA>
1.47008

>  <SCORE.INTRA.DIHEDRAL>
0.0626823

>  <SCORE.INTRA.DIHEDRAL.0>
15.5708

>  <SCORE.INTRA.POLAR>
-1.15679

>  <SCORE.INTRA.POLAR.0>
-0.0677885

>  <SCORE.INTRA.REPUL>
0

>  <SCORE.INTRA.REPUL.0>
0

>  <SCORE.INTRA.SOLV>
3.94484

>  <SCORE.INTRA.SOLV.lig_0>
-87.6316

>  <SCORE.INTRA.VDW>
3.39938

>  <SCORE.INTRA.VDW.0>
-2.87309

>  <SCORE.INTRA.norm>
0.0474218

>  <SCORE.RESTR>
1.37291

>  <SCORE.RESTR.CAVITY>
1.37291

>  <SCORE.RESTR.norm>
0.0442873

>  <SCORE.SYSTEM>
0

>  <SCORE.SYSTEM.CONST>
0

>  <SCORE.SYSTEM.DIHEDRAL>
0

>  <SCORE.SYSTEM.SOLV>
0

>  <SCORE.SYSTEM.norm>
0

>  <SCORE.heavy>
31

>  <SCORE.norm>
-0.783335

>  <SYMMETRIC_BONDS>
33 34 3

>  <RMSD>
9.707

$$$$
1fmn_cryst
 OpenBabel11021811393D
libRbt.so/2013.1/901 2013/11/27
 31 33  0  0  0  0  0  0  0  0999 V2000
  -12.1611   -3.0210   -1.1665 N   0  0  0  0  0  0  0  0  0  0  0  0
  -12.0063   -2.8393   -2.5210 C   0  0  0  0  0  0  0  0  0  0  0  0
  -12.8396   -2.2362   -3.1980 O   0  0  0  0  0  0  0  0  0  0  0  0
  -10.8310   -3.3937   -3.0874 N   0  0  0  0  0  0  0  0  0  0  0  0
   -9.8199   -4.1054   -2.4052 C   0  0  0  0  0  0  0  0  0  0  0  0
   -8.8398   -4.5358   -3.0262 O   0  0  0  0  0  0  0  0  0  0  0  0
  -10.0590   -4.2567   -0.9682 C   0  0  0  0  0  0  0  0  0  0  0  0
   -9.1213   -4.9370   -0.2319 N   0  0  0  0  0  0  0  0  0  0  0  0
   -9.4308   -5.2328    1.0639 C   0  0  0  0  0  0  0  0  0  0  0  0
   -8.5776   -6.0737    1.7563 C   0  0  0  0  0  0  0  0  0  0  0  0
   -8.8215   -6.4096    3.0443 C   0  0  0  0  0  0  0  0  0  0  0  0
   -7.8662   -7.3196    3.7483 C   0  0  0  0  0  0  0  0  0  0  0  0
   -9.9190   -5.9240    3.6854 C   0  0  0  0  0  0  0  0  0  0  0  0
  -10.1842   -6.3055    5.1053 C   0  0  0  0  0  0  0  0  0  0  0  0
  -10.7835   -5.0951    3.0463 C   0  0  0  0  0  0  0  0  0  0  0  0
  -10.5778   -4.7179    1.7194 C   0  0  0  0  0  0  0  0  0  0  0  0
  -11.4331   -3.8588    0.9979 N   0  0  0  0  0  0  0  0  0  0  0  0
  -11.2549   -3.6897   -0.3905 C   0  0  0  0  0  0  0  0  0  0  0  0
  -12.1127   -2.7403    1.7498 C   0  0  0  0  0  0  0  0  0  0  0  0
  -12.0871   -1.3361    1.0732 C   0  0  1  0  0  0  0  0  0  0  0  0
  -13.3616   -1.0347    0.5230 O   0  0  0  0  0  0  0  0  0  0  0  0
  -11.5782   -0.2159    2.0113 C   0  0  1  0  0  0  0  0  0  0  0  0
  -10.3233    0.2792    1.5532 O   0  0  0  0  0  0  0  0  0  0  0  0
  -12.5435    0.9643    2.2817 C   0  0  1  0  0  0  0  0  0  0  0  0
  -13.1485    1.3413    1.0498 O   0  0  0  0  0  0  0  0  0  0  0  0
  -13.6558    0.6129    3.2951 C   0  0  0  0  0  0  0  0  0  0  0  0
  -14.2273    1.7683    3.8972 O   0  0  0  0  0  0  0  0  0  0  0  0
  -14.8903    1.7450    5.3363 P   0  0  0  0  0  0  0  0  0  0  0  0
  -14.1404    0.8528    6.2494 O   0  0  0  0  0  0  0  0  0  0  0  0
  -15.2045    3.1178    5.7878 O   0  5  0  0  0  0  0  0  0  0  0  0
  -16.2903    1.0263    5.0951 O   0  5  0  0  0  0  0  0  0  0  0  0
  1 18  1  0  0  0  0
  1  2  1  0  0  0  0
  2  4  1  0  0  0  0
  2  3  2  0  0  0  0
  4  5  1  0  0  0  0
  5  7  1  0  0  0  0
  5  6  2  0  0  0  0
  7 18  2  0  0  0  0
  7  8  1  0  0  0  0
  8  9  1  0  0  0  0
  9 10  2  0  0  0  0
  9 16  1  0  0  0  0
 10 11  1  0  0  0  0
 11 12  1  0  0  0  0
 11 13  2  0  0  0  0
 13 14  1  0  0  0  0
 13 15  1  0  0  0  0
 15 16  2  0  0  0  0
 16 17  1  0  0  0  0
 17 19  1  0  0  0  0
 17 18  1  0  0  0  0
 20 19  1  1  0  0  0
 20 22  1  0  0  0  0
 20 21  1  0  0  0  0
 22 24  1  0  0  0  0
 22 23  1  6  0  0  0
 24 26  1  1  0  0  0
 24 25  1  0  0  0  0
 26 27  1  0  0  0  0
 27 28  1  0  0  0  0
 28 30  1  0  0  0  0
 28 29  2  0  0  0  0
 28 31  1  0  0  0  0
M  CHG  2  30  -1  31  -1
M  END
>  <CHROM.1>
134.25890548,104.83642407,112.54056705,169.34893887,-43.30330197,178.71787200
158.96940878,-174.86978476,-153.13559321,37.34759968,-11.77717686,-2.17414032
1.70142517,0.40012246,0.97717039,-1.45044347

>  <Name>
1fmn_cryst

>  <RI>
0

>  <Rbt.Current_Directory>
/home/itssahil/PROJECTS/Mol_Feturizer/New_Systems/rnas/1fmn

>  <Rbt.Executable>
rbdock ($Id: //depot/dev/client3/rdock/2013.1/src/exe/rbdock.cxx#4 $)

>  <Rbt.Library>
libRbt.so (2013.1, Build901 2013/11/27)

>  <Rbt.Parameter_File>
/export/apps/rDock/src/rDock_2013.1_src/data/scripts/dock_solv.prm

>  <Rbt.Receptor>
prm/blind_docking_100.prm

>  <SCORE>
-28.84

>  <SCORE.INTER>
-31.1611

>  <SCORE.INTER.CONST>
1

>  <SCORE.INTER.POLAR>
-1.46253

>  <SCORE.INTER.ROT>
7

>  <SCORE.INTER.SOLV>
26.4714

>  <SCORE.INTER.VDW>
-32.9894

>  <SCORE.INTER.norm>
-1.0052

>  <SCORE.INTRA>
-1.35117

>  <SCORE.INTRA.DIHEDRAL>
2.78617

>  <SCORE.INTRA.DIHEDRAL.0>
15.5708

>  <SCORE.INTRA.POLAR>
-1.09486

>  <SCORE.INTRA.POLAR.0>
-0.0677885

>  <SCORE.INTRA.REPUL>
0

>  <SCORE.INTRA.REPUL.0>
0

>  <SCORE.INTRA.SOLV>
-3.60249

>  <SCORE.INTRA.SOLV.lig_0>
-87.6316

>  <SCORE.INTRA.VDW>
2.77953

>  <SCORE.INTRA.VDW.0>
-2.87309

>  <SCORE.INTRA.norm>
-0.0435863

>  <SCORE.RESTR>
3.67233

>  <SCORE.RESTR.CAVITY>
3.67233

>  <SCORE.RESTR.norm>
0.118462

>  <SCORE.SYSTEM>
0

>  <SCORE.SYSTEM.CONST>
0

>  <SCORE.SYSTEM.DIHEDRAL>
0

>  <SCORE.SYSTEM.SOLV>
0

>  <SCORE.SYSTEM.norm>
0

>  <SCORE.heavy>
31

>  <SCORE.norm>
-0.930321

>  <SYMMETRIC_BONDS>
33 34 3

>  <RMSD>
9.713

$$$$
1fmn_cryst
 OpenBabel11021811393D
libRbt.so/2013.1/901 2013/11/27
 31 33  0  0  0  0  0  0  0  0999 V2000
  -11.4962   -3.6183   -2.8465 N   0  0  0  0  0  0  0  0  0  0  0  0
  -10.8931   -3.7074   -4.0794 C   0  0  0  0  0  0  0  0  0  0  0  0
  -11.4790   -3.3956   -5.1167 O   0  0  0  0  0  0  0  0  0  0  0  0
   -9.5583   -4.1848   -4.0800 N   0  0  0  0  0  0  0  0  0  0  0  0
   -8.8003   -4.5734   -2.9537 C   0  0  0  0  0  0  0  0  0  0  0  0
   -7.6378   -4.9723   -3.0980 O   0  0  0  0  0  0  0  0  0  0  0  0
   -9.5131   -4.4501   -1.6802 C   0  0  0  0  0  0  0  0  0  0  0  0
   -8.8447   -4.8080   -0.5359 N   0  0  0  0  0  0  0  0  0  0  0  0
   -9.5641   -4.8649    0.6225 C   0  0  0  0  0  0  0  0  0  0  0  0
   -8.9482   -5.4000    1.7399 C   0  0  0  0  0  0  0  0  0  0  0  0
   -9.6007   -5.4873    2.9223 C   0  0  0  0  0  0  0  0  0  0  0  0
   -8.8884   -6.0711    4.1006 C   0  0  0  0  0  0  0  0  0  0  0  0
  -10.8838   -5.0487    3.0334 C   0  0  0  0  0  0  0  0  0  0  0  0
  -11.5989   -5.1551    4.3408 C   0  0  0  0  0  0  0  0  0  0  0  0
  -11.5280   -4.5156    1.9640 C   0  0  0  0  0  0  0  0  0  0  0  0
  -10.9006   -4.4024    0.7234 C   0  0  0  0  0  0  0  0  0  0  0  0
  -11.5096   -3.8563   -0.4259 N   0  0  0  0  0  0  0  0  0  0  0  0
  -10.8719   -3.9613   -1.6790 C   0  0  0  0  0  0  0  0  0  0  0  0
  -12.4851   -2.7198   -0.2387 C   0  0  0  0  0  0  0  0  0  0  0  0
  -11.9695   -1.4916    0.5712 C   0  0  1  0  0  0  0  0  0  0  0  0
  -11.8462   -0.3610   -0.2800 O   0  0  0  0  0  0  0  0  0  0  0  0
  -12.8226   -1.1859    1.8253 C   0  0  1  0  0  0  0  0  0  0  0  0
  -12.4564   -2.0533    2.8945 O   0  0  0  0  0  0  0  0  0  0  0  0
  -12.8413    0.2814    2.3197 C   0  0  1  0  0  0  0  0  0  0  0  0
  -13.5570    1.0658    1.3718 O   0  0  0  0  0  0  0  0  0  0  0  0
  -13.5088    0.4424    3.7039 C   0  0  0  0  0  0  0  0  0  0  0  0
  -13.6257    1.8052    4.0957 O   0  0  0  0  0  0  0  0  0  0  0  0
  -14.2244    2.2456    5.4952 P   0  0  0  0  0  0  0  0  0  0  0  0
  -13.4401    1.6690    6.6108 O   0  0  0  0  0  0  0  0  0  0  0  0
  -14.5103    3.6965    5.5066 O   0  5  0  0  0  0  0  0  0  0  0  0
  -15.6379    1.5148    5.5476 O   0  5  0  0  0  0  0  0  0  0  0  0
  1 18  1  0  0  0  0
  1  2  1  0  0  0  0
  2  4  1  0  0  0  0
  2  3  2  0  0  0  0
  4  5  1  0  0  0  0
  5  7  1  0  0  0  0
  5  6  2  0  0  0  0
  7 18  2  0  0  0  0
  7  8  1  0  0  0  0
  8  9  1  0  0  0  0
  9 10  2  0  0  0  0
  9 16  1  0  0  0  0
 10 11  1  0  0  0  0
 11 12  1  0  0  0  0
 11 13  2  0  0  0  0
 13 14  1  0  0  0  0
 13 15  1  0  0  0  0
 15 16  2  0  0  0  0
 16 17  1  0  0  0  0
 17 19  1  0  0  0  0
 17 18  1  0  0  0  0
 20 19  1  6  0  0  0
 20 22  1  0  0  0  0
 20 21  1  0  0  0  0
 22 24  1  0  0  0  0
 22 23  1  1  0  0  0
 24 26  1  1  0  0  0
 24 25  1  0  0  0  0
 26 27  1  0  0  0  0
 27 28  1  0  0  0  0
 28 30  1  0  0  0  0
 28 29  2  0  0  0  0
 28 31  1  0  0  0  0
M  CHG  2  30  -1  31  -1
M  END
>  <CHROM.1>
53.60918053,112.06248398,80.56345087,-163.60117894,69.48058349,63.81966830
-174.85302305,-53.24502217,-177.64937608,59.23530112,-11.64864314,-2.16997716
1.27895370,0.63824404,1.02284677,-1.45040229

>  <Name>
1fmn_cryst

>  <RI>
0

>  <Rbt.Current_Directory>
/home/itssahil/PROJECTS/Mol_Feturizer/New_Systems/rnas/1fmn

>  <Rbt.Executable>
rbdock ($Id: //depot/dev/client3/rdock/2013.1/src/exe/rbdock.cxx#4 $)

>  <Rbt.Library>
libRbt.so (2013.1, Build901 2013/11/27)

>  <Rbt.Parameter_File>
/export/apps/rDock/src/rDock_2013.1_src/data/scripts/dock_solv.prm

>  <Rbt.Receptor>
prm/blind_docking_20.prm

>  <SCORE>
-17.4651

>  <SCORE.INTER>
-15.8112

>  <SCORE.INTER.CONST>
1

>  <SCORE.INTER.POLAR>
-1.10956

>  <SCORE.INTER.ROT>
7

>  <SCORE.INTER.SOLV>
23.3871

>  <SCORE.INTER.VDW>
-22.9046

>  <SCORE.INTER.norm>
-0.510037

>  <SCORE.INTRA>
-4.85855

>  <SCORE.INTRA.DIHEDRAL>
-5.5517

>  <SCORE.INTRA.DIHEDRAL.0>
15.5708

>  <SCORE.INTRA.POLAR>
-0.165037

>  <SCORE.INTRA.POLAR.0>
-0.0677885

>  <SCORE.INTRA.REPUL>
0

>  <SCORE.INTRA.REPUL.0>
0

>  <SCORE.INTRA.SOLV>
-4.1082

>  <SCORE.INTRA.SOLV.lig_0>
-87.6316

>  <SCORE.INTRA.VDW>
0.532534

>  <SCORE.INTRA.VDW.0>
-2.87309

>  <SCORE.INTRA.norm>
-0.156727

>  <SCORE.RESTR>
3.20462

>  <SCORE.RESTR.CAVITY>
3.20462

>  <SCORE.RESTR.norm>
0.103375

>  <SCORE.SYSTEM>
0

>  <SCORE.SYSTEM.CONST>
0

>  <SCORE.SYSTEM.DIHEDRAL>
0

>  <SCORE.SYSTEM.SOLV>
0

>  <SCORE.SYSTEM.norm>
0

>  <SCORE.heavy>
31

>  <SCORE.norm>
-0.56339

>  <SYMMETRIC_BONDS>
33 34 3

>  <RMSD>
9.714

$$$$
1fmn_cryst
 OpenBabel11021811393D
libRbt.so/2013.1/901 2013/11/27
 31 33  0  0  0  0  0  0  0  0999 V2000
  -13.0114   -2.2509   -0.5226 N   0  0  0  0  0  0  0  0  0  0  0  0
  -13.0370   -1.9196   -1.8572 C   0  0  0  0  0  0  0  0  0  0  0  0
  -13.9546   -1.2618   -2.3489 O   0  0  0  0  0  0  0  0  0  0  0  0
  -11.9444   -2.3871   -2.6299 N   0  0  0  0  0  0  0  0  0  0  0  0
  -10.8494   -3.1502   -2.1683 C   0  0  0  0  0  0  0  0  0  0  0  0
   -9.9580   -3.4921   -2.9556 O   0  0  0  0  0  0  0  0  0  0  0  0
  -10.8966   -3.4618   -0.7380 C   0  0  0  0  0  0  0  0  0  0  0  0
   -9.8675   -4.2010   -0.2102 N   0  0  0  0  0  0  0  0  0  0  0  0
  -10.0025   -4.6421    1.0743 C   0  0  0  0  0  0  0  0  0  0  0  0
   -9.0623   -5.5377    1.5521 C   0  0  0  0  0  0  0  0  0  0  0  0
   -9.1331   -6.0165    2.8158 C   0  0  0  0  0  0  0  0  0  0  0  0
   -8.0898   -6.9801    3.2842 C   0  0  0  0  0  0  0  0  0  0  0  0
  -10.1385   -5.6241    3.6443 C   0  0  0  0  0  0  0  0  0  0  0  0
  -10.2130   -6.1631    5.0357 C   0  0  0  0  0  0  0  0  0  0  0  0
  -11.0830   -4.7466    3.2191 C   0  0  0  0  0  0  0  0  0  0  0  0
  -11.0553   -4.2231    1.9266 C   0  0  0  0  0  0  0  0  0  0  0  0
  -12.0015   -3.3063    1.4223 N   0  0  0  0  0  0  0  0  0  0  0  0
  -12.0083   -2.9834    0.0498 C   0  0  0  0  0  0  0  0  0  0  0  0
  -12.5806   -2.2893    2.3755 C   0  0  0  0  0  0  0  0  0  0  0  0
  -11.9331   -0.8714    2.3518 C   0  0  1  0  0  0  0  0  0  0  0  0
  -11.0666   -0.7478    1.2329 O   0  0  0  0  0  0  0  0  0  0  0  0
  -12.9710    0.2745    2.4139 C   0  0  1  0  0  0  0  0  0  0  0  0
  -14.1075   -0.0454    1.6167 O   0  0  0  0  0  0  0  0  0  0  0  0
  -13.4262    0.7323    3.8214 C   0  0  1  0  0  0  0  0  0  0  0  0
  -13.7985   -0.4196    4.5700 O   0  0  0  0  0  0  0  0  0  0  0  0
  -12.3246    1.4926    4.5934 C   0  0  0  0  0  0  0  0  0  0  0  0
  -12.7158    1.8138    5.9230 O   0  0  0  0  0  0  0  0  0  0  0  0
  -14.0633    2.5773    6.2583 P   0  0  0  0  0  0  0  0  0  0  0  0
  -14.1112    2.9624    7.6871 O   0  0  0  0  0  0  0  0  0  0  0  0
  -14.3460    3.6090    5.2372 O   0  5  0  0  0  0  0  0  0  0  0  0
  -15.1839    1.4602    6.0818 O   0  5  0  0  0  0  0  0  0  0  0  0
  1 18  1  0  0  0  0
  1  2  1  0  0  0  0
  2  4  1  0  0  0  0
  2  3  2  0  0  0  0
  4  5  1  0  0  0  0
  5  7  1  0  0  0  0
  5  6  2  0  0  0  0
  7 18  2  0  0  0  0
  7  8  1  0  0  0  0
  8  9  1  0  0  0  0
  9 10  2  0  0  0  0
  9 16  1  0  0  0  0
 10 11  1  0  0  0  0
 11 12  1  0  0  0  0
 11 13  2  0  0  0  0
 13 14  1  0  0  0  0
 13 15  1  0  0  0  0
 15 16  2  0  0  0  0
 16 17  1  0  0  0  0
 17 19  1  0  0  0  0
 17 18  1  0  0  0  0
 20 19  1  6  0  0  0
 20 22  1  0  0  0  0
 20 21  1  0  0  0  0
 22 24  1  0  0  0  0
 22 23  1  6  0  0  0
 24 26  1  1  0  0  0
 24 25  1  0  0  0  0
 26 27  1  0  0  0  0
 27 28  1  0  0  0  0
 28 30  1  0  0  0  0
 28 29  2  0  0  0  0
 28 31  1  0  0  0  0
M  CHG  2  30  -1  31  -1
M  END
>  <CHROM.1>
97.95655131,11.03612412,-39.65614820,179.86637561,-49.83654578,-63.78412028
-175.26098360,-164.68021775,-52.82609450,-171.13512158,-12.06449439,-1.67071965
2.31417662,0.75997402,1.01392697,-1.70974021

>  <Name>
1fmn_cryst

>  <RI>
0

>  <Rbt.Current_Directory>
/home/itssahil/PROJECTS/Mol_Feturizer/New_Systems/rnas/1fmn

>  <Rbt.Executable>
rbdock ($Id: //depot/dev/client3/rdock/2013.1/src/exe/rbdock.cxx#4 $)

>  <Rbt.Library>
libRbt.so (2013.1, Build901 2013/11/27)

>  <Rbt.Parameter_File>
/export/apps/rDock/src/rDock_2013.1_src/data/scripts/dock_solv.prm

>  <Rbt.Receptor>
prm/blind_docking_100.prm

>  <SCORE>
-25.5265

>  <SCORE.INTER>
-25.334

>  <SCORE.INTER.CONST>
1

>  <SCORE.INTER.POLAR>
-0.62361

>  <SCORE.INTER.ROT>
7

>  <SCORE.INTER.SOLV>
24.4925

>  <SCORE.INTER.VDW>
-31.2415

>  <SCORE.INTER.norm>
-0.817225

>  <SCORE.INTRA>
-3.64272

>  <SCORE.INTRA.DIHEDRAL>
-5.6381

>  <SCORE.INTRA.DIHEDRAL.0>
15.5708

>  <SCORE.INTRA.POLAR>
-0.663127

>  <SCORE.INTRA.POLAR.0>
-0.0677885

>  <SCORE.INTRA.REPUL>
0

>  <SCORE.INTRA.REPUL.0>
0

>  <SCORE.INTRA.SOLV>
2.37482

>  <SCORE.INTRA.SOLV.lig_0>
-87.6316

>  <SCORE.INTRA.VDW>
0.243552

>  <SCORE.INTRA.VDW.0>
-2.87309

>  <SCORE.INTRA.norm>
-0.117507

>  <SCORE.RESTR>
3.45022

>  <SCORE.RESTR.CAVITY>
3.45022

>  <SCORE.RESTR.norm>
0.111297

>  <SCORE.SYSTEM>
0

>  <SCORE.SYSTEM.CONST>
0

>  <SCORE.SYSTEM.DIHEDRAL>
0

>  <SCORE.SYSTEM.SOLV>
0

>  <SCORE.SYSTEM.norm>
0

>  <SCORE.heavy>
31

>  <SCORE.norm>
-0.823435

>  <SYMMETRIC_BONDS>
33 34 3

>  <RMSD>
9.738

$$$$
1fmn_cryst
 OpenBabel11021811393D
libRbt.so/2013.1/901 2013/11/27
 31 33  0  0  0  0  0  0  0  0999 V2000
  -11.9333   -3.2308   -1.2047 N   0  0  0  0  0  0  0  0  0  0  0  0
  -11.7263   -3.0045   -2.5454 C   0  0  0  0  0  0  0  0  0  0  0  0
  -12.5614   -2.4333   -3.2475 O   0  0  0  0  0  0  0  0  0  0  0  0
  -10.4950   -3.4744   -3.0674 N   0  0  0  0  0  0  0  0  0  0  0  0
   -9.4764   -4.1438   -2.3542 C   0  0  0  0  0  0  0  0  0  0  0  0
   -8.4445   -4.4998   -2.9371 O   0  0  0  0  0  0  0  0  0  0  0  0
   -9.7731   -4.3468   -0.9344 C   0  0  0  0  0  0  0  0  0  0  0  0
   -8.8321   -4.9906   -0.1700 N   0  0  0  0  0  0  0  0  0  0  0  0
   -9.1838   -5.3381    1.1020 C   0  0  0  0  0  0  0  0  0  0  0  0
   -8.3155   -6.1460    1.8146 C   0  0  0  0  0  0  0  0  0  0  0  0
   -8.5991   -6.5294    3.0811 C   0  0  0  0  0  0  0  0  0  0  0  0
   -7.6253   -7.4005    3.8086 C   0  0  0  0  0  0  0  0  0  0  0  0
   -9.7522   -6.1257    3.6797 C   0  0  0  0  0  0  0  0  0  0  0  0
  -10.0606   -6.5594    5.0758 C   0  0  0  0  0  0  0  0  0  0  0  0
  -10.6337   -5.3320    3.0195 C   0  0  0  0  0  0  0  0  0  0  0  0
  -10.3889   -4.9084    1.7133 C   0  0  0  0  0  0  0  0  0  0  0  0
  -11.2589   -4.0818    0.9719 N   0  0  0  0  0  0  0  0  0  0  0  0
  -11.0263   -3.8659   -0.4019 C   0  0  0  0  0  0  0  0  0  0  0  0
  -12.0383   -3.0250    1.7164 C   0  0  0  0  0  0  0  0  0  0  0  0
  -12.1287   -1.6248    1.0371 C   0  0  1  0  0  0  0  0  0  0  0  0
  -13.2911   -1.5496    0.2239 O   0  0  0  0  0  0  0  0  0  0  0  0
  -12.0448   -0.4521    2.0429 C   0  0  1  0  0  0  0  0  0  0  0  0
  -10.7645    0.1687    1.9714 O   0  0  0  0  0  0  0  0  0  0  0  0
  -13.1569    0.6223    1.9612 C   0  0  1  0  0  0  0  0  0  0  0  0
  -13.6726    0.8358    3.2705 O   0  0  0  0  0  0  0  0  0  0  0  0
  -12.6523    1.9704    1.3994 C   0  0  0  0  0  0  0  0  0  0  0  0
  -12.0663    1.8366    0.1099 O   0  0  0  0  0  0  0  0  0  0  0  0
  -11.7429    3.0805   -0.8171 P   0  0  0  0  0  0  0  0  0  0  0  0
  -12.0761    4.3505   -0.1329 O   0  0  0  0  0  0  0  0  0  0  0  0
  -10.4062    2.9379   -1.4334 O   0  5  0  0  0  0  0  0  0  0  0  0
  -12.7950    2.9494   -2.0049 O   0  5  0  0  0  0  0  0  0  0  0  0
  1 18  1  0  0  0  0
  1  2  1  0  0  0  0
  2  4  1  0  0  0  0
  2  3  2  0  0  0  0
  4  5  1  0  0  0  0
  5  7  1  0  0  0  0
  5  6  2  0  0  0  0
  7 18  2  0  0  0  0
  7  8  1  0  0  0  0
  8  9  1  0  0  0  0
  9 10  2  0  0  0  0
  9 16  1  0  0  0  0
 10 11  1  0  0  0  0
 11 12  1  0  0  0  0
 11 13  2  0  0  0  0
 13 14  1  0  0  0  0
 13 15  1  0  0  0  0
 15 16  2  0  0  0  0
 16 17  1  0  0  0  0
 17 19  1  0  0  0  0
 17 18  1  0  0  0  0
 20 19  1  1  0  0  0
 20 22  1  0  0  0  0
 20 21  1  0  0  0  0
 22 24  1  0  0  0  0
 22 23  1  6  0  0  0
 24 26  1  1  0  0  0
 24 25  1  0  0  0  0
 26 27  1  0  0  0  0
 27 28  1  0  0  0  0
 28 30  1  0  0  0  0
 28 29  2  0  0  0  0
 28 31  1  0  0  0  0
M  CHG  2  30  -1  31  -1
M  END
>  <CHROM.1>
137.43395490,91.66082689,105.09798565,68.29791813,130.47093793,67.10955071
57.10538564,-65.34501087,167.02000619,2.46806627,-11.02621782,-2.00964520
0.44972556,-0.52669764,1.19017682,-1.27188205

>  <Name>
1fmn_cryst

>  <RI>
0

>  <Rbt.Current_Directory>
/home/itssahil/PROJECTS/Mol_Feturizer/New_Systems/rnas/1fmn

>  <Rbt.Executable>
rbdock ($Id: //depot/dev/client3/rdock/2013.1/src/exe/rbdock.cxx#4 $)

>  <Rbt.Library>
libRbt.so (2013.1, Build901 2013/11/27)

>  <Rbt.Parameter_File>
/export/apps/rDock/src/rDock_2013.1_src/data/scripts/dock_solv.prm

>  <Rbt.Receptor>
prm/blind_docking_60.prm

>  <SCORE>
-36.4152

>  <SCORE.INTER>
-38.3131

>  <SCORE.INTER.CONST>
1

>  <SCORE.INTER.POLAR>
-2.30689

>  <SCORE.INTER.ROT>
7

>  <SCORE.INTER.SOLV>
28.148

>  <SCORE.INTER.VDW>
-35.5018

>  <SCORE.INTER.norm>
-1.23591

>  <SCORE.INTRA>
-0.453619

>  <SCORE.INTRA.DIHEDRAL>
2.85173

>  <SCORE.INTRA.DIHEDRAL.0>
15.5708

>  <SCORE.INTRA.POLAR>
-1.1371

>  <SCORE.INTRA.POLAR.0>
-0.0677885

>  <SCORE.INTRA.REPUL>
0

>  <SCORE.INTRA.REPUL.0>
0

>  <SCORE.INTRA.SOLV>
-3.55963

>  <SCORE.INTRA.SOLV.lig_0>
-87.6316

>  <SCORE.INTRA.VDW>
3.76646

>  <SCORE.INTRA.VDW.0>
-2.87309

>  <SCORE.INTRA.norm>
-0.0146329

>  <SCORE.RESTR>
2.35153

>  <SCORE.RESTR.CAVITY>
2.35153

>  <SCORE.RESTR.norm>
0.0758559

>  <SCORE.SYSTEM>
0

>  <SCORE.SYSTEM.CONST>
0

>  <SCORE.SYSTEM.DIHEDRAL>
0

>  <SCORE.SYSTEM.SOLV>
0

>  <SCORE.SYSTEM.norm>
0

>  <SCORE.heavy>
31

>  <SCORE.norm>
-1.17468

>  <SYMMETRIC_BONDS>
33 34 3

>  <RMSD>
9.745

$$$$
1fmn_cryst
 OpenBabel11021811393D
libRbt.so/2013.1/901 2013/11/27
 31 33  0  0  0  0  0  0  0  0999 V2000
  -11.7470   -3.0880   -2.3006 N   0  0  0  0  0  0  0  0  0  0  0  0
  -11.3301   -3.0424   -3.6104 C   0  0  0  0  0  0  0  0  0  0  0  0
  -12.0344   -2.5702   -4.5035 O   0  0  0  0  0  0  0  0  0  0  0  0
  -10.0426   -3.5771   -3.8669 N   0  0  0  0  0  0  0  0  0  0  0  0
   -9.1607   -4.1450   -2.9214 C   0  0  0  0  0  0  0  0  0  0  0  0
   -8.0584   -4.5751   -3.2837 O   0  0  0  0  0  0  0  0  0  0  0  0
   -9.6780   -4.1570   -1.5512 C   0  0  0  0  0  0  0  0  0  0  0  0
   -8.8802   -4.6928   -0.5710 N   0  0  0  0  0  0  0  0  0  0  0  0
   -9.4319   -4.8677    0.6649 C   0  0  0  0  0  0  0  0  0  0  0  0
   -8.7013   -5.5730    1.6047 C   0  0  0  0  0  0  0  0  0  0  0  0
   -9.1855   -5.7843    2.8506 C   0  0  0  0  0  0  0  0  0  0  0  0
   -8.3542   -6.5502    3.8297 C   0  0  0  0  0  0  0  0  0  0  0  0
  -10.4090   -5.3049    3.2030 C   0  0  0  0  0  0  0  0  0  0  0  0
  -10.9388   -5.5488    4.5785 C   0  0  0  0  0  0  0  0  0  0  0  0
  -11.1610   -4.6067    2.3144 C   0  0  0  0  0  0  0  0  0  0  0  0
  -10.7081   -4.3609    1.0182 C   0  0  0  0  0  0  0  0  0  0  0  0
  -11.4357   -3.6409    0.0476 N   0  0  0  0  0  0  0  0  0  0  0  0
  -10.9885   -3.6100   -1.2892 C   0  0  0  0  0  0  0  0  0  0  0  0
  -12.2993   -2.4947    0.5153 C   0  0  0  0  0  0  0  0  0  0  0  0
  -11.7892   -1.7070    1.7601 C   0  0  1  0  0  0  0  0  0  0  0  0
  -10.9030   -0.6732    1.3555 O   0  0  0  0  0  0  0  0  0  0  0  0
  -12.9328   -1.1759    2.6568 C   0  0  1  0  0  0  0  0  0  0  0  0
  -13.5174   -2.2446    3.3956 O   0  0  0  0  0  0  0  0  0  0  0  0
  -12.5904   -0.0029    3.6080 C   0  0  1  0  0  0  0  0  0  0  0  0
  -11.9126    0.9998    2.8590 O   0  0  0  0  0  0  0  0  0  0  0  0
  -13.8405    0.6259    4.2636 C   0  0  0  0  0  0  0  0  0  0  0  0
  -13.5093    1.6519    5.1918 O   0  0  0  0  0  0  0  0  0  0  0  0
  -14.5877    2.6490    5.7869 P   0  0  0  0  0  0  0  0  0  0  0  0
  -14.8590    3.7583    4.8446 O   0  0  0  0  0  0  0  0  0  0  0  0
  -15.7333    1.9024    6.3501 O   0  5  0  0  0  0  0  0  0  0  0  0
  -13.8417    3.3164    7.0250 O   0  5  0  0  0  0  0  0  0  0  0  0
  1 18  1  0  0  0  0
  1  2  1  0  0  0  0
  2  4  1  0  0  0  0
  2  3  2  0  0  0  0
  4  5  1  0  0  0  0
  5  7  1  0  0  0  0
  5  6  2  0  0  0  0
  7 18  2  0  0  0  0
  7  8  1  0  0  0  0
  8  9  1  0  0  0  0
  9 10  2  0  0  0  0
  9 16  1  0  0  0  0
 10 11  1  0  0  0  0
 11 12  1  0  0  0  0
 11 13  2  0  0  0  0
 13 14  1  0  0  0  0
 13 15  1  0  0  0  0
 15 16  2  0  0  0  0
 16 17  1  0  0  0  0
 17 19  1  0  0  0  0
 17 18  1  0  0  0  0
 20 19  1  6  0  0  0
 20 22  1  0  0  0  0
 20 21  1  0  0  0  0
 22 24  1  0  0  0  0
 22 23  1  1  0  0  0
 24 26  1  6  0  0  0
 24 25  1  0  0  0  0
 26 27  1  0  0  0  0
 27 28  1  0  0  0  0
 28 30  1  0  0  0  0
 28 29  2  0  0  0  0
 28 31  1  0  0  0  0
M  CHG  2  30  -1  31  -1
M  END
>  <CHROM.1>
32.30663207,86.90628477,74.12512278,155.91529903,48.73255610,80.01206146
176.69154028,-162.34546640,167.59087180,-81.91686690,-11.63625653,-2.00942308
1.72794586,0.61182294,1.02731135,-1.44950909

>  <Name>
1fmn_cryst

>  <RI>
0

>  <Rbt.Current_Directory>
/home/itssahil/PROJECTS/Mol_Feturizer/New_Systems/rnas/1fmn

>  <Rbt.Executable>
rbdock ($Id: //depot/dev/client3/rdock/2013.1/src/exe/rbdock.cxx#4 $)

>  <Rbt.Library>
libRbt.so (2013.1, Build901 2013/11/27)

>  <Rbt.Parameter_File>
/export/apps/rDock/src/rDock_2013.1_src/data/scripts/dock_solv.prm

>  <Rbt.Receptor>
prm/blind_docking_80.prm

>  <SCORE>
-40.2163

>  <SCORE.INTER>
-38.4452

>  <SCORE.INTER.CONST>
1

>  <SCORE.INTER.POLAR>
-1.894

>  <SCORE.INTER.ROT>
7

>  <SCORE.INTER.SOLV>
24.3618

>  <SCORE.INTER.VDW>
-35.704

>  <SCORE.INTER.norm>
-1.24017

>  <SCORE.INTRA>
-3.78332

>  <SCORE.INTRA.DIHEDRAL>
-3.14531

>  <SCORE.INTRA.DIHEDRAL.0>
15.5708

>  <SCORE.INTRA.POLAR>
-0.601112

>  <SCORE.INTRA.POLAR.0>
-0.0677885

>  <SCORE.INTRA.REPUL>
0

>  <SCORE.INTRA.REPUL.0>
0

>  <SCORE.INTRA.SOLV>
-4.80253

>  <SCORE.INTRA.SOLV.lig_0>
-87.6316

>  <SCORE.INTRA.VDW>
2.23438

>  <SCORE.INTRA.VDW.0>
-2.87309

>  <SCORE.INTRA.norm>
-0.122042

>  <SCORE.RESTR>
2.01222

>  <SCORE.RESTR.CAVITY>
2.01222

>  <SCORE.RESTR.norm>
0.0649103

>  <SCORE.SYSTEM>
0

>  <SCORE.SYSTEM.CONST>
0

>  <SCORE.SYSTEM.DIHEDRAL>
0

>  <SCORE.SYSTEM.SOLV>
0

>  <SCORE.SYSTEM.norm>
0

>  <SCORE.heavy>
31

>  <SCORE.norm>
-1.2973

>  <SYMMETRIC_BONDS>
33 34 3

>  <RMSD>
9.752

$$$$
1fmn_cryst
 OpenBabel11021811393D
libRbt.so/2013.1/901 2013/11/27
 31 33  0  0  0  0  0  0  0  0999 V2000
  -10.1810   -4.1605   -3.0945 N   0  0  0  0  0  0  0  0  0  0  0  0
   -9.2901   -4.3803   -4.1190 C   0  0  0  0  0  0  0  0  0  0  0  0
   -9.5779   -4.1522   -5.2944 O   0  0  0  0  0  0  0  0  0  0  0  0
   -8.0238   -4.8898   -3.7365 N   0  0  0  0  0  0  0  0  0  0  0  0
   -7.5961   -5.1903   -2.4247 C   0  0  0  0  0  0  0  0  0  0  0  0
   -6.4559   -5.6307   -2.2313 O   0  0  0  0  0  0  0  0  0  0  0  0
   -8.6016   -4.9299   -1.3921 C   0  0  0  0  0  0  0  0  0  0  0  0
   -8.2635   -5.1960   -0.0886 N   0  0  0  0  0  0  0  0  0  0  0  0
   -9.2550   -5.1254    0.8466 C   0  0  0  0  0  0  0  0  0  0  0  0
   -8.9695   -5.5691    2.1257 C   0  0  0  0  0  0  0  0  0  0  0  0
   -9.9040   -5.5283    3.1037 C   0  0  0  0  0  0  0  0  0  0  0  0
   -9.5431   -6.0171    4.4702 C   0  0  0  0  0  0  0  0  0  0  0  0
  -11.1503   -5.0483    2.8441 C   0  0  0  0  0  0  0  0  0  0  0  0
  -12.1779   -5.0133    3.9280 C   0  0  0  0  0  0  0  0  0  0  0  0
  -11.4755   -4.6015    1.6042 C   0  0  0  0  0  0  0  0  0  0  0  0
  -10.5492   -4.6214    0.5614 C   0  0  0  0  0  0  0  0  0  0  0  0
  -10.8195   -4.1700   -0.7474 N   0  0  0  0  0  0  0  0  0  0  0  0
   -9.8908   -4.4084   -1.7812 C   0  0  0  0  0  0  0  0  0  0  0  0
  -11.7539   -2.9962   -0.9135 C   0  0  0  0  0  0  0  0  0  0  0  0
  -12.2222   -2.2938    0.3970 C   0  0  1  0  0  0  0  0  0  0  0  0
  -11.1238   -2.1270    1.2822 O   0  0  0  0  0  0  0  0  0  0  0  0
  -12.9719   -0.9645    0.1424 C   0  0  1  0  0  0  0  0  0  0  0  0
  -13.9494   -1.1371   -0.8794 O   0  0  0  0  0  0  0  0  0  0  0  0
  -13.6111   -0.2737    1.3721 C   0  0  1  0  0  0  0  0  0  0  0  0
  -13.4848   -1.1431    2.4920 O   0  0  0  0  0  0  0  0  0  0  0  0
  -12.9483    1.0792    1.7155 C   0  0  0  0  0  0  0  0  0  0  0  0
  -12.9670    1.9871    0.6203 O   0  0  0  0  0  0  0  0  0  0  0  0
  -12.4098    3.4669    0.7249 P   0  0  0  0  0  0  0  0  0  0  0  0
  -11.1273    3.4978    1.4639 O   0  0  0  0  0  0  0  0  0  0  0  0
  -12.4882    4.1473   -0.5858 O   0  5  0  0  0  0  0  0  0  0  0  0
  -13.4616    4.2002    1.6687 O   0  5  0  0  0  0  0  0  0  0  0  0
  1 18  1  0  0  0  0
  1  2  1  0  0  0  0
  2  4  1  0  0  0  0
  2  3  2  0  0  0  0
  4  5  1  0  0  0  0
  5  7  1  0  0  0  0
  5  6  2  0  0  0  0
  7 18  2  0  0  0  0
  7  8  1  0  0  0  0
  8  9  1  0  0  0  0
  9 10  2  0  0  0  0
  9 16  1  0  0  0  0
 10 11  1  0  0  0  0
 11 12  1  0  0  0  0
 11 13  2  0  0  0  0
 13 14  1  0  0  0  0
 13 15  1  0  0  0  0
 15 16  2  0  0  0  0
 16 17  1  0  0  0  0
 17 19  1  0  0  0  0
 17 18  1  0  0  0  0
 20 19  1  6  0  0  0
 20 22  1  0  0  0  0
 20 21  1  0  0  0  0
 22 24  1  0  0  0  0
 22 23  1  6  0  0  0
 24 26  1  1  0  0  0
 24 25  1  0  0  0  0
 26 27  1  0  0  0  0
 27 28  1  0  0  0  0
 28 30  1  0  0  0  0
 28 29  2  0  0  0  0
 28 31  1  0  0  0  0
M  CHG  2  30  -1  31  -1
M  END
>  <CHROM.1>
6.12715146,43.63884345,46.98627658,-172.38108032,-6.82131712,59.59609556
56.45786939,-151.71728913,177.22979421,42.94435450,-10.97269952,-2.23004705
0.15603967,-0.40547133,1.07271947,-0.86792685

>  <Name>
1fmn_cryst

>  <RI>
0

>  <Rbt.Current_Directory>
/home/itssahil/PROJECTS/Mol_Feturizer/New_Systems/rnas/1fmn

>  <Rbt.Executable>
rbdock ($Id: //depot/dev/client3/rdock/2013.1/src/exe/rbdock.cxx#4 $)

>  <Rbt.Library>
libRbt.so (2013.1, Build901 2013/11/27)

>  <Rbt.Parameter_File>
/export/apps/rDock/src/rDock_2013.1_src/data/scripts/dock_solv.prm

>  <Rbt.Receptor>
prm/blind_docking_60.prm

>  <SCORE>
-41.2011

>  <SCORE.INTER>
-42.1775

>  <SCORE.INTER.CONST>
1

>  <SCORE.INTER.POLAR>
-1.97726

>  <SCORE.INTER.ROT>
7

>  <SCORE.INTER.SOLV>
28.0929

>  <SCORE.INTER.VDW>
-39.1584

>  <SCORE.INTER.norm>
-1.36056

>  <SCORE.INTRA>
0.510565

>  <SCORE.INTRA.DIHEDRAL>
-2.57294

>  <SCORE.INTRA.DIHEDRAL.0>
15.5708

>  <SCORE.INTRA.POLAR>
-0.375825

>  <SCORE.INTRA.POLAR.0>
-0.0677885

>  <SCORE.INTRA.REPUL>
0

>  <SCORE.INTRA.REPUL.0>
0

>  <SCORE.INTRA.SOLV>
-3.7081

>  <SCORE.INTRA.SOLV.lig_0>
-87.6316

>  <SCORE.INTRA.VDW>
4.92889

>  <SCORE.INTRA.VDW.0>
-2.87309

>  <SCORE.INTRA.norm>
0.0164699

>  <SCORE.RESTR>
0.465802

>  <SCORE.RESTR.CAVITY>
0.465802

>  <SCORE.RESTR.norm>
0.0150259

>  <SCORE.SYSTEM>
0

>  <SCORE.SYSTEM.CONST>
0

>  <SCORE.SYSTEM.DIHEDRAL>
0

>  <SCORE.SYSTEM.SOLV>
0

>  <SCORE.SYSTEM.norm>
0

>  <SCORE.heavy>
31

>  <SCORE.norm>
-1.32907

>  <SYMMETRIC_BONDS>
33 34 3

>  <RMSD>
9.756

$$$$
1fmn_cryst
 OpenBabel11021811393D
libRbt.so/2013.1/901 2013/11/27
 31 33  0  0  0  0  0  0  0  0999 V2000
  -12.1118   -3.0137   -1.1726 N   0  0  0  0  0  0  0  0  0  0  0  0
  -11.9210   -2.8059   -2.5187 C   0  0  0  0  0  0  0  0  0  0  0  0
  -12.7476   -2.2109   -3.2109 O   0  0  0  0  0  0  0  0  0  0  0  0
  -10.7166   -3.3236   -3.0581 N   0  0  0  0  0  0  0  0  0  0  0  0
   -9.7099   -4.0232   -2.3571 C   0  0  0  0  0  0  0  0  0  0  0  0
   -8.7019   -4.4205   -2.9549 O   0  0  0  0  0  0  0  0  0  0  0  0
   -9.9882   -4.2039   -0.9306 C   0  0  0  0  0  0  0  0  0  0  0  0
   -9.0572   -4.8747   -0.1773 N   0  0  0  0  0  0  0  0  0  0  0  0
   -9.3983   -5.1990    1.1037 C   0  0  0  0  0  0  0  0  0  0  0  0
   -8.5467   -6.0316    1.8080 C   0  0  0  0  0  0  0  0  0  0  0  0
   -8.8210   -6.3944    3.0826 C   0  0  0  0  0  0  0  0  0  0  0  0
   -7.8659   -7.2938    3.8005 C   0  0  0  0  0  0  0  0  0  0  0  0
   -9.9481   -5.9449    3.6978 C   0  0  0  0  0  0  0  0  0  0  0  0
  -10.2467   -6.3560    5.1028 C   0  0  0  0  0  0  0  0  0  0  0  0
  -10.8124   -5.1256    3.0463 C   0  0  0  0  0  0  0  0  0  0  0  0
  -10.5761   -4.7217    1.7323 C   0  0  0  0  0  0  0  0  0  0  0  0
  -11.4294   -3.8705    0.9992 N   0  0  0  0  0  0  0  0  0  0  0  0
  -11.2138   -3.6742   -0.3803 C   0  0  0  0  0  0  0  0  0  0  0  0
  -12.1572   -2.7806    1.7479 C   0  0  0  0  0  0  0  0  0  0  0  0
  -12.2334   -1.3909    1.0458 C   0  0  1  0  0  0  0  0  0  0  0  0
  -13.2671   -1.3910    0.0714 O   0  0  0  0  0  0  0  0  0  0  0  0
  -12.3695   -0.2121    2.0388 C   0  0  1  0  0  0  0  0  0  0  0  0
  -11.4309   -0.3514    3.1015 O   0  0  0  0  0  0  0  0  0  0  0  0
  -12.2872    1.2163    1.4466 C   0  0  1  0  0  0  0  0  0  0  0  0
  -10.9579    1.4367    0.9880 O   0  0  0  0  0  0  0  0  0  0  0  0
  -13.2628    1.4375    0.2689 C   0  0  0  0  0  0  0  0  0  0  0  0
  -12.5928    1.5215   -0.9833 O   0  0  0  0  0  0  0  0  0  0  0  0
  -11.8284    2.8252   -1.4598 P   0  0  0  0  0  0  0  0  0  0  0  0
  -12.3935    3.3350   -2.7297 O   0  0  0  0  0  0  0  0  0  0  0  0
  -11.6536    3.7679   -0.3338 O   0  5  0  0  0  0  0  0  0  0  0  0
  -10.3719    2.2962   -1.8253 O   0  5  0  0  0  0  0  0  0  0  0  0
  1 18  1  0  0  0  0
  1  2  1  0  0  0  0
  2  4  1  0  0  0  0
  2  3  2  0  0  0  0
  4  5  1  0  0  0  0
  5  7  1  0  0  0  0
  5  6  2  0  0  0  0
  7 18  2  0  0  0  0
  7  8  1  0  0  0  0
  8  9  1  0  0  0  0
  9 10  2  0  0  0  0
  9 16  1  0  0  0  0
 10 11  1  0  0  0  0
 11 12  1  0  0  0  0
 11 13  2  0  0  0  0
 13 14  1  0  0  0  0
 13 15  1  0  0  0  0
 15 16  2  0  0  0  0
 16 17  1  0  0  0  0
 17 19  1  0  0  0  0
 17 18  1  0  0  0  0
 20 19  1  1  0  0  0
 20 22  1  0  0  0  0
 20 21  1  0  0  0  0
 22 24  1  0  0  0  0
 22 23  1  1  0  0  0
 24 26  1  6  0  0  0
 24 25  1  0  0  0  0
 26 27  1  0  0  0  0
 27 28  1  0  0  0  0
 28 30  1  0  0  0  0
 28 29  2  0  0  0  0
 28 31  1  0  0  0  0
M  CHG  2  30  -1  31  -1
M  END
>  <CHROM.1>
138.56375862,80.25981285,46.63860067,70.21428854,-68.22959363,-82.75705616
-108.29492386,65.34102932,-77.81847577,-120.81500265,-11.06334901,-1.95238017
0.23157261,-0.51482630,1.24031761,-1.42551326

>  <Name>
1fmn_cryst

>  <RI>
0

>  <Rbt.Current_Directory>
/home/itssahil/PROJECTS/Mol_Feturizer/New_Systems/rnas/1fmn

>  <Rbt.Executable>
rbdock ($Id: //depot/dev/client3/rdock/2013.1/src/exe/rbdock.cxx#4 $)

>  <Rbt.Library>
libRbt.so (2013.1, Build901 2013/11/27)

>  <Rbt.Parameter_File>
/export/apps/rDock/src/rDock_2013.1_src/data/scripts/dock_solv.prm

>  <Rbt.Receptor>
prm/blind_docking_60.prm

>  <SCORE>
-31.0396

>  <SCORE.INTER>
-37.7211

>  <SCORE.INTER.CONST>
1

>  <SCORE.INTER.POLAR>
-2.6576

>  <SCORE.INTER.ROT>
7

>  <SCORE.INTER.SOLV>
27.8043

>  <SCORE.INTER.VDW>
-33.8235

>  <SCORE.INTER.norm>
-1.21681

>  <SCORE.INTRA>
3.96294

>  <SCORE.INTRA.DIHEDRAL>
0.618687

>  <SCORE.INTRA.DIHEDRAL.0>
15.5708

>  <SCORE.INTRA.POLAR>
-0.389204

>  <SCORE.INTRA.POLAR.0>
-0.0677885

>  <SCORE.INTRA.REPUL>
0

>  <SCORE.INTRA.REPUL.0>
0

>  <SCORE.INTRA.SOLV>
1.90291

>  <SCORE.INTRA.SOLV.lig_0>
-87.6316

>  <SCORE.INTRA.VDW>
4.02544

>  <SCORE.INTRA.VDW.0>
-2.87309

>  <SCORE.INTRA.norm>
0.127837

>  <SCORE.RESTR>
2.71862

>  <SCORE.RESTR.CAVITY>
2.71862

>  <SCORE.RESTR.norm>
0.0876973

>  <SCORE.SYSTEM>
0

>  <SCORE.SYSTEM.CONST>
0

>  <SCORE.SYSTEM.DIHEDRAL>
0

>  <SCORE.SYSTEM.SOLV>
0

>  <SCORE.SYSTEM.norm>
0

>  <SCORE.heavy>
31

>  <SCORE.norm>
-1.00128

>  <SYMMETRIC_BONDS>
33 34 3

>  <RMSD>
9.768

$$$$
1fmn_cryst
 OpenBabel11021811393D
libRbt.so/2013.1/901 2013/11/27
 31 33  0  0  0  0  0  0  0  0999 V2000
  -11.8043   -3.0647   -2.2307 N   0  0  0  0  0  0  0  0  0  0  0  0
  -11.3958   -3.0171   -3.5431 C   0  0  0  0  0  0  0  0  0  0  0  0
  -12.1028   -2.5371   -4.4298 O   0  0  0  0  0  0  0  0  0  0  0  0
  -10.1137   -3.5596   -3.8101 N   0  0  0  0  0  0  0  0  0  0  0  0
   -9.2294   -4.1367   -2.8725 C   0  0  0  0  0  0  0  0  0  0  0  0
   -8.1325   -4.5729   -3.2437 O   0  0  0  0  0  0  0  0  0  0  0  0
   -9.7377   -4.1502   -1.4989 C   0  0  0  0  0  0  0  0  0  0  0  0
   -8.9370   -4.6949   -0.5260 N   0  0  0  0  0  0  0  0  0  0  0  0
   -9.4817   -4.8705    0.7130 C   0  0  0  0  0  0  0  0  0  0  0  0
   -8.7496   -5.5841    1.6453 C   0  0  0  0  0  0  0  0  0  0  0  0
   -9.2270   -5.7966    2.8937 C   0  0  0  0  0  0  0  0  0  0  0  0
   -8.3944   -6.5717    3.8646 C   0  0  0  0  0  0  0  0  0  0  0  0
  -10.4449   -5.3103    3.2560 C   0  0  0  0  0  0  0  0  0  0  0  0
  -10.9672   -5.5556    4.6341 C   0  0  0  0  0  0  0  0  0  0  0  0
  -11.1981   -4.6038    2.3748 C   0  0  0  0  0  0  0  0  0  0  0  0
  -10.7521   -4.3565    1.0766 C   0  0  0  0  0  0  0  0  0  0  0  0
  -11.4812   -3.6281    0.1134 N   0  0  0  0  0  0  0  0  0  0  0  0
  -11.0427   -3.5953   -1.2263 C   0  0  0  0  0  0  0  0  0  0  0  0
  -12.3340   -2.4778    0.5908 C   0  0  0  0  0  0  0  0  0  0  0  0
  -11.7880   -1.6699    1.8071 C   0  0  1  0  0  0  0  0  0  0  0  0
  -10.9368   -0.6250    1.3581 O   0  0  0  0  0  0  0  0  0  0  0  0
  -12.9036   -1.1498    2.7446 C   0  0  1  0  0  0  0  0  0  0  0  0
  -13.3278   -2.1840    3.6278 O   0  0  0  0  0  0  0  0  0  0  0  0
  -12.5997    0.1383    3.5485 C   0  0  1  0  0  0  0  0  0  0  0  0
  -12.1259    1.1306    2.6448 O   0  0  0  0  0  0  0  0  0  0  0  0
  -13.8369    0.6914    4.2907 C   0  0  0  0  0  0  0  0  0  0  0  0
  -13.5091    1.7573    5.1742 O   0  0  0  0  0  0  0  0  0  0  0  0
  -14.6072    2.5874    5.9593 P   0  0  0  0  0  0  0  0  0  0  0  0
  -15.7465    1.7243    6.3454 O   0  0  0  0  0  0  0  0  0  0  0  0
  -13.9782    3.4350    6.9951 O   0  5  0  0  0  0  0  0  0  0  0  0
  -15.1834    3.5848    4.8602 O   0  5  0  0  0  0  0  0  0  0  0  0
  1 18  1  0  0  0  0
  1  2  1  0  0  0  0
  2  4  1  0  0  0  0
  2  3  2  0  0  0  0
  4  5  1  0  0  0  0
  5  7  1  0  0  0  0
  5  6  2  0  0  0  0
  7 18  2  0  0  0  0
  7  8  1  0  0  0  0
  8  9  1  0  0  0  0
  9 10  2  0  0  0  0
  9 16  1  0  0  0  0
 10 11  1  0  0  0  0
 11 12  1  0  0  0  0
 11 13  2  0  0  0  0
 13 14  1  0  0  0  0
 13 15  1  0  0  0  0
 15 16  2  0  0  0  0
 16 17  1  0  0  0  0
 17 19  1  0  0  0  0
 17 18  1  0  0  0  0
 20 19  1  6  0  0  0
 20 22  1  0  0  0  0
 20 21  1  0  0  0  0
 22 24  1  0  0  0  0
 22 23  1  1  0  0  0
 24 26  1  6  0  0  0
 24 25  1  0  0  0  0
 26 27  1  0  0  0  0
 27 28  1  0  0  0  0
 28 30  1  0  0  0  0
 28 29  2  0  0  0  0
 28 31  1  0  0  0  0
M  CHG  2  30  -1  31  -1
M  END
>  <CHROM.1>
34.17263563,87.89857737,81.10037728,45.54607398,50.93360971,-55.43076400
171.59175697,-63.78781248,174.41126866,34.84153116,-11.68687256,-2.00176003
1.76522091,0.60265904,1.02621124,-1.44177792

>  <Name>
1fmn_cryst

>  <RI>
0

>  <Rbt.Current_Directory>
/home/itssahil/PROJECTS/Mol_Feturizer/New_Systems/rnas/1fmn

>  <Rbt.Executable>
rbdock ($Id: //depot/dev/client3/rdock/2013.1/src/exe/rbdock.cxx#4 $)

>  <Rbt.Library>
libRbt.so (2013.1, Build901 2013/11/27)

>  <Rbt.Parameter_File>
/export/apps/rDock/src/rDock_2013.1_src/data/scripts/dock_solv.prm

>  <Rbt.Receptor>
prm/blind_docking_80.prm

>  <SCORE>
-34.9726

>  <SCORE.INTER>
-31.891

>  <SCORE.INTER.CONST>
1

>  <SCORE.INTER.POLAR>
-0.670639

>  <SCORE.INTER.ROT>
7

>  <SCORE.INTER.SOLV>
23.6001

>  <SCORE.INTER.VDW>
-35.1586

>  <SCORE.INTER.norm>
-1.02874

>  <SCORE.INTRA>
-5.11617

>  <SCORE.INTRA.DIHEDRAL>
-7.05895

>  <SCORE.INTRA.DIHEDRAL.0>
15.5708

>  <SCORE.INTRA.POLAR>
-0.3067

>  <SCORE.INTRA.POLAR.0>
-0.0677885

>  <SCORE.INTRA.REPUL>
0

>  <SCORE.INTRA.REPUL.0>
0

>  <SCORE.INTRA.SOLV>
-4.48997

>  <SCORE.INTRA.SOLV.lig_0>
-87.6316

>  <SCORE.INTRA.VDW>
1.70106

>  <SCORE.INTRA.VDW.0>
-2.87309

>  <SCORE.INTRA.norm>
-0.165038

>  <SCORE.RESTR>
2.03465

>  <SCORE.RESTR.CAVITY>
2.03465

>  <SCORE.RESTR.norm>
0.065634

>  <SCORE.SYSTEM>
0

>  <SCORE.SYSTEM.CONST>
0

>  <SCORE.SYSTEM.DIHEDRAL>
0

>  <SCORE.SYSTEM.SOLV>
0

>  <SCORE.SYSTEM.norm>
0

>  <SCORE.heavy>
31

>  <SCORE.norm>
-1.12815

>  <SYMMETRIC_BONDS>
33 34 3

>  <RMSD>
9.769

$$$$
1fmn_cryst
 OpenBabel11021811393D
libRbt.so/2013.1/901 2013/11/27
 31 33  0  0  0  0  0  0  0  0999 V2000
  -11.8503   -2.7909   -2.4137 N   0  0  0  0  0  0  0  0  0  0  0  0
  -11.4473   -2.7379   -3.7276 C   0  0  0  0  0  0  0  0  0  0  0  0
  -12.1385   -2.2137   -4.6016 O   0  0  0  0  0  0  0  0  0  0  0  0
  -10.1904   -3.3285   -4.0115 N   0  0  0  0  0  0  0  0  0  0  0  0
   -9.3259   -3.9580   -3.0893 C   0  0  0  0  0  0  0  0  0  0  0  0
   -8.2501   -4.4331   -3.4745 O   0  0  0  0  0  0  0  0  0  0  0  0
   -9.8268   -3.9739   -1.7130 C   0  0  0  0  0  0  0  0  0  0  0  0
   -9.0443   -4.5680   -0.7544 N   0  0  0  0  0  0  0  0  0  0  0  0
   -9.5891   -4.7421    0.4847 C   0  0  0  0  0  0  0  0  0  0  0  0
   -8.8824   -5.5014    1.4003 C   0  0  0  0  0  0  0  0  0  0  0  0
   -9.3614   -5.7153    2.6478 C   0  0  0  0  0  0  0  0  0  0  0  0
   -8.5566   -6.5409    3.6003 C   0  0  0  0  0  0  0  0  0  0  0  0
  -10.5559   -5.1850    3.0258 C   0  0  0  0  0  0  0  0  0  0  0  0
  -11.0805   -5.4320    4.4027 C   0  0  0  0  0  0  0  0  0  0  0  0
  -11.2838   -4.4328    2.1614 C   0  0  0  0  0  0  0  0  0  0  0  0
  -10.8349   -4.1820    0.8648 C   0  0  0  0  0  0  0  0  0  0  0  0
  -11.5383   -3.4074   -0.0815 N   0  0  0  0  0  0  0  0  0  0  0  0
  -11.1061   -3.3700   -1.4231 C   0  0  0  0  0  0  0  0  0  0  0  0
  -12.3397   -2.2310    0.4206 C   0  0  0  0  0  0  0  0  0  0  0  0
  -11.8511   -1.5773    1.7488 C   0  0  1  0  0  0  0  0  0  0  0  0
  -11.0207   -0.4596    1.4675 O   0  0  0  0  0  0  0  0  0  0  0  0
  -13.0067   -1.2163    2.7124 C   0  0  1  0  0  0  0  0  0  0  0  0
  -13.3484   -2.3416    3.5164 O   0  0  0  0  0  0  0  0  0  0  0  0
  -12.8084    0.0311    3.6083 C   0  0  1  0  0  0  0  0  0  0  0  0
  -12.9022    1.1917    2.7897 O   0  0  0  0  0  0  0  0  0  0  0  0
  -13.8567    0.1337    4.7389 C   0  0  0  0  0  0  0  0  0  0  0  0
  -13.6134    1.2341    5.6072 O   0  0  0  0  0  0  0  0  0  0  0  0
  -14.3333    2.6355    5.4362 P   0  0  0  0  0  0  0  0  0  0  0  0
  -13.7876    3.3716    4.2732 O   0  0  0  0  0  0  0  0  0  0  0  0
  -15.7998    2.4862    5.5550 O   0  5  0  0  0  0  0  0  0  0  0  0
  -13.8662    3.4583    6.7167 O   0  5  0  0  0  0  0  0  0  0  0  0
  1 18  1  0  0  0  0
  1  2  1  0  0  0  0
  2  4  1  0  0  0  0
  2  3  2  0  0  0  0
  4  5  1  0  0  0  0
  5  7  1  0  0  0  0
  5  6  2  0  0  0  0
  7 18  2  0  0  0  0
  7  8  1  0  0  0  0
  8  9  1  0  0  0  0
  9 10  2  0  0  0  0
  9 16  1  0  0  0  0
 10 11  1  0  0  0  0
 11 12  1  0  0  0  0
 11 13  2  0  0  0  0
 13 14  1  0  0  0  0
 13 15  1  0  0  0  0
 15 16  2  0  0  0  0
 16 17  1  0  0  0  0
 17 19  1  0  0  0  0
 17 18  1  0  0  0  0
 20 19  1  6  0  0  0
 20 22  1  0  0  0  0
 20 21  1  0  0  0  0
 22 24  1  0  0  0  0
 22 23  1  1  0  0  0
 24 26  1  1  0  0  0
 24 25  1  0  0  0  0
 26 27  1  0  0  0  0
 27 28  1  0  0  0  0
 28 30  1  0  0  0  0
 28 29  2  0  0  0  0
 28 31  1  0  0  0  0
M  CHG  2  30  -1  31  -1
M  END
>  <CHROM.1>
26.84656916,95.73619740,85.86633068,82.89365264,71.99169130,-161.55392542
176.16476579,176.50048397,96.01703940,-73.37583695,-11.71798372,-1.90886286
1.58999945,0.59682429,1.05235868,-1.41243448

>  <Name>
1fmn_cryst

>  <RI>
0

>  <Rbt.Current_Directory>
/home/itssahil/PROJECTS/Mol_Feturizer/New_Systems/rnas/1fmn

>  <Rbt.Executable>
rbdock ($Id: //depot/dev/client3/rdock/2013.1/src/exe/rbdock.cxx#4 $)

>  <Rbt.Library>
libRbt.so (2013.1, Build901 2013/11/27)

>  <Rbt.Parameter_File>
/export/apps/rDock/src/rDock_2013.1_src/data/scripts/dock_solv.prm

>  <Rbt.Receptor>
prm/blind_docking_40.prm

>  <SCORE>
-38.0187

>  <SCORE.INTER>
-36.4148

>  <SCORE.INTER.CONST>
1

>  <SCORE.INTER.POLAR>
-1.23606

>  <SCORE.INTER.ROT>
7

>  <SCORE.INTER.SOLV>
22.471

>  <SCORE.INTER.VDW>
-35.9133

>  <SCORE.INTER.norm>
-1.17467

>  <SCORE.INTRA>
-1.74548

>  <SCORE.INTRA.DIHEDRAL>
1.35355

>  <SCORE.INTRA.DIHEDRAL.0>
15.5708

>  <SCORE.INTRA.POLAR>
-1.01006

>  <SCORE.INTRA.POLAR.0>
-0.0677885

>  <SCORE.INTRA.REPUL>
0

>  <SCORE.INTRA.REPUL.0>
0

>  <SCORE.INTRA.SOLV>
-0.99805

>  <SCORE.INTRA.SOLV.lig_0>
-87.6316

>  <SCORE.INTRA.VDW>
1.51098

>  <SCORE.INTRA.VDW.0>
-2.87309

>  <SCORE.INTRA.norm>
-0.0563058

>  <SCORE.RESTR>
0.141564

>  <SCORE.RESTR.CAVITY>
0.141564

>  <SCORE.RESTR.norm>
0.00456657

>  <SCORE.SYSTEM>
0

>  <SCORE.SYSTEM.CONST>
0

>  <SCORE.SYSTEM.DIHEDRAL>
0

>  <SCORE.SYSTEM.SOLV>
0

>  <SCORE.SYSTEM.norm>
0

>  <SCORE.heavy>
31

>  <SCORE.norm>
-1.22641

>  <SYMMETRIC_BONDS>
33 34 3

>  <RMSD>
9.773

$$$$
1fmn_cryst
 OpenBabel11021811393D
libRbt.so/2013.1/901 2013/11/27
 31 33  0  0  0  0  0  0  0  0999 V2000
   -2.4461  -11.9927    1.4317 N   0  0  0  0  0  0  0  0  0  0  0  0
   -2.2018  -12.0277    0.0787 C   0  0  0  0  0  0  0  0  0  0  0  0
   -2.9479  -12.6165   -0.7043 O   0  0  0  0  0  0  0  0  0  0  0  0
   -1.0359  -11.3481   -0.3554 N   0  0  0  0  0  0  0  0  0  0  0  0
   -0.1142  -10.6506    0.4558 C   0  0  0  0  0  0  0  0  0  0  0  0
    0.8666  -10.0973   -0.0573 O   0  0  0  0  0  0  0  0  0  0  0  0
   -0.4443  -10.6607    1.8827 C   0  0  0  0  0  0  0  0  0  0  0  0
    0.4030  -10.0035    2.7398 N   0  0  0  0  0  0  0  0  0  0  0  0
    0.1950  -10.1656    4.0789 C   0  0  0  0  0  0  0  0  0  0  0  0
    1.1481   -9.6620    4.9463 C   0  0  0  0  0  0  0  0  0  0  0  0
    1.0073   -9.7858    6.2866 C   0  0  0  0  0  0  0  0  0  0  0  0
    2.0648   -9.2210    7.1805 C   0  0  0  0  0  0  0  0  0  0  0  0
   -0.0810  -10.4138    6.8084 C   0  0  0  0  0  0  0  0  0  0  0  0
   -0.2250  -10.5521    8.2890 C   0  0  0  0  0  0  0  0  0  0  0  0
   -1.0420  -10.9229    5.9959 C   0  0  0  0  0  0  0  0  0  0  0  0
   -0.9452  -10.8215    4.6082 C   0  0  0  0  0  0  0  0  0  0  0  0
   -1.9076  -11.3243    3.7076 N   0  0  0  0  0  0  0  0  0  0  0  0
   -1.6333  -11.3506    2.3249 C   0  0  0  0  0  0  0  0  0  0  0  0
   -3.3576  -11.2846    4.1250 C   0  0  0  0  0  0  0  0  0  0  0  0
   -4.1122   -9.9430    3.8785 C   0  0  1  0  0  0  0  0  0  0  0  0
   -3.3875   -8.8622    4.4483 O   0  0  0  0  0  0  0  0  0  0  0  0
   -4.4487   -9.6970    2.3885 C   0  0  1  0  0  0  0  0  0  0  0  0
   -5.4354  -10.6244    1.9459 O   0  0  0  0  0  0  0  0  0  0  0  0
   -4.8617   -8.2584    1.9914 C   0  0  1  0  0  0  0  0  0  0  0  0
   -5.0597   -8.2205    0.5824 O   0  0  0  0  0  0  0  0  0  0  0  0
   -6.1585   -7.7895    2.6887 C   0  0  0  0  0  0  0  0  0  0  0  0
   -6.3100   -6.3752    2.6602 O   0  0  0  0  0  0  0  0  0  0  0  0
   -5.1987   -5.3837    3.2016 P   0  0  0  0  0  0  0  0  0  0  0  0
   -4.4667   -5.9816    4.3412 O   0  0  0  0  0  0  0  0  0  0  0  0
   -4.4202   -4.8117    2.0819 O   0  5  0  0  0  0  0  0  0  0  0  0
   -6.0365   -4.1793    3.8200 O   0  5  0  0  0  0  0  0  0  0  0  0
  1 18  1  0  0  0  0
  1  2  1  0  0  0  0
  2  4  1  0  0  0  0
  2  3  2  0  0  0  0
  4  5  1  0  0  0  0
  5  7  1  0  0  0  0
  5  6  2  0  0  0  0
  7 18  2  0  0  0  0
  7  8  1  0  0  0  0
  8  9  1  0  0  0  0
  9 10  2  0  0  0  0
  9 16  1  0  0  0  0
 10 11  1  0  0  0  0
 11 12  1  0  0  0  0
 11 13  2  0  0  0  0
 13 14  1  0  0  0  0
 13 15  1  0  0  0  0
 15 16  2  0  0  0  0
 16 17  1  0  0  0  0
 17 19  1  0  0  0  0
 17 18  1  0  0  0  0
 20 19  1  6  0  0  0
 20 22  1  0  0  0  0
 20 21  1  0  0  0  0
 22 24  1  0  0  0  0
 22 23  1  1  0  0  0
 24 26  1  1  0  0  0
 24 25  1  0  0  0  0
 26 27  1  0  0  0  0
 27 28  1  0  0  0  0
 28 30  1  0  0  0  0
 28 29  2  0  0  0  0
 28 31  1  0  0  0  0
M  CHG  2  30  -1  31  -1
M  END
>  <CHROM.1>
83.90548940,-52.50540397,68.74462611,-176.31979788,176.97584644,177.98432164
161.74497334,-66.43011872,-54.55851096,-32.54129070,-2.56969804,-9.26642672
3.10177513,0.18805754,0.67705116,-2.15729757

>  <Name>
1fmn_cryst

>  <RI>
0

>  <Rbt.Current_Directory>
/home/itssahil/PROJECTS/Mol_Feturizer/New_Systems/rnas/1fmn

>  <Rbt.Executable>
rbdock ($Id: //depot/dev/client3/rdock/2013.1/src/exe/rbdock.cxx#4 $)

>  <Rbt.Library>
libRbt.so (2013.1, Build901 2013/11/27)

>  <Rbt.Parameter_File>
/export/apps/rDock/src/rDock_2013.1_src/data/scripts/dock_solv.prm

>  <Rbt.Receptor>
prm/pocket_docking_8.prm

>  <SCORE>
-26.4872

>  <SCORE.INTER>
-16.1617

>  <SCORE.INTER.CONST>
1

>  <SCORE.INTER.POLAR>
-4.01735

>  <SCORE.INTER.ROT>
7

>  <SCORE.INTER.SOLV>
16.5988

>  <SCORE.INTER.VDW>
-11.1829

>  <SCORE.INTER.norm>
-0.521345

>  <SCORE.INTRA>
-10.3255

>  <SCORE.INTRA.DIHEDRAL>
-10.6693

>  <SCORE.INTRA.DIHEDRAL.0>
15.5708

>  <SCORE.INTRA.POLAR>
-1.27665

>  <SCORE.INTRA.POLAR.0>
-0.0677885

>  <SCORE.INTRA.REPUL>
0

>  <SCORE.INTRA.REPUL.0>
0

>  <SCORE.INTRA.SOLV>
1.32601

>  <SCORE.INTRA.SOLV.lig_0>
-87.6316

>  <SCORE.INTRA.VDW>
-1.3132

>  <SCORE.INTRA.VDW.0>
-2.87309

>  <SCORE.INTRA.norm>
-0.33308

>  <SCORE.RESTR>
0

>  <SCORE.RESTR.CAVITY>
0

>  <SCORE.RESTR.norm>
0

>  <SCORE.SYSTEM>
0

>  <SCORE.SYSTEM.CONST>
0

>  <SCORE.SYSTEM.DIHEDRAL>
0

>  <SCORE.SYSTEM.SOLV>
0

>  <SCORE.SYSTEM.norm>
0

>  <SCORE.heavy>
31

>  <SCORE.norm>
-0.854424

>  <SYMMETRIC_BONDS>
33 34 3

>  <RMSD>
9.789

$$$$
1fmn_cryst
 OpenBabel11021811393D
libRbt.so/2013.1/901 2013/11/27
 31 33  0  0  0  0  0  0  0  0999 V2000
  -11.8305   -3.1485   -2.3471 N   0  0  0  0  0  0  0  0  0  0  0  0
  -11.4398   -3.1478   -3.6657 C   0  0  0  0  0  0  0  0  0  0  0  0
  -12.1511   -2.6828   -4.5570 O   0  0  0  0  0  0  0  0  0  0  0  0
  -10.1707   -3.7199   -3.9334 N   0  0  0  0  0  0  0  0  0  0  0  0
   -9.2831   -4.2835   -2.9907 C   0  0  0  0  0  0  0  0  0  0  0  0
   -8.1989   -4.7494   -3.3632 O   0  0  0  0  0  0  0  0  0  0  0  0
   -9.7721   -4.2466   -1.6106 C   0  0  0  0  0  0  0  0  0  0  0  0
   -8.9671   -4.7751   -0.6324 N   0  0  0  0  0  0  0  0  0  0  0  0
   -9.4971   -4.9038    0.6186 C   0  0  0  0  0  0  0  0  0  0  0  0
   -8.7639   -5.6012    1.5623 C   0  0  0  0  0  0  0  0  0  0  0  0
   -9.2271   -5.7676    2.8229 C   0  0  0  0  0  0  0  0  0  0  0  0
   -8.3940   -6.5270    3.8056 C   0  0  0  0  0  0  0  0  0  0  0  0
  -10.4315   -5.2498    3.1867 C   0  0  0  0  0  0  0  0  0  0  0  0
  -10.9383   -5.4442    4.5786 C   0  0  0  0  0  0  0  0  0  0  0  0
  -11.1851   -4.5576    2.2947 C   0  0  0  0  0  0  0  0  0  0  0  0
  -10.7534   -4.3573    0.9836 C   0  0  0  0  0  0  0  0  0  0  0  0
  -11.4838   -3.6461    0.0085 N   0  0  0  0  0  0  0  0  0  0  0  0
  -11.0638   -3.6615   -1.3373 C   0  0  0  0  0  0  0  0  0  0  0  0
  -12.3105   -2.4674    0.4622 C   0  0  0  0  0  0  0  0  0  0  0  0
  -11.8006   -1.7101    1.7257 C   0  0  1  0  0  0  0  0  0  0  0  0
  -10.9072   -0.6726    1.3471 O   0  0  0  0  0  0  0  0  0  0  0  0
  -12.9445   -1.1922    2.6298 C   0  0  1  0  0  0  0  0  0  0  0  0
  -13.3402   -2.2030    3.5525 O   0  0  0  0  0  0  0  0  0  0  0  0
  -12.6965    0.1391    3.3807 C   0  0  1  0  0  0  0  0  0  0  0  0
  -12.6197    1.1882    2.4218 O   0  0  0  0  0  0  0  0  0  0  0  0
  -13.8112    0.4746    4.3968 C   0  0  0  0  0  0  0  0  0  0  0  0
  -13.7733    1.8337    4.8159 O   0  0  0  0  0  0  0  0  0  0  0  0
  -14.7849    2.4302    5.8799 P   0  0  0  0  0  0  0  0  0  0  0  0
  -16.0867    1.7272    5.8238 O   0  0  0  0  0  0  0  0  0  0  0  0
  -14.1244    2.5930    7.1930 O   0  5  0  0  0  0  0  0  0  0  0  0
  -15.0732    3.9011    5.3432 O   0  5  0  0  0  0  0  0  0  0  0  0
  1 18  1  0  0  0  0
  1  2  1  0  0  0  0
  2  4  1  0  0  0  0
  2  3  2  0  0  0  0
  4  5  1  0  0  0  0
  5  7  1  0  0  0  0
  5  6  2  0  0  0  0
  7 18  2  0  0  0  0
  7  8  1  0  0  0  0
  8  9  1  0  0  0  0
  9 10  2  0  0  0  0
  9 16  1  0  0  0  0
 10 11  1  0  0  0  0
 11 12  1  0  0  0  0
 11 13  2  0  0  0  0
 13 14  1  0  0  0  0
 13 15  1  0  0  0  0
 15 16  2  0  0  0  0
 16 17  1  0  0  0  0
 17 19  1  0  0  0  0
 17 18  1  0  0  0  0
 20 19  1  6  0  0  0
 20 22  1  0  0  0  0
 20 21  1  0  0  0  0
 22 24  1  0  0  0  0
 22 23  1  1  0  0  0
 24 26  1  1  0  0  0
 24 25  1  0  0  0  0
 26 27  1  0  0  0  0
 27 28  1  0  0  0  0
 28 30  1  0  0  0  0
 28 29  2  0  0  0  0
 28 31  1  0  0  0  0
M  CHG  2  30  -1  31  -1
M  END
>  <CHROM.1>
28.84531513,89.51301051,86.86423577,64.49594377,67.06354592,-159.56551703
-164.34987415,62.92915948,-178.53839181,-29.93397368,-11.75818633,-2.06044971
1.67992729,0.63619634,0.99833374,-1.47488006

>  <Name>
1fmn_cryst

>  <RI>
0

>  <Rbt.Current_Directory>
/home/itssahil/PROJECTS/Mol_Feturizer/New_Systems/rnas/1fmn

>  <Rbt.Executable>
rbdock ($Id: //depot/dev/client3/rdock/2013.1/src/exe/rbdock.cxx#4 $)

>  <Rbt.Library>
libRbt.so (2013.1, Build901 2013/11/27)

>  <Rbt.Parameter_File>
/export/apps/rDock/src/rDock_2013.1_src/data/scripts/dock_solv.prm

>  <Rbt.Receptor>
prm/blind_docking_80.prm

>  <SCORE>
-37.3721

>  <SCORE.INTER>
-36.7454

>  <SCORE.INTER.CONST>
1

>  <SCORE.INTER.POLAR>
-1.32944

>  <SCORE.INTER.ROT>
7

>  <SCORE.INTER.SOLV>
23.3964

>  <SCORE.INTER.VDW>
-36.1309

>  <SCORE.INTER.norm>
-1.18534

>  <SCORE.INTRA>
-2.55486

>  <SCORE.INTRA.DIHEDRAL>
-3.9188

>  <SCORE.INTRA.DIHEDRAL.0>
15.5708

>  <SCORE.INTRA.POLAR>
0.0478657

>  <SCORE.INTRA.POLAR.0>
-0.0677885

>  <SCORE.INTRA.REPUL>
0

>  <SCORE.INTRA.REPUL.0>
0

>  <SCORE.INTRA.SOLV>
-4.79474

>  <SCORE.INTRA.SOLV.lig_0>
-87.6316

>  <SCORE.INTRA.VDW>
1.63917

>  <SCORE.INTRA.VDW.0>
-2.87309

>  <SCORE.INTRA.norm>
-0.0824148

>  <SCORE.RESTR>
1.92821

>  <SCORE.RESTR.CAVITY>
1.92821

>  <SCORE.RESTR.norm>
0.0622004

>  <SCORE.SYSTEM>
0

>  <SCORE.SYSTEM.CONST>
0

>  <SCORE.SYSTEM.DIHEDRAL>
0

>  <SCORE.SYSTEM.SOLV>
0

>  <SCORE.SYSTEM.norm>
0

>  <SCORE.heavy>
31

>  <SCORE.norm>
-1.20555

>  <SYMMETRIC_BONDS>
33 34 3

>  <RMSD>
9.791

$$$$
1fmn_cryst
 OpenBabel11021811393D
libRbt.so/2013.1/901 2013/11/27
 31 33  0  0  0  0  0  0  0  0999 V2000
  -11.8290   -3.0154   -2.3691 N   0  0  0  0  0  0  0  0  0  0  0  0
  -11.4249   -2.9993   -3.6837 C   0  0  0  0  0  0  0  0  0  0  0  0
  -12.1154   -2.5001   -4.5728 O   0  0  0  0  0  0  0  0  0  0  0  0
  -10.1675   -3.5973   -3.9498 N   0  0  0  0  0  0  0  0  0  0  0  0
   -9.3037   -4.2003   -3.0094 C   0  0  0  0  0  0  0  0  0  0  0  0
   -8.2275   -4.6857   -3.3801 O   0  0  0  0  0  0  0  0  0  0  0  0
   -9.8058   -4.1776   -1.6337 C   0  0  0  0  0  0  0  0  0  0  0  0
   -9.0240   -4.7442   -0.6580 N   0  0  0  0  0  0  0  0  0  0  0  0
   -9.5698   -4.8835    0.5850 C   0  0  0  0  0  0  0  0  0  0  0  0
   -8.8637   -5.6165    1.5223 C   0  0  0  0  0  0  0  0  0  0  0  0
   -9.3437   -5.7953    2.7749 C   0  0  0  0  0  0  0  0  0  0  0  0
   -8.5396   -6.5934    3.7510 C   0  0  0  0  0  0  0  0  0  0  0  0
  -10.5388   -5.2549    3.1367 C   0  0  0  0  0  0  0  0  0  0  0  0
  -11.0645   -5.4631    4.5196 C   0  0  0  0  0  0  0  0  0  0  0  0
  -11.2661   -4.5275    2.2508 C   0  0  0  0  0  0  0  0  0  0  0  0
  -10.8162   -4.3132    0.9481 C   0  0  0  0  0  0  0  0  0  0  0  0
  -11.5189   -3.5658   -0.0202 N   0  0  0  0  0  0  0  0  0  0  0  0
  -11.0855   -3.5661   -1.3620 C   0  0  0  0  0  0  0  0  0  0  0  0
  -12.3211   -2.3760    0.4478 C   0  0  0  0  0  0  0  0  0  0  0  0
  -11.8183   -1.6687    1.7429 C   0  0  1  0  0  0  0  0  0  0  0  0
  -10.8784   -0.6557    1.4138 O   0  0  0  0  0  0  0  0  0  0  0  0
  -12.9668   -1.1315    2.6298 C   0  0  1  0  0  0  0  0  0  0  0  0
  -13.4107   -2.1436    3.5288 O   0  0  0  0  0  0  0  0  0  0  0  0
  -12.6979    0.1815    3.4053 C   0  0  1  0  0  0  0  0  0  0  0  0
  -12.4975    1.2279    2.4615 O   0  0  0  0  0  0  0  0  0  0  0  0
  -13.8597    0.5751    4.3450 C   0  0  0  0  0  0  0  0  0  0  0  0
  -13.5597    1.7242    5.1283 O   0  0  0  0  0  0  0  0  0  0  0  0
  -14.6502    2.4762    5.9982 P   0  0  0  0  0  0  0  0  0  0  0  0
  -15.7735    1.5723    6.3345 O   0  0  0  0  0  0  0  0  0  0  0  0
  -14.0092    3.2445    7.0872 O   0  5  0  0  0  0  0  0  0  0  0  0
  -15.2571    3.5525    4.9942 O   0  5  0  0  0  0  0  0  0  0  0  0
  1 18  1  0  0  0  0
  1  2  1  0  0  0  0
  2  4  1  0  0  0  0
  2  3  2  0  0  0  0
  4  5  1  0  0  0  0
  5  7  1  0  0  0  0
  5  6  2  0  0  0  0
  7 18  2  0  0  0  0
  7  8  1  0  0  0  0
  8  9  1  0  0  0  0
  9 10  2  0  0  0  0
  9 16  1  0  0  0  0
 10 11  1  0  0  0  0
 11 12  1  0  0  0  0
 11 13  2  0  0  0  0
 13 14  1  0  0  0  0
 13 15  1  0  0  0  0
 15 16  2  0  0  0  0
 16 17  1  0  0  0  0
 17 19  1  0  0  0  0
 17 18  1  0  0  0  0
 20 19  1  6  0  0  0
 20 22  1  0  0  0  0
 20 21  1  0  0  0  0
 22 24  1  0  0  0  0
 22 23  1  1  0  0  0
 24 26  1  1  0  0  0
 24 25  1  0  0  0  0
 26 27  1  0  0  0  0
 27 28  1  0  0  0  0
 28 30  1  0  0  0  0
 28 29  2  0  0  0  0
 28 31  1  0  0  0  0
M  CHG  2  30  -1  31  -1
M  END
>  <CHROM.1>
27.94400711,89.02891058,87.66540937,74.37880667,63.89736598,74.09086660,175.43660494
62.00712777,169.93158263,23.44723489,-11.75714007,-2.01258808,1.68722625
0.62059580,1.02493330,-1.43798161

>  <Name>
1fmn_cryst

>  <RI>
0

>  <Rbt.Current_Directory>
/home/itssahil/PROJECTS/Mol_Feturizer/New_Systems/rnas/1fmn

>  <Rbt.Executable>
rbdock ($Id: //depot/dev/client3/rdock/2013.1/src/exe/rbdock.cxx#4 $)

>  <Rbt.Library>
libRbt.so (2013.1, Build901 2013/11/27)

>  <Rbt.Parameter_File>
/export/apps/rDock/src/rDock_2013.1_src/data/scripts/dock_solv.prm

>  <Rbt.Receptor>
prm/blind_docking_80.prm

>  <SCORE>
-40.0722

>  <SCORE.INTER>
-38.44

>  <SCORE.INTER.CONST>
1

>  <SCORE.INTER.POLAR>
-1.69411

>  <SCORE.INTER.ROT>
7

>  <SCORE.INTER.SOLV>
23.4855

>  <SCORE.INTER.VDW>
-36.0748

>  <SCORE.INTER.norm>
-1.24

>  <SCORE.INTRA>
-3.65858

>  <SCORE.INTRA.DIHEDRAL>
-4.72822

>  <SCORE.INTRA.DIHEDRAL.0>
15.5708

>  <SCORE.INTRA.POLAR>
-0.095409

>  <SCORE.INTRA.POLAR.0>
-0.0677885

>  <SCORE.INTRA.REPUL>
0

>  <SCORE.INTRA.REPUL.0>
0

>  <SCORE.INTRA.SOLV>
-4.64122

>  <SCORE.INTRA.SOLV.lig_0>
-87.6316

>  <SCORE.INTRA.VDW>
1.35053

>  <SCORE.INTRA.VDW.0>
-2.87309

>  <SCORE.INTRA.norm>
-0.118019

>  <SCORE.RESTR>
2.02639

>  <SCORE.RESTR.CAVITY>
2.02639

>  <SCORE.RESTR.norm>
0.0653676

>  <SCORE.SYSTEM>
0

>  <SCORE.SYSTEM.CONST>
0

>  <SCORE.SYSTEM.DIHEDRAL>
0

>  <SCORE.SYSTEM.SOLV>
0

>  <SCORE.SYSTEM.norm>
0

>  <SCORE.heavy>
31

>  <SCORE.norm>
-1.29265

>  <SYMMETRIC_BONDS>
33 34 3

>  <RMSD>
9.793

$$$$
1fmn_cryst
 OpenBabel11021811393D
libRbt.so/2013.1/901 2013/11/27
 31 33  0  0  0  0  0  0  0  0999 V2000
  -12.3246   -2.7660   -1.1741 N   0  0  0  0  0  0  0  0  0  0  0  0
  -12.1639   -2.5646   -2.5251 C   0  0  0  0  0  0  0  0  0  0  0  0
  -13.0044   -1.9702   -3.2010 O   0  0  0  0  0  0  0  0  0  0  0  0
  -10.9737   -3.0883   -3.0896 N   0  0  0  0  0  0  0  0  0  0  0  0
   -9.9532   -3.7877   -2.4087 C   0  0  0  0  0  0  0  0  0  0  0  0
   -8.9603   -4.1907   -3.0276 O   0  0  0  0  0  0  0  0  0  0  0  0
  -10.1994   -3.9614   -0.9753 C   0  0  0  0  0  0  0  0  0  0  0  0
   -9.2533   -4.6316   -0.2405 N   0  0  0  0  0  0  0  0  0  0  0  0
   -9.5659   -4.9493    1.0494 C   0  0  0  0  0  0  0  0  0  0  0  0
   -8.7008   -5.7814    1.7377 C   0  0  0  0  0  0  0  0  0  0  0  0
   -8.9470   -6.1378    3.0198 C   0  0  0  0  0  0  0  0  0  0  0  0
   -7.9784   -7.0369    3.7197 C   0  0  0  0  0  0  0  0  0  0  0  0
  -10.0585   -5.6823    3.6586 C   0  0  0  0  0  0  0  0  0  0  0  0
  -10.3261   -6.0864    5.0718 C   0  0  0  0  0  0  0  0  0  0  0  0
  -10.9352   -4.8633    3.0233 C   0  0  0  0  0  0  0  0  0  0  0  0
  -10.7278   -4.4658    1.7025 C   0  0  0  0  0  0  0  0  0  0  0  0
  -11.5951   -3.6153    0.9853 N   0  0  0  0  0  0  0  0  0  0  0  0
  -11.4105   -3.4257   -0.3996 C   0  0  0  0  0  0  0  0  0  0  0  0
  -12.3026   -2.5200    1.7456 C   0  0  0  0  0  0  0  0  0  0  0  0
  -12.0493   -1.0622    1.2548 C   0  0  1  0  0  0  0  0  0  0  0  0
  -12.7451   -0.8275    0.0388 O   0  0  0  0  0  0  0  0  0  0  0  0
  -12.3717    0.0069    2.3259 C   0  0  1  0  0  0  0  0  0  0  0  0
  -11.3487    0.0365    3.3170 O   0  0  0  0  0  0  0  0  0  0  0  0
  -12.6570    1.4422    1.8198 C   0  0  1  0  0  0  0  0  0  0  0  0
  -12.6819    2.3177    2.9418 O   0  0  0  0  0  0  0  0  0  0  0  0
  -11.5968    1.9494    0.8166 C   0  0  0  0  0  0  0  0  0  0  0  0
  -11.8624    1.5255   -0.5153 O   0  0  0  0  0  0  0  0  0  0  0  0
  -11.7835    2.5060   -1.7578 P   0  0  0  0  0  0  0  0  0  0  0  0
  -12.2222    1.8251   -2.9972 O   0  0  0  0  0  0  0  0  0  0  0  0
  -12.3758    3.8193   -1.4240 O   0  5  0  0  0  0  0  0  0  0  0  0
  -10.2222    2.7576   -1.9414 O   0  5  0  0  0  0  0  0  0  0  0  0
  1 18  1  0  0  0  0
  1  2  1  0  0  0  0
  2  4  1  0  0  0  0
  2  3  2  0  0  0  0
  4  5  1  0  0  0  0
  5  7  1  0  0  0  0
  5  6  2  0  0  0  0
  7 18  2  0  0  0  0
  7  8  1  0  0  0  0
  8  9  1  0  0  0  0
  9 10  2  0  0  0  0
  9 16  1  0  0  0  0
 10 11  1  0  0  0  0
 11 12  1  0  0  0  0
 11 13  2  0  0  0  0
 13 14  1  0  0  0  0
 13 15  1  0  0  0  0
 15 16  2  0  0  0  0
 16 17  1  0  0  0  0
 17 19  1  0  0  0  0
 17 18  1  0  0  0  0
 20 19  1  1  0  0  0
 20 22  1  0  0  0  0
 20 21  1  0  0  0  0
 22 24  1  0  0  0  0
 22 23  1  1  0  0  0
 24 26  1  6  0  0  0
 24 25  1  0  0  0  0
 26 27  1  0  0  0  0
 27 28  1  0  0  0  0
 28 30  1  0  0  0  0
 28 29  2  0  0  0  0
 28 31  1  0  0  0  0
M  CHG  2  30  -1  31  -1
M  END
>  <CHROM.1>
121.68395085,73.80722172,75.24743568,-149.70941928,-169.30254766,-73.57009274
84.28548396,-170.94332245,133.96469495,-175.04733478,-11.14413992,-1.75780528
0.27565663,-0.48809166,1.25273579,-1.46495168

>  <Name>
1fmn_cryst

>  <RI>
0

>  <Rbt.Current_Directory>
/home/itssahil/PROJECTS/Mol_Feturizer/New_Systems/rnas/1fmn

>  <Rbt.Executable>
rbdock ($Id: //depot/dev/client3/rdock/2013.1/src/exe/rbdock.cxx#4 $)

>  <Rbt.Library>
libRbt.so (2013.1, Build901 2013/11/27)

>  <Rbt.Parameter_File>
/export/apps/rDock/src/rDock_2013.1_src/data/scripts/dock_solv.prm

>  <Rbt.Receptor>
prm/blind_docking_20.prm

>  <SCORE>
-38.2239

>  <SCORE.INTER>
-38.4377

>  <SCORE.INTER.CONST>
1

>  <SCORE.INTER.POLAR>
-2.51253

>  <SCORE.INTER.ROT>
7

>  <SCORE.INTER.SOLV>
26.4263

>  <SCORE.INTER.VDW>
-34.3254

>  <SCORE.INTER.norm>
-1.23992

>  <SCORE.INTRA>
-1.00724

>  <SCORE.INTRA.DIHEDRAL>
1.7821

>  <SCORE.INTRA.DIHEDRAL.0>
15.5708

>  <SCORE.INTRA.POLAR>
-0.894713

>  <SCORE.INTRA.POLAR.0>
-0.0677885

>  <SCORE.INTRA.REPUL>
0

>  <SCORE.INTRA.REPUL.0>
0

>  <SCORE.INTRA.SOLV>
-2.12567

>  <SCORE.INTRA.SOLV.lig_0>
-87.6316

>  <SCORE.INTRA.VDW>
2.20657

>  <SCORE.INTRA.VDW.0>
-2.87309

>  <SCORE.INTRA.norm>
-0.0324916

>  <SCORE.RESTR>
1.22099

>  <SCORE.RESTR.CAVITY>
1.22099

>  <SCORE.RESTR.norm>
0.0393867

>  <SCORE.SYSTEM>
0

>  <SCORE.SYSTEM.CONST>
0

>  <SCORE.SYSTEM.DIHEDRAL>
0

>  <SCORE.SYSTEM.SOLV>
0

>  <SCORE.SYSTEM.norm>
0

>  <SCORE.heavy>
31

>  <SCORE.norm>
-1.23303

>  <SYMMETRIC_BONDS>
33 34 3

>  <RMSD>
9.802

$$$$
1fmn_cryst
 OpenBabel11021811393D
libRbt.so/2013.1/901 2013/11/27
 31 33  0  0  0  0  0  0  0  0999 V2000
  -12.2852   -2.7908   -1.2387 N   0  0  0  0  0  0  0  0  0  0  0  0
  -12.1544   -2.6089   -2.5957 C   0  0  0  0  0  0  0  0  0  0  0  0
  -12.9932   -1.9948   -3.2558 O   0  0  0  0  0  0  0  0  0  0  0  0
  -10.9971   -3.1767   -3.1854 N   0  0  0  0  0  0  0  0  0  0  0  0
   -9.9818   -3.9017   -2.5239 C   0  0  0  0  0  0  0  0  0  0  0  0
   -9.0192   -4.3430   -3.1642 O   0  0  0  0  0  0  0  0  0  0  0  0
  -10.1949   -4.0522   -1.0826 C   0  0  0  0  0  0  0  0  0  0  0  0
   -9.2515   -4.7450   -0.3655 N   0  0  0  0  0  0  0  0  0  0  0  0
   -9.5395   -5.0389    0.9357 C   0  0  0  0  0  0  0  0  0  0  0  0
   -8.6834   -5.8912    1.6103 C   0  0  0  0  0  0  0  0  0  0  0  0
   -8.9065   -6.2260    2.9024 C   0  0  0  0  0  0  0  0  0  0  0  0
   -7.9488   -7.1486    3.5866 C   0  0  0  0  0  0  0  0  0  0  0  0
   -9.9853   -5.7281    3.5652 C   0  0  0  0  0  0  0  0  0  0  0  0
  -10.2277   -6.1085    4.9895 C   0  0  0  0  0  0  0  0  0  0  0  0
  -10.8519   -4.8878    2.9441 C   0  0  0  0  0  0  0  0  0  0  0  0
  -10.6673   -4.5112    1.6138 C   0  0  0  0  0  0  0  0  0  0  0  0
  -11.5258   -3.6406    0.9101 N   0  0  0  0  0  0  0  0  0  0  0  0
  -11.3724   -3.4716   -0.4812 C   0  0  0  0  0  0  0  0  0  0  0  0
  -12.1771   -2.5151    1.6765 C   0  0  0  0  0  0  0  0  0  0  0  0
  -12.3098   -1.1542    0.9277 C   0  0  1  0  0  0  0  0  0  0  0  0
  -13.6011   -1.0389    0.3472 O   0  0  0  0  0  0  0  0  0  0  0  0
  -11.9580    0.0657    1.8122 C   0  0  1  0  0  0  0  0  0  0  0  0
  -12.3476    1.2734    1.1647 O   0  0  0  0  0  0  0  0  0  0  0  0
  -12.4882    0.0527    3.2670 C   0  0  1  0  0  0  0  0  0  0  0  0
  -11.3895    0.2613    4.1475 O   0  0  0  0  0  0  0  0  0  0  0  0
  -13.5509    1.1430    3.5308 C   0  0  0  0  0  0  0  0  0  0  0  0
  -13.8152    1.3200    4.9175 O   0  0  0  0  0  0  0  0  0  0  0  0
  -14.9841    2.2451    5.4552 P   0  0  0  0  0  0  0  0  0  0  0  0
  -15.0259    3.5274    4.7163 O   0  0  0  0  0  0  0  0  0  0  0  0
  -16.2358    1.4713    5.6018 O   0  5  0  0  0  0  0  0  0  0  0  0
  -14.5196    2.6204    6.9311 O   0  5  0  0  0  0  0  0  0  0  0  0
  1 18  1  0  0  0  0
  1  2  1  0  0  0  0
  2  4  1  0  0  0  0
  2  3  2  0  0  0  0
  4  5  1  0  0  0  0
  5  7  1  0  0  0  0
  5  6  2  0  0  0  0
  7 18  2  0  0  0  0
  7  8  1  0  0  0  0
  8  9  1  0  0  0  0
  9 10  2  0  0  0  0
  9 16  1  0  0  0  0
 10 11  1  0  0  0  0
 11 12  1  0  0  0  0
 11 13  2  0  0  0  0
 13 14  1  0  0  0  0
 13 15  1  0  0  0  0
 15 16  2  0  0  0  0
 16 17  1  0  0  0  0
 17 19  1  0  0  0  0
 17 18  1  0  0  0  0
 20 19  1  1  0  0  0
 20 22  1  0  0  0  0
 20 21  1  0  0  0  0
 22 24  1  0  0  0  0
 22 23  1  6  0  0  0
 24 26  1  6  0  0  0
 24 25  1  0  0  0  0
 26 27  1  0  0  0  0
 27 28  1  0  0  0  0
 28 30  1  0  0  0  0
 28 29  2  0  0  0  0
 28 31  1  0  0  0  0
M  CHG  2  30  -1  31  -1
M  END
>  <CHROM.1>
141.78973021,96.30577755,-168.57842590,67.00970251,126.37051366,55.48296876
-167.04689864,58.22865106,-172.36430281,-43.88741057,-11.87092494,-1.95110032
1.80731507,0.55374712,0.98171396,-1.56185936

>  <Name>
1fmn_cryst

>  <RI>
0

>  <Rbt.Current_Directory>
/home/itssahil/PROJECTS/Mol_Feturizer/New_Systems/rnas/1fmn

>  <Rbt.Executable>
rbdock ($Id: //depot/dev/client3/rdock/2013.1/src/exe/rbdock.cxx#4 $)

>  <Rbt.Library>
libRbt.so (2013.1, Build901 2013/11/27)

>  <Rbt.Parameter_File>
/export/apps/rDock/src/rDock_2013.1_src/data/scripts/dock_solv.prm

>  <Rbt.Receptor>
prm/blind_docking_20.prm

>  <SCORE>
-32.6928

>  <SCORE.INTER>
-33.0213

>  <SCORE.INTER.CONST>
1

>  <SCORE.INTER.POLAR>
-0.479166

>  <SCORE.INTER.ROT>
7

>  <SCORE.INTER.SOLV>
22.0622

>  <SCORE.INTER.VDW>
-36.0377

>  <SCORE.INTER.norm>
-1.0652

>  <SCORE.INTRA>
-0.806385

>  <SCORE.INTRA.DIHEDRAL>
-1.95308

>  <SCORE.INTRA.DIHEDRAL.0>
15.5708

>  <SCORE.INTRA.POLAR>
-0.640521

>  <SCORE.INTRA.POLAR.0>
-0.0677885

>  <SCORE.INTRA.REPUL>
0

>  <SCORE.INTRA.REPUL.0>
0

>  <SCORE.INTRA.SOLV>
-4.08355

>  <SCORE.INTRA.SOLV.lig_0>
-87.6316

>  <SCORE.INTRA.VDW>
4.3897

>  <SCORE.INTRA.VDW.0>
-2.87309

>  <SCORE.INTRA.norm>
-0.0260124

>  <SCORE.RESTR>
1.13488

>  <SCORE.RESTR.CAVITY>
1.13488

>  <SCORE.RESTR.norm>
0.036609

>  <SCORE.SYSTEM>
0

>  <SCORE.SYSTEM.CONST>
0

>  <SCORE.SYSTEM.DIHEDRAL>
0

>  <SCORE.SYSTEM.SOLV>
0

>  <SCORE.SYSTEM.norm>
0

>  <SCORE.heavy>
31

>  <SCORE.norm>
-1.05461

>  <SYMMETRIC_BONDS>
33 34 3

>  <RMSD>
9.817

$$$$
1fmn_cryst
 OpenBabel11021811393D
libRbt.so/2013.1/901 2013/11/27
 31 33  0  0  0  0  0  0  0  0999 V2000
  -11.9367   -2.6982   -2.2747 N   0  0  0  0  0  0  0  0  0  0  0  0
  -11.5397   -2.6205   -3.5893 C   0  0  0  0  0  0  0  0  0  0  0  0
  -12.2338   -2.0779   -4.4497 O   0  0  0  0  0  0  0  0  0  0  0  0
  -10.2854   -3.2080   -3.8906 N   0  0  0  0  0  0  0  0  0  0  0  0
   -9.4180   -3.8572   -2.9849 C   0  0  0  0  0  0  0  0  0  0  0  0
   -8.3450   -4.3268   -3.3844 O   0  0  0  0  0  0  0  0  0  0  0  0
   -9.9124   -3.8988   -1.6069 C   0  0  0  0  0  0  0  0  0  0  0  0
   -9.1267   -4.5131   -0.6637 N   0  0  0  0  0  0  0  0  0  0  0  0
   -9.6661   -4.7102    0.5744 C   0  0  0  0  0  0  0  0  0  0  0  0
   -8.9567   -5.4886    1.4717 C   0  0  0  0  0  0  0  0  0  0  0  0
   -9.4303   -5.7258    2.7170 C   0  0  0  0  0  0  0  0  0  0  0  0
   -8.6229   -6.5714    3.6494 C   0  0  0  0  0  0  0  0  0  0  0  0
  -10.6219   -5.2005    3.1109 C   0  0  0  0  0  0  0  0  0  0  0  0
  -11.1406   -5.4732    4.4852 C   0  0  0  0  0  0  0  0  0  0  0  0
  -11.3522   -4.4301    2.2647 C   0  0  0  0  0  0  0  0  0  0  0  0
  -10.9089   -4.1550    0.9711 C   0  0  0  0  0  0  0  0  0  0  0  0
  -11.6150   -3.3607    0.0435 N   0  0  0  0  0  0  0  0  0  0  0  0
  -11.1890   -3.2980   -1.2991 C   0  0  0  0  0  0  0  0  0  0  0  0
  -12.4116   -2.1927    0.5722 C   0  0  0  0  0  0  0  0  0  0  0  0
  -11.8236   -1.4608    1.8167 C   0  0  1  0  0  0  0  0  0  0  0  0
  -10.9954   -0.3828    1.4045 O   0  0  0  0  0  0  0  0  0  0  0  0
  -12.9052   -1.0107    2.8274 C   0  0  1  0  0  0  0  0  0  0  0  0
  -13.3511   -2.1214    3.6002 O   0  0  0  0  0  0  0  0  0  0  0  0
  -12.5436    0.1702    3.7615 C   0  0  1  0  0  0  0  0  0  0  0  0
  -11.9298    1.1894    2.9802 O   0  0  0  0  0  0  0  0  0  0  0  0
  -13.7735    0.7678    4.4811 C   0  0  0  0  0  0  0  0  0  0  0  0
  -13.4307    1.8582    5.3283 O   0  0  0  0  0  0  0  0  0  0  0  0
  -14.5183    2.7813    6.0184 P   0  0  0  0  0  0  0  0  0  0  0  0
  -14.8652    3.9292    5.1501 O   0  0  0  0  0  0  0  0  0  0  0  0
  -15.6140    1.9636    6.5823 O   0  5  0  0  0  0  0  0  0  0  0  0
  -13.7471    3.4076    7.2625 O   0  5  0  0  0  0  0  0  0  0  0  0
  1 18  1  0  0  0  0
  1  2  1  0  0  0  0
  2  4  1  0  0  0  0
  2  3  2  0  0  0  0
  4  5  1  0  0  0  0
  5  7  1  0  0  0  0
  5  6  2  0  0  0  0
  7 18  2  0  0  0  0
  7  8  1  0  0  0  0
  8  9  1  0  0  0  0
  9 10  2  0  0  0  0
  9 16  1  0  0  0  0
 10 11  1  0  0  0  0
 11 12  1  0  0  0  0
 11 13  2  0  0  0  0
 13 14  1  0  0  0  0
 13 15  1  0  0  0  0
 15 16  2  0  0  0  0
 16 17  1  0  0  0  0
 17 19  1  0  0  0  0
 17 18  1  0  0  0  0
 20 19  1  6  0  0  0
 20 22  1  0  0  0  0
 20 21  1  0  0  0  0
 22 24  1  0  0  0  0
 22 23  1  1  0  0  0
 24 26  1  6  0  0  0
 24 25  1  0  0  0  0
 26 27  1  0  0  0  0
 27 28  1  0  0  0  0
 28 30  1  0  0  0  0
 28 29  2  0  0  0  0
 28 31  1  0  0  0  0
M  CHG  2  30  -1  31  -1
M  END
>  <CHROM.1>
33.74706611,91.70931529,77.43224221,174.01812852,45.35535127,-54.19690764
-179.54580457,-149.22047535,170.96605556,-89.68288634,-11.74090631,-1.80860695
1.77460022,0.61333766,1.06730699,-1.41188237

>  <Name>
1fmn_cryst

>  <RI>
0

>  <Rbt.Current_Directory>
/home/itssahil/PROJECTS/Mol_Feturizer/New_Systems/rnas/1fmn

>  <Rbt.Executable>
rbdock ($Id: //depot/dev/client3/rdock/2013.1/src/exe/rbdock.cxx#4 $)

>  <Rbt.Library>
libRbt.so (2013.1, Build901 2013/11/27)

>  <Rbt.Parameter_File>
/export/apps/rDock/src/rDock_2013.1_src/data/scripts/dock_solv.prm

>  <Rbt.Receptor>
prm/blind_docking_40.prm

>  <SCORE>
-35.3726

>  <SCORE.INTER>
-33.0166

>  <SCORE.INTER.CONST>
1

>  <SCORE.INTER.POLAR>
-0.892956

>  <SCORE.INTER.ROT>
7

>  <SCORE.INTER.SOLV>
24.7026

>  <SCORE.INTER.VDW>
-35.5354

>  <SCORE.INTER.norm>
-1.06505

>  <SCORE.INTRA>
-2.54033

>  <SCORE.INTRA.DIHEDRAL>
-3.3336

>  <SCORE.INTRA.DIHEDRAL.0>
15.5708

>  <SCORE.INTRA.POLAR>
-0.111654

>  <SCORE.INTRA.POLAR.0>
-0.0677885

>  <SCORE.INTRA.REPUL>
0

>  <SCORE.INTRA.REPUL.0>
0

>  <SCORE.INTRA.SOLV>
-4.62612

>  <SCORE.INTRA.SOLV.lig_0>
-87.6316

>  <SCORE.INTRA.VDW>
1.81915

>  <SCORE.INTRA.VDW.0>
-2.87309

>  <SCORE.INTRA.norm>
-0.0819462

>  <SCORE.RESTR>
0.184315

>  <SCORE.RESTR.CAVITY>
0.184315

>  <SCORE.RESTR.norm>
0.00594563

>  <SCORE.SYSTEM>
0

>  <SCORE.SYSTEM.CONST>
0

>  <SCORE.SYSTEM.DIHEDRAL>
0

>  <SCORE.SYSTEM.SOLV>
0

>  <SCORE.SYSTEM.norm>
0

>  <SCORE.heavy>
31

>  <SCORE.norm>
-1.14105

>  <SYMMETRIC_BONDS>
33 34 3

>  <RMSD>
9.819

$$$$
1fmn_cryst
 OpenBabel11021811393D
libRbt.so/2013.1/901 2013/11/27
 31 33  0  0  0  0  0  0  0  0999 V2000
  -11.8662   -2.8168   -2.6669 N   0  0  0  0  0  0  0  0  0  0  0  0
  -11.3661   -2.7839   -3.9476 C   0  0  0  0  0  0  0  0  0  0  0  0
  -12.0104   -2.3183   -4.8881 O   0  0  0  0  0  0  0  0  0  0  0  0
  -10.0662   -3.3237   -4.1164 N   0  0  0  0  0  0  0  0  0  0  0  0
   -9.2484   -3.8850   -3.1113 C   0  0  0  0  0  0  0  0  0  0  0  0
   -8.1263   -4.3207   -3.3984 O   0  0  0  0  0  0  0  0  0  0  0  0
   -9.8524   -3.8835   -1.7770 C   0  0  0  0  0  0  0  0  0  0  0  0
   -9.1206   -4.4122   -0.7430 N   0  0  0  0  0  0  0  0  0  0  0  0
   -9.7508   -4.5748    0.4565 C   0  0  0  0  0  0  0  0  0  0  0  0
   -9.0838   -5.2732    1.4474 C   0  0  0  0  0  0  0  0  0  0  0  0
   -9.6474   -5.4723    2.6615 C   0  0  0  0  0  0  0  0  0  0  0  0
   -8.8828   -6.2312    3.6987 C   0  0  0  0  0  0  0  0  0  0  0  0
  -10.8897   -4.9871    2.9306 C   0  0  0  0  0  0  0  0  0  0  0  0
  -11.5072   -5.2175    4.2714 C   0  0  0  0  0  0  0  0  0  0  0  0
  -11.5814   -4.2952    1.9894 C   0  0  0  0  0  0  0  0  0  0  0  0
  -11.0456   -4.0621    0.7228 C   0  0  0  0  0  0  0  0  0  0  0  0
  -11.7075   -3.3493   -0.2988 N   0  0  0  0  0  0  0  0  0  0  0  0
  -11.1756   -3.3313   -1.6044 C   0  0  0  0  0  0  0  0  0  0  0  0
  -12.5962   -2.1970    0.1024 C   0  0  0  0  0  0  0  0  0  0  0  0
  -12.1212   -1.3485    1.3208 C   0  0  1  0  0  0  0  0  0  0  0  0
  -11.7139   -0.0578    0.8892 O   0  0  0  0  0  0  0  0  0  0  0  0
  -13.1657   -1.2787    2.4602 C   0  0  1  0  0  0  0  0  0  0  0  0
  -13.1040   -2.4568    3.2589 O   0  0  0  0  0  0  0  0  0  0  0  0
  -13.1306   -0.0243    3.3674 C   0  0  1  0  0  0  0  0  0  0  0  0
  -11.7811    0.2147    3.7516 O   0  0  0  0  0  0  0  0  0  0  0  0
  -13.6803    1.2398    2.6692 C   0  0  0  0  0  0  0  0  0  0  0  0
  -13.6325    2.3881    3.5079 O   0  0  0  0  0  0  0  0  0  0  0  0
  -14.4570    2.4982    4.8568 P   0  0  0  0  0  0  0  0  0  0  0  0
  -14.3254    1.2610    5.6594 O   0  0  0  0  0  0  0  0  0  0  0  0
  -14.2082    3.7989    5.5150 O   0  5  0  0  0  0  0  0  0  0  0  0
  -15.9728    2.5300    4.3709 O   0  5  0  0  0  0  0  0  0  0  0  0
  1 18  1  0  0  0  0
  1  2  1  0  0  0  0
  2  4  1  0  0  0  0
  2  3  2  0  0  0  0
  4  5  1  0  0  0  0
  5  7  1  0  0  0  0
  5  6  2  0  0  0  0
  7 18  2  0  0  0  0
  7  8  1  0  0  0  0
  8  9  1  0  0  0  0
  9 10  2  0  0  0  0
  9 16  1  0  0  0  0
 10 11  1  0  0  0  0
 11 12  1  0  0  0  0
 11 13  2  0  0  0  0
 13 14  1  0  0  0  0
 13 15  1  0  0  0  0
 15 16  2  0  0  0  0
 16 17  1  0  0  0  0
 17 19  1  0  0  0  0
 17 18  1  0  0  0  0
 20 19  1  6  0  0  0
 20 22  1  0  0  0  0
 20 21  1  0  0  0  0
 22 24  1  0  0  0  0
 22 23  1  1  0  0  0
 24 26  1  6  0  0  0
 24 25  1  0  0  0  0
 26 27  1  0  0  0  0
 27 28  1  0  0  0  0
 28 30  1  0  0  0  0
 28 29  2  0  0  0  0
 28 31  1  0  0  0  0
M  CHG  2  30  -1  31  -1
M  END
>  <CHROM.1>
35.72382380,110.24581968,80.97013376,-39.68956580,-47.04471723,85.77702525
-179.49543057,-71.06815224,-63.33089403,46.11548116,-11.81522393,-1.87348993
1.29693773,0.55556193,1.03753315,-1.38689395

>  <Name>
1fmn_cryst

>  <RI>
0

>  <Rbt.Current_Directory>
/home/itssahil/PROJECTS/Mol_Feturizer/New_Systems/rnas/1fmn

>  <Rbt.Executable>
rbdock ($Id: //depot/dev/client3/rdock/2013.1/src/exe/rbdock.cxx#4 $)

>  <Rbt.Library>
libRbt.so (2013.1, Build901 2013/11/27)

>  <Rbt.Parameter_File>
/export/apps/rDock/src/rDock_2013.1_src/data/scripts/dock_solv.prm

>  <Rbt.Receptor>
prm/blind_docking_40.prm

>  <SCORE>
-44.6924

>  <SCORE.INTER>
-45.4243

>  <SCORE.INTER.CONST>
1

>  <SCORE.INTER.POLAR>
-2.81148

>  <SCORE.INTER.ROT>
7

>  <SCORE.INTER.SOLV>
21.3962

>  <SCORE.INTER.VDW>
-36.31

>  <SCORE.INTER.norm>
-1.4653

>  <SCORE.INTRA>
0.438081

>  <SCORE.INTRA.DIHEDRAL>
-1.36793

>  <SCORE.INTRA.DIHEDRAL.0>
15.5708

>  <SCORE.INTRA.POLAR>
0.0677885

>  <SCORE.INTRA.POLAR.0>
-0.0677885

>  <SCORE.INTRA.REPUL>
0

>  <SCORE.INTRA.REPUL.0>
0

>  <SCORE.INTRA.SOLV>
-0.542181

>  <SCORE.INTRA.SOLV.lig_0>
-87.6316

>  <SCORE.INTRA.VDW>
1.16265

>  <SCORE.INTRA.VDW.0>
-2.87309

>  <SCORE.INTRA.norm>
0.0141316

>  <SCORE.RESTR>
0.293815

>  <SCORE.RESTR.CAVITY>
0.293815

>  <SCORE.RESTR.norm>
0.0094779

>  <SCORE.SYSTEM>
0

>  <SCORE.SYSTEM.CONST>
0

>  <SCORE.SYSTEM.DIHEDRAL>
0

>  <SCORE.SYSTEM.SOLV>
0

>  <SCORE.SYSTEM.norm>
0

>  <SCORE.heavy>
31

>  <SCORE.norm>
-1.44169

>  <SYMMETRIC_BONDS>
33 34 3

>  <RMSD>
9.821

$$$$
1fmn_cryst
 OpenBabel11021811393D
libRbt.so/2013.1/901 2013/11/27
 31 33  0  0  0  0  0  0  0  0999 V2000
  -11.7410   -2.9716   -2.4597 N   0  0  0  0  0  0  0  0  0  0  0  0
  -11.3166   -2.9318   -3.7674 C   0  0  0  0  0  0  0  0  0  0  0  0
  -11.9951   -2.4198   -4.6585 O   0  0  0  0  0  0  0  0  0  0  0  0
  -10.0532   -3.5211   -4.0241 N   0  0  0  0  0  0  0  0  0  0  0  0
   -9.2019   -4.1373   -3.0807 C   0  0  0  0  0  0  0  0  0  0  0  0
   -8.1184   -4.6128   -3.4430 O   0  0  0  0  0  0  0  0  0  0  0  0
   -9.7253   -4.1396   -1.7128 C   0  0  0  0  0  0  0  0  0  0  0  0
   -8.9567   -4.7203   -0.7349 N   0  0  0  0  0  0  0  0  0  0  0  0
   -9.5212   -4.8825    0.4970 C   0  0  0  0  0  0  0  0  0  0  0  0
   -8.8271   -5.6290    1.4325 C   0  0  0  0  0  0  0  0  0  0  0  0
   -9.3259   -5.8307    2.6743 C   0  0  0  0  0  0  0  0  0  0  0  0
   -8.5341   -6.6428    3.6490 C   0  0  0  0  0  0  0  0  0  0  0  0
  -10.5282   -5.3005    3.0266 C   0  0  0  0  0  0  0  0  0  0  0  0
  -11.0745   -5.5339    4.3975 C   0  0  0  0  0  0  0  0  0  0  0  0
  -11.2443   -4.5605    2.1420 C   0  0  0  0  0  0  0  0  0  0  0  0
  -10.7750   -4.3225    0.8503 C   0  0  0  0  0  0  0  0  0  0  0  0
  -11.4653   -3.5610   -0.1160 N   0  0  0  0  0  0  0  0  0  0  0  0
  -11.0112   -3.5370   -1.4506 C   0  0  0  0  0  0  0  0  0  0  0  0
  -12.2788   -2.3819    0.3597 C   0  0  0  0  0  0  0  0  0  0  0  0
  -11.8899   -1.7877    1.7474 C   0  0  1  0  0  0  0  0  0  0  0  0
  -10.9664   -0.7212    1.5817 O   0  0  0  0  0  0  0  0  0  0  0  0
  -13.1138   -1.3714    2.5976 C   0  0  1  0  0  0  0  0  0  0  0  0
  -13.4526   -2.4071    3.5152 O   0  0  0  0  0  0  0  0  0  0  0  0
  -13.0219   -0.0167    3.3421 C   0  0  1  0  0  0  0  0  0  0  0  0
  -11.6945    0.1375    3.8322 O   0  0  0  0  0  0  0  0  0  0  0  0
  -13.3626    1.1909    2.4404 C   0  0  0  0  0  0  0  0  0  0  0  0
  -13.5507    2.3888    3.1845 O   0  0  0  0  0  0  0  0  0  0  0  0
  -14.7859    2.6109    4.1521 P   0  0  0  0  0  0  0  0  0  0  0  0
  -14.8461    1.5511    5.1842 O   0  0  0  0  0  0  0  0  0  0  0  0
  -14.8635    4.0236    4.5825 O   0  5  0  0  0  0  0  0  0  0  0  0
  -16.0488    2.3630    3.2148 O   0  5  0  0  0  0  0  0  0  0  0  0
  1 18  1  0  0  0  0
  1  2  1  0  0  0  0
  2  4  1  0  0  0  0
  2  3  2  0  0  0  0
  4  5  1  0  0  0  0
  5  7  1  0  0  0  0
  5  6  2  0  0  0  0
  7 18  2  0  0  0  0
  7  8  1  0  0  0  0
  8  9  1  0  0  0  0
  9 10  2  0  0  0  0
  9 16  1  0  0  0  0
 10 11  1  0  0  0  0
 11 12  1  0  0  0  0
 11 13  2  0  0  0  0
 13 14  1  0  0  0  0
 13 15  1  0  0  0  0
 15 16  2  0  0  0  0
 16 17  1  0  0  0  0
 17 19  1  0  0  0  0
 17 18  1  0  0  0  0
 20 19  1  6  0  0  0
 20 22  1  0  0  0  0
 20 21  1  0  0  0  0
 22 24  1  0  0  0  0
 22 23  1  1  0  0  0
 24 26  1  6  0  0  0
 24 25  1  0  0  0  0
 26 27  1  0  0  0  0
 27 28  1  0  0  0  0
 28 30  1  0  0  0  0
 28 29  2  0  0  0  0
 28 31  1  0  0  0  0
M  CHG  2  30  -1  31  -1
M  END
>  <CHROM.1>
21.82380003,93.16694264,96.68634125,173.42911973,-38.49083360,71.09219054
167.63335174,-177.45007431,-68.78581368,57.20871429,-11.72889819,-2.03647817
1.25314654,0.44425293,1.00594620,-1.40372324

>  <Name>
1fmn_cryst

>  <RI>
0

>  <Rbt.Current_Directory>
/home/itssahil/PROJECTS/Mol_Feturizer/New_Systems/rnas/1fmn

>  <Rbt.Executable>
rbdock ($Id: //depot/dev/client3/rdock/2013.1/src/exe/rbdock.cxx#4 $)

>  <Rbt.Library>
libRbt.so (2013.1, Build901 2013/11/27)

>  <Rbt.Parameter_File>
/export/apps/rDock/src/rDock_2013.1_src/data/scripts/dock_solv.prm

>  <Rbt.Receptor>
prm/blind_docking_40.prm

>  <SCORE>
-43.4607

>  <SCORE.INTER>
-40.9375

>  <SCORE.INTER.CONST>
1

>  <SCORE.INTER.POLAR>
-1.68865

>  <SCORE.INTER.ROT>
7

>  <SCORE.INTER.SOLV>
21.4914

>  <SCORE.INTER.VDW>
-37.0933

>  <SCORE.INTER.norm>
-1.32057

>  <SCORE.INTRA>
-2.71381

>  <SCORE.INTRA.DIHEDRAL>
-3.32231

>  <SCORE.INTRA.DIHEDRAL.0>
15.5708

>  <SCORE.INTRA.POLAR>
-0.704819

>  <SCORE.INTRA.POLAR.0>
-0.0677885

>  <SCORE.INTRA.REPUL>
0

>  <SCORE.INTRA.REPUL.0>
0

>  <SCORE.INTRA.SOLV>
-1.17866

>  <SCORE.INTRA.SOLV.lig_0>
-87.6316

>  <SCORE.INTRA.VDW>
1.93306

>  <SCORE.INTRA.VDW.0>
-2.87309

>  <SCORE.INTRA.norm>
-0.0875421

>  <SCORE.RESTR>
0.190697

>  <SCORE.RESTR.CAVITY>
0.190697

>  <SCORE.RESTR.norm>
0.00615152

>  <SCORE.SYSTEM>
0

>  <SCORE.SYSTEM.CONST>
0

>  <SCORE.SYSTEM.DIHEDRAL>
0

>  <SCORE.SYSTEM.SOLV>
0

>  <SCORE.SYSTEM.norm>
0

>  <SCORE.heavy>
31

>  <SCORE.norm>
-1.40196

>  <SYMMETRIC_BONDS>
33 34 3

>  <RMSD>
9.822

$$$$
1fmn_cryst
 OpenBabel11021811393D
libRbt.so/2013.1/901 2013/11/27
 31 33  0  0  0  0  0  0  0  0999 V2000
  -10.4909   -3.7829   -2.8320 N   0  0  0  0  0  0  0  0  0  0  0  0
   -9.6048   -4.0109   -3.8588 C   0  0  0  0  0  0  0  0  0  0  0  0
   -9.8791   -3.7434   -5.0292 O   0  0  0  0  0  0  0  0  0  0  0  0
   -8.3601   -4.5770   -3.4851 N   0  0  0  0  0  0  0  0  0  0  0  0
   -7.9493   -4.9256   -2.1798 C   0  0  0  0  0  0  0  0  0  0  0  0
   -6.8272   -5.4133   -1.9939 O   0  0  0  0  0  0  0  0  0  0  0  0
   -8.9484   -4.6528   -1.1442 C   0  0  0  0  0  0  0  0  0  0  0  0
   -8.6258   -4.9634    0.1534 N   0  0  0  0  0  0  0  0  0  0  0  0
   -9.6177   -4.8784    1.0869 C   0  0  0  0  0  0  0  0  0  0  0  0
   -9.3542   -5.3638    2.3556 C   0  0  0  0  0  0  0  0  0  0  0  0
  -10.2904   -5.3118    3.3314 C   0  0  0  0  0  0  0  0  0  0  0  0
   -9.9537   -5.8472    4.6865 C   0  0  0  0  0  0  0  0  0  0  0  0
  -11.5167   -4.7790    3.0799 C   0  0  0  0  0  0  0  0  0  0  0  0
  -12.5466   -4.7318    4.1611 C   0  0  0  0  0  0  0  0  0  0  0  0
  -11.8199   -4.2899    1.8503 C   0  0  0  0  0  0  0  0  0  0  0  0
  -10.8909   -4.3191    0.8103 C   0  0  0  0  0  0  0  0  0  0  0  0
  -11.1387   -3.8259   -0.4879 N   0  0  0  0  0  0  0  0  0  0  0  0
  -10.2155   -4.0737   -1.5243 C   0  0  0  0  0  0  0  0  0  0  0  0
  -12.0276   -2.6140   -0.6278 C   0  0  0  0  0  0  0  0  0  0  0  0
  -12.4031   -1.8751    0.6925 C   0  0  1  0  0  0  0  0  0  0  0  0
  -11.2325   -1.3759    1.3237 O   0  0  0  0  0  0  0  0  0  0  0  0
  -13.4716   -0.7740    0.4929 C   0  0  1  0  0  0  0  0  0  0  0  0
  -14.7088   -1.3543    0.0902 O   0  0  0  0  0  0  0  0  0  0  0  0
  -13.7054    0.1983    1.6751 C   0  0  1  0  0  0  0  0  0  0  0  0
  -13.4605   -0.5033    2.8891 O   0  0  0  0  0  0  0  0  0  0  0  0
  -12.7875    1.4403    1.6245 C   0  0  0  0  0  0  0  0  0  0  0  0
  -12.9028    2.1516    0.3978 O   0  0  0  0  0  0  0  0  0  0  0  0
  -12.0846    3.4744    0.0947 P   0  0  0  0  0  0  0  0  0  0  0  0
  -12.9371    4.4810   -0.5777 O   0  0  0  0  0  0  0  0  0  0  0  0
  -11.3030    3.8871    1.2804 O   0  5  0  0  0  0  0  0  0  0  0  0
  -11.0221    3.0185   -0.9999 O   0  5  0  0  0  0  0  0  0  0  0  0
  1 18  1  0  0  0  0
  1  2  1  0  0  0  0
  2  4  1  0  0  0  0
  2  3  2  0  0  0  0
  4  5  1  0  0  0  0
  5  7  1  0  0  0  0
  5  6  2  0  0  0  0
  7 18  2  0  0  0  0
  7  8  1  0  0  0  0
  8  9  1  0  0  0  0
  9 10  2  0  0  0  0
  9 16  1  0  0  0  0
 10 11  1  0  0  0  0
 11 12  1  0  0  0  0
 11 13  2  0  0  0  0
 13 14  1  0  0  0  0
 13 15  1  0  0  0  0
 15 16  2  0  0  0  0
 16 17  1  0  0  0  0
 17 19  1  0  0  0  0
 17 18  1  0  0  0  0
 20 19  1  6  0  0  0
 20 22  1  0  0  0  0
 20 21  1  0  0  0  0
 22 24  1  0  0  0  0
 22 23  1  1  0  0  0
 24 26  1  6  0  0  0
 24 25  1  0  0  0  0
 26 27  1  0  0  0  0
 27 28  1  0  0  0  0
 28 30  1  0  0  0  0
 28 29  2  0  0  0  0
 28 31  1  0  0  0  0
M  CHG  2  30  -1  31  -1
M  END
>  <CHROM.1>
9.74931206,61.82419538,65.32631723,99.53049768,-31.35643745,85.87210579,55.57504961
-74.92216164,179.17732202,-138.12386179,-11.12720781,-1.98932511,0.21963975
-0.66963305,1.04657067,-0.71031105

>  <Name>
1fmn_cryst

>  <RI>
0

>  <Rbt.Current_Directory>
/home/itssahil/PROJECTS/Mol_Feturizer/New_Systems/rnas/1fmn

>  <Rbt.Executable>
rbdock ($Id: //depot/dev/client3/rdock/2013.1/src/exe/rbdock.cxx#4 $)

>  <Rbt.Library>
libRbt.so (2013.1, Build901 2013/11/27)

>  <Rbt.Parameter_File>
/export/apps/rDock/src/rDock_2013.1_src/data/scripts/dock_solv.prm

>  <Rbt.Receptor>
prm/blind_docking_60.prm

>  <SCORE>
-38.9376

>  <SCORE.INTER>
-40.9236

>  <SCORE.INTER.CONST>
1

>  <SCORE.INTER.POLAR>
-2.90601

>  <SCORE.INTER.ROT>
7

>  <SCORE.INTER.SOLV>
29.9815

>  <SCORE.INTER.VDW>
-35.8562

>  <SCORE.INTER.norm>
-1.32012

>  <SCORE.INTRA>
1.13039

>  <SCORE.INTRA.DIHEDRAL>
0.521571

>  <SCORE.INTRA.DIHEDRAL.0>
15.5708

>  <SCORE.INTRA.POLAR>
0.0677885

>  <SCORE.INTRA.POLAR.0>
-0.0677885

>  <SCORE.INTRA.REPUL>
0

>  <SCORE.INTRA.REPUL.0>
0

>  <SCORE.INTRA.SOLV>
-4.30533

>  <SCORE.INTRA.SOLV.lig_0>
-87.6316

>  <SCORE.INTRA.VDW>
2.79179

>  <SCORE.INTRA.VDW.0>
-2.87309

>  <SCORE.INTRA.norm>
0.0364643

>  <SCORE.RESTR>
0.855607

>  <SCORE.RESTR.CAVITY>
0.855607

>  <SCORE.RESTR.norm>
0.0276002

>  <SCORE.SYSTEM>
0

>  <SCORE.SYSTEM.CONST>
0

>  <SCORE.SYSTEM.DIHEDRAL>
0

>  <SCORE.SYSTEM.SOLV>
0

>  <SCORE.SYSTEM.norm>
0

>  <SCORE.heavy>
31

>  <SCORE.norm>
-1.25605

>  <SYMMETRIC_BONDS>
33 34 3

>  <RMSD>
9.823

$$$$
1fmn_cryst
 OpenBabel11021811393D
libRbt.so/2013.1/901 2013/11/27
 31 33  0  0  0  0  0  0  0  0999 V2000
  -10.8231   -3.9056   -3.0017 N   0  0  0  0  0  0  0  0  0  0  0  0
  -10.0607   -4.1262   -4.1249 C   0  0  0  0  0  0  0  0  0  0  0  0
  -10.4636   -3.8418   -5.2534 O   0  0  0  0  0  0  0  0  0  0  0  0
   -8.7863   -4.7054   -3.9016 N   0  0  0  0  0  0  0  0  0  0  0  0
   -8.2332   -5.0735   -2.6555 C   0  0  0  0  0  0  0  0  0  0  0  0
   -7.1013   -5.5710   -2.6037 O   0  0  0  0  0  0  0  0  0  0  0  0
   -9.1065   -4.8075   -1.5101 C   0  0  0  0  0  0  0  0  0  0  0  0
   -8.6416   -5.1370   -0.2613 N   0  0  0  0  0  0  0  0  0  0  0  0
   -9.5207   -5.0575    0.7796 C   0  0  0  0  0  0  0  0  0  0  0  0
   -9.1192   -5.5610    2.0042 C   0  0  0  0  0  0  0  0  0  0  0  0
   -9.9384   -5.5153    3.0804 C   0  0  0  0  0  0  0  0  0  0  0  0
   -9.4548   -6.0705    4.3821 C   0  0  0  0  0  0  0  0  0  0  0  0
  -11.1810   -4.9712    2.9759 C   0  0  0  0  0  0  0  0  0  0  0  0
  -12.0815   -4.9312    4.1674 C   0  0  0  0  0  0  0  0  0  0  0  0
  -11.6175   -4.4643    1.7946 C   0  0  0  0  0  0  0  0  0  0  0  0
  -10.8124   -4.4862    0.6558 C   0  0  0  0  0  0  0  0  0  0  0  0
  -11.2016   -3.9746   -0.5999 N   0  0  0  0  0  0  0  0  0  0  0  0
  -10.4037   -4.2151   -1.7372 C   0  0  0  0  0  0  0  0  0  0  0  0
  -12.0909   -2.7551   -0.6236 C   0  0  0  0  0  0  0  0  0  0  0  0
  -12.3622   -2.0699    0.7501 C   0  0  1  0  0  0  0  0  0  0  0  0
  -11.1378   -1.8401    1.4326 O   0  0  0  0  0  0  0  0  0  0  0  0
  -13.2137   -0.7833    0.6325 C   0  0  1  0  0  0  0  0  0  0  0  0
  -14.5954   -1.1140    0.5273 O   0  0  0  0  0  0  0  0  0  0  0  0
  -13.0112    0.2936    1.7267 C   0  0  1  0  0  0  0  0  0  0  0  0
  -12.8888   -0.3613    2.9845 O   0  0  0  0  0  0  0  0  0  0  0  0
  -11.7539    1.1610    1.4930 C   0  0  0  0  0  0  0  0  0  0  0  0
  -11.9108    2.0633    0.4043 O   0  0  0  0  0  0  0  0  0  0  0  0
  -12.7381    3.4099    0.5204 P   0  0  0  0  0  0  0  0  0  0  0  0
  -14.1541    3.1334    0.8531 O   0  0  0  0  0  0  0  0  0  0  0  0
  -12.0023    4.4056    1.3292 O   0  5  0  0  0  0  0  0  0  0  0  0
  -12.7539    3.9726   -0.9688 O   0  5  0  0  0  0  0  0  0  0  0  0
  1 18  1  0  0  0  0
  1  2  1  0  0  0  0
  2  4  1  0  0  0  0
  2  3  2  0  0  0  0
  4  5  1  0  0  0  0
  5  7  1  0  0  0  0
  5  6  2  0  0  0  0
  7 18  2  0  0  0  0
  7  8  1  0  0  0  0
  8  9  1  0  0  0  0
  9 10  2  0  0  0  0
  9 16  1  0  0  0  0
 10 11  1  0  0  0  0
 11 12  1  0  0  0  0
 11 13  2  0  0  0  0
 13 14  1  0  0  0  0
 13 15  1  0  0  0  0
 15 16  2  0  0  0  0
 16 17  1  0  0  0  0
 17 19  1  0  0  0  0
 17 18  1  0  0  0  0
 20 19  1  6  0  0  0
 20 22  1  0  0  0  0
 20 21  1  0  0  0  0
 22 24  1  0  0  0  0
 22 23  1  1  0  0  0
 24 26  1  6  0  0  0
 24 25  1  0  0  0  0
 26 27  1  0  0  0  0
 27 28  1  0  0  0  0
 28 30  1  0  0  0  0
 28 29  2  0  0  0  0
 28 31  1  0  0  0  0
M  CHG  2  30  -1  31  -1
M  END
>  <CHROM.1>
6.99291230,50.28509153,81.00007604,-166.24662576,-40.86345588,-175.81683267
71.99515492,-173.20891476,77.72894438,-61.26320373,-11.19577784,-2.09420378
0.18694429,-0.31926751,1.12687877,-1.00967749

>  <Name>
1fmn_cryst

>  <RI>
0

>  <Rbt.Current_Directory>
/home/itssahil/PROJECTS/Mol_Feturizer/New_Systems/rnas/1fmn

>  <Rbt.Executable>
rbdock ($Id: //depot/dev/client3/rdock/2013.1/src/exe/rbdock.cxx#4 $)

>  <Rbt.Library>
libRbt.so (2013.1, Build901 2013/11/27)

>  <Rbt.Parameter_File>
/export/apps/rDock/src/rDock_2013.1_src/data/scripts/dock_solv.prm

>  <Rbt.Receptor>
prm/blind_docking_40.prm

>  <SCORE>
-41.6972

>  <SCORE.INTER>
-38.7474

>  <SCORE.INTER.CONST>
1

>  <SCORE.INTER.POLAR>
-1.136

>  <SCORE.INTER.ROT>
7

>  <SCORE.INTER.SOLV>
22.7316

>  <SCORE.INTER.VDW>
-37.8888

>  <SCORE.INTER.norm>
-1.24992

>  <SCORE.INTRA>
-3.10319

>  <SCORE.INTRA.DIHEDRAL>
-6.84815

>  <SCORE.INTRA.DIHEDRAL.0>
15.5708

>  <SCORE.INTRA.POLAR>
-0.404824

>  <SCORE.INTRA.POLAR.0>
-0.0677885

>  <SCORE.INTRA.REPUL>
0

>  <SCORE.INTRA.REPUL.0>
0

>  <SCORE.INTRA.SOLV>
-2.05098

>  <SCORE.INTRA.SOLV.lig_0>
-87.6316

>  <SCORE.INTRA.VDW>
2.72278

>  <SCORE.INTRA.VDW.0>
-2.87309

>  <SCORE.INTRA.norm>
-0.100103

>  <SCORE.RESTR>
0.15337

>  <SCORE.RESTR.CAVITY>
0.15337

>  <SCORE.RESTR.norm>
0.00494743

>  <SCORE.SYSTEM>
0

>  <SCORE.SYSTEM.CONST>
0

>  <SCORE.SYSTEM.DIHEDRAL>
0

>  <SCORE.SYSTEM.SOLV>
0

>  <SCORE.SYSTEM.norm>
0

>  <SCORE.heavy>
31

>  <SCORE.norm>
-1.34507

>  <SYMMETRIC_BONDS>
33 34 3

>  <RMSD>
9.830

$$$$
1fmn_cryst
 OpenBabel11021811393D
libRbt.so/2013.1/901 2013/11/27
 31 33  0  0  0  0  0  0  0  0999 V2000
  -10.8862   -3.7892   -3.0484 N   0  0  0  0  0  0  0  0  0  0  0  0
  -10.1917   -3.8990   -4.2304 C   0  0  0  0  0  0  0  0  0  0  0  0
  -10.6849   -3.5712   -5.3101 O   0  0  0  0  0  0  0  0  0  0  0  0
   -8.8763   -4.4172   -4.1272 N   0  0  0  0  0  0  0  0  0  0  0  0
   -8.2209   -4.8269   -2.9453 C   0  0  0  0  0  0  0  0  0  0  0  0
   -7.0635   -5.2616   -2.9986 O   0  0  0  0  0  0  0  0  0  0  0  0
   -9.0268   -4.6795   -1.7313 C   0  0  0  0  0  0  0  0  0  0  0  0
   -8.4611   -5.0558   -0.5385 N   0  0  0  0  0  0  0  0  0  0  0  0
   -9.2701   -5.0884    0.5601 C   0  0  0  0  0  0  0  0  0  0  0  0
   -8.7601   -5.6403    1.7219 C   0  0  0  0  0  0  0  0  0  0  0  0
   -9.5053   -5.7053    2.8497 C   0  0  0  0  0  0  0  0  0  0  0  0
   -8.9055   -6.3087    4.0796 C   0  0  0  0  0  0  0  0  0  0  0  0
  -10.7790   -5.2272    2.8605 C   0  0  0  0  0  0  0  0  0  0  0  0
  -11.5970   -5.3094    4.1080 C   0  0  0  0  0  0  0  0  0  0  0  0
  -11.3211   -4.6765    1.7444 C   0  0  0  0  0  0  0  0  0  0  0  0
  -10.5956   -4.5849    0.5567 C   0  0  0  0  0  0  0  0  0  0  0  0
  -11.0959   -4.0224   -0.6363 N   0  0  0  0  0  0  0  0  0  0  0  0
  -10.3658   -4.1492   -1.8359 C   0  0  0  0  0  0  0  0  0  0  0  0
  -12.0476   -2.8560   -0.5252 C   0  0  0  0  0  0  0  0  0  0  0  0
  -12.2432   -2.2560    0.9002 C   0  0  1  0  0  0  0  0  0  0  0  0
  -10.9915   -2.1539    1.5642 O   0  0  0  0  0  0  0  0  0  0  0  0
  -13.0117   -0.9130    0.8967 C   0  0  1  0  0  0  0  0  0  0  0  0
  -14.4167   -1.1485    0.8998 O   0  0  0  0  0  0  0  0  0  0  0  0
  -12.6456    0.1068    2.0030 C   0  0  1  0  0  0  0  0  0  0  0  0
  -11.6064    0.9472    1.5134 O   0  0  0  0  0  0  0  0  0  0  0  0
  -13.8405    0.9896    2.4280 C   0  0  0  0  0  0  0  0  0  0  0  0
  -13.6895    1.5123    3.7426 O   0  0  0  0  0  0  0  0  0  0  0  0
  -14.8466    2.2945    4.4913 P   0  0  0  0  0  0  0  0  0  0  0  0
  -14.9849    3.6695    3.9600 O   0  0  0  0  0  0  0  0  0  0  0  0
  -16.0576    1.4531    4.6020 O   0  5  0  0  0  0  0  0  0  0  0  0
  -14.2888    2.4658    5.9727 O   0  5  0  0  0  0  0  0  0  0  0  0
  1 18  1  0  0  0  0
  1  2  1  0  0  0  0
  2  4  1  0  0  0  0
  2  3  2  0  0  0  0
  4  5  1  0  0  0  0
  5  7  1  0  0  0  0
  5  6  2  0  0  0  0
  7 18  2  0  0  0  0
  7  8  1  0  0  0  0
  8  9  1  0  0  0  0
  9 10  2  0  0  0  0
  9 16  1  0  0  0  0
 10 11  1  0  0  0  0
 11 12  1  0  0  0  0
 11 13  2  0  0  0  0
 13 14  1  0  0  0  0
 13 15  1  0  0  0  0
 15 16  2  0  0  0  0
 16 17  1  0  0  0  0
 17 19  1  0  0  0  0
 17 18  1  0  0  0  0
 20 19  1  6  0  0  0
 20 22  1  0  0  0  0
 20 21  1  0  0  0  0
 22 24  1  0  0  0  0
 22 23  1  1  0  0  0
 24 26  1  6  0  0  0
 24 25  1  0  0  0  0
 26 27  1  0  0  0  0
 27 28  1  0  0  0  0
 28 30  1  0  0  0  0
 28 29  2  0  0  0  0
 28 31  1  0  0  0  0
M  CHG  2  30  -1  31  -1
M  END
>  <CHROM.1>
7.91601327,42.67126738,85.04278016,-172.40497152,90.52215604,-164.72237003
156.13152444,-176.30015585,-172.05541559,-75.76655513,-11.52430153,-2.30488614
0.96285916,0.43071007,0.97656107,-1.35345862

>  <Name>
1fmn_cryst

>  <RI>
0

>  <Rbt.Current_Directory>
/home/itssahil/PROJECTS/Mol_Feturizer/New_Systems/rnas/1fmn

>  <Rbt.Executable>
rbdock ($Id: //depot/dev/client3/rdock/2013.1/src/exe/rbdock.cxx#4 $)

>  <Rbt.Library>
libRbt.so (2013.1, Build901 2013/11/27)

>  <Rbt.Parameter_File>
/export/apps/rDock/src/rDock_2013.1_src/data/scripts/dock_solv.prm

>  <Rbt.Receptor>
prm/blind_docking_80.prm

>  <SCORE>
-33.5469

>  <SCORE.INTER>
-37.1034

>  <SCORE.INTER.CONST>
1

>  <SCORE.INTER.POLAR>
-1.14565

>  <SCORE.INTER.ROT>
7

>  <SCORE.INTER.SOLV>
22.0655

>  <SCORE.INTER.VDW>
-36.5386

>  <SCORE.INTER.norm>
-1.19688

>  <SCORE.INTRA>
1.9214

>  <SCORE.INTRA.DIHEDRAL>
-3.80147

>  <SCORE.INTRA.DIHEDRAL.0>
15.5708

>  <SCORE.INTRA.POLAR>
0.0677885

>  <SCORE.INTRA.POLAR.0>
-0.0677885

>  <SCORE.INTRA.REPUL>
0

>  <SCORE.INTRA.REPUL.0>
0

>  <SCORE.INTRA.SOLV>
-4.64411

>  <SCORE.INTRA.SOLV.lig_0>
-87.6316

>  <SCORE.INTRA.VDW>
5.91371

>  <SCORE.INTRA.VDW.0>
-2.87309

>  <SCORE.INTRA.norm>
0.0619807

>  <SCORE.RESTR>
1.63511

>  <SCORE.RESTR.CAVITY>
1.63511

>  <SCORE.RESTR.norm>
0.0527456

>  <SCORE.SYSTEM>
0

>  <SCORE.SYSTEM.CONST>
0

>  <SCORE.SYSTEM.DIHEDRAL>
0

>  <SCORE.SYSTEM.SOLV>
0

>  <SCORE.SYSTEM.norm>
0

>  <SCORE.heavy>
31

>  <SCORE.norm>
-1.08216

>  <SYMMETRIC_BONDS>
33 34 3

>  <RMSD>
9.832

$$$$
1fmn_cryst
 OpenBabel11021811393D
libRbt.so/2013.1/901 2013/11/27
 31 33  0  0  0  0  0  0  0  0999 V2000
  -12.3428   -2.7054   -1.1955 N   0  0  0  0  0  0  0  0  0  0  0  0
  -12.1856   -2.4884   -2.5445 C   0  0  0  0  0  0  0  0  0  0  0  0
  -13.0301   -1.8905   -3.2123 O   0  0  0  0  0  0  0  0  0  0  0  0
  -10.9940   -3.0003   -3.1169 N   0  0  0  0  0  0  0  0  0  0  0  0
   -9.9691   -3.7025   -2.4455 C   0  0  0  0  0  0  0  0  0  0  0  0
   -8.9755   -4.0940   -3.0706 O   0  0  0  0  0  0  0  0  0  0  0  0
  -10.2118   -3.8930   -1.0137 C   0  0  0  0  0  0  0  0  0  0  0  0
   -9.2613   -4.5669   -0.2881 N   0  0  0  0  0  0  0  0  0  0  0  0
   -9.5700   -4.9002    0.9988 C   0  0  0  0  0  0  0  0  0  0  0  0
   -8.6999   -5.7358    1.6764 C   0  0  0  0  0  0  0  0  0  0  0  0
   -8.9420   -6.1074    2.9549 C   0  0  0  0  0  0  0  0  0  0  0  0
   -7.9680   -7.0096    3.6431 C   0  0  0  0  0  0  0  0  0  0  0  0
  -10.0544   -5.6640    3.6007 C   0  0  0  0  0  0  0  0  0  0  0  0
  -10.3175   -6.0848    5.0099 C   0  0  0  0  0  0  0  0  0  0  0  0
  -10.9360   -4.8421    2.9761 C   0  0  0  0  0  0  0  0  0  0  0  0
  -10.7329   -4.4292    1.6594 C   0  0  0  0  0  0  0  0  0  0  0  0
  -11.6054   -3.5750    0.9531 N   0  0  0  0  0  0  0  0  0  0  0  0
  -11.4243   -3.3693   -0.4300 C   0  0  0  0  0  0  0  0  0  0  0  0
  -12.3165   -2.4913    1.7267 C   0  0  0  0  0  0  0  0  0  0  0  0
  -11.9816   -1.0223    1.3268 C   0  0  1  0  0  0  0  0  0  0  0  0
  -12.6320   -0.6861    0.1095 O   0  0  0  0  0  0  0  0  0  0  0  0
  -12.2825   -0.0007    2.4493 C   0  0  1  0  0  0  0  0  0  0  0  0
  -11.4842   -0.2782    3.5961 O   0  0  0  0  0  0  0  0  0  0  0  0
  -12.1714    1.4991    2.0801 C   0  0  1  0  0  0  0  0  0  0  0  0
  -12.8010    1.6993    0.8194 O   0  0  0  0  0  0  0  0  0  0  0  0
  -12.8369    2.4268    3.1213 C   0  0  0  0  0  0  0  0  0  0  0  0
  -13.7671    1.7371    3.9479 O   0  0  0  0  0  0  0  0  0  0  0  0
  -14.5125    2.4309    5.1620 P   0  0  0  0  0  0  0  0  0  0  0  0
  -15.7519    1.6992    5.5092 O   0  0  0  0  0  0  0  0  0  0  0  0
  -13.5570    2.7574    6.2425 O   0  5  0  0  0  0  0  0  0  0  0  0
  -14.9958    3.8240    4.5616 O   0  5  0  0  0  0  0  0  0  0  0  0
  1 18  1  0  0  0  0
  1  2  1  0  0  0  0
  2  4  1  0  0  0  0
  2  3  2  0  0  0  0
  4  5  1  0  0  0  0
  5  7  1  0  0  0  0
  5  6  2  0  0  0  0
  7 18  2  0  0  0  0
  7  8  1  0  0  0  0
  8  9  1  0  0  0  0
  9 10  2  0  0  0  0
  9 16  1  0  0  0  0
 10 11  1  0  0  0  0
 11 12  1  0  0  0  0
 11 13  2  0  0  0  0
 13 14  1  0  0  0  0
 13 15  1  0  0  0  0
 15 16  2  0  0  0  0
 16 17  1  0  0  0  0
 17 19  1  0  0  0  0
 17 18  1  0  0  0  0
 20 19  1  1  0  0  0
 20 22  1  0  0  0  0
 20 21  1  0  0  0  0
 22 24  1  0  0  0  0
 22 23  1  1  0  0  0
 24 26  1  1  0  0  0
 24 25  1  0  0  0  0
 26 27  1  0  0  0  0
 27 28  1  0  0  0  0
 28 30  1  0  0  0  0
 28 29  2  0  0  0  0
 28 31  1  0  0  0  0
M  CHG  2  30  -1  31  -1
M  END
>  <CHROM.1>
116.88755005,75.79139478,61.88015534,175.46155745,44.20397252,-78.48229604
-19.15559350,-172.01203107,175.59985842,158.28339986,-11.75883220,-1.74196218
1.69181678,0.46299678,1.04323838,-1.54503983

>  <Name>
1fmn_cryst

>  <RI>
0

>  <Rbt.Current_Directory>
/home/itssahil/PROJECTS/Mol_Feturizer/New_Systems/rnas/1fmn

>  <Rbt.Executable>
rbdock ($Id: //depot/dev/client3/rdock/2013.1/src/exe/rbdock.cxx#4 $)

>  <Rbt.Library>
libRbt.so (2013.1, Build901 2013/11/27)

>  <Rbt.Parameter_File>
/export/apps/rDock/src/rDock_2013.1_src/data/scripts/dock_solv.prm

>  <Rbt.Receptor>
prm/blind_docking_20.prm

>  <SCORE>
-33.0757

>  <SCORE.INTER>
-30.4113

>  <SCORE.INTER.CONST>
1

>  <SCORE.INTER.POLAR>
-0.731642

>  <SCORE.INTER.ROT>
7

>  <SCORE.INTER.SOLV>
21.6426

>  <SCORE.INTER.VDW>
-33.3162

>  <SCORE.INTER.norm>
-0.981009

>  <SCORE.INTRA>
-4.078

>  <SCORE.INTRA.DIHEDRAL>
-5.10569

>  <SCORE.INTRA.DIHEDRAL.0>
15.5708

>  <SCORE.INTRA.POLAR>
-0.657088

>  <SCORE.INTRA.POLAR.0>
-0.0677885

>  <SCORE.INTRA.REPUL>
0

>  <SCORE.INTRA.REPUL.0>
0

>  <SCORE.INTRA.SOLV>
-3.08191

>  <SCORE.INTRA.SOLV.lig_0>
-87.6316

>  <SCORE.INTRA.VDW>
2.2499

>  <SCORE.INTRA.VDW.0>
-2.87309

>  <SCORE.INTRA.norm>
-0.131548

>  <SCORE.RESTR>
1.4136

>  <SCORE.RESTR.CAVITY>
1.4136

>  <SCORE.RESTR.norm>
0.0456

>  <SCORE.SYSTEM>
0

>  <SCORE.SYSTEM.CONST>
0

>  <SCORE.SYSTEM.DIHEDRAL>
0

>  <SCORE.SYSTEM.SOLV>
0

>  <SCORE.SYSTEM.norm>
0

>  <SCORE.heavy>
31

>  <SCORE.norm>
-1.06696

>  <SYMMETRIC_BONDS>
33 34 3

>  <RMSD>
9.843

$$$$
1fmn_cryst
 OpenBabel11021811393D
libRbt.so/2013.1/901 2013/11/27
 31 33  0  0  0  0  0  0  0  0999 V2000
  -11.0460   -3.7641   -1.6196 N   0  0  0  0  0  0  0  0  0  0  0  0
  -10.5561   -3.5619   -2.8887 C   0  0  0  0  0  0  0  0  0  0  0  0
  -11.2575   -3.1111   -3.7950 O   0  0  0  0  0  0  0  0  0  0  0  0
   -9.1964   -3.9096   -3.0877 N   0  0  0  0  0  0  0  0  0  0  0  0
   -8.3102   -4.4372   -2.1230 C   0  0  0  0  0  0  0  0  0  0  0  0
   -7.1405   -4.6960   -2.4334 O   0  0  0  0  0  0  0  0  0  0  0  0
   -8.9076   -4.6235   -0.7988 C   0  0  0  0  0  0  0  0  0  0  0  0
   -8.1109   -5.1325    0.1964 N   0  0  0  0  0  0  0  0  0  0  0  0
   -8.7127   -5.4734    1.3729 C   0  0  0  0  0  0  0  0  0  0  0  0
   -7.9579   -6.1553    2.3109 C   0  0  0  0  0  0  0  0  0  0  0  0
   -8.4888   -6.5246    3.4996 C   0  0  0  0  0  0  0  0  0  0  0  0
   -7.6291   -7.2570    4.4799 C   0  0  0  0  0  0  0  0  0  0  0  0
   -9.7842   -6.2313    3.7948 C   0  0  0  0  0  0  0  0  0  0  0  0
  -10.3642   -6.6489    5.1068 C   0  0  0  0  0  0  0  0  0  0  0  0
  -10.5625   -5.5632    2.9056 C   0  0  0  0  0  0  0  0  0  0  0  0
  -10.0638   -5.1597    1.6670 C   0  0  0  0  0  0  0  0  0  0  0  0
  -10.8155   -4.4605    0.6996 N   0  0  0  0  0  0  0  0  0  0  0  0
  -10.2921   -4.2669   -0.5952 C   0  0  0  0  0  0  0  0  0  0  0  0
  -11.8487   -3.4721    1.1834 C   0  0  0  0  0  0  0  0  0  0  0  0
  -11.9074   -2.1083    0.4306 C   0  0  1  0  0  0  0  0  0  0  0  0
  -12.7578   -2.2111   -0.7027 O   0  0  0  0  0  0  0  0  0  0  0  0
  -12.2970   -0.9227    1.3453 C   0  0  1  0  0  0  0  0  0  0  0  0
  -11.1443   -0.4113    2.0081 O   0  0  0  0  0  0  0  0  0  0  0  0
  -13.0868    0.2374    0.6909 C   0  0  1  0  0  0  0  0  0  0  0  0
  -13.4961    1.1365    1.7155 O   0  0  0  0  0  0  0  0  0  0  0  0
  -12.2571    1.0177   -0.3533 C   0  0  0  0  0  0  0  0  0  0  0  0
  -12.6815    2.3692   -0.4848 O   0  0  0  0  0  0  0  0  0  0  0  0
  -11.9174    3.4227   -1.3890 P   0  0  0  0  0  0  0  0  0  0  0  0
  -10.4611    3.1559   -1.3956 O   0  0  0  0  0  0  0  0  0  0  0  0
  -12.6108    3.5988   -2.6833 O   0  5  0  0  0  0  0  0  0  0  0  0
  -12.0942    4.7948   -0.6010 O   0  5  0  0  0  0  0  0  0  0  0  0
  1 18  1  0  0  0  0
  1  2  1  0  0  0  0
  2  4  1  0  0  0  0
  2  3  2  0  0  0  0
  4  5  1  0  0  0  0
  5  7  1  0  0  0  0
  5  6  2  0  0  0  0
  7 18  2  0  0  0  0
  7  8  1  0  0  0  0
  8  9  1  0  0  0  0
  9 10  2  0  0  0  0
  9 16  1  0  0  0  0
 10 11  1  0  0  0  0
 11 12  1  0  0  0  0
 11 13  2  0  0  0  0
 13 14  1  0  0  0  0
 13 15  1  0  0  0  0
 15 16  2  0  0  0  0
 16 17  1  0  0  0  0
 17 19  1  0  0  0  0
 17 18  1  0  0  0  0
 20 19  1  1  0  0  0
 20 22  1  0  0  0  0
 20 21  1  0  0  0  0
 22 24  1  0  0  0  0
 22 23  1  6  0  0  0
 24 26  1  6  0  0  0
 24 25  1  0  0  0  0
 26 27  1  0  0  0  0
 27 28  1  0  0  0  0
 28 30  1  0  0  0  0
 28 29  2  0  0  0  0
 28 31  1  0  0  0  0
M  CHG  2  30  -1  31  -1
M  END
>  <CHROM.1>
136.77323095,86.85246298,84.82987700,75.17919380,172.64221321,-75.21375466
-152.36649512,-174.63785647,174.31689510,-33.26812137,-10.69474172,-2.17399683
0.15523477,-0.77364455,1.08629757,-1.06681346

>  <Name>
1fmn_cryst

>  <RI>
0

>  <Rbt.Current_Directory>
/home/itssahil/PROJECTS/Mol_Feturizer/New_Systems/rnas/1fmn

>  <Rbt.Executable>
rbdock ($Id: //depot/dev/client3/rdock/2013.1/src/exe/rbdock.cxx#4 $)

>  <Rbt.Library>
libRbt.so (2013.1, Build901 2013/11/27)

>  <Rbt.Parameter_File>
/export/apps/rDock/src/rDock_2013.1_src/data/scripts/dock_solv.prm

>  <Rbt.Receptor>
prm/blind_docking_60.prm

>  <SCORE>
-39.2789

>  <SCORE.INTER>
-38.5043

>  <SCORE.INTER.CONST>
1

>  <SCORE.INTER.POLAR>
-2.68798

>  <SCORE.INTER.ROT>
7

>  <SCORE.INTER.SOLV>
28.6719

>  <SCORE.INTER.VDW>
-34.5336

>  <SCORE.INTER.norm>
-1.24207

>  <SCORE.INTRA>
-2.81284

>  <SCORE.INTRA.DIHEDRAL>
-2.59632

>  <SCORE.INTRA.DIHEDRAL.0>
15.5708

>  <SCORE.INTRA.POLAR>
-0.588761

>  <SCORE.INTRA.POLAR.0>
-0.0677885

>  <SCORE.INTRA.REPUL>
0

>  <SCORE.INTRA.REPUL.0>
0

>  <SCORE.INTRA.SOLV>
-4.04419

>  <SCORE.INTRA.SOLV.lig_0>
-87.6316

>  <SCORE.INTRA.VDW>
2.5092

>  <SCORE.INTRA.VDW.0>
-2.87309

>  <SCORE.INTRA.norm>
-0.0907369

>  <SCORE.RESTR>
2.0382

>  <SCORE.RESTR.CAVITY>
2.0382

>  <SCORE.RESTR.norm>
0.0657485

>  <SCORE.SYSTEM>
0

>  <SCORE.SYSTEM.CONST>
0

>  <SCORE.SYSTEM.DIHEDRAL>
0

>  <SCORE.SYSTEM.SOLV>
0

>  <SCORE.SYSTEM.norm>
0

>  <SCORE.heavy>
31

>  <SCORE.norm>
-1.26706

>  <SYMMETRIC_BONDS>
33 34 3

>  <RMSD>
9.851

$$$$
1fmn_cryst
 OpenBabel11021811393D
libRbt.so/2013.1/901 2013/11/27
 31 33  0  0  0  0  0  0  0  0999 V2000
  -11.9090   -2.9778   -2.3002 N   0  0  0  0  0  0  0  0  0  0  0  0
  -11.5356   -2.9618   -3.6238 C   0  0  0  0  0  0  0  0  0  0  0  0
  -12.2454   -2.4601   -4.4961 O   0  0  0  0  0  0  0  0  0  0  0  0
  -10.2863   -3.5627   -3.9196 N   0  0  0  0  0  0  0  0  0  0  0  0
   -9.4023   -4.1687   -3.0000 C   0  0  0  0  0  0  0  0  0  0  0  0
   -8.3362   -4.6564   -3.3961 O   0  0  0  0  0  0  0  0  0  0  0  0
   -9.8721   -4.1457   -1.6129 C   0  0  0  0  0  0  0  0  0  0  0  0
   -9.0692   -4.7151   -0.6562 N   0  0  0  0  0  0  0  0  0  0  0  0
   -9.5863   -4.8539    0.5992 C   0  0  0  0  0  0  0  0  0  0  0  0
   -8.8604   -5.5895    1.5192 C   0  0  0  0  0  0  0  0  0  0  0  0
   -9.3115   -5.7680    2.7825 C   0  0  0  0  0  0  0  0  0  0  0  0
   -8.4869   -6.5689    3.7390 C   0  0  0  0  0  0  0  0  0  0  0  0
  -10.4965   -5.2249    3.1725 C   0  0  0  0  0  0  0  0  0  0  0  0
  -10.9903   -5.4329    4.5671 C   0  0  0  0  0  0  0  0  0  0  0  0
  -11.2423   -4.4950    2.3043 C   0  0  0  0  0  0  0  0  0  0  0  0
  -10.8224   -4.2808    0.9916 C   0  0  0  0  0  0  0  0  0  0  0  0
  -11.5456   -3.5309    0.0404 N   0  0  0  0  0  0  0  0  0  0  0  0
  -11.1436   -3.5312   -1.3110 C   0  0  0  0  0  0  0  0  0  0  0  0
  -12.3336   -2.3394    0.5279 C   0  0  0  0  0  0  0  0  0  0  0  0
  -11.8821   -1.7196    1.8852 C   0  0  1  0  0  0  0  0  0  0  0  0
  -10.8600   -0.7573    1.6678 O   0  0  0  0  0  0  0  0  0  0  0  0
  -13.0557   -1.1454    2.7142 C   0  0  1  0  0  0  0  0  0  0  0  0
  -13.4985   -2.1030    3.6715 O   0  0  0  0  0  0  0  0  0  0  0  0
  -12.8237    0.2214    3.4041 C   0  0  1  0  0  0  0  0  0  0  0  0
  -12.6284    1.2065    2.3955 O   0  0  0  0  0  0  0  0  0  0  0  0
  -14.0071    0.6533    4.2988 C   0  0  0  0  0  0  0  0  0  0  0  0
  -13.6738    1.7412    5.1530 O   0  0  0  0  0  0  0  0  0  0  0  0
  -14.7686    2.6132    5.8960 P   0  0  0  0  0  0  0  0  0  0  0  0
  -14.2262    3.1884    7.1478 O   0  0  0  0  0  0  0  0  0  0  0  0
  -15.4541    3.5122    4.9427 O   0  5  0  0  0  0  0  0  0  0  0  0
  -15.8546    1.5436    6.3559 O   0  5  0  0  0  0  0  0  0  0  0  0
  1 18  1  0  0  0  0
  1  2  1  0  0  0  0
  2  4  1  0  0  0  0
  2  3  2  0  0  0  0
  4  5  1  0  0  0  0
  5  7  1  0  0  0  0
  5  6  2  0  0  0  0
  7 18  2  0  0  0  0
  7  8  1  0  0  0  0
  8  9  1  0  0  0  0
  9 10  2  0  0  0  0
  9 16  1  0  0  0  0
 10 11  1  0  0  0  0
 11 12  1  0  0  0  0
 11 13  2  0  0  0  0
 13 14  1  0  0  0  0
 13 15  1  0  0  0  0
 15 16  2  0  0  0  0
 16 17  1  0  0  0  0
 17 19  1  0  0  0  0
 17 18  1  0  0  0  0
 20 19  1  6  0  0  0
 20 22  1  0  0  0  0
 20 21  1  0  0  0  0
 22 24  1  0  0  0  0
 22 23  1  1  0  0  0
 24 26  1  6  0  0  0
 24 25  1  0  0  0  0
 26 27  1  0  0  0  0
 27 28  1  0  0  0  0
 28 30  1  0  0  0  0
 28 29  2  0  0  0  0
 28 31  1  0  0  0  0
M  CHG  2  30  -1  31  -1
M  END
>  <CHROM.1>
22.20009437,87.05419222,96.07255690,-174.64221741,64.08783618,67.85418141
166.80297046,-63.75868828,164.15433871,152.56348781,-11.82121846,-1.99201371
1.72100570,0.63339179,1.00555383,-1.46416548

>  <Name>
1fmn_cryst

>  <RI>
0

>  <Rbt.Current_Directory>
/home/itssahil/PROJECTS/Mol_Feturizer/New_Systems/rnas/1fmn

>  <Rbt.Executable>
rbdock ($Id: //depot/dev/client3/rdock/2013.1/src/exe/rbdock.cxx#4 $)

>  <Rbt.Library>
libRbt.so (2013.1, Build901 2013/11/27)

>  <Rbt.Parameter_File>
/export/apps/rDock/src/rDock_2013.1_src/data/scripts/dock_solv.prm

>  <Rbt.Receptor>
prm/blind_docking_80.prm

>  <SCORE>
-39.3261

>  <SCORE.INTER>
-38.1367

>  <SCORE.INTER.CONST>
1

>  <SCORE.INTER.POLAR>
-1.80767

>  <SCORE.INTER.ROT>
7

>  <SCORE.INTER.SOLV>
23.0979

>  <SCORE.INTER.VDW>
-35.3648

>  <SCORE.INTER.norm>
-1.23022

>  <SCORE.INTRA>
-3.31481

>  <SCORE.INTRA.DIHEDRAL>
-4.43593

>  <SCORE.INTRA.DIHEDRAL.0>
15.5708

>  <SCORE.INTRA.POLAR>
-0.14697

>  <SCORE.INTRA.POLAR.0>
-0.0677885

>  <SCORE.INTRA.REPUL>
0

>  <SCORE.INTRA.REPUL.0>
0

>  <SCORE.INTRA.SOLV>
-4.45562

>  <SCORE.INTRA.SOLV.lig_0>
-87.6316

>  <SCORE.INTRA.VDW>
1.63066

>  <SCORE.INTRA.VDW.0>
-2.87309

>  <SCORE.INTRA.norm>
-0.106929

>  <SCORE.RESTR>
2.12539

>  <SCORE.RESTR.CAVITY>
2.12539

>  <SCORE.RESTR.norm>
0.0685608

>  <SCORE.SYSTEM>
0

>  <SCORE.SYSTEM.CONST>
0

>  <SCORE.SYSTEM.DIHEDRAL>
0

>  <SCORE.SYSTEM.SOLV>
0

>  <SCORE.SYSTEM.norm>
0

>  <SCORE.heavy>
31

>  <SCORE.norm>
-1.26858

>  <SYMMETRIC_BONDS>
33 34 3

>  <RMSD>
9.860

$$$$
1fmn_cryst
 OpenBabel11021811393D
libRbt.so/2013.1/901 2013/11/27
 31 33  0  0  0  0  0  0  0  0999 V2000
  -12.7580   -2.4424   -0.8674 N   0  0  0  0  0  0  0  0  0  0  0  0
  -12.7028   -2.1550   -2.2113 C   0  0  0  0  0  0  0  0  0  0  0  0
  -13.5986   -1.5328   -2.7830 O   0  0  0  0  0  0  0  0  0  0  0  0
  -11.5536   -2.6244   -2.8957 N   0  0  0  0  0  0  0  0  0  0  0  0
  -10.4769   -3.3491   -2.3392 C   0  0  0  0  0  0  0  0  0  0  0  0
   -9.5298   -3.6976   -3.0553 O   0  0  0  0  0  0  0  0  0  0  0  0
  -10.6113   -3.6152   -0.9052 C   0  0  0  0  0  0  0  0  0  0  0  0
   -9.6050   -4.3153   -0.2875 N   0  0  0  0  0  0  0  0  0  0  0  0
   -9.8152   -4.7172    0.9997 C   0  0  0  0  0  0  0  0  0  0  0  0
   -8.8915   -5.5771    1.5670 C   0  0  0  0  0  0  0  0  0  0  0  0
   -9.0355   -6.0161    2.8389 C   0  0  0  0  0  0  0  0  0  0  0  0
   -8.0070   -6.9420    3.4057 C   0  0  0  0  0  0  0  0  0  0  0  0
  -10.0999   -5.6182    3.5872 C   0  0  0  0  0  0  0  0  0  0  0  0
  -10.2547   -6.1133    4.9882 C   0  0  0  0  0  0  0  0  0  0  0  0
  -11.0309   -4.7748    3.0727 C   0  0  0  0  0  0  0  0  0  0  0  0
  -10.9289   -4.2929    1.7677 C   0  0  0  0  0  0  0  0  0  0  0  0
  -11.8573   -3.4129    1.1730 N   0  0  0  0  0  0  0  0  0  0  0  0
  -11.7807   -3.1349   -0.2072 C   0  0  0  0  0  0  0  0  0  0  0  0
  -12.5162   -2.3779    2.0521 C   0  0  0  0  0  0  0  0  0  0  0  0
  -11.9476   -0.9293    1.9608 C   0  0  1  0  0  0  0  0  0  0  0  0
  -12.1530   -0.4043    0.6569 O   0  0  0  0  0  0  0  0  0  0  0  0
  -12.4952    0.0116    3.0603 C   0  0  1  0  0  0  0  0  0  0  0  0
  -11.4668    0.3319    3.9927 O   0  0  0  0  0  0  0  0  0  0  0  0
  -13.1999    1.3068    2.5873 C   0  0  1  0  0  0  0  0  0  0  0  0
  -14.4167    0.9465    1.9427 O   0  0  0  0  0  0  0  0  0  0  0  0
  -13.5196    2.2768    3.7468 C   0  0  0  0  0  0  0  0  0  0  0  0
  -14.8201    2.0701    4.2854 O   0  0  0  0  0  0  0  0  0  0  0  0
  -15.0623    1.5094    5.7476 P   0  0  0  0  0  0  0  0  0  0  0  0
  -16.5042    1.5144    6.0836 O   0  0  0  0  0  0  0  0  0  0  0  0
  -14.2891    0.2676    5.9644 O   0  5  0  0  0  0  0  0  0  0  0  0
  -14.4033    2.6119    6.6884 O   0  5  0  0  0  0  0  0  0  0  0  0
  1 18  1  0  0  0  0
  1  2  1  0  0  0  0
  2  4  1  0  0  0  0
  2  3  2  0  0  0  0
  4  5  1  0  0  0  0
  5  7  1  0  0  0  0
  5  6  2  0  0  0  0
  7 18  2  0  0  0  0
  7  8  1  0  0  0  0
  8  9  1  0  0  0  0
  9 10  2  0  0  0  0
  9 16  1  0  0  0  0
 10 11  1  0  0  0  0
 11 12  1  0  0  0  0
 11 13  2  0  0  0  0
 13 14  1  0  0  0  0
 13 15  1  0  0  0  0
 15 16  2  0  0  0  0
 16 17  1  0  0  0  0
 17 19  1  0  0  0  0
 17 18  1  0  0  0  0
 20 19  1  6  0  0  0
 20 22  1  0  0  0  0
 20 21  1  0  0  0  0
 22 24  1  0  0  0  0
 22 23  1  1  0  0  0
 24 26  1  1  0  0  0
 24 25  1  0  0  0  0
 26 27  1  0  0  0  0
 27 28  1  0  0  0  0
 28 30  1  0  0  0  0
 28 29  2  0  0  0  0
 28 31  1  0  0  0  0
M  CHG  2  30  -1  31  -1
M  END
>  <CHROM.1>
101.36685745,63.84018518,110.17199126,-78.12467233,68.06366718,75.76783614
-92.01638869,52.15750353,112.33612295,174.81141496,-12.12599829,-1.81847225
2.03500639,0.55143927,0.95551114,-1.52890520

>  <Name>
1fmn_cryst

>  <RI>
0

>  <Rbt.Current_Directory>
/home/itssahil/PROJECTS/Mol_Feturizer/New_Systems/rnas/1fmn

>  <Rbt.Executable>
rbdock ($Id: //depot/dev/client3/rdock/2013.1/src/exe/rbdock.cxx#4 $)

>  <Rbt.Library>
libRbt.so (2013.1, Build901 2013/11/27)

>  <Rbt.Parameter_File>
/export/apps/rDock/src/rDock_2013.1_src/data/scripts/dock_solv.prm

>  <Rbt.Receptor>
prm/blind_docking_80.prm

>  <SCORE>
-29.7779

>  <SCORE.INTER>
-35.3067

>  <SCORE.INTER.CONST>
1

>  <SCORE.INTER.POLAR>
-1.92067

>  <SCORE.INTER.ROT>
7

>  <SCORE.INTER.SOLV>
26.9496

>  <SCORE.INTER.VDW>
-34.3855

>  <SCORE.INTER.norm>
-1.13893

>  <SCORE.INTRA>
2.65502

>  <SCORE.INTRA.DIHEDRAL>
3.92478

>  <SCORE.INTRA.DIHEDRAL.0>
15.5708

>  <SCORE.INTRA.POLAR>
0.0677885

>  <SCORE.INTRA.POLAR.0>
-0.0677885

>  <SCORE.INTRA.REPUL>
0

>  <SCORE.INTRA.REPUL.0>
0

>  <SCORE.INTRA.SOLV>
-0.397261

>  <SCORE.INTRA.SOLV.lig_0>
-87.6316

>  <SCORE.INTRA.VDW>
0.660779

>  <SCORE.INTRA.VDW.0>
-2.87309

>  <SCORE.INTRA.norm>
0.0856458

>  <SCORE.RESTR>
2.87383

>  <SCORE.RESTR.CAVITY>
2.87383

>  <SCORE.RESTR.norm>
0.0927043

>  <SCORE.SYSTEM>
0

>  <SCORE.SYSTEM.CONST>
0

>  <SCORE.SYSTEM.DIHEDRAL>
0

>  <SCORE.SYSTEM.SOLV>
0

>  <SCORE.SYSTEM.norm>
0

>  <SCORE.heavy>
31

>  <SCORE.norm>
-0.960576

>  <SYMMETRIC_BONDS>
33 34 3

>  <RMSD>
9.860

$$$$
1fmn_cryst
 OpenBabel11021811393D
libRbt.so/2013.1/901 2013/11/27
 31 33  0  0  0  0  0  0  0  0999 V2000
  -10.5321   -4.1445   -2.9650 N   0  0  0  0  0  0  0  0  0  0  0  0
   -9.7901   -4.2933   -4.1134 C   0  0  0  0  0  0  0  0  0  0  0  0
  -10.2437   -4.0159   -5.2242 O   0  0  0  0  0  0  0  0  0  0  0  0
   -8.4742   -4.7902   -3.9375 N   0  0  0  0  0  0  0  0  0  0  0  0
   -7.8617   -5.1433   -2.7150 C   0  0  0  0  0  0  0  0  0  0  0  0
   -6.6984   -5.5651   -2.7050 O   0  0  0  0  0  0  0  0  0  0  0  0
   -8.7167   -4.9570   -1.5406 C   0  0  0  0  0  0  0  0  0  0  0  0
   -8.1947   -5.2774   -0.3121 N   0  0  0  0  0  0  0  0  0  0  0  0
   -9.0463   -5.2756    0.7544 C   0  0  0  0  0  0  0  0  0  0  0  0
   -8.5767   -5.7734    1.9569 C   0  0  0  0  0  0  0  0  0  0  0  0
   -9.3653   -5.8021    3.0563 C   0  0  0  0  0  0  0  0  0  0  0  0
   -8.8082   -6.3474    4.3325 C   0  0  0  0  0  0  0  0  0  0  0  0
  -10.6437   -5.3401    2.9976 C   0  0  0  0  0  0  0  0  0  0  0  0
  -11.5096   -5.3819    4.2144 C   0  0  0  0  0  0  0  0  0  0  0  0
  -11.1471   -4.8421    1.8394 C   0  0  0  0  0  0  0  0  0  0  0  0
  -10.3761   -4.7896    0.6783 C   0  0  0  0  0  0  0  0  0  0  0  0
  -10.8348   -4.2822   -0.5555 N   0  0  0  0  0  0  0  0  0  0  0  0
  -10.0564   -4.4483   -1.7193 C   0  0  0  0  0  0  0  0  0  0  0  0
  -11.8030   -3.1245   -0.5297 C   0  0  0  0  0  0  0  0  0  0  0  0
  -12.1612   -2.5532    0.8758 C   0  0  1  0  0  0  0  0  0  0  0  0
  -10.9820   -2.1384    1.5504 O   0  0  0  0  0  0  0  0  0  0  0  0
  -13.2279   -1.4335    0.8256 C   0  0  1  0  0  0  0  0  0  0  0  0
  -13.5304   -0.9808    2.1420 O   0  0  0  0  0  0  0  0  0  0  0  0
  -12.9303   -0.2228   -0.0929 C   0  0  1  0  0  0  0  0  0  0  0  0
  -13.4823   -0.4872   -1.3779 O   0  0  0  0  0  0  0  0  0  0  0  0
  -13.5251    1.0995    0.4415 C   0  0  0  0  0  0  0  0  0  0  0  0
  -12.5546    2.1362    0.5277 O   0  0  0  0  0  0  0  0  0  0  0  0
  -12.8695    3.5533    1.1633 P   0  0  0  0  0  0  0  0  0  0  0  0
  -13.8793    3.4373    2.2398 O   0  0  0  0  0  0  0  0  0  0  0  0
  -11.6175    4.2889    1.4432 O   0  5  0  0  0  0  0  0  0  0  0  0
  -13.5935    4.3427   -0.0147 O   0  5  0  0  0  0  0  0  0  0  0  0
  1 18  1  0  0  0  0
  1  2  1  0  0  0  0
  2  4  1  0  0  0  0
  2  3  2  0  0  0  0
  4  5  1  0  0  0  0
  5  7  1  0  0  0  0
  5  6  2  0  0  0  0
  7 18  2  0  0  0  0
  7  8  1  0  0  0  0
  8  9  1  0  0  0  0
  9 10  2  0  0  0  0
  9 16  1  0  0  0  0
 10 11  1  0  0  0  0
 11 12  1  0  0  0  0
 11 13  2  0  0  0  0
 13 14  1  0  0  0  0
 13 15  1  0  0  0  0
 15 16  2  0  0  0  0
 16 17  1  0  0  0  0
 17 19  1  0  0  0  0
 17 18  1  0  0  0  0
 20 19  1  6  0  0  0
 20 22  1  0  0  0  0
 20 21  1  0  0  0  0
 22 24  1  0  0  0  0
 22 23  1  1  0  0  0
 24 26  1  1  0  0  0
 24 25  1  0  0  0  0
 26 27  1  0  0  0  0
 27 28  1  0  0  0  0
 28 30  1  0  0  0  0
 28 29  2  0  0  0  0
 28 31  1  0  0  0  0
M  CHG  2  30  -1  31  -1
M  END
>  <CHROM.1>
2.54855603,57.39571202,178.60588209,-171.23253967,91.30584684,-77.41585436
127.31793945,60.53581370,-174.46323566,31.34853504,-11.02440366,-2.25701919
0.14583369,-0.17776957,1.09712424,-1.16595277

>  <Name>
1fmn_cryst

>  <RI>
0

>  <Rbt.Current_Directory>
/home/itssahil/PROJECTS/Mol_Feturizer/New_Systems/rnas/1fmn

>  <Rbt.Executable>
rbdock ($Id: //depot/dev/client3/rdock/2013.1/src/exe/rbdock.cxx#4 $)

>  <Rbt.Library>
libRbt.so (2013.1, Build901 2013/11/27)

>  <Rbt.Parameter_File>
/export/apps/rDock/src/rDock_2013.1_src/data/scripts/dock_solv.prm

>  <Rbt.Receptor>
prm/blind_docking_60.prm

>  <SCORE>
-34.8171

>  <SCORE.INTER>
-36.9273

>  <SCORE.INTER.CONST>
1

>  <SCORE.INTER.POLAR>
-1.47162

>  <SCORE.INTER.ROT>
7

>  <SCORE.INTER.SOLV>
24.5088

>  <SCORE.INTER.VDW>
-36.1491

>  <SCORE.INTER.norm>
-1.1912

>  <SCORE.INTRA>
0.921742

>  <SCORE.INTRA.DIHEDRAL>
-2.66365

>  <SCORE.INTRA.DIHEDRAL.0>
15.5708

>  <SCORE.INTRA.POLAR>
0.0677885

>  <SCORE.INTRA.POLAR.0>
-0.0677885

>  <SCORE.INTRA.REPUL>
0

>  <SCORE.INTRA.REPUL.0>
0

>  <SCORE.INTRA.SOLV>
-4.53576

>  <SCORE.INTRA.SOLV.lig_0>
-87.6316

>  <SCORE.INTRA.VDW>
4.29097

>  <SCORE.INTRA.VDW.0>
-2.87309

>  <SCORE.INTRA.norm>
0.0297336

>  <SCORE.RESTR>
1.18852

>  <SCORE.RESTR.CAVITY>
1.18852

>  <SCORE.RESTR.norm>
0.0383394

>  <SCORE.SYSTEM>
0

>  <SCORE.SYSTEM.CONST>
0

>  <SCORE.SYSTEM.DIHEDRAL>
0

>  <SCORE.SYSTEM.SOLV>
0

>  <SCORE.SYSTEM.norm>
0

>  <SCORE.heavy>
31

>  <SCORE.norm>
-1.12313

>  <SYMMETRIC_BONDS>
33 34 3

>  <RMSD>
9.878

$$$$
1fmn_cryst
 OpenBabel11021811393D
libRbt.so/2013.1/901 2013/11/27
 31 33  0  0  0  0  0  0  0  0999 V2000
  -10.2897   -4.1686   -2.9066 N   0  0  0  0  0  0  0  0  0  0  0  0
   -9.4543   -4.3726   -3.9800 C   0  0  0  0  0  0  0  0  0  0  0  0
   -9.8036   -4.1267   -5.1349 O   0  0  0  0  0  0  0  0  0  0  0  0
   -8.1699   -4.8878   -3.6728 N   0  0  0  0  0  0  0  0  0  0  0  0
   -7.6736   -5.2083   -2.3901 C   0  0  0  0  0  0  0  0  0  0  0  0
   -6.5251   -5.6514   -2.2640 O   0  0  0  0  0  0  0  0  0  0  0  0
   -8.6230   -4.9637   -1.3020 C   0  0  0  0  0  0  0  0  0  0  0  0
   -8.2167   -5.2496   -0.0224 N   0  0  0  0  0  0  0  0  0  0  0  0
   -9.1573   -5.1934    0.9649 C   0  0  0  0  0  0  0  0  0  0  0  0
   -8.8049   -5.6565    2.2202 C   0  0  0  0  0  0  0  0  0  0  0  0
   -9.6863   -5.6307    3.2467 C   0  0  0  0  0  0  0  0  0  0  0  0
   -9.2541   -6.1403    4.5846 C   0  0  0  0  0  0  0  0  0  0  0  0
  -10.9443   -5.1470    3.0607 C   0  0  0  0  0  0  0  0  0  0  0  0
  -11.9131   -5.1287    4.1978 C   0  0  0  0  0  0  0  0  0  0  0  0
  -11.3342   -4.6814    1.8466 C   0  0  0  0  0  0  0  0  0  0  0  0
  -10.4644   -4.6853    0.7563 C   0  0  0  0  0  0  0  0  0  0  0  0
  -10.8031   -4.2140   -0.5295 N   0  0  0  0  0  0  0  0  0  0  0  0
   -9.9306   -4.4365   -1.6144 C   0  0  0  0  0  0  0  0  0  0  0  0
  -11.7442   -3.0379   -0.6280 C   0  0  0  0  0  0  0  0  0  0  0  0
  -12.2293   -2.4250    0.7207 C   0  0  1  0  0  0  0  0  0  0  0  0
  -11.1329   -1.8554    1.4218 O   0  0  0  0  0  0  0  0  0  0  0  0
  -13.3959   -1.4229    0.5510 C   0  0  1  0  0  0  0  0  0  0  0  0
  -13.8640   -0.9901    1.8251 O   0  0  0  0  0  0  0  0  0  0  0  0
  -13.1404   -0.1977   -0.3608 C   0  0  1  0  0  0  0  0  0  0  0  0
  -14.3947    0.2766   -0.8380 O   0  0  0  0  0  0  0  0  0  0  0  0
  -12.4173    0.9564    0.3693 C   0  0  0  0  0  0  0  0  0  0  0  0
  -12.7002    2.2259   -0.2072 O   0  0  0  0  0  0  0  0  0  0  0  0
  -12.4710    3.5888    0.5682 P   0  0  0  0  0  0  0  0  0  0  0  0
  -13.7160    4.0335    1.2348 O   0  0  0  0  0  0  0  0  0  0  0  0
  -11.2240    3.5341    1.3612 O   0  5  0  0  0  0  0  0  0  0  0  0
  -12.2112    4.6452   -0.5943 O   0  5  0  0  0  0  0  0  0  0  0  0
  1 18  1  0  0  0  0
  1  2  1  0  0  0  0
  2  4  1  0  0  0  0
  2  3  2  0  0  0  0
  4  5  1  0  0  0  0
  5  7  1  0  0  0  0
  5  6  2  0  0  0  0
  7 18  2  0  0  0  0
  7  8  1  0  0  0  0
  8  9  1  0  0  0  0
  9 10  2  0  0  0  0
  9 16  1  0  0  0  0
 10 11  1  0  0  0  0
 11 12  1  0  0  0  0
 11 13  2  0  0  0  0
 13 14  1  0  0  0  0
 13 15  1  0  0  0  0
 15 16  2  0  0  0  0
 16 17  1  0  0  0  0
 17 19  1  0  0  0  0
 17 18  1  0  0  0  0
 20 19  1  6  0  0  0
 20 22  1  0  0  0  0
 20 21  1  0  0  0  0
 22 24  1  0  0  0  0
 22 23  1  1  0  0  0
 24 26  1  1  0  0  0
 24 25  1  0  0  0  0
 26 27  1  0  0  0  0
 27 28  1  0  0  0  0
 28 30  1  0  0  0  0
 28 29  2  0  0  0  0
 28 31  1  0  0  0  0
M  CHG  2  30  -1  31  -1
M  END
>  <CHROM.1>
1.55142226,65.12722374,175.03637679,-152.10493867,156.19731356,-66.86374086
-153.69656753,61.28646220,160.89074591,-94.36224753,-10.96401207,-2.17880356
0.09176645,-0.45235718,1.07088233,-0.95263212

>  <Name>
1fmn_cryst

>  <RI>
0

>  <Rbt.Current_Directory>
/home/itssahil/PROJECTS/Mol_Feturizer/New_Systems/rnas/1fmn

>  <Rbt.Executable>
rbdock ($Id: //depot/dev/client3/rdock/2013.1/src/exe/rbdock.cxx#4 $)

>  <Rbt.Library>
libRbt.so (2013.1, Build901 2013/11/27)

>  <Rbt.Parameter_File>
/export/apps/rDock/src/rDock_2013.1_src/data/scripts/dock_solv.prm

>  <Rbt.Receptor>
prm/blind_docking_60.prm

>  <SCORE>
-35.8981

>  <SCORE.INTER>
-37.4062

>  <SCORE.INTER.CONST>
1

>  <SCORE.INTER.POLAR>
-1.49533

>  <SCORE.INTER.ROT>
7

>  <SCORE.INTER.SOLV>
26.8215

>  <SCORE.INTER.VDW>
-37.1602

>  <SCORE.INTER.norm>
-1.20665

>  <SCORE.INTRA>
-0.0786274

>  <SCORE.INTRA.DIHEDRAL>
-2.87401

>  <SCORE.INTRA.DIHEDRAL.0>
15.5708

>  <SCORE.INTRA.POLAR>
0.0677885

>  <SCORE.INTRA.POLAR.0>
-0.0677885

>  <SCORE.INTRA.REPUL>
0

>  <SCORE.INTRA.REPUL.0>
0

>  <SCORE.INTRA.SOLV>
-4.37464

>  <SCORE.INTRA.SOLV.lig_0>
-87.6316

>  <SCORE.INTRA.VDW>
3.31522

>  <SCORE.INTRA.VDW.0>
-2.87309

>  <SCORE.INTRA.norm>
-0.00253637

>  <SCORE.RESTR>
1.58677

>  <SCORE.RESTR.CAVITY>
1.58677

>  <SCORE.RESTR.norm>
0.0511861

>  <SCORE.SYSTEM>
0

>  <SCORE.SYSTEM.CONST>
0

>  <SCORE.SYSTEM.DIHEDRAL>
0

>  <SCORE.SYSTEM.SOLV>
0

>  <SCORE.SYSTEM.norm>
0

>  <SCORE.heavy>
31

>  <SCORE.norm>
-1.158

>  <SYMMETRIC_BONDS>
33 34 3

>  <RMSD>
9.881

$$$$
1fmn_cryst
 OpenBabel11021811393D
libRbt.so/2013.1/901 2013/11/27
 31 33  0  0  0  0  0  0  0  0999 V2000
  -12.9633   -2.0885   -1.4592 N   0  0  0  0  0  0  0  0  0  0  0  0
  -12.8697   -1.9570   -2.8250 C   0  0  0  0  0  0  0  0  0  0  0  0
  -13.6935   -1.3145   -3.4769 O   0  0  0  0  0  0  0  0  0  0  0  0
  -11.7692   -2.6112   -3.4337 N   0  0  0  0  0  0  0  0  0  0  0  0
  -10.7756   -3.3747   -2.7825 C   0  0  0  0  0  0  0  0  0  0  0  0
   -9.8637   -3.8926   -3.4394 O   0  0  0  0  0  0  0  0  0  0  0  0
  -10.9466   -3.4673   -1.3308 C   0  0  0  0  0  0  0  0  0  0  0  0
  -10.0210   -4.1928   -0.6228 N   0  0  0  0  0  0  0  0  0  0  0  0
  -10.2800   -4.4283    0.6963 C   0  0  0  0  0  0  0  0  0  0  0  0
   -9.4524   -5.3090    1.3700 C   0  0  0  0  0  0  0  0  0  0  0  0
   -9.6493   -5.5895    2.6792 C   0  0  0  0  0  0  0  0  0  0  0  0
   -8.7242   -6.5461    3.3614 C   0  0  0  0  0  0  0  0  0  0  0  0
  -10.6731   -5.0075    3.3605 C   0  0  0  0  0  0  0  0  0  0  0  0
  -10.8874   -5.3282    4.8039 C   0  0  0  0  0  0  0  0  0  0  0  0
  -11.5100   -4.1366    2.7409 C   0  0  0  0  0  0  0  0  0  0  0  0
  -11.3504   -3.8131    1.3936 C   0  0  0  0  0  0  0  0  0  0  0  0
  -12.1803   -2.9150    0.6903 N   0  0  0  0  0  0  0  0  0  0  0  0
  -12.0661   -2.7988   -0.7102 C   0  0  0  0  0  0  0  0  0  0  0  0
  -12.7371   -1.7292    1.4401 C   0  0  0  0  0  0  0  0  0  0  0  0
  -11.7048   -0.8503    2.2096 C   0  0  1  0  0  0  0  0  0  0  0  0
  -10.6783   -0.4167    1.3285 O   0  0  0  0  0  0  0  0  0  0  0  0
  -12.3551    0.3291    2.9711 C   0  0  1  0  0  0  0  0  0  0  0  0
  -12.7064    1.3691    2.0630 O   0  0  0  0  0  0  0  0  0  0  0  0
  -13.5618   -0.0051    3.8823 C   0  0  1  0  0  0  0  0  0  0  0  0
  -13.5875   -1.4121    4.0957 O   0  0  0  0  0  0  0  0  0  0  0  0
  -13.4966    0.7048    5.2532 C   0  0  0  0  0  0  0  0  0  0  0  0
  -13.9147    2.0629    5.1823 O   0  0  0  0  0  0  0  0  0  0  0  0
  -14.0711    2.9788    6.4660 P   0  0  0  0  0  0  0  0  0  0  0  0
  -13.1340    2.5589    7.5325 O   0  0  0  0  0  0  0  0  0  0  0  0
  -14.1159    4.4071    6.0849 O   0  5  0  0  0  0  0  0  0  0  0  0
  -15.5233    2.6197    7.0111 O   0  5  0  0  0  0  0  0  0  0  0  0
  1 18  1  0  0  0  0
  1  2  1  0  0  0  0
  2  4  1  0  0  0  0
  2  3  2  0  0  0  0
  4  5  1  0  0  0  0
  5  7  1  0  0  0  0
  5  6  2  0  0  0  0
  7 18  2  0  0  0  0
  7  8  1  0  0  0  0
  8  9  1  0  0  0  0
  9 10  2  0  0  0  0
  9 16  1  0  0  0  0
 10 11  1  0  0  0  0
 11 12  1  0  0  0  0
 11 13  2  0  0  0  0
 13 14  1  0  0  0  0
 13 15  1  0  0  0  0
 15 16  2  0  0  0  0
 16 17  1  0  0  0  0
 17 19  1  0  0  0  0
 17 18  1  0  0  0  0
 20 19  1  6  0  0  0
 20 22  1  0  0  0  0
 20 21  1  0  0  0  0
 22 24  1  0  0  0  0
 22 23  1  6  0  0  0
 24 26  1  1  0  0  0
 24 25  1  0  0  0  0
 26 27  1  0  0  0  0
 27 28  1  0  0  0  0
 28 30  1  0  0  0  0
 28 29  2  0  0  0  0
 28 31  1  0  0  0  0
M  CHG  2  30  -1  31  -1
M  END
>  <CHROM.1>
52.17901922,54.56704330,-76.38091545,66.85970030,15.58277030,67.81662734
79.48913409,62.95379441,174.21780357,29.26380180,-12.11982911,-1.47892592
2.07938684,0.85909977,1.06983800,-1.65757209

>  <Name>
1fmn_cryst

>  <RI>
0

>  <Rbt.Current_Directory>
/home/itssahil/PROJECTS/Mol_Feturizer/New_Systems/rnas/1fmn

>  <Rbt.Executable>
rbdock ($Id: //depot/dev/client3/rdock/2013.1/src/exe/rbdock.cxx#4 $)

>  <Rbt.Library>
libRbt.so (2013.1, Build901 2013/11/27)

>  <Rbt.Parameter_File>
/export/apps/rDock/src/rDock_2013.1_src/data/scripts/dock_solv.prm

>  <Rbt.Receptor>
prm/blind_docking_100.prm

>  <SCORE>
-19.1914

>  <SCORE.INTER>
-19.9053

>  <SCORE.INTER.CONST>
1

>  <SCORE.INTER.POLAR>
-1.25879

>  <SCORE.INTER.ROT>
7

>  <SCORE.INTER.SOLV>
26.7856

>  <SCORE.INTER.VDW>
-26.2694

>  <SCORE.INTER.norm>
-0.642105

>  <SCORE.INTRA>
-3.48723

>  <SCORE.INTRA.DIHEDRAL>
-5.38521

>  <SCORE.INTRA.DIHEDRAL.0>
15.5708

>  <SCORE.INTRA.POLAR>
0.0677604

>  <SCORE.INTRA.POLAR.0>
-0.0677885

>  <SCORE.INTRA.REPUL>
0

>  <SCORE.INTRA.REPUL.0>
0

>  <SCORE.INTRA.SOLV>
-4.48085

>  <SCORE.INTRA.SOLV.lig_0>
-87.6316

>  <SCORE.INTRA.VDW>
1.21541

>  <SCORE.INTRA.VDW.0>
-2.87309

>  <SCORE.INTRA.norm>
-0.112491

>  <SCORE.RESTR>
4.20112

>  <SCORE.RESTR.CAVITY>
4.20112

>  <SCORE.RESTR.norm>
0.13552

>  <SCORE.SYSTEM>
0

>  <SCORE.SYSTEM.CONST>
0

>  <SCORE.SYSTEM.DIHEDRAL>
0

>  <SCORE.SYSTEM.SOLV>
0

>  <SCORE.SYSTEM.norm>
0

>  <SCORE.heavy>
31

>  <SCORE.norm>
-0.619077

>  <SYMMETRIC_BONDS>
33 34 3

>  <RMSD>
9.893

$$$$
1fmn_cryst
 OpenBabel11021811393D
libRbt.so/2013.1/901 2013/11/27
 31 33  0  0  0  0  0  0  0  0999 V2000
  -11.7789   -2.8896   -2.4126 N   0  0  0  0  0  0  0  0  0  0  0  0
  -11.3526   -2.8317   -3.7189 C   0  0  0  0  0  0  0  0  0  0  0  0
  -12.0384   -2.3250   -4.6074 O   0  0  0  0  0  0  0  0  0  0  0  0
  -10.0781   -3.3958   -3.9775 N   0  0  0  0  0  0  0  0  0  0  0  0
   -9.2177   -4.0038   -3.0371 C   0  0  0  0  0  0  0  0  0  0  0  0
   -8.1249   -4.4565   -3.4007 O   0  0  0  0  0  0  0  0  0  0  0  0
   -9.7438   -4.0266   -1.6705 C   0  0  0  0  0  0  0  0  0  0  0  0
   -8.9668   -4.6009   -0.6955 N   0  0  0  0  0  0  0  0  0  0  0  0
   -9.5308   -4.7832    0.5338 C   0  0  0  0  0  0  0  0  0  0  0  0
   -8.8251   -5.5244    1.4650 C   0  0  0  0  0  0  0  0  0  0  0  0
   -9.3227   -5.7451    2.7039 C   0  0  0  0  0  0  0  0  0  0  0  0
   -8.5183   -6.5503    3.6740 C   0  0  0  0  0  0  0  0  0  0  0  0
  -10.5353   -5.2397    3.0578 C   0  0  0  0  0  0  0  0  0  0  0  0
  -11.0801   -5.4940    4.4255 C   0  0  0  0  0  0  0  0  0  0  0  0
  -11.2629   -4.5059    2.1775 C   0  0  0  0  0  0  0  0  0  0  0  0
  -10.7953   -4.2490    0.8887 C   0  0  0  0  0  0  0  0  0  0  0  0
  -11.4974   -3.4926   -0.0730 N   0  0  0  0  0  0  0  0  0  0  0  0
  -11.0410   -3.4496   -1.4064 C   0  0  0  0  0  0  0  0  0  0  0  0
  -12.3333   -2.3324    0.4102 C   0  0  0  0  0  0  0  0  0  0  0  0
  -11.8580   -1.6358    1.7213 C   0  0  1  0  0  0  0  0  0  0  0  0
  -10.9902   -0.5540    1.4138 O   0  0  0  0  0  0  0  0  0  0  0  0
  -13.0253   -1.2029    2.6400 C   0  0  1  0  0  0  0  0  0  0  0  0
  -13.2354   -2.1735    3.6614 O   0  0  0  0  0  0  0  0  0  0  0  0
  -12.9373    0.2106    3.2661 C   0  0  1  0  0  0  0  0  0  0  0  0
  -13.4609    1.1489    2.3326 O   0  0  0  0  0  0  0  0  0  0  0  0
  -13.7249    0.3335    4.5898 C   0  0  0  0  0  0  0  0  0  0  0  0
  -13.6884    1.6518    5.1236 O   0  0  0  0  0  0  0  0  0  0  0  0
  -14.6995    2.7861    4.6738 P   0  0  0  0  0  0  0  0  0  0  0  0
  -14.2784    3.3909    3.3897 O   0  0  0  0  0  0  0  0  0  0  0  0
  -16.0973    2.3240    4.8140 O   0  5  0  0  0  0  0  0  0  0  0  0
  -14.4978    3.9263    5.7666 O   0  5  0  0  0  0  0  0  0  0  0  0
  1 18  1  0  0  0  0
  1  2  1  0  0  0  0
  2  4  1  0  0  0  0
  2  3  2  0  0  0  0
  4  5  1  0  0  0  0
  5  7  1  0  0  0  0
  5  6  2  0  0  0  0
  7 18  2  0  0  0  0
  7  8  1  0  0  0  0
  8  9  1  0  0  0  0
  9 10  2  0  0  0  0
  9 16  1  0  0  0  0
 10 11  1  0  0  0  0
 11 12  1  0  0  0  0
 11 13  2  0  0  0  0
 13 14  1  0  0  0  0
 13 15  1  0  0  0  0
 15 16  2  0  0  0  0
 16 17  1  0  0  0  0
 17 19  1  0  0  0  0
 17 18  1  0  0  0  0
 20 19  1  6  0  0  0
 20 22  1  0  0  0  0
 20 21  1  0  0  0  0
 22 24  1  0  0  0  0
 22 23  1  1  0  0  0
 24 26  1  1  0  0  0
 24 25  1  0  0  0  0
 26 27  1  0  0  0  0
 27 28  1  0  0  0  0
 28 30  1  0  0  0  0
 28 29  2  0  0  0  0
 28 31  1  0  0  0  0
M  CHG  2  30  -1  31  -1
M  END
>  <CHROM.1>
28.70872039,91.69363789,97.80071013,54.23193083,85.23362806,-59.57217204
-177.26740269,-59.37994130,85.02658193,-80.29260869,-11.77347848,-1.90015851
1.41277899,0.47496914,1.02418055,-1.38519206

>  <Name>
1fmn_cryst

>  <RI>
0

>  <Rbt.Current_Directory>
/home/itssahil/PROJECTS/Mol_Feturizer/New_Systems/rnas/1fmn

>  <Rbt.Executable>
rbdock ($Id: //depot/dev/client3/rdock/2013.1/src/exe/rbdock.cxx#4 $)

>  <Rbt.Library>
libRbt.so (2013.1, Build901 2013/11/27)

>  <Rbt.Parameter_File>
/export/apps/rDock/src/rDock_2013.1_src/data/scripts/dock_solv.prm

>  <Rbt.Receptor>
prm/blind_docking_40.prm

>  <SCORE>
-33.6274

>  <SCORE.INTER>
-33.9411

>  <SCORE.INTER.CONST>
1

>  <SCORE.INTER.POLAR>
-0.656093

>  <SCORE.INTER.ROT>
7

>  <SCORE.INTER.SOLV>
20.5495

>  <SCORE.INTER.VDW>
-35.5569

>  <SCORE.INTER.norm>
-1.09487

>  <SCORE.INTRA>
0.173453

>  <SCORE.INTRA.DIHEDRAL>
-1.58468

>  <SCORE.INTRA.DIHEDRAL.0>
15.5708

>  <SCORE.INTRA.POLAR>
0.0677885

>  <SCORE.INTRA.POLAR.0>
-0.0677885

>  <SCORE.INTRA.REPUL>
0

>  <SCORE.INTRA.REPUL.0>
0

>  <SCORE.INTRA.SOLV>
-1.14803

>  <SCORE.INTRA.SOLV.lig_0>
-87.6316

>  <SCORE.INTRA.VDW>
1.30933

>  <SCORE.INTRA.VDW.0>
-2.87309

>  <SCORE.INTRA.norm>
0.00559526

>  <SCORE.RESTR>
0.14024

>  <SCORE.RESTR.CAVITY>
0.14024

>  <SCORE.RESTR.norm>
0.00452387

>  <SCORE.SYSTEM>
0

>  <SCORE.SYSTEM.CONST>
0

>  <SCORE.SYSTEM.DIHEDRAL>
0

>  <SCORE.SYSTEM.SOLV>
0

>  <SCORE.SYSTEM.norm>
0

>  <SCORE.heavy>
31

>  <SCORE.norm>
-1.08476

>  <SYMMETRIC_BONDS>
33 34 3

>  <RMSD>
9.904

$$$$
1fmn_cryst
 OpenBabel11021811393D
libRbt.so/2013.1/901 2013/11/27
 31 33  0  0  0  0  0  0  0  0999 V2000
  -12.3189   -2.6308   -2.4440 N   0  0  0  0  0  0  0  0  0  0  0  0
  -11.9324   -2.5750   -3.7627 C   0  0  0  0  0  0  0  0  0  0  0  0
  -12.6495   -2.0796   -4.6326 O   0  0  0  0  0  0  0  0  0  0  0  0
  -10.6605   -3.1276   -4.0566 N   0  0  0  0  0  0  0  0  0  0  0  0
   -9.7662   -3.7223   -3.1397 C   0  0  0  0  0  0  0  0  0  0  0  0
   -8.6802   -4.1658   -3.5336 O   0  0  0  0  0  0  0  0  0  0  0  0
  -10.2511   -3.7436   -1.7578 C   0  0  0  0  0  0  0  0  0  0  0  0
   -9.4395   -4.3053   -0.8038 N   0  0  0  0  0  0  0  0  0  0  0  0
   -9.9646   -4.4872    0.4426 C   0  0  0  0  0  0  0  0  0  0  0  0
   -9.2240   -5.2167    1.3557 C   0  0  0  0  0  0  0  0  0  0  0  0
   -9.6821   -5.4362    2.6100 C   0  0  0  0  0  0  0  0  0  0  0  0
   -8.8409   -6.2285    3.5593 C   0  0  0  0  0  0  0  0  0  0  0  0
  -10.8886   -4.9413    2.9976 C   0  0  0  0  0  0  0  0  0  0  0  0
  -11.3898   -5.1943    4.3822 C   0  0  0  0  0  0  0  0  0  0  0  0
  -11.6496   -4.2191    2.1361 C   0  0  0  0  0  0  0  0  0  0  0  0
  -11.2234   -3.9640    0.8327 C   0  0  0  0  0  0  0  0  0  0  0  0
  -11.9615   -3.2194   -0.1111 N   0  0  0  0  0  0  0  0  0  0  0  0
  -11.5456   -3.1784   -1.4577 C   0  0  0  0  0  0  0  0  0  0  0  0
  -12.7944   -2.0652    0.3915 C   0  0  0  0  0  0  0  0  0  0  0  0
  -12.0294   -0.9390    1.1509 C   0  0  1  0  0  0  0  0  0  0  0  0
  -12.0080    0.2488    0.3721 O   0  0  0  0  0  0  0  0  0  0  0  0
  -12.5707   -0.6894    2.5787 C   0  0  1  0  0  0  0  0  0  0  0  0
  -12.5759   -1.9037    3.3237 O   0  0  0  0  0  0  0  0  0  0  0  0
  -11.8878    0.4308    3.4013 C   0  0  1  0  0  0  0  0  0  0  0  0
  -11.5511    1.4951    2.5182 O   0  0  0  0  0  0  0  0  0  0  0  0
  -12.7881    0.9853    4.5280 C   0  0  0  0  0  0  0  0  0  0  0  0
  -13.9533    1.6288    4.0256 O   0  0  0  0  0  0  0  0  0  0  0  0
  -15.0171    2.3311    4.9670 P   0  0  0  0  0  0  0  0  0  0  0  0
  -14.4928    3.6114    5.4942 O   0  0  0  0  0  0  0  0  0  0  0  0
  -16.3564    2.3189    4.3401 O   0  5  0  0  0  0  0  0  0  0  0  0
  -15.1075    1.3592    6.2249 O   0  5  0  0  0  0  0  0  0  0  0  0
  1 18  1  0  0  0  0
  1  2  1  0  0  0  0
  2  4  1  0  0  0  0
  2  3  2  0  0  0  0
  4  5  1  0  0  0  0
  5  7  1  0  0  0  0
  5  6  2  0  0  0  0
  7 18  2  0  0  0  0
  7  8  1  0  0  0  0
  8  9  1  0  0  0  0
  9 10  2  0  0  0  0
  9 16  1  0  0  0  0
 10 11  1  0  0  0  0
 11 12  1  0  0  0  0
 11 13  2  0  0  0  0
 13 14  1  0  0  0  0
 13 15  1  0  0  0  0
 15 16  2  0  0  0  0
 16 17  1  0  0  0  0
 17 19  1  0  0  0  0
 17 18  1  0  0  0  0
 20 19  1  6  0  0  0
 20 22  1  0  0  0  0
 20 21  1  0  0  0  0
 22 24  1  0  0  0  0
 22 23  1  1  0  0  0
 24 26  1  1  0  0  0
 24 25  1  0  0  0  0
 26 27  1  0  0  0  0
 27 28  1  0  0  0  0
 28 30  1  0  0  0  0
 28 29  2  0  0  0  0
 28 31  1  0  0  0  0
M  CHG  2  30  -1  31  -1
M  END
>  <CHROM.1>
58.81513207,110.57179534,54.59288116,-63.62081555,36.79390422,161.95324969
-64.18667702,59.57687796,-177.69056621,73.92955131,-11.98105376,-1.73918106
1.37083473,0.64356290,1.01602656,-1.46391108

>  <Name>
1fmn_cryst

>  <RI>
0

>  <Rbt.Current_Directory>
/home/itssahil/PROJECTS/Mol_Feturizer/New_Systems/rnas/1fmn

>  <Rbt.Executable>
rbdock ($Id: //depot/dev/client3/rdock/2013.1/src/exe/rbdock.cxx#4 $)

>  <Rbt.Library>
libRbt.so (2013.1, Build901 2013/11/27)

>  <Rbt.Parameter_File>
/export/apps/rDock/src/rDock_2013.1_src/data/scripts/dock_solv.prm

>  <Rbt.Receptor>
prm/blind_docking_20.prm

>  <SCORE>
-33.735

>  <SCORE.INTER>
-34.6948

>  <SCORE.INTER.CONST>
1

>  <SCORE.INTER.POLAR>
-1.6835

>  <SCORE.INTER.ROT>
7

>  <SCORE.INTER.SOLV>
20.8423

>  <SCORE.INTER.VDW>
-32.7323

>  <SCORE.INTER.norm>
-1.11919

>  <SCORE.INTRA>
-2.89285

>  <SCORE.INTRA.DIHEDRAL>
-5.03957

>  <SCORE.INTRA.DIHEDRAL.0>
15.5708

>  <SCORE.INTRA.POLAR>
0.0677885

>  <SCORE.INTRA.POLAR.0>
-0.0677885

>  <SCORE.INTRA.REPUL>
0

>  <SCORE.INTRA.REPUL.0>
0

>  <SCORE.INTRA.SOLV>
-3.78964

>  <SCORE.INTRA.SOLV.lig_0>
-87.6316

>  <SCORE.INTRA.VDW>
1.29127

>  <SCORE.INTRA.VDW.0>
-2.87309

>  <SCORE.INTRA.norm>
-0.0933179

>  <SCORE.RESTR>
3.85267

>  <SCORE.RESTR.CAVITY>
3.85267

>  <SCORE.RESTR.norm>
0.12428

>  <SCORE.SYSTEM>
0

>  <SCORE.SYSTEM.CONST>
0

>  <SCORE.SYSTEM.DIHEDRAL>
0

>  <SCORE.SYSTEM.SOLV>
0

>  <SCORE.SYSTEM.norm>
0

>  <SCORE.heavy>
31

>  <SCORE.norm>
-1.08823

>  <SYMMETRIC_BONDS>
33 34 3

>  <RMSD>
9.906

$$$$
1fmn_cryst
 OpenBabel11021811393D
libRbt.so/2013.1/901 2013/11/27
 31 33  0  0  0  0  0  0  0  0999 V2000
  -11.8022   -2.8370   -2.5400 N   0  0  0  0  0  0  0  0  0  0  0  0
  -11.3421   -2.8189   -3.8359 C   0  0  0  0  0  0  0  0  0  0  0  0
  -11.9920   -2.3147   -4.7523 O   0  0  0  0  0  0  0  0  0  0  0  0
  -10.0766   -3.4209   -4.0496 N   0  0  0  0  0  0  0  0  0  0  0  0
   -9.2561   -4.0297   -3.0748 C   0  0  0  0  0  0  0  0  0  0  0  0
   -8.1667   -4.5180   -3.4005 O   0  0  0  0  0  0  0  0  0  0  0  0
   -9.8166   -4.0088   -1.7218 C   0  0  0  0  0  0  0  0  0  0  0  0
   -9.0794   -4.5809   -0.7152 N   0  0  0  0  0  0  0  0  0  0  0  0
   -9.6785   -4.7215    0.5030 C   0  0  0  0  0  0  0  0  0  0  0  0
   -9.0159   -5.4597    1.4675 C   0  0  0  0  0  0  0  0  0  0  0  0
   -9.5498   -5.6401    2.6979 C   0  0  0  0  0  0  0  0  0  0  0  0
   -8.7912   -6.4439    3.7053 C   0  0  0  0  0  0  0  0  0  0  0  0
  -10.7573   -5.0963    3.0097 C   0  0  0  0  0  0  0  0  0  0  0  0
  -11.3426   -5.3063    4.3682 C   0  0  0  0  0  0  0  0  0  0  0  0
  -11.4433   -4.3638    2.0955 C   0  0  0  0  0  0  0  0  0  0  0  0
  -10.9372   -4.1476    0.8139 C   0  0  0  0  0  0  0  0  0  0  0  0
  -11.5951   -3.3950   -0.1815 N   0  0  0  0  0  0  0  0  0  0  0  0
  -11.1046   -3.3933   -1.5034 C   0  0  0  0  0  0  0  0  0  0  0  0
  -12.4123   -2.2035    0.2551 C   0  0  0  0  0  0  0  0  0  0  0  0
  -12.1342   -1.6622    1.6904 C   0  0  1  0  0  0  0  0  0  0  0  0
  -10.9344   -0.9019    1.7026 O   0  0  0  0  0  0  0  0  0  0  0  0
  -13.3266   -0.8782    2.2885 C   0  0  1  0  0  0  0  0  0  0  0  0
  -13.1341   -0.6777    3.6857 O   0  0  0  0  0  0  0  0  0  0  0  0
  -13.6945    0.4637    1.6090 C   0  0  1  0  0  0  0  0  0  0  0  0
  -13.8211    0.2388    0.2093 O   0  0  0  0  0  0  0  0  0  0  0  0
  -15.0164    1.0644    2.1379 C   0  0  0  0  0  0  0  0  0  0  0  0
  -14.9838    1.2989    3.5407 O   0  0  0  0  0  0  0  0  0  0  0  0
  -14.1148    2.4505    4.1965 P   0  0  0  0  0  0  0  0  0  0  0  0
  -12.6891    2.3160    3.8208 O   0  0  0  0  0  0  0  0  0  0  0  0
  -14.7722    3.7636    4.0215 O   0  5  0  0  0  0  0  0  0  0  0  0
  -14.1757    2.1283    5.7545 O   0  5  0  0  0  0  0  0  0  0  0  0
  1 18  1  0  0  0  0
  1  2  1  0  0  0  0
  2  4  1  0  0  0  0
  2  3  2  0  0  0  0
  4  5  1  0  0  0  0
  5  7  1  0  0  0  0
  5  6  2  0  0  0  0
  7 18  2  0  0  0  0
  7  8  1  0  0  0  0
  8  9  1  0  0  0  0
  9 10  2  0  0  0  0
  9 16  1  0  0  0  0
 10 11  1  0  0  0  0
 11 12  1  0  0  0  0
 11 13  2  0  0  0  0
 13 14  1  0  0  0  0
 13 15  1  0  0  0  0
 15 16  2  0  0  0  0
 16 17  1  0  0  0  0
 17 19  1  0  0  0  0
 17 18  1  0  0  0  0
 20 19  1  6  0  0  0
 20 22  1  0  0  0  0
 20 21  1  0  0  0  0
 22 24  1  0  0  0  0
 22 23  1  1  0  0  0
 24 26  1  1  0  0  0
 24 25  1  0  0  0  0
 26 27  1  0  0  0  0
 27 28  1  0  0  0  0
 28 30  1  0  0  0  0
 28 29  2  0  0  0  0
 28 31  1  0  0  0  0
M  CHG  2  30  -1  31  -1
M  END
>  <CHROM.1>
17.15567104,77.28610343,166.81850937,-163.90085958,50.81701271,-48.87613582
58.53840966,-76.64017499,71.13625885,-56.29768250,-11.80927867,-1.90493118
1.08123754,0.51786547,1.00958529,-1.45612452

>  <Name>
1fmn_cryst

>  <RI>
0

>  <Rbt.Current_Directory>
/home/itssahil/PROJECTS/Mol_Feturizer/New_Systems/rnas/1fmn

>  <Rbt.Executable>
rbdock ($Id: //depot/dev/client3/rdock/2013.1/src/exe/rbdock.cxx#4 $)

>  <Rbt.Library>
libRbt.so (2013.1, Build901 2013/11/27)

>  <Rbt.Parameter_File>
/export/apps/rDock/src/rDock_2013.1_src/data/scripts/dock_solv.prm

>  <Rbt.Receptor>
prm/blind_docking_40.prm

>  <SCORE>
-40.1721

>  <SCORE.INTER>
-38.7193

>  <SCORE.INTER.CONST>
1

>  <SCORE.INTER.POLAR>
-1.82975

>  <SCORE.INTER.ROT>
7

>  <SCORE.INTER.SOLV>
20.6088

>  <SCORE.INTER.VDW>
-34.8499

>  <SCORE.INTER.norm>
-1.24901

>  <SCORE.INTRA>
-1.79583

>  <SCORE.INTRA.DIHEDRAL>
-7.08987

>  <SCORE.INTRA.DIHEDRAL.0>
15.5708

>  <SCORE.INTRA.POLAR>
0.0677885

>  <SCORE.INTRA.POLAR.0>
-0.0677885

>  <SCORE.INTRA.REPUL>
0

>  <SCORE.INTRA.REPUL.0>
0

>  <SCORE.INTRA.SOLV>
0.0301788

>  <SCORE.INTRA.SOLV.lig_0>
-87.6316

>  <SCORE.INTRA.VDW>
1.50353

>  <SCORE.INTRA.VDW.0>
-2.87309

>  <SCORE.INTRA.norm>
-0.0579302

>  <SCORE.RESTR>
0.343044

>  <SCORE.RESTR.CAVITY>
0.343044

>  <SCORE.RESTR.norm>
0.0110659

>  <SCORE.SYSTEM>
0

>  <SCORE.SYSTEM.CONST>
0

>  <SCORE.SYSTEM.DIHEDRAL>
0

>  <SCORE.SYSTEM.SOLV>
0

>  <SCORE.SYSTEM.norm>
0

>  <SCORE.heavy>
31

>  <SCORE.norm>
-1.29587

>  <SYMMETRIC_BONDS>
33 34 3

>  <RMSD>
9.909

$$$$
1fmn_cryst
 OpenBabel11021811393D
libRbt.so/2013.1/901 2013/11/27
 31 33  0  0  0  0  0  0  0  0999 V2000
  -12.6710   -2.3582   -0.9931 N   0  0  0  0  0  0  0  0  0  0  0  0
  -12.9162   -2.1741   -2.3338 C   0  0  0  0  0  0  0  0  0  0  0  0
  -13.8402   -1.4669   -2.7373 O   0  0  0  0  0  0  0  0  0  0  0  0
  -12.0422   -2.8529   -3.2197 N   0  0  0  0  0  0  0  0  0  0  0  0
  -10.9613   -3.6888   -2.8633 C   0  0  0  0  0  0  0  0  0  0  0  0
  -10.2740   -4.2208   -3.7442 O   0  0  0  0  0  0  0  0  0  0  0  0
  -10.7670   -3.8342   -1.4189 C   0  0  0  0  0  0  0  0  0  0  0  0
   -9.7353   -4.6313   -0.9894 N   0  0  0  0  0  0  0  0  0  0  0  0
   -9.6675   -4.9095    0.3450 C   0  0  0  0  0  0  0  0  0  0  0  0
   -8.7477   -5.8555    0.7617 C   0  0  0  0  0  0  0  0  0  0  0  0
   -8.6249   -6.1812    2.0695 C   0  0  0  0  0  0  0  0  0  0  0  0
   -7.6130   -7.2078    2.4676 C   0  0  0  0  0  0  0  0  0  0  0  0
   -9.4106   -5.5810    3.0041 C   0  0  0  0  0  0  0  0  0  0  0  0
   -9.2730   -5.9516    4.4449 C   0  0  0  0  0  0  0  0  0  0  0  0
  -10.3262   -4.6466    2.6419 C   0  0  0  0  0  0  0  0  0  0  0  0
  -10.4923   -4.2747    1.3078 C   0  0  0  0  0  0  0  0  0  0  0  0
  -11.4207   -3.3100    0.8636 N   0  0  0  0  0  0  0  0  0  0  0  0
  -11.6556   -3.1406   -0.5163 C   0  0  0  0  0  0  0  0  0  0  0  0
  -11.7041   -2.1320    1.7637 C   0  0  0  0  0  0  0  0  0  0  0  0
  -13.2058   -1.7825    1.9938 C   0  0  1  0  0  0  0  0  0  0  0  0
  -13.6641   -2.3663    3.2050 O   0  0  0  0  0  0  0  0  0  0  0  0
  -13.4950   -0.2637    1.9335 C   0  0  1  0  0  0  0  0  0  0  0  0
  -13.7098    0.2502    3.2447 O   0  0  0  0  0  0  0  0  0  0  0  0
  -12.4646    0.6168    1.1845 C   0  0  1  0  0  0  0  0  0  0  0  0
  -12.1413   -0.0191   -0.0472 O   0  0  0  0  0  0  0  0  0  0  0  0
  -12.9905    2.0390    0.8870 C   0  0  0  0  0  0  0  0  0  0  0  0
  -13.2287    2.2513   -0.4995 O   0  0  0  0  0  0  0  0  0  0  0  0
  -12.0753    2.6290   -1.5185 P   0  0  0  0  0  0  0  0  0  0  0  0
  -10.8003    1.9796   -1.1381 O   0  0  0  0  0  0  0  0  0  0  0  0
  -12.5483    2.4972   -2.9134 O   0  5  0  0  0  0  0  0  0  0  0  0
  -11.8490    4.1856   -1.2722 O   0  5  0  0  0  0  0  0  0  0  0  0
  1 18  1  0  0  0  0
  1  2  1  0  0  0  0
  2  4  1  0  0  0  0
  2  3  2  0  0  0  0
  4  5  1  0  0  0  0
  5  7  1  0  0  0  0
  5  6  2  0  0  0  0
  7 18  2  0  0  0  0
  7  8  1  0  0  0  0
  8  9  1  0  0  0  0
  9 10  2  0  0  0  0
  9 16  1  0  0  0  0
 10 11  1  0  0  0  0
 11 12  1  0  0  0  0
 11 13  2  0  0  0  0
 13 14  1  0  0  0  0
 13 15  1  0  0  0  0
 15 16  2  0  0  0  0
 16 17  1  0  0  0  0
 17 19  1  0  0  0  0
 17 18  1  0  0  0  0
 20 19  1  1  0  0  0
 20 22  1  0  0  0  0
 20 21  1  0  0  0  0
 22 24  1  0  0  0  0
 22 23  1  1  0  0  0
 24 26  1  6  0  0  0
 24 25  1  0  0  0  0
 26 27  1  0  0  0  0
 27 28  1  0  0  0  0
 28 30  1  0  0  0  0
 28 29  2  0  0  0  0
 28 31  1  0  0  0  0
M  CHG  2  30  -1  31  -1
M  END
>  <CHROM.1>
-132.29886016,96.51140710,-105.15254693,-48.33514900,45.77194518,-57.91407306
-110.34690544,64.47036336,-81.79473599,33.82460568,-11.52311519,-1.81201287
0.09844277,-2.63512000,-1.14621223,1.77905594

>  <Name>
1fmn_cryst

>  <RI>
0

>  <Rbt.Current_Directory>
/home/itssahil/PROJECTS/Mol_Feturizer/New_Systems/rnas/1fmn

>  <Rbt.Executable>
rbdock ($Id: //depot/dev/client3/rdock/2013.1/src/exe/rbdock.cxx#4 $)

>  <Rbt.Library>
libRbt.so (2013.1, Build901 2013/11/27)

>  <Rbt.Parameter_File>
/export/apps/rDock/src/rDock_2013.1_src/data/scripts/dock_solv.prm

>  <Rbt.Receptor>
prm/blind_docking_20.prm

>  <SCORE>
-11.4514

>  <SCORE.INTER>
-20.1641

>  <SCORE.INTER.CONST>
1

>  <SCORE.INTER.POLAR>
-2.06656

>  <SCORE.INTER.ROT>
7

>  <SCORE.INTER.SOLV>
24.6856

>  <SCORE.INTER.VDW>
-23.0494

>  <SCORE.INTER.norm>
-0.650453

>  <SCORE.INTRA>
5.46766

>  <SCORE.INTRA.DIHEDRAL>
3.36322

>  <SCORE.INTRA.DIHEDRAL.0>
15.5708

>  <SCORE.INTRA.POLAR>
0.0677885

>  <SCORE.INTRA.POLAR.0>
-0.0677885

>  <SCORE.INTRA.REPUL>
0

>  <SCORE.INTRA.REPUL.0>
0

>  <SCORE.INTRA.SOLV>
1.35406

>  <SCORE.INTRA.SOLV.lig_0>
-87.6316

>  <SCORE.INTRA.VDW>
2.87854

>  <SCORE.INTRA.VDW.0>
-2.87309

>  <SCORE.INTRA.norm>
0.176376

>  <SCORE.RESTR>
3.24496

>  <SCORE.RESTR.CAVITY>
3.24496

>  <SCORE.RESTR.norm>
0.104676

>  <SCORE.SYSTEM>
0

>  <SCORE.SYSTEM.CONST>
0

>  <SCORE.SYSTEM.DIHEDRAL>
0

>  <SCORE.SYSTEM.SOLV>
0

>  <SCORE.SYSTEM.norm>
0

>  <SCORE.heavy>
31

>  <SCORE.norm>
-0.369401

>  <SYMMETRIC_BONDS>
33 34 3

>  <RMSD>
9.917

$$$$
1fmn_cryst
 OpenBabel11021811393D
libRbt.so/2013.1/901 2013/11/27
 31 33  0  0  0  0  0  0  0  0999 V2000
  -11.1933   -3.6206   -3.1057 N   0  0  0  0  0  0  0  0  0  0  0  0
  -10.5662   -3.7447   -4.3234 C   0  0  0  0  0  0  0  0  0  0  0  0
  -11.1029   -3.3889   -5.3732 O   0  0  0  0  0  0  0  0  0  0  0  0
   -9.2674   -4.3118   -4.2935 N   0  0  0  0  0  0  0  0  0  0  0  0
   -8.5666   -4.7563   -3.1509 C   0  0  0  0  0  0  0  0  0  0  0  0
   -7.4306   -5.2327   -3.2684 O   0  0  0  0  0  0  0  0  0  0  0  0
   -9.3018   -4.5908   -1.8950 C   0  0  0  0  0  0  0  0  0  0  0  0
   -8.6888   -4.9988   -0.7366 N   0  0  0  0  0  0  0  0  0  0  0  0
   -9.4398   -5.0120    0.4029 C   0  0  0  0  0  0  0  0  0  0  0  0
   -8.8904   -5.5931    1.5321 C   0  0  0  0  0  0  0  0  0  0  0  0
   -9.5774   -5.6414    2.6970 C   0  0  0  0  0  0  0  0  0  0  0  0
   -8.9368   -6.2778    3.8891 C   0  0  0  0  0  0  0  0  0  0  0  0
  -10.8302   -5.1170    2.7785 C   0  0  0  0  0  0  0  0  0  0  0  0
  -11.5842   -5.1808    4.0668 C   0  0  0  0  0  0  0  0  0  0  0  0
  -11.4092   -4.5363    1.6967 C   0  0  0  0  0  0  0  0  0  0  0  0
  -10.7440   -4.4603    0.4730 C   0  0  0  0  0  0  0  0  0  0  0  0
  -11.2849   -3.8685   -0.6877 N   0  0  0  0  0  0  0  0  0  0  0  0
  -10.6239   -4.0108   -1.9250 C   0  0  0  0  0  0  0  0  0  0  0  0
  -12.1855   -2.6692   -0.5179 C   0  0  0  0  0  0  0  0  0  0  0  0
  -12.3646   -2.1388    0.9370 C   0  0  1  0  0  0  0  0  0  0  0  0
  -11.0966   -1.8826    1.5239 O   0  0  0  0  0  0  0  0  0  0  0  0
  -13.3067   -0.9149    1.0287 C   0  0  1  0  0  0  0  0  0  0  0  0
  -14.5962   -1.2457    0.5213 O   0  0  0  0  0  0  0  0  0  0  0  0
  -13.4432   -0.2377    2.4146 C   0  0  1  0  0  0  0  0  0  0  0  0
  -13.0399   -1.1698    3.4118 O   0  0  0  0  0  0  0  0  0  0  0  0
  -12.5824    1.0384    2.5492 C   0  0  0  0  0  0  0  0  0  0  0  0
  -13.1992    2.1751    1.9564 O   0  0  0  0  0  0  0  0  0  0  0  0
  -14.5123    2.8404    2.5433 P   0  0  0  0  0  0  0  0  0  0  0  0
  -15.6720    1.9299    2.4084 O   0  0  0  0  0  0  0  0  0  0  0  0
  -14.2420    3.4519    3.8624 O   0  5  0  0  0  0  0  0  0  0  0  0
  -14.8018    4.0473    1.5462 O   0  5  0  0  0  0  0  0  0  0  0  0
  1 18  1  0  0  0  0
  1  2  1  0  0  0  0
  2  4  1  0  0  0  0
  2  3  2  0  0  0  0
  4  5  1  0  0  0  0
  5  7  1  0  0  0  0
  5  6  2  0  0  0  0
  7 18  2  0  0  0  0
  7  8  1  0  0  0  0
  8  9  1  0  0  0  0
  9 10  2  0  0  0  0
  9 16  1  0  0  0  0
 10 11  1  0  0  0  0
 11 12  1  0  0  0  0
 11 13  2  0  0  0  0
 13 14  1  0  0  0  0
 13 15  1  0  0  0  0
 15 16  2  0  0  0  0
 16 17  1  0  0  0  0
 17 19  1  0  0  0  0
 17 18  1  0  0  0  0
 20 19  1  6  0  0  0
 20 22  1  0  0  0  0
 20 21  1  0  0  0  0
 22 24  1  0  0  0  0
 22 23  1  1  0  0  0
 24 26  1  6  0  0  0
 24 25  1  0  0  0  0
 26 27  1  0  0  0  0
 27 28  1  0  0  0  0
 28 30  1  0  0  0  0
 28 29  2  0  0  0  0
 28 31  1  0  0  0  0
M  CHG  2  30  -1  31  -1
M  END
>  <CHROM.1>
3.65542721,53.89996424,59.00239688,-166.84005223,-20.61129118,-179.50950073
80.92411739,178.34197348,68.17685443,-67.02652667,-11.64330580,-2.19719473
0.54063440,0.28787969,1.00692317,-1.37118550

>  <Name>
1fmn_cryst

>  <RI>
0

>  <Rbt.Current_Directory>
/home/itssahil/PROJECTS/Mol_Feturizer/New_Systems/rnas/1fmn

>  <Rbt.Executable>
rbdock ($Id: //depot/dev/client3/rdock/2013.1/src/exe/rbdock.cxx#4 $)

>  <Rbt.Library>
libRbt.so (2013.1, Build901 2013/11/27)

>  <Rbt.Parameter_File>
/export/apps/rDock/src/rDock_2013.1_src/data/scripts/dock_solv.prm

>  <Rbt.Receptor>
prm/blind_docking_40.prm

>  <SCORE>
-41.7598

>  <SCORE.INTER>
-40.3675

>  <SCORE.INTER.CONST>
1

>  <SCORE.INTER.POLAR>
-1.63653

>  <SCORE.INTER.ROT>
7

>  <SCORE.INTER.SOLV>
20.0862

>  <SCORE.INTER.VDW>
-36.4186

>  <SCORE.INTER.norm>
-1.30218

>  <SCORE.INTRA>
-1.95225

>  <SCORE.INTRA.DIHEDRAL>
-6.43732

>  <SCORE.INTRA.DIHEDRAL.0>
15.5708

>  <SCORE.INTRA.POLAR>
-0.407282

>  <SCORE.INTRA.POLAR.0>
-0.0677885

>  <SCORE.INTRA.REPUL>
0

>  <SCORE.INTRA.REPUL.0>
0

>  <SCORE.INTRA.SOLV>
-1.12738

>  <SCORE.INTRA.SOLV.lig_0>
-87.6316

>  <SCORE.INTRA.VDW>
3.21486

>  <SCORE.INTRA.VDW.0>
-2.87309

>  <SCORE.INTRA.norm>
-0.0629757

>  <SCORE.RESTR>
0.56

>  <SCORE.RESTR.CAVITY>
0.56

>  <SCORE.RESTR.norm>
0.0180645

>  <SCORE.SYSTEM>
0

>  <SCORE.SYSTEM.CONST>
0

>  <SCORE.SYSTEM.DIHEDRAL>
0

>  <SCORE.SYSTEM.SOLV>
0

>  <SCORE.SYSTEM.norm>
0

>  <SCORE.heavy>
31

>  <SCORE.norm>
-1.34709

>  <SYMMETRIC_BONDS>
33 34 3

>  <RMSD>
9.929

$$$$
1fmn_cryst
 OpenBabel11021811393D
libRbt.so/2013.1/901 2013/11/27
 31 33  0  0  0  0  0  0  0  0999 V2000
  -10.6789   -3.7010   -2.9448 N   0  0  0  0  0  0  0  0  0  0  0  0
   -9.8220   -3.9009   -4.0019 C   0  0  0  0  0  0  0  0  0  0  0  0
  -10.1427   -3.6365   -5.1611 O   0  0  0  0  0  0  0  0  0  0  0  0
   -8.5505   -4.4343   -3.6729 N   0  0  0  0  0  0  0  0  0  0  0  0
   -8.0866   -4.7765   -2.3837 C   0  0  0  0  0  0  0  0  0  0  0  0
   -6.9461   -5.2341   -2.2379 O   0  0  0  0  0  0  0  0  0  0  0  0
   -9.0573   -4.5350   -1.3139 C   0  0  0  0  0  0  0  0  0  0  0  0
   -8.6828   -4.8416   -0.0294 N   0  0  0  0  0  0  0  0  0  0  0  0
   -9.6446   -4.7873    0.9374 C   0  0  0  0  0  0  0  0  0  0  0  0
   -9.3255   -5.2701    2.1941 C   0  0  0  0  0  0  0  0  0  0  0  0
  -10.2292   -5.2474    3.2011 C   0  0  0  0  0  0  0  0  0  0  0  0
   -9.8327   -5.7786    4.5416 C   0  0  0  0  0  0  0  0  0  0  0  0
  -11.4774   -4.7473    2.9934 C   0  0  0  0  0  0  0  0  0  0  0  0
  -12.4711   -4.7323    4.1089 C   0  0  0  0  0  0  0  0  0  0  0  0
  -11.8350   -4.2620    1.7771 C   0  0  0  0  0  0  0  0  0  0  0  0
  -10.9411   -4.2619    0.7063 C   0  0  0  0  0  0  0  0  0  0  0  0
  -11.2458   -3.7706   -0.5804 N   0  0  0  0  0  0  0  0  0  0  0  0
  -10.3517   -3.9892   -1.6485 C   0  0  0  0  0  0  0  0  0  0  0  0
  -12.1715   -2.5829   -0.6847 C   0  0  0  0  0  0  0  0  0  0  0  0
  -12.5092   -1.8497    0.6489 C   0  0  1  0  0  0  0  0  0  0  0  0
  -11.3296   -1.2977    1.2161 O   0  0  0  0  0  0  0  0  0  0  0  0
  -13.6314   -0.7952    0.4982 C   0  0  1  0  0  0  0  0  0  0  0  0
  -14.9052   -1.4321    0.4601 O   0  0  0  0  0  0  0  0  0  0  0  0
  -13.6505    0.3603    1.5289 C   0  0  1  0  0  0  0  0  0  0  0  0
  -13.2790   -0.1643    2.7989 O   0  0  0  0  0  0  0  0  0  0  0  0
  -12.6844    1.5096    1.1636 C   0  0  0  0  0  0  0  0  0  0  0  0
  -12.9832    2.0895   -0.1007 O   0  0  0  0  0  0  0  0  0  0  0  0
  -12.0510    3.1705   -0.7889 P   0  0  0  0  0  0  0  0  0  0  0  0
  -12.1873    4.4863   -0.1240 O   0  0  0  0  0  0  0  0  0  0  0  0
  -10.6939    2.6250   -1.0077 O   0  5  0  0  0  0  0  0  0  0  0  0
  -12.6923    3.3565   -2.2342 O   0  5  0  0  0  0  0  0  0  0  0  0
  1 18  1  0  0  0  0
  1  2  1  0  0  0  0
  2  4  1  0  0  0  0
  2  3  2  0  0  0  0
  4  5  1  0  0  0  0
  5  7  1  0  0  0  0
  5  6  2  0  0  0  0
  7 18  2  0  0  0  0
  7  8  1  0  0  0  0
  8  9  1  0  0  0  0
  9 10  2  0  0  0  0
  9 16  1  0  0  0  0
 10 11  1  0  0  0  0
 11 12  1  0  0  0  0
 11 13  2  0  0  0  0
 13 14  1  0  0  0  0
 13 15  1  0  0  0  0
 15 16  2  0  0  0  0
 16 17  1  0  0  0  0
 17 19  1  0  0  0  0
 17 18  1  0  0  0  0
 20 19  1  6  0  0  0
 20 22  1  0  0  0  0
 20 21  1  0  0  0  0
 22 24  1  0  0  0  0
 22 23  1  1  0  0  0
 24 26  1  6  0  0  0
 24 25  1  0  0  0  0
 26 27  1  0  0  0  0
 27 28  1  0  0  0  0
 28 30  1  0  0  0  0
 28 29  2  0  0  0  0
 28 31  1  0  0  0  0
M  CHG  2  30  -1  31  -1
M  END
>  <CHROM.1>
10.42057078,62.84493552,78.21673520,77.13695832,-37.61338801,-71.38474529
59.35316454,60.96009394,-172.77305305,-74.46556958,-11.18468982,-1.97661635
-0.05928603,-0.71576114,1.02743907,-0.78690432

>  <Name>
1fmn_cryst

>  <RI>
0

>  <Rbt.Current_Directory>
/home/itssahil/PROJECTS/Mol_Feturizer/New_Systems/rnas/1fmn

>  <Rbt.Executable>
rbdock ($Id: //depot/dev/client3/rdock/2013.1/src/exe/rbdock.cxx#4 $)

>  <Rbt.Library>
libRbt.so (2013.1, Build901 2013/11/27)

>  <Rbt.Parameter_File>
/export/apps/rDock/src/rDock_2013.1_src/data/scripts/dock_solv.prm

>  <Rbt.Receptor>
prm/blind_docking_60.prm

>  <SCORE>
-43.3015

>  <SCORE.INTER>
-40.5141

>  <SCORE.INTER.CONST>
1

>  <SCORE.INTER.POLAR>
-2.7815

>  <SCORE.INTER.ROT>
7

>  <SCORE.INTER.SOLV>
26.9354

>  <SCORE.INTER.VDW>
-34.9829

>  <SCORE.INTER.norm>
-1.30691

>  <SCORE.INTRA>
-4.47658

>  <SCORE.INTRA.DIHEDRAL>
-7.9833

>  <SCORE.INTRA.DIHEDRAL.0>
15.5708

>  <SCORE.INTRA.POLAR>
-0.223646

>  <SCORE.INTRA.POLAR.0>
-0.0677885

>  <SCORE.INTRA.REPUL>
0

>  <SCORE.INTRA.REPUL.0>
0

>  <SCORE.INTRA.SOLV>
-4.42257

>  <SCORE.INTRA.SOLV.lig_0>
-87.6316

>  <SCORE.INTRA.VDW>
2.48676

>  <SCORE.INTRA.VDW.0>
-2.87309

>  <SCORE.INTRA.norm>
-0.144406

>  <SCORE.RESTR>
1.68917

>  <SCORE.RESTR.CAVITY>
1.68917

>  <SCORE.RESTR.norm>
0.0544892

>  <SCORE.SYSTEM>
0

>  <SCORE.SYSTEM.CONST>
0

>  <SCORE.SYSTEM.DIHEDRAL>
0

>  <SCORE.SYSTEM.SOLV>
0

>  <SCORE.SYSTEM.norm>
0

>  <SCORE.heavy>
31

>  <SCORE.norm>
-1.39682

>  <SYMMETRIC_BONDS>
33 34 3

>  <RMSD>
9.932

$$$$
1fmn_cryst
 OpenBabel11021811393D
libRbt.so/2013.1/901 2013/11/27
 31 33  0  0  0  0  0  0  0  0999 V2000
  -10.8947   -3.4769   -2.6809 N   0  0  0  0  0  0  0  0  0  0  0  0
  -10.2147   -3.5391   -3.8748 C   0  0  0  0  0  0  0  0  0  0  0  0
  -10.7188   -3.1629   -4.9335 O   0  0  0  0  0  0  0  0  0  0  0  0
   -8.9009   -4.0676   -3.8096 N   0  0  0  0  0  0  0  0  0  0  0  0
   -8.2339   -4.5308   -2.6543 C   0  0  0  0  0  0  0  0  0  0  0  0
   -7.0795   -4.9683   -2.7400 O   0  0  0  0  0  0  0  0  0  0  0  0
   -9.0247   -4.4319   -1.4255 C   0  0  0  0  0  0  0  0  0  0  0  0
   -8.4471   -4.8618   -0.2568 N   0  0  0  0  0  0  0  0  0  0  0  0
   -9.2434   -4.9378    0.8489 C   0  0  0  0  0  0  0  0  0  0  0  0
   -8.7228   -5.5415    1.9798 C   0  0  0  0  0  0  0  0  0  0  0  0
   -9.4550   -5.6514    3.1125 C   0  0  0  0  0  0  0  0  0  0  0  0
   -8.8441   -6.3099    4.3082 C   0  0  0  0  0  0  0  0  0  0  0  0
  -10.7260   -5.1682    3.1591 C   0  0  0  0  0  0  0  0  0  0  0  0
  -11.5297   -5.3000    4.4116 C   0  0  0  0  0  0  0  0  0  0  0  0
  -11.2782   -4.5674    2.0742 C   0  0  0  0  0  0  0  0  0  0  0  0
  -10.5661   -4.4283    0.8829 C   0  0  0  0  0  0  0  0  0  0  0  0
  -11.0774   -3.8126   -0.2788 N   0  0  0  0  0  0  0  0  0  0  0  0
  -10.3621   -3.8912   -1.4913 C   0  0  0  0  0  0  0  0  0  0  0  0
  -12.0216   -2.6476   -0.1064 C   0  0  0  0  0  0  0  0  0  0  0  0
  -12.0586   -1.9902    1.3067 C   0  0  1  0  0  0  0  0  0  0  0  0
  -11.0337   -1.0129    1.4186 O   0  0  0  0  0  0  0  0  0  0  0  0
  -13.4486   -1.4216    1.6789 C   0  0  1  0  0  0  0  0  0  0  0  0
  -13.3855   -0.7442    2.9306 O   0  0  0  0  0  0  0  0  0  0  0  0
  -14.1424   -0.5217    0.6269 C   0  0  1  0  0  0  0  0  0  0  0  0
  -15.5149   -0.3928    0.9809 O   0  0  0  0  0  0  0  0  0  0  0  0
  -13.5179    0.8887    0.5345 C   0  0  0  0  0  0  0  0  0  0  0  0
  -13.9978    1.7630    1.5491 O   0  0  0  0  0  0  0  0  0  0  0  0
  -13.5065    3.2630    1.6897 P   0  0  0  0  0  0  0  0  0  0  0  0
  -13.2314    3.8560    0.3612 O   0  0  0  0  0  0  0  0  0  0  0  0
  -14.3687    4.0077    2.6326 O   0  5  0  0  0  0  0  0  0  0  0  0
  -12.0867    3.1302    2.3977 O   0  5  0  0  0  0  0  0  0  0  0  0
  1 18  1  0  0  0  0
  1  2  1  0  0  0  0
  2  4  1  0  0  0  0
  2  3  2  0  0  0  0
  4  5  1  0  0  0  0
  5  7  1  0  0  0  0
  5  6  2  0  0  0  0
  7 18  2  0  0  0  0
  7  8  1  0  0  0  0
  8  9  1  0  0  0  0
  9 10  2  0  0  0  0
  9 16  1  0  0  0  0
 10 11  1  0  0  0  0
 11 12  1  0  0  0  0
 11 13  2  0  0  0  0
 13 14  1  0  0  0  0
 13 15  1  0  0  0  0
 15 16  2  0  0  0  0
 16 17  1  0  0  0  0
 17 19  1  0  0  0  0
 17 18  1  0  0  0  0
 20 19  1  6  0  0  0
 20 22  1  0  0  0  0
 20 21  1  0  0  0  0
 22 24  1  0  0  0  0
 22 23  1  1  0  0  0
 24 26  1  1  0  0  0
 24 25  1  0  0  0  0
 26 27  1  0  0  0  0
 27 28  1  0  0  0  0
 28 30  1  0  0  0  0
 28 29  2  0  0  0  0
 28 31  1  0  0  0  0
M  CHG  2  30  -1  31  -1
M  END
>  <CHROM.1>
15.57045198,85.62359235,-175.37590379,64.57467686,164.81437748,-159.74607675
-81.54156200,52.90258346,179.34695630,34.28438467,-11.38792605,-2.01905423
0.53787110,-0.08602681,1.02679068,-1.15954500

>  <Name>
1fmn_cryst

>  <RI>
0

>  <Rbt.Current_Directory>
/home/itssahil/PROJECTS/Mol_Feturizer/New_Systems/rnas/1fmn

>  <Rbt.Executable>
rbdock ($Id: //depot/dev/client3/rdock/2013.1/src/exe/rbdock.cxx#4 $)

>  <Rbt.Library>
libRbt.so (2013.1, Build901 2013/11/27)

>  <Rbt.Parameter_File>
/export/apps/rDock/src/rDock_2013.1_src/data/scripts/dock_solv.prm

>  <Rbt.Receptor>
prm/blind_docking_40.prm

>  <SCORE>
-40.3527

>  <SCORE.INTER>
-38.5704

>  <SCORE.INTER.CONST>
1

>  <SCORE.INTER.POLAR>
-1.73406

>  <SCORE.INTER.ROT>
7

>  <SCORE.INTER.SOLV>
23.1932

>  <SCORE.INTER.VDW>
-35.9311

>  <SCORE.INTER.norm>
-1.24421

>  <SCORE.INTRA>
-2.61836

>  <SCORE.INTRA.DIHEDRAL>
-5.85657

>  <SCORE.INTRA.DIHEDRAL.0>
15.5708

>  <SCORE.INTRA.POLAR>
0.0677885

>  <SCORE.INTRA.POLAR.0>
-0.0677885

>  <SCORE.INTRA.REPUL>
0

>  <SCORE.INTRA.REPUL.0>
0

>  <SCORE.INTRA.SOLV>
-4.29252

>  <SCORE.INTRA.SOLV.lig_0>
-87.6316

>  <SCORE.INTRA.VDW>
2.22571

>  <SCORE.INTRA.VDW.0>
-2.87309

>  <SCORE.INTRA.norm>
-0.0844631

>  <SCORE.RESTR>
0.835969

>  <SCORE.RESTR.CAVITY>
0.835969

>  <SCORE.RESTR.norm>
0.0269667

>  <SCORE.SYSTEM>
0

>  <SCORE.SYSTEM.CONST>
0

>  <SCORE.SYSTEM.DIHEDRAL>
0

>  <SCORE.SYSTEM.SOLV>
0

>  <SCORE.SYSTEM.norm>
0

>  <SCORE.heavy>
31

>  <SCORE.norm>
-1.3017

>  <SYMMETRIC_BONDS>
33 34 3

>  <RMSD>
9.940

$$$$
1fmn_cryst
 OpenBabel11021811393D
libRbt.so/2013.1/901 2013/11/27
 31 33  0  0  0  0  0  0  0  0999 V2000
  -12.1867   -2.3784   -1.6949 N   0  0  0  0  0  0  0  0  0  0  0  0
  -12.0944   -2.3831   -3.0672 C   0  0  0  0  0  0  0  0  0  0  0  0
  -12.8095   -1.6700   -3.7719 O   0  0  0  0  0  0  0  0  0  0  0  0
  -11.1288   -3.2630   -3.6174 N   0  0  0  0  0  0  0  0  0  0  0  0
  -10.2667   -4.1236   -2.9029 C   0  0  0  0  0  0  0  0  0  0  0  0
   -9.4650   -4.8422   -3.5130 O   0  0  0  0  0  0  0  0  0  0  0  0
  -10.4274   -4.0603   -1.4485 C   0  0  0  0  0  0  0  0  0  0  0  0
   -9.6250   -4.8671   -0.6807 N   0  0  0  0  0  0  0  0  0  0  0  0
   -9.8985   -4.9409    0.6543 C   0  0  0  0  0  0  0  0  0  0  0  0
   -9.2193   -5.8866    1.4017 C   0  0  0  0  0  0  0  0  0  0  0  0
   -9.4393   -6.0158    2.7307 C   0  0  0  0  0  0  0  0  0  0  0  0
   -8.6764   -7.0517    3.4932 C   0  0  0  0  0  0  0  0  0  0  0  0
  -10.3402   -5.2133    3.3596 C   0  0  0  0  0  0  0  0  0  0  0  0
  -10.5819   -5.3675    4.8259 C   0  0  0  0  0  0  0  0  0  0  0  0
  -11.0294   -4.2709    2.6670 C   0  0  0  0  0  0  0  0  0  0  0  0
  -10.8395   -4.0966    1.2962 C   0  0  0  0  0  0  0  0  0  0  0  0
  -11.5187   -3.1359    0.5178 N   0  0  0  0  0  0  0  0  0  0  0  0
  -11.4092   -3.1621   -0.8876 C   0  0  0  0  0  0  0  0  0  0  0  0
  -11.8570   -1.8131    1.1612 C   0  0  0  0  0  0  0  0  0  0  0  0
  -13.2852   -1.6865    1.7732 C   0  0  1  0  0  0  0  0  0  0  0  0
  -13.3201   -2.2836    3.0617 O   0  0  0  0  0  0  0  0  0  0  0  0
  -13.8150   -0.2329    1.7904 C   0  0  1  0  0  0  0  0  0  0  0  0
  -15.1652   -0.1944    1.3374 O   0  0  0  0  0  0  0  0  0  0  0  0
  -13.6837    0.5452    3.1228 C   0  0  1  0  0  0  0  0  0  0  0  0
  -12.3051    0.6100    3.4713 O   0  0  0  0  0  0  0  0  0  0  0  0
  -14.2436    1.9829    3.0387 C   0  0  0  0  0  0  0  0  0  0  0  0
  -13.9473    2.7502    4.1996 O   0  0  0  0  0  0  0  0  0  0  0  0
  -14.3083    2.2626    5.6636 P   0  0  0  0  0  0  0  0  0  0  0  0
  -13.4535    1.1232    6.0671 O   0  0  0  0  0  0  0  0  0  0  0  0
  -14.4310    3.4156    6.5816 O   0  5  0  0  0  0  0  0  0  0  0  0
  -15.7741    1.6603    5.5099 O   0  5  0  0  0  0  0  0  0  0  0  0
  1 18  1  0  0  0  0
  1  2  1  0  0  0  0
  2  4  1  0  0  0  0
  2  3  2  0  0  0  0
  4  5  1  0  0  0  0
  5  7  1  0  0  0  0
  5  6  2  0  0  0  0
  7 18  2  0  0  0  0
  7  8  1  0  0  0  0
  8  9  1  0  0  0  0
  9 10  2  0  0  0  0
  9 16  1  0  0  0  0
 10 11  1  0  0  0  0
 11 12  1  0  0  0  0
 11 13  2  0  0  0  0
 13 14  1  0  0  0  0
 13 15  1  0  0  0  0
 15 16  2  0  0  0  0
 16 17  1  0  0  0  0
 17 19  1  0  0  0  0
 17 18  1  0  0  0  0
 20 19  1  1  0  0  0
 20 22  1  0  0  0  0
 20 21  1  0  0  0  0
 22 24  1  0  0  0  0
 22 23  1  1  0  0  0
 24 26  1  6  0  0  0
 24 25  1  0  0  0  0
 26 27  1  0  0  0  0
 27 28  1  0  0  0  0
 28 30  1  0  0  0  0
 28 29  2  0  0  0  0
 28 31  1  0  0  0  0
M  CHG  2  30  -1  31  -1
M  END
>  <CHROM.1>
-95.17598038,81.17424982,134.94649134,-62.51866137,59.53200087,-58.33760082
-171.54830909,-164.29808272,-53.69463958,70.26367293,-12.13591926,-1.90247317
1.72556249,0.69330496,0.99606165,-1.61004725

>  <Name>
1fmn_cryst

>  <RI>
0

>  <Rbt.Current_Directory>
/home/itssahil/PROJECTS/Mol_Feturizer/New_Systems/rnas/1fmn

>  <Rbt.Executable>
rbdock ($Id: //depot/dev/client3/rdock/2013.1/src/exe/rbdock.cxx#4 $)

>  <Rbt.Library>
libRbt.so (2013.1, Build901 2013/11/27)

>  <Rbt.Parameter_File>
/export/apps/rDock/src/rDock_2013.1_src/data/scripts/dock_solv.prm

>  <Rbt.Receptor>
prm/blind_docking_40.prm

>  <SCORE>
-18.5579

>  <SCORE.INTER>
-16.1111

>  <SCORE.INTER.CONST>
1

>  <SCORE.INTER.POLAR>
0

>  <SCORE.INTER.ROT>
7

>  <SCORE.INTER.SOLV>
22.3256

>  <SCORE.INTER.VDW>
-26.4492

>  <SCORE.INTER.norm>
-0.519712

>  <SCORE.INTRA>
-3.45259

>  <SCORE.INTRA.DIHEDRAL>
-4.94771

>  <SCORE.INTRA.DIHEDRAL.0>
15.5708

>  <SCORE.INTRA.POLAR>
-0.509226

>  <SCORE.INTRA.POLAR.0>
-0.0677885

>  <SCORE.INTRA.REPUL>
0

>  <SCORE.INTRA.REPUL.0>
0

>  <SCORE.INTRA.SOLV>
0.0888633

>  <SCORE.INTRA.SOLV.lig_0>
-87.6316

>  <SCORE.INTRA.VDW>
0.708205

>  <SCORE.INTRA.VDW.0>
-2.87309

>  <SCORE.INTRA.norm>
-0.111374

>  <SCORE.RESTR>
1.00578

>  <SCORE.RESTR.CAVITY>
1.00578

>  <SCORE.RESTR.norm>
0.0324444

>  <SCORE.SYSTEM>
0

>  <SCORE.SYSTEM.CONST>
0

>  <SCORE.SYSTEM.DIHEDRAL>
0

>  <SCORE.SYSTEM.SOLV>
0

>  <SCORE.SYSTEM.norm>
0

>  <SCORE.heavy>
31

>  <SCORE.norm>
-0.598642

>  <SYMMETRIC_BONDS>
33 34 3

>  <RMSD>
9.947

$$$$
1fmn_cryst
 OpenBabel11021811393D
libRbt.so/2013.1/901 2013/11/27
 31 33  0  0  0  0  0  0  0  0999 V2000
  -12.1602   -2.6289   -2.2241 N   0  0  0  0  0  0  0  0  0  0  0  0
  -11.8131   -2.5501   -3.5526 C   0  0  0  0  0  0  0  0  0  0  0  0
  -12.5421   -2.0126   -4.3869 O   0  0  0  0  0  0  0  0  0  0  0  0
  -10.5673   -3.1304   -3.9001 N   0  0  0  0  0  0  0  0  0  0  0  0
   -9.6627   -3.7733   -3.0268 C   0  0  0  0  0  0  0  0  0  0  0  0
   -8.6026   -4.2368   -3.4657 O   0  0  0  0  0  0  0  0  0  0  0  0
  -10.1051   -3.8165   -1.6313 C   0  0  0  0  0  0  0  0  0  0  0  0
   -9.2811   -4.4251   -0.7176 N   0  0  0  0  0  0  0  0  0  0  0  0
   -9.7726   -4.6241    0.5399 C   0  0  0  0  0  0  0  0  0  0  0  0
   -9.0255   -5.3973    1.4107 C   0  0  0  0  0  0  0  0  0  0  0  0
   -9.4508   -5.6361    2.6731 C   0  0  0  0  0  0  0  0  0  0  0  0
   -8.6040   -6.4758    3.5754 C   0  0  0  0  0  0  0  0  0  0  0  0
  -10.6301   -5.1176    3.1107 C   0  0  0  0  0  0  0  0  0  0  0  0
  -11.0954   -5.3919    4.5037 C   0  0  0  0  0  0  0  0  0  0  0  0
  -11.3961   -4.3525    2.2918 C   0  0  0  0  0  0  0  0  0  0  0  0
  -11.0031   -4.0760    0.9823 C   0  0  0  0  0  0  0  0  0  0  0  0
  -11.7482   -3.2870    0.0810 N   0  0  0  0  0  0  0  0  0  0  0  0
  -11.3730   -3.2231   -1.2766 C   0  0  0  0  0  0  0  0  0  0  0  0
  -12.5315   -2.1233    0.6381 C   0  0  0  0  0  0  0  0  0  0  0  0
  -11.8358   -1.2948    1.7605 C   0  0  1  0  0  0  0  0  0  0  0  0
  -11.0452   -0.2626    1.1882 O   0  0  0  0  0  0  0  0  0  0  0  0
  -12.8241   -0.7518    2.8199 C   0  0  1  0  0  0  0  0  0  0  0  0
  -13.2820   -1.8104    3.6561 O   0  0  0  0  0  0  0  0  0  0  0  0
  -12.3382    0.4340    3.6892 C   0  0  1  0  0  0  0  0  0  0  0  0
  -12.2898    1.5992    2.8731 O   0  0  0  0  0  0  0  0  0  0  0  0
  -13.2589    0.7117    4.8987 C   0  0  0  0  0  0  0  0  0  0  0  0
  -14.6278    0.8183    4.5263 O   0  0  0  0  0  0  0  0  0  0  0  0
  -15.2814    2.1801    4.0470 P   0  0  0  0  0  0  0  0  0  0  0  0
  -16.3072    2.6417    5.0096 O   0  0  0  0  0  0  0  0  0  0  0  0
  -14.2385    3.1341    3.6120 O   0  5  0  0  0  0  0  0  0  0  0  0
  -16.0842    1.7717    2.7342 O   0  5  0  0  0  0  0  0  0  0  0  0
  1 18  1  0  0  0  0
  1  2  1  0  0  0  0
  2  4  1  0  0  0  0
  2  3  2  0  0  0  0
  4  5  1  0  0  0  0
  5  7  1  0  0  0  0
  5  6  2  0  0  0  0
  7 18  2  0  0  0  0
  7  8  1  0  0  0  0
  8  9  1  0  0  0  0
  9 10  2  0  0  0  0
  9 16  1  0  0  0  0
 10 11  1  0  0  0  0
 11 12  1  0  0  0  0
 11 13  2  0  0  0  0
 13 14  1  0  0  0  0
 13 15  1  0  0  0  0
 15 16  2  0  0  0  0
 16 17  1  0  0  0  0
 17 19  1  0  0  0  0
 17 18  1  0  0  0  0
 20 19  1  6  0  0  0
 20 22  1  0  0  0  0
 20 21  1  0  0  0  0
 22 24  1  0  0  0  0
 22 23  1  1  0  0  0
 24 26  1  1  0  0  0
 24 25  1  0  0  0  0
 26 27  1  0  0  0  0
 27 28  1  0  0  0  0
 28 30  1  0  0  0  0
 28 29  2  0  0  0  0
 28 31  1  0  0  0  0
M  CHG  2  30  -1  31  -1
M  END
>  <CHROM.1>
39.91123514,87.94428187,72.97552127,55.66783451,71.40377501,-113.06182466
-50.57277568,-64.72854076,-86.82914699,-114.58340908,-11.99131098,-1.85275403
1.33641477,0.49710893,0.96018617,-1.43865752

>  <Name>
1fmn_cryst

>  <RI>
0

>  <Rbt.Current_Directory>
/home/itssahil/PROJECTS/Mol_Feturizer/New_Systems/rnas/1fmn

>  <Rbt.Executable>
rbdock ($Id: //depot/dev/client3/rdock/2013.1/src/exe/rbdock.cxx#4 $)

>  <Rbt.Library>
libRbt.so (2013.1, Build901 2013/11/27)

>  <Rbt.Parameter_File>
/export/apps/rDock/src/rDock_2013.1_src/data/scripts/dock_solv.prm

>  <Rbt.Receptor>
prm/blind_docking_40.prm

>  <SCORE>
-33.0847

>  <SCORE.INTER>
-34.4725

>  <SCORE.INTER.CONST>
1

>  <SCORE.INTER.POLAR>
-1.15307

>  <SCORE.INTER.ROT>
7

>  <SCORE.INTER.SOLV>
19.8002

>  <SCORE.INTER.VDW>
-34.0049

>  <SCORE.INTER.norm>
-1.11202

>  <SCORE.INTRA>
0.948578

>  <SCORE.INTRA.DIHEDRAL>
1.9228

>  <SCORE.INTRA.DIHEDRAL.0>
15.5708

>  <SCORE.INTRA.POLAR>
-0.100073

>  <SCORE.INTRA.POLAR.0>
-0.0677885

>  <SCORE.INTRA.REPUL>
0

>  <SCORE.INTRA.REPUL.0>
0

>  <SCORE.INTRA.SOLV>
-0.0910429

>  <SCORE.INTRA.SOLV.lig_0>
-87.6316

>  <SCORE.INTRA.VDW>
0.372945

>  <SCORE.INTRA.VDW.0>
-2.87309

>  <SCORE.INTRA.norm>
0.0305993

>  <SCORE.RESTR>
0.439245

>  <SCORE.RESTR.CAVITY>
0.439245

>  <SCORE.RESTR.norm>
0.0141692

>  <SCORE.SYSTEM>
0

>  <SCORE.SYSTEM.CONST>
0

>  <SCORE.SYSTEM.DIHEDRAL>
0

>  <SCORE.SYSTEM.SOLV>
0

>  <SCORE.SYSTEM.norm>
0

>  <SCORE.heavy>
31

>  <SCORE.norm>
-1.06725

>  <SYMMETRIC_BONDS>
33 34 3

>  <RMSD>
9.951

$$$$
1fmn_cryst
 OpenBabel11021811393D
libRbt.so/2013.1/901 2013/11/27
 31 33  0  0  0  0  0  0  0  0999 V2000
  -12.7892   -2.3459   -0.9343 N   0  0  0  0  0  0  0  0  0  0  0  0
  -12.7194   -2.0828   -2.2824 C   0  0  0  0  0  0  0  0  0  0  0  0
  -13.5973   -1.4502   -2.8703 O   0  0  0  0  0  0  0  0  0  0  0  0
  -11.5769   -2.5894   -2.9514 N   0  0  0  0  0  0  0  0  0  0  0  0
  -10.5204   -3.3286   -2.3758 C   0  0  0  0  0  0  0  0  0  0  0  0
   -9.5770   -3.7105   -3.0798 O   0  0  0  0  0  0  0  0  0  0  0  0
  -10.6695   -3.5672   -0.9384 C   0  0  0  0  0  0  0  0  0  0  0  0
   -9.6831   -4.2792   -0.3026 N   0  0  0  0  0  0  0  0  0  0  0  0
   -9.9100   -4.6545    0.9898 C   0  0  0  0  0  0  0  0  0  0  0  0
   -9.0095   -5.5251    1.5775 C   0  0  0  0  0  0  0  0  0  0  0  0
   -9.1711   -5.9392    2.8557 C   0  0  0  0  0  0  0  0  0  0  0  0
   -8.1673   -6.8783    3.4446 C   0  0  0  0  0  0  0  0  0  0  0  0
  -10.2308   -5.5048    3.5902 C   0  0  0  0  0  0  0  0  0  0  0  0
  -10.4053   -5.9725    4.9984 C   0  0  0  0  0  0  0  0  0  0  0  0
  -11.1393   -4.6495    3.0556 C   0  0  0  0  0  0  0  0  0  0  0  0
  -11.0185   -4.1922    1.7434 C   0  0  0  0  0  0  0  0  0  0  0  0
  -11.9231   -3.3018    1.1280 N   0  0  0  0  0  0  0  0  0  0  0  0
  -11.8319   -3.0490   -0.2562 C   0  0  0  0  0  0  0  0  0  0  0  0
  -12.5638   -2.2374    1.9852 C   0  0  0  0  0  0  0  0  0  0  0  0
  -11.9912   -0.7947    1.8403 C   0  0  1  0  0  0  0  0  0  0  0  0
  -11.9046   -0.4383    0.4679 O   0  0  0  0  0  0  0  0  0  0  0  0
  -12.7693    0.2565    2.6670 C   0  0  1  0  0  0  0  0  0  0  0  0
  -13.0236   -0.2371    3.9789 O   0  0  0  0  0  0  0  0  0  0  0  0
  -12.1583    1.6771    2.7475 C   0  0  1  0  0  0  0  0  0  0  0  0
  -11.1634    1.7962    1.7366 O   0  0  0  0  0  0  0  0  0  0  0  0
  -13.2056    2.7958    2.5489 C   0  0  0  0  0  0  0  0  0  0  0  0
  -13.8219    3.1862    3.7703 O   0  0  0  0  0  0  0  0  0  0  0  0
  -14.8367    2.2546    4.5536 P   0  0  0  0  0  0  0  0  0  0  0  0
  -15.7431    1.5540    3.6156 O   0  0  0  0  0  0  0  0  0  0  0  0
  -14.1287    1.4600    5.5804 O   0  5  0  0  0  0  0  0  0  0  0  0
  -15.7581    3.2829    5.3462 O   0  5  0  0  0  0  0  0  0  0  0  0
  1 18  1  0  0  0  0
  1  2  1  0  0  0  0
  2  4  1  0  0  0  0
  2  3  2  0  0  0  0
  4  5  1  0  0  0  0
  5  7  1  0  0  0  0
  5  6  2  0  0  0  0
  7 18  2  0  0  0  0
  7  8  1  0  0  0  0
  8  9  1  0  0  0  0
  9 10  2  0  0  0  0
  9 16  1  0  0  0  0
 10 11  1  0  0  0  0
 11 12  1  0  0  0  0
 11 13  2  0  0  0  0
 13 14  1  0  0  0  0
 13 15  1  0  0  0  0
 15 16  2  0  0  0  0
 16 17  1  0  0  0  0
 17 19  1  0  0  0  0
 17 18  1  0  0  0  0
 20 19  1  6  0  0  0
 20 22  1  0  0  0  0
 20 21  1  0  0  0  0
 22 24  1  0  0  0  0
 22 23  1  1  0  0  0
 24 26  1  6  0  0  0
 24 25  1  0  0  0  0
 26 27  1  0  0  0  0
 27 28  1  0  0  0  0
 28 30  1  0  0  0  0
 28 29  2  0  0  0  0
 28 31  1  0  0  0  0
M  CHG  2  30  -1  31  -1
M  END
>  <CHROM.1>
103.21030939,49.12782945,45.10472297,-179.59969932,15.07149006,53.53082133
88.41646381,-92.78481031,-70.34824899,-40.06514881,-12.02767190,-1.57131183
1.71331004,0.37883588,1.03810306,-1.51531860

>  <Name>
1fmn_cryst

>  <RI>
0

>  <Rbt.Current_Directory>
/home/itssahil/PROJECTS/Mol_Feturizer/New_Systems/rnas/1fmn

>  <Rbt.Executable>
rbdock ($Id: //depot/dev/client3/rdock/2013.1/src/exe/rbdock.cxx#4 $)

>  <Rbt.Library>
libRbt.so (2013.1, Build901 2013/11/27)

>  <Rbt.Parameter_File>
/export/apps/rDock/src/rDock_2013.1_src/data/scripts/dock_solv.prm

>  <Rbt.Receptor>
prm/blind_docking_40.prm

>  <SCORE>
-29.9012

>  <SCORE.INTER>
-31.8536

>  <SCORE.INTER.CONST>
1

>  <SCORE.INTER.POLAR>
-1.58355

>  <SCORE.INTER.ROT>
7

>  <SCORE.INTER.SOLV>
19.9781

>  <SCORE.INTER.VDW>
-30.8833

>  <SCORE.INTER.norm>
-1.02754

>  <SCORE.INTRA>
0.350423

>  <SCORE.INTRA.DIHEDRAL>
0.252813

>  <SCORE.INTRA.DIHEDRAL.0>
15.5708

>  <SCORE.INTRA.POLAR>
-0.531982

>  <SCORE.INTRA.POLAR.0>
-0.0677885

>  <SCORE.INTRA.REPUL>
0

>  <SCORE.INTRA.REPUL.0>
0

>  <SCORE.INTRA.SOLV>
2.92259

>  <SCORE.INTRA.SOLV.lig_0>
-87.6316

>  <SCORE.INTRA.VDW>
0.571457

>  <SCORE.INTRA.VDW.0>
-2.87309

>  <SCORE.INTRA.norm>
0.011304

>  <SCORE.RESTR>
1.602

>  <SCORE.RESTR.CAVITY>
1.602

>  <SCORE.RESTR.norm>
0.0516776

>  <SCORE.SYSTEM>
0

>  <SCORE.SYSTEM.CONST>
0

>  <SCORE.SYSTEM.DIHEDRAL>
0

>  <SCORE.SYSTEM.SOLV>
0

>  <SCORE.SYSTEM.norm>
0

>  <SCORE.heavy>
31

>  <SCORE.norm>
-0.964555

>  <SYMMETRIC_BONDS>
33 34 3

>  <RMSD>
9.954

$$$$
1fmn_cryst
 OpenBabel11021811393D
libRbt.so/2013.1/901 2013/11/27
 31 33  0  0  0  0  0  0  0  0999 V2000
  -11.9845   -2.8781   -2.6185 N   0  0  0  0  0  0  0  0  0  0  0  0
  -11.4972   -2.8864   -3.9046 C   0  0  0  0  0  0  0  0  0  0  0  0
  -12.1502   -2.4494   -4.8528 O   0  0  0  0  0  0  0  0  0  0  0  0
  -10.1999   -3.4335   -4.0692 N   0  0  0  0  0  0  0  0  0  0  0  0
   -9.3728   -3.9644   -3.0552 C   0  0  0  0  0  0  0  0  0  0  0  0
   -8.2543   -4.4109   -3.3396 O   0  0  0  0  0  0  0  0  0  0  0  0
   -9.9635   -3.9199   -1.7156 C   0  0  0  0  0  0  0  0  0  0  0  0
   -9.2220   -4.4171   -0.6729 N   0  0  0  0  0  0  0  0  0  0  0  0
   -9.8404   -4.5407    0.5374 C   0  0  0  0  0  0  0  0  0  0  0  0
   -9.1645   -5.2088    1.5430 C   0  0  0  0  0  0  0  0  0  0  0  0
   -9.7162   -5.3686    2.7684 C   0  0  0  0  0  0  0  0  0  0  0  0
   -8.9423   -6.0959    3.8212 C   0  0  0  0  0  0  0  0  0  0  0  0
  -10.9550   -4.8729    3.0344 C   0  0  0  0  0  0  0  0  0  0  0  0
  -11.5594   -5.0599    4.3879 C   0  0  0  0  0  0  0  0  0  0  0  0
  -11.6551   -4.2098    2.0789 C   0  0  0  0  0  0  0  0  0  0  0  0
  -11.1318   -4.0176    0.8003 C   0  0  0  0  0  0  0  0  0  0  0  0
  -11.8028   -3.3361   -0.2365 N   0  0  0  0  0  0  0  0  0  0  0  0
  -11.2840   -3.3602   -1.5473 C   0  0  0  0  0  0  0  0  0  0  0  0
  -12.6857   -2.1702    0.1371 C   0  0  0  0  0  0  0  0  0  0  0  0
  -12.0759   -1.1288    1.1239 C   0  0  1  0  0  0  0  0  0  0  0  0
  -11.8589    0.1073    0.4584 O   0  0  0  0  0  0  0  0  0  0  0  0
  -12.9063   -0.9554    2.4180 C   0  0  1  0  0  0  0  0  0  0  0  0
  -13.0212   -2.2004    3.1010 O   0  0  0  0  0  0  0  0  0  0  0  0
  -12.4457    0.1462    3.4039 C   0  0  1  0  0  0  0  0  0  0  0  0
  -12.2560    1.3527    2.6729 O   0  0  0  0  0  0  0  0  0  0  0  0
  -13.4646    0.4058    4.5362 C   0  0  0  0  0  0  0  0  0  0  0  0
  -14.6553    1.0253    4.0645 O   0  0  0  0  0  0  0  0  0  0  0  0
  -15.6699    1.7732    5.0249 P   0  0  0  0  0  0  0  0  0  0  0  0
  -15.8270    1.0405    6.3018 O   0  0  0  0  0  0  0  0  0  0  0  0
  -15.3727    3.2211    5.0714 O   0  5  0  0  0  0  0  0  0  0  0  0
  -17.0694    1.6317    4.2791 O   0  5  0  0  0  0  0  0  0  0  0  0
  1 18  1  0  0  0  0
  1  2  1  0  0  0  0
  2  4  1  0  0  0  0
  2  3  2  0  0  0  0
  4  5  1  0  0  0  0
  5  7  1  0  0  0  0
  5  6  2  0  0  0  0
  7 18  2  0  0  0  0
  7  8  1  0  0  0  0
  8  9  1  0  0  0  0
  9 10  2  0  0  0  0
  9 16  1  0  0  0  0
 10 11  1  0  0  0  0
 11 12  1  0  0  0  0
 11 13  2  0  0  0  0
 13 14  1  0  0  0  0
 13 15  1  0  0  0  0
 15 16  2  0  0  0  0
 16 17  1  0  0  0  0
 17 19  1  0  0  0  0
 17 18  1  0  0  0  0
 20 19  1  6  0  0  0
 20 22  1  0  0  0  0
 20 21  1  0  0  0  0
 22 24  1  0  0  0  0
 22 23  1  1  0  0  0
 24 26  1  1  0  0  0
 24 25  1  0  0  0  0
 26 27  1  0  0  0  0
 27 28  1  0  0  0  0
 28 30  1  0  0  0  0
 28 29  2  0  0  0  0
 28 31  1  0  0  0  0
M  CHG  2  30  -1  31  -1
M  END
>  <CHROM.1>
47.25294038,111.90766010,58.65900911,-49.80031730,49.54612600,100.48784319
-69.41619981,62.20931999,-161.90625172,-39.59469277,-12.10853652,-1.97264926
1.35925205,0.57363797,0.92455390,-1.37712039

>  <Name>
1fmn_cryst

>  <RI>
0

>  <Rbt.Current_Directory>
/home/itssahil/PROJECTS/Mol_Feturizer/New_Systems/rnas/1fmn

>  <Rbt.Executable>
rbdock ($Id: //depot/dev/client3/rdock/2013.1/src/exe/rbdock.cxx#4 $)

>  <Rbt.Library>
libRbt.so (2013.1, Build901 2013/11/27)

>  <Rbt.Parameter_File>
/export/apps/rDock/src/rDock_2013.1_src/data/scripts/dock_solv.prm

>  <Rbt.Receptor>
prm/blind_docking_80.prm

>  <SCORE>
-33.537

>  <SCORE.INTER>
-35.5481

>  <SCORE.INTER.CONST>
1

>  <SCORE.INTER.POLAR>
-1.49841

>  <SCORE.INTER.ROT>
7

>  <SCORE.INTER.SOLV>
24.1266

>  <SCORE.INTER.VDW>
-35.0129

>  <SCORE.INTER.norm>
-1.14671

>  <SCORE.INTRA>
-0.179972

>  <SCORE.INTRA.DIHEDRAL>
0.143411

>  <SCORE.INTRA.DIHEDRAL.0>
15.5708

>  <SCORE.INTRA.POLAR>
0.0646731

>  <SCORE.INTRA.POLAR.0>
-0.0677885

>  <SCORE.INTRA.REPUL>
0

>  <SCORE.INTRA.REPUL.0>
0

>  <SCORE.INTRA.SOLV>
-4.05399

>  <SCORE.INTRA.SOLV.lig_0>
-87.6316

>  <SCORE.INTRA.VDW>
1.55543

>  <SCORE.INTRA.VDW.0>
-2.87309

>  <SCORE.INTRA.norm>
-0.00580555

>  <SCORE.RESTR>
2.19116

>  <SCORE.RESTR.CAVITY>
2.19116

>  <SCORE.RESTR.norm>
0.0706825

>  <SCORE.SYSTEM>
0

>  <SCORE.SYSTEM.CONST>
0

>  <SCORE.SYSTEM.DIHEDRAL>
0

>  <SCORE.SYSTEM.SOLV>
0

>  <SCORE.SYSTEM.norm>
0

>  <SCORE.heavy>
31

>  <SCORE.norm>
-1.08184

>  <SYMMETRIC_BONDS>
33 34 3

>  <RMSD>
9.968

$$$$
1fmn_cryst
 OpenBabel11021811393D
libRbt.so/2013.1/901 2013/11/27
 31 33  0  0  0  0  0  0  0  0999 V2000
  -12.4711   -2.5052   -1.8799 N   0  0  0  0  0  0  0  0  0  0  0  0
  -12.2186   -2.4030   -3.2280 C   0  0  0  0  0  0  0  0  0  0  0  0
  -13.0003   -1.8439   -3.9979 O   0  0  0  0  0  0  0  0  0  0  0  0
  -11.0058   -2.9856   -3.6743 N   0  0  0  0  0  0  0  0  0  0  0  0
  -10.0472   -3.6522   -2.8800 C   0  0  0  0  0  0  0  0  0  0  0  0
   -9.0250   -4.1148   -3.4020 O   0  0  0  0  0  0  0  0  0  0  0  0
  -10.3897   -3.7194   -1.4576 C   0  0  0  0  0  0  0  0  0  0  0  0
   -9.5082   -4.3518   -0.6167 N   0  0  0  0  0  0  0  0  0  0  0  0
   -9.9108   -4.5718    0.6686 C   0  0  0  0  0  0  0  0  0  0  0  0
   -9.1106   -5.3675    1.4692 C   0  0  0  0  0  0  0  0  0  0  0  0
   -9.4472   -5.6278    2.7538 C   0  0  0  0  0  0  0  0  0  0  0  0
   -8.5459   -6.4913    3.5775 C   0  0  0  0  0  0  0  0  0  0  0  0
  -10.5879   -5.1092    3.2841 C   0  0  0  0  0  0  0  0  0  0  0  0
  -10.9554   -5.4074    4.7012 C   0  0  0  0  0  0  0  0  0  0  0  0
  -11.4034   -4.3226    2.5365 C   0  0  0  0  0  0  0  0  0  0  0  0
  -11.1020   -4.0234    1.2079 C   0  0  0  0  0  0  0  0  0  0  0  0
  -11.9022   -3.2114    0.3771 N   0  0  0  0  0  0  0  0  0  0  0  0
  -11.6239   -3.1237   -1.0023 C   0  0  0  0  0  0  0  0  0  0  0  0
  -12.6338   -2.0530    1.0106 C   0  0  0  0  0  0  0  0  0  0  0  0
  -11.8300   -1.2109    2.0475 C   0  0  1  0  0  0  0  0  0  0  0  0
  -10.7715   -0.5188    1.4005 O   0  0  0  0  0  0  0  0  0  0  0  0
  -12.7205   -0.2618    2.8843 C   0  0  1  0  0  0  0  0  0  0  0  0
  -13.4026   -0.9924    3.8994 O   0  0  0  0  0  0  0  0  0  0  0  0
  -12.0337    0.9816    3.5009 C   0  0  1  0  0  0  0  0  0  0  0  0
  -11.4492    1.7404    2.4481 O   0  0  0  0  0  0  0  0  0  0  0  0
  -13.0134    1.8862    4.2815 C   0  0  0  0  0  0  0  0  0  0  0  0
  -14.2443    1.2332    4.5690 O   0  0  0  0  0  0  0  0  0  0  0  0
  -15.4659    1.9726    5.2562 P   0  0  0  0  0  0  0  0  0  0  0  0
  -15.2847    2.0408    6.7240 O   0  0  0  0  0  0  0  0  0  0  0  0
  -15.8016    3.2140    4.5259 O   0  5  0  0  0  0  0  0  0  0  0  0
  -16.6875    0.9780    5.0249 O   0  5  0  0  0  0  0  0  0  0  0  0
  1 18  1  0  0  0  0
  1  2  1  0  0  0  0
  2  4  1  0  0  0  0
  2  3  2  0  0  0  0
  4  5  1  0  0  0  0
  5  7  1  0  0  0  0
  5  6  2  0  0  0  0
  7 18  2  0  0  0  0
  7  8  1  0  0  0  0
  8  9  1  0  0  0  0
  9 10  2  0  0  0  0
  9 16  1  0  0  0  0
 10 11  1  0  0  0  0
 11 12  1  0  0  0  0
 11 13  2  0  0  0  0
 13 14  1  0  0  0  0
 13 15  1  0  0  0  0
 15 16  2  0  0  0  0
 16 17  1  0  0  0  0
 17 19  1  0  0  0  0
 17 18  1  0  0  0  0
 20 19  1  6  0  0  0
 20 22  1  0  0  0  0
 20 21  1  0  0  0  0
 22 24  1  0  0  0  0
 22 23  1  1  0  0  0
 24 26  1  6  0  0  0
 24 25  1  0  0  0  0
 26 27  1  0  0  0  0
 27 28  1  0  0  0  0
 28 30  1  0  0  0  0
 28 29  2  0  0  0  0
 28 31  1  0  0  0  0
M  CHG  2  30  -1  31  -1
M  END
>  <CHROM.1>
42.68426375,66.80971993,77.49996293,169.52116897,57.69132348,55.56243277
15.31687751,-162.18561980,-174.96732912,-81.24054072,-12.07559774,-1.76093617
1.69963776,0.59836910,0.96131474,-1.46836161

>  <Name>
1fmn_cryst

>  <RI>
0

>  <Rbt.Current_Directory>
/home/itssahil/PROJECTS/Mol_Feturizer/New_Systems/rnas/1fmn

>  <Rbt.Executable>
rbdock ($Id: //depot/dev/client3/rdock/2013.1/src/exe/rbdock.cxx#4 $)

>  <Rbt.Library>
libRbt.so (2013.1, Build901 2013/11/27)

>  <Rbt.Parameter_File>
/export/apps/rDock/src/rDock_2013.1_src/data/scripts/dock_solv.prm

>  <Rbt.Receptor>
prm/blind_docking_100.prm

>  <SCORE>
-27.1671

>  <SCORE.INTER>
-29.7557

>  <SCORE.INTER.CONST>
1

>  <SCORE.INTER.POLAR>
-1.602

>  <SCORE.INTER.ROT>
7

>  <SCORE.INTER.SOLV>
24.6254

>  <SCORE.INTER.VDW>
-30.9723

>  <SCORE.INTER.norm>
-0.959862

>  <SCORE.INTRA>
-2.63559

>  <SCORE.INTRA.DIHEDRAL>
-5.15451

>  <SCORE.INTRA.DIHEDRAL.0>
15.5708

>  <SCORE.INTRA.POLAR>
-0.0741814

>  <SCORE.INTRA.POLAR.0>
-0.0677885

>  <SCORE.INTRA.REPUL>
0

>  <SCORE.INTRA.REPUL.0>
0

>  <SCORE.INTRA.SOLV>
-3.93915

>  <SCORE.INTRA.SOLV.lig_0>
-87.6316

>  <SCORE.INTRA.VDW>
2.16345

>  <SCORE.INTRA.VDW.0>
-2.87309

>  <SCORE.INTRA.norm>
-0.0850191

>  <SCORE.RESTR>
5.22419

>  <SCORE.RESTR.CAVITY>
5.22419

>  <SCORE.RESTR.norm>
0.168522

>  <SCORE.SYSTEM>
0

>  <SCORE.SYSTEM.CONST>
0

>  <SCORE.SYSTEM.DIHEDRAL>
0

>  <SCORE.SYSTEM.SOLV>
0

>  <SCORE.SYSTEM.norm>
0

>  <SCORE.heavy>
31

>  <SCORE.norm>
-0.876359

>  <SYMMETRIC_BONDS>
33 34 3

>  <RMSD>
9.969

$$$$
1fmn_cryst
 OpenBabel11021811393D
libRbt.so/2013.1/901 2013/11/27
 31 33  0  0  0  0  0  0  0  0999 V2000
  -10.2315   -3.9806   -2.8409 N   0  0  0  0  0  0  0  0  0  0  0  0
   -9.2989   -4.2269   -3.8214 C   0  0  0  0  0  0  0  0  0  0  0  0
   -9.5204   -3.9850   -5.0083 O   0  0  0  0  0  0  0  0  0  0  0  0
   -8.0709   -4.7804   -3.3796 N   0  0  0  0  0  0  0  0  0  0  0  0
   -7.7190   -5.1000   -2.0499 C   0  0  0  0  0  0  0  0  0  0  0  0
   -6.6052   -5.5796   -1.8029 O   0  0  0  0  0  0  0  0  0  0  0  0
   -8.7649   -4.8093   -1.0668 C   0  0  0  0  0  0  0  0  0  0  0  0
   -8.5009   -5.0914    0.2504 N   0  0  0  0  0  0  0  0  0  0  0  0
   -9.5344   -4.9906    1.1359 C   0  0  0  0  0  0  0  0  0  0  0  0
   -9.3276   -5.4483    2.4252 C   0  0  0  0  0  0  0  0  0  0  0  0
  -10.3074   -5.3793    3.3562 C   0  0  0  0  0  0  0  0  0  0  0  0
  -10.0312   -5.8850    4.7362 C   0  0  0  0  0  0  0  0  0  0  0  0
  -11.5224   -4.8564    3.0380 C   0  0  0  0  0  0  0  0  0  0  0  0
  -12.6006   -4.7904    4.0701 C   0  0  0  0  0  0  0  0  0  0  0  0
  -11.7707   -4.3944    1.7859 C   0  0  0  0  0  0  0  0  0  0  0  0
  -10.7952   -4.4419    0.7900 C   0  0  0  0  0  0  0  0  0  0  0  0
  -10.9851   -3.9769   -0.5282 N   0  0  0  0  0  0  0  0  0  0  0  0
  -10.0150   -4.2430   -1.5162 C   0  0  0  0  0  0  0  0  0  0  0  0
  -11.8700   -2.7715   -0.7340 C   0  0  0  0  0  0  0  0  0  0  0  0
  -12.3137   -2.0112    0.5526 C   0  0  1  0  0  0  0  0  0  0  0  0
  -11.1767   -1.5114    1.2422 O   0  0  0  0  0  0  0  0  0  0  0  0
  -13.3604   -0.9054    0.2775 C   0  0  1  0  0  0  0  0  0  0  0  0
  -14.6301   -1.4870   -0.0043 O   0  0  0  0  0  0  0  0  0  0  0  0
  -13.5131    0.1983    1.3529 C   0  0  1  0  0  0  0  0  0  0  0  0
  -13.1070   -0.3374    2.6074 O   0  0  0  0  0  0  0  0  0  0  0  0
  -12.6663    1.4550    1.0510 C   0  0  0  0  0  0  0  0  0  0  0  0
  -13.3670    2.6618    1.3278 O   0  0  0  0  0  0  0  0  0  0  0  0
  -12.8611    4.0791    0.8311 P   0  0  0  0  0  0  0  0  0  0  0  0
  -11.5598    4.4220    1.4486 O   0  0  0  0  0  0  0  0  0  0  0  0
  -13.0016    4.1979   -0.6362 O   0  5  0  0  0  0  0  0  0  0  0  0
  -13.9113    5.0966    1.4609 O   0  5  0  0  0  0  0  0  0  0  0  0
  1 18  1  0  0  0  0
  1  2  1  0  0  0  0
  2  4  1  0  0  0  0
  2  3  2  0  0  0  0
  4  5  1  0  0  0  0
  5  7  1  0  0  0  0
  5  6  2  0  0  0  0
  7 18  2  0  0  0  0
  7  8  1  0  0  0  0
  8  9  1  0  0  0  0
  9 10  2  0  0  0  0
  9 16  1  0  0  0  0
 10 11  1  0  0  0  0
 11 12  1  0  0  0  0
 11 13  2  0  0  0  0
 13 14  1  0  0  0  0
 13 15  1  0  0  0  0
 15 16  2  0  0  0  0
 16 17  1  0  0  0  0
 17 19  1  0  0  0  0
 17 18  1  0  0  0  0
 20 19  1  6  0  0  0
 20 22  1  0  0  0  0
 20 21  1  0  0  0  0
 22 24  1  0  0  0  0
 22 23  1  1  0  0  0
 24 26  1  6  0  0  0
 24 25  1  0  0  0  0
 26 27  1  0  0  0  0
 27 28  1  0  0  0  0
 28 30  1  0  0  0  0
 28 29  2  0  0  0  0
 28 31  1  0  0  0  0
M  CHG  2  30  -1  31  -1
M  END
>  <CHROM.1>
9.42051984,61.04171429,73.46749788,-155.87151192,-25.82179275,-175.35108524
138.69968036,-72.39339373,-166.83361428,-63.70173701,-11.19813686,-1.93805651
0.35399636,-0.53267401,1.05176887,-0.78046403

>  <Name>
1fmn_cryst

>  <RI>
0

>  <Rbt.Current_Directory>
/home/itssahil/PROJECTS/Mol_Feturizer/New_Systems/rnas/1fmn

>  <Rbt.Executable>
rbdock ($Id: //depot/dev/client3/rdock/2013.1/src/exe/rbdock.cxx#4 $)

>  <Rbt.Library>
libRbt.so (2013.1, Build901 2013/11/27)

>  <Rbt.Parameter_File>
/export/apps/rDock/src/rDock_2013.1_src/data/scripts/dock_solv.prm

>  <Rbt.Receptor>
prm/blind_docking_60.prm

>  <SCORE>
-37.386

>  <SCORE.INTER>
-36.5512

>  <SCORE.INTER.CONST>
1

>  <SCORE.INTER.POLAR>
-1.77818

>  <SCORE.INTER.ROT>
7

>  <SCORE.INTER.SOLV>
26.3025

>  <SCORE.INTER.VDW>
-35.4744

>  <SCORE.INTER.norm>
-1.17907

>  <SCORE.INTRA>
-1.58498

>  <SCORE.INTRA.DIHEDRAL>
-0.937751

>  <SCORE.INTRA.DIHEDRAL.0>
15.5708

>  <SCORE.INTRA.POLAR>
-0.247896

>  <SCORE.INTRA.POLAR.0>
-0.0677885

>  <SCORE.INTRA.REPUL>
0

>  <SCORE.INTRA.REPUL.0>
0

>  <SCORE.INTRA.SOLV>
-4.42964

>  <SCORE.INTRA.SOLV.lig_0>
-87.6316

>  <SCORE.INTRA.VDW>
1.94156

>  <SCORE.INTRA.VDW.0>
-2.87309

>  <SCORE.INTRA.norm>
-0.0511285

>  <SCORE.RESTR>
0.750145

>  <SCORE.RESTR.CAVITY>
0.750145

>  <SCORE.RESTR.norm>
0.0241982

>  <SCORE.SYSTEM>
0

>  <SCORE.SYSTEM.CONST>
0

>  <SCORE.SYSTEM.DIHEDRAL>
0

>  <SCORE.SYSTEM.SOLV>
0

>  <SCORE.SYSTEM.norm>
0

>  <SCORE.heavy>
31

>  <SCORE.norm>
-1.206

>  <SYMMETRIC_BONDS>
33 34 3

>  <RMSD>
9.988

$$$$
1fmn_cryst
 OpenBabel11021811393D
libRbt.so/2013.1/901 2013/11/27
 31 33  0  0  0  0  0  0  0  0999 V2000
  -11.8222   -2.8543   -2.5765 N   0  0  0  0  0  0  0  0  0  0  0  0
  -11.3716   -2.8486   -3.8759 C   0  0  0  0  0  0  0  0  0  0  0  0
  -12.0197   -2.3366   -4.7893 O   0  0  0  0  0  0  0  0  0  0  0  0
  -10.1183   -3.4730   -4.0969 N   0  0  0  0  0  0  0  0  0  0  0  0
   -9.3009   -4.0923   -3.1260 C   0  0  0  0  0  0  0  0  0  0  0  0
   -8.2226   -4.6004   -3.4581 O   0  0  0  0  0  0  0  0  0  0  0  0
   -9.8508   -4.0570   -1.7690 C   0  0  0  0  0  0  0  0  0  0  0  0
   -9.1159   -4.6382   -0.7658 N   0  0  0  0  0  0  0  0  0  0  0  0
   -9.7081   -4.7642    0.4573 C   0  0  0  0  0  0  0  0  0  0  0  0
   -9.0509   -5.5102    1.4196 C   0  0  0  0  0  0  0  0  0  0  0  0
   -9.5785   -5.6771    2.6545 C   0  0  0  0  0  0  0  0  0  0  0  0
   -8.8262   -6.4902    3.6591 C   0  0  0  0  0  0  0  0  0  0  0  0
  -10.7741   -5.1115    2.9734 C   0  0  0  0  0  0  0  0  0  0  0  0
  -11.3526   -5.3066    4.3370 C   0  0  0  0  0  0  0  0  0  0  0  0
  -11.4544   -4.3706    2.0617 C   0  0  0  0  0  0  0  0  0  0  0  0
  -10.9544   -4.1677    0.7756 C   0  0  0  0  0  0  0  0  0  0  0  0
  -11.6067   -3.4074   -0.2176 N   0  0  0  0  0  0  0  0  0  0  0  0
  -11.1263   -3.4187   -1.5432 C   0  0  0  0  0  0  0  0  0  0  0  0
  -12.4001   -2.2005    0.2208 C   0  0  0  0  0  0  0  0  0  0  0  0
  -12.1260   -1.6792    1.6641 C   0  0  1  0  0  0  0  0  0  0  0  0
  -10.9357   -0.9042    1.6867 O   0  0  0  0  0  0  0  0  0  0  0  0
  -13.3268   -0.9200    2.2771 C   0  0  1  0  0  0  0  0  0  0  0  0
  -13.2761   -0.9825    3.6994 O   0  0  0  0  0  0  0  0  0  0  0  0
  -13.5366    0.5448    1.8209 C   0  0  1  0  0  0  0  0  0  0  0  0
  -13.5095    0.5807    0.3983 O   0  0  0  0  0  0  0  0  0  0  0  0
  -14.8760    1.1417    2.3081 C   0  0  0  0  0  0  0  0  0  0  0  0
  -14.6922    2.1948    3.2468 O   0  0  0  0  0  0  0  0  0  0  0  0
  -14.9853    2.0232    4.7947 P   0  0  0  0  0  0  0  0  0  0  0  0
  -14.8624    0.6050    5.2019 O   0  0  0  0  0  0  0  0  0  0  0  0
  -14.2651    3.0498    5.5785 O   0  5  0  0  0  0  0  0  0  0  0  0
  -16.5335    2.3702    4.9263 O   0  5  0  0  0  0  0  0  0  0  0  0
  1 18  1  0  0  0  0
  1  2  1  0  0  0  0
  2  4  1  0  0  0  0
  2  3  2  0  0  0  0
  4  5  1  0  0  0  0
  5  7  1  0  0  0  0
  5  6  2  0  0  0  0
  7 18  2  0  0  0  0
  7  8  1  0  0  0  0
  8  9  1  0  0  0  0
  9 10  2  0  0  0  0
  9 16  1  0  0  0  0
 10 11  1  0  0  0  0
 11 12  1  0  0  0  0
 11 13  2  0  0  0  0
 13 14  1  0  0  0  0
 13 15  1  0  0  0  0
 15 16  2  0  0  0  0
 16 17  1  0  0  0  0
 17 19  1  0  0  0  0
 17 18  1  0  0  0  0
 20 19  1  6  0  0  0
 20 22  1  0  0  0  0
 20 21  1  0  0  0  0
 22 24  1  0  0  0  0
 22 23  1  1  0  0  0
 24 26  1  6  0  0  0
 24 25  1  0  0  0  0
 26 27  1  0  0  0  0
 27 28  1  0  0  0  0
 28 30  1  0  0  0  0
 28 29  2  0  0  0  0
 28 31  1  0  0  0  0
M  CHG  2  30  -1  31  -1
M  END
>  <CHROM.1>
15.77292628,79.55893956,154.70384770,-167.77868471,50.23005784,-174.87230277
113.50691097,-175.81846220,-106.43152929,25.42798298,-12.00314842,-1.98842609
1.17900761,0.50954966,0.95402489,-1.39481571

>  <Name>
1fmn_cryst

>  <RI>
0

>  <Rbt.Current_Directory>
/home/itssahil/PROJECTS/Mol_Feturizer/New_Systems/rnas/1fmn

>  <Rbt.Executable>
rbdock ($Id: //depot/dev/client3/rdock/2013.1/src/exe/rbdock.cxx#4 $)

>  <Rbt.Library>
libRbt.so (2013.1, Build901 2013/11/27)

>  <Rbt.Parameter_File>
/export/apps/rDock/src/rDock_2013.1_src/data/scripts/dock_solv.prm

>  <Rbt.Receptor>
prm/blind_docking_40.prm

>  <SCORE>
-37.4824

>  <SCORE.INTER>
-36.6053

>  <SCORE.INTER.CONST>
1

>  <SCORE.INTER.POLAR>
-1.54467

>  <SCORE.INTER.ROT>
7

>  <SCORE.INTER.SOLV>
21.472

>  <SCORE.INTER.VDW>
-34.6787

>  <SCORE.INTER.norm>
-1.18082

>  <SCORE.INTRA>
-1.08242

>  <SCORE.INTRA.DIHEDRAL>
4.14771

>  <SCORE.INTRA.DIHEDRAL.0>
15.5708

>  <SCORE.INTRA.POLAR>
-1.23648

>  <SCORE.INTRA.POLAR.0>
-0.0677885

>  <SCORE.INTRA.REPUL>
0

>  <SCORE.INTRA.REPUL.0>
0

>  <SCORE.INTRA.SOLV>
-0.928332

>  <SCORE.INTRA.SOLV.lig_0>
-87.6316

>  <SCORE.INTRA.VDW>
1.51192

>  <SCORE.INTRA.VDW.0>
-2.87309

>  <SCORE.INTRA.norm>
-0.0349168

>  <SCORE.RESTR>
0.205355

>  <SCORE.RESTR.CAVITY>
0.205355

>  <SCORE.RESTR.norm>
0.00662435

>  <SCORE.SYSTEM>
0

>  <SCORE.SYSTEM.CONST>
0

>  <SCORE.SYSTEM.DIHEDRAL>
0

>  <SCORE.SYSTEM.SOLV>
0

>  <SCORE.SYSTEM.norm>
0

>  <SCORE.heavy>
31

>  <SCORE.norm>
-1.20911

>  <SYMMETRIC_BONDS>
33 34 3

>  <RMSD>
9.994

$$$$
1fmn_cryst
 OpenBabel11021811393D
libRbt.so/2013.1/901 2013/11/27
 31 33  0  0  0  0  0  0  0  0999 V2000
  -11.9677   -2.6592   -2.3832 N   0  0  0  0  0  0  0  0  0  0  0  0
  -11.5530   -2.6201   -3.6940 C   0  0  0  0  0  0  0  0  0  0  0  0
  -12.2238   -2.0813   -4.5750 O   0  0  0  0  0  0  0  0  0  0  0  0
  -10.3089   -3.2427   -3.9662 N   0  0  0  0  0  0  0  0  0  0  0  0
   -9.4679   -3.8909   -3.0353 C   0  0  0  0  0  0  0  0  0  0  0  0
   -8.4012   -4.3937   -3.4105 O   0  0  0  0  0  0  0  0  0  0  0  0
   -9.9800   -3.8903   -1.6631 C   0  0  0  0  0  0  0  0  0  0  0  0
   -9.2203   -4.5010   -0.6966 N   0  0  0  0  0  0  0  0  0  0  0  0
   -9.7791   -4.6578    0.5386 C   0  0  0  0  0  0  0  0  0  0  0  0
   -9.0989   -5.4319    1.4619 C   0  0  0  0  0  0  0  0  0  0  0  0
   -9.5931   -5.6301    2.7061 C   0  0  0  0  0  0  0  0  0  0  0  0
   -8.8169   -6.4727    3.6673 C   0  0  0  0  0  0  0  0  0  0  0  0
  -10.7770   -5.0691    3.0729 C   0  0  0  0  0  0  0  0  0  0  0  0
  -11.3186   -5.2989    4.4463 C   0  0  0  0  0  0  0  0  0  0  0  0
  -11.4789   -4.3015    2.2006 C   0  0  0  0  0  0  0  0  0  0  0  0
  -11.0136   -4.0657    0.9070 C   0  0  0  0  0  0  0  0  0  0  0  0
  -11.6898   -3.2766   -0.0469 N   0  0  0  0  0  0  0  0  0  0  0  0
  -11.2461   -3.2538   -1.3851 C   0  0  0  0  0  0  0  0  0  0  0  0
  -12.4656   -2.0791    0.4455 C   0  0  0  0  0  0  0  0  0  0  0  0
  -11.9468   -1.4088    1.7538 C   0  0  1  0  0  0  0  0  0  0  0  0
  -10.8031   -0.6134    1.4758 O   0  0  0  0  0  0  0  0  0  0  0  0
  -13.0398   -0.6139    2.5071 C   0  0  1  0  0  0  0  0  0  0  0  0
  -13.3649   -1.2623    3.7332 O   0  0  0  0  0  0  0  0  0  0  0  0
  -12.7636    0.8883    2.7622 C   0  0  1  0  0  0  0  0  0  0  0  0
  -12.4054    1.4956    1.5259 O   0  0  0  0  0  0  0  0  0  0  0  0
  -13.9836    1.6343    3.3478 C   0  0  0  0  0  0  0  0  0  0  0  0
  -14.3465    1.1544    4.6370 O   0  0  0  0  0  0  0  0  0  0  0  0
  -15.3609    1.9219    5.5822 P   0  0  0  0  0  0  0  0  0  0  0  0
  -16.4209    1.0109    6.0706 O   0  0  0  0  0  0  0  0  0  0  0  0
  -14.6315    2.7511    6.5658 O   0  5  0  0  0  0  0  0  0  0  0  0
  -16.0941    2.9395    4.6015 O   0  5  0  0  0  0  0  0  0  0  0  0
  1 18  1  0  0  0  0
  1  2  1  0  0  0  0
  2  4  1  0  0  0  0
  2  3  2  0  0  0  0
  4  5  1  0  0  0  0
  5  7  1  0  0  0  0
  5  6  2  0  0  0  0
  7 18  2  0  0  0  0
  7  8  1  0  0  0  0
  8  9  1  0  0  0  0
  9 10  2  0  0  0  0
  9 16  1  0  0  0  0
 10 11  1  0  0  0  0
 11 12  1  0  0  0  0
 11 13  2  0  0  0  0
 13 14  1  0  0  0  0
 13 15  1  0  0  0  0
 15 16  2  0  0  0  0
 16 17  1  0  0  0  0
 17 19  1  0  0  0  0
 17 18  1  0  0  0  0
 20 19  1  6  0  0  0
 20 22  1  0  0  0  0
 20 21  1  0  0  0  0
 22 24  1  0  0  0  0
 22 23  1  1  0  0  0
 24 26  1  6  0  0  0
 24 25  1  0  0  0  0
 26 27  1  0  0  0  0
 27 28  1  0  0  0  0
 28 30  1  0  0  0  0
 28 29  2  0  0  0  0
 28 31  1  0  0  0  0
M  CHG  2  30  -1  31  -1
M  END
>  <CHROM.1>
28.54946559,77.20674111,111.36579596,69.18186199,51.70213536,63.14719079
64.05526238,-178.92357143,167.36650272,129.14325805,-12.01295440,-1.85626032
1.50347317,0.51901203,0.97882508,-1.32941105

>  <Name>
1fmn_cryst

>  <RI>
0

>  <Rbt.Current_Directory>
/home/itssahil/PROJECTS/Mol_Feturizer/New_Systems/rnas/1fmn

>  <Rbt.Executable>
rbdock ($Id: //depot/dev/client3/rdock/2013.1/src/exe/rbdock.cxx#4 $)

>  <Rbt.Library>
libRbt.so (2013.1, Build901 2013/11/27)

>  <Rbt.Parameter_File>
/export/apps/rDock/src/rDock_2013.1_src/data/scripts/dock_solv.prm

>  <Rbt.Receptor>
prm/blind_docking_40.prm

>  <SCORE>
-39.1534

>  <SCORE.INTER>
-35.8083

>  <SCORE.INTER.CONST>
1

>  <SCORE.INTER.POLAR>
-1.66221

>  <SCORE.INTER.ROT>
7

>  <SCORE.INTER.SOLV>
23.1298

>  <SCORE.INTER.VDW>
-34.3081

>  <SCORE.INTER.norm>
-1.15511

>  <SCORE.INTRA>
-3.5243

>  <SCORE.INTRA.DIHEDRAL>
-3.64234

>  <SCORE.INTRA.DIHEDRAL.0>
15.5708

>  <SCORE.INTRA.POLAR>
-0.424059

>  <SCORE.INTRA.POLAR.0>
-0.0677885

>  <SCORE.INTRA.REPUL>
0

>  <SCORE.INTRA.REPUL.0>
0

>  <SCORE.INTRA.SOLV>
-4.18516

>  <SCORE.INTRA.SOLV.lig_0>
-87.6316

>  <SCORE.INTRA.VDW>
1.83125

>  <SCORE.INTRA.VDW.0>
-2.87309

>  <SCORE.INTRA.norm>
-0.113687

>  <SCORE.RESTR>
0.179143

>  <SCORE.RESTR.CAVITY>
0.179143

>  <SCORE.RESTR.norm>
0.00577881

>  <SCORE.SYSTEM>
0

>  <SCORE.SYSTEM.CONST>
0

>  <SCORE.SYSTEM.DIHEDRAL>
0

>  <SCORE.SYSTEM.SOLV>
0

>  <SCORE.SYSTEM.norm>
0

>  <SCORE.heavy>
31

>  <SCORE.norm>
-1.26301

>  <SYMMETRIC_BONDS>
33 34 3

>  <RMSD>
9.995

$$$$
1fmn_cryst
 OpenBabel11021811393D
libRbt.so/2013.1/901 2013/11/27
 31 33  0  0  0  0  0  0  0  0999 V2000
  -12.9715   -1.9615   -1.4107 N   0  0  0  0  0  0  0  0  0  0  0  0
  -12.8805   -1.7933   -2.7726 C   0  0  0  0  0  0  0  0  0  0  0  0
  -13.6983   -1.1227   -3.4036 O   0  0  0  0  0  0  0  0  0  0  0  0
  -11.7903   -2.4440   -3.4031 N   0  0  0  0  0  0  0  0  0  0  0  0
  -10.8044   -3.2377   -2.7768 C   0  0  0  0  0  0  0  0  0  0  0  0
   -9.9011   -3.7485   -3.4510 O   0  0  0  0  0  0  0  0  0  0  0  0
  -10.9719   -3.3685   -1.3277 C   0  0  0  0  0  0  0  0  0  0  0  0
  -10.0533   -4.1249   -0.6434 N   0  0  0  0  0  0  0  0  0  0  0  0
  -10.3110   -4.3937    0.6696 C   0  0  0  0  0  0  0  0  0  0  0  0
   -9.4925   -5.3031    1.3157 C   0  0  0  0  0  0  0  0  0  0  0  0
   -9.6888   -5.6174    2.6172 C   0  0  0  0  0  0  0  0  0  0  0  0
   -8.7736   -6.6041    3.2694 C   0  0  0  0  0  0  0  0  0  0  0  0
  -10.7030   -5.0418    3.3180 C   0  0  0  0  0  0  0  0  0  0  0  0
  -10.9167   -5.3998    4.7527 C   0  0  0  0  0  0  0  0  0  0  0  0
  -11.5308   -4.1436    2.7259 C   0  0  0  0  0  0  0  0  0  0  0  0
  -11.3714   -3.7848    1.3874 C   0  0  0  0  0  0  0  0  0  0  0  0
  -12.1922   -2.8573    0.7123 N   0  0  0  0  0  0  0  0  0  0  0  0
  -12.0810   -2.7036   -0.6849 C   0  0  0  0  0  0  0  0  0  0  0  0
  -12.7316   -1.6859    1.4967 C   0  0  0  0  0  0  0  0  0  0  0  0
  -11.6757   -0.7721    2.1897 C   0  0  1  0  0  0  0  0  0  0  0  0
  -10.7584   -0.2687    1.2290 O   0  0  0  0  0  0  0  0  0  0  0  0
  -12.3084    0.3566    3.0380 C   0  0  1  0  0  0  0  0  0  0  0  0
  -12.6249    1.4749    2.2140 O   0  0  0  0  0  0  0  0  0  0  0  0
  -13.5334   -0.0219    3.9063 C   0  0  1  0  0  0  0  0  0  0  0  0
  -13.4727   -1.4163    4.1854 O   0  0  0  0  0  0  0  0  0  0  0  0
  -13.5864    0.7512    5.2432 C   0  0  0  0  0  0  0  0  0  0  0  0
  -14.0288    2.0931    5.0778 O   0  0  0  0  0  0  0  0  0  0  0  0
  -14.6010    2.9599    6.2747 P   0  0  0  0  0  0  0  0  0  0  0  0
  -15.9244    2.4561    6.7069 O   0  0  0  0  0  0  0  0  0  0  0  0
  -13.5594    3.1842    7.3003 O   0  5  0  0  0  0  0  0  0  0  0  0
  -14.8830    4.3795    5.6114 O   0  5  0  0  0  0  0  0  0  0  0  0
  1 18  1  0  0  0  0
  1  2  1  0  0  0  0
  2  4  1  0  0  0  0
  2  3  2  0  0  0  0
  4  5  1  0  0  0  0
  5  7  1  0  0  0  0
  5  6  2  0  0  0  0
  7 18  2  0  0  0  0
  7  8  1  0  0  0  0
  8  9  1  0  0  0  0
  9 10  2  0  0  0  0
  9 16  1  0  0  0  0
 10 11  1  0  0  0  0
 11 12  1  0  0  0  0
 11 13  2  0  0  0  0
 13 14  1  0  0  0  0
 13 15  1  0  0  0  0
 15 16  2  0  0  0  0
 16 17  1  0  0  0  0
 17 19  1  0  0  0  0
 17 18  1  0  0  0  0
 20 19  1  6  0  0  0
 20 22  1  0  0  0  0
 20 21  1  0  0  0  0
 22 24  1  0  0  0  0
 22 23  1  6  0  0  0
 24 26  1  1  0  0  0
 24 25  1  0  0  0  0
 26 27  1  0  0  0  0
 27 28  1  0  0  0  0
 28 30  1  0  0  0  0
 28 29  2  0  0  0  0
 28 31  1  0  0  0  0
M  CHG  2  30  -1  31  -1
M  END
>  <CHROM.1>
57.09004601,56.84633302,-84.39989398,62.71126899,24.89607123,61.14540998
76.49796705,-163.47316567,160.51436007,-69.91447470,-12.22819283,-1.41520390
2.03225710,0.74889125,1.06072384,-1.58381289

>  <Name>
1fmn_cryst

>  <RI>
0

>  <Rbt.Current_Directory>
/home/itssahil/PROJECTS/Mol_Feturizer/New_Systems/rnas/1fmn

>  <Rbt.Executable>
rbdock ($Id: //depot/dev/client3/rdock/2013.1/src/exe/rbdock.cxx#4 $)

>  <Rbt.Library>
libRbt.so (2013.1, Build901 2013/11/27)

>  <Rbt.Parameter_File>
/export/apps/rDock/src/rDock_2013.1_src/data/scripts/dock_solv.prm

>  <Rbt.Receptor>
prm/blind_docking_80.prm

>  <SCORE>
-20.9427

>  <SCORE.INTER>
-20.4861

>  <SCORE.INTER.CONST>
1

>  <SCORE.INTER.POLAR>
-0.719222

>  <SCORE.INTER.ROT>
7

>  <SCORE.INTER.SOLV>
24.1917

>  <SCORE.INTER.VDW>
-27.5906

>  <SCORE.INTER.norm>
-0.660842

>  <SCORE.INTRA>
-3.48027

>  <SCORE.INTRA.DIHEDRAL>
-4.55286

>  <SCORE.INTRA.DIHEDRAL.0>
15.5708

>  <SCORE.INTRA.POLAR>
0.0677885

>  <SCORE.INTRA.POLAR.0>
-0.0677885

>  <SCORE.INTRA.REPUL>
0

>  <SCORE.INTRA.REPUL.0>
0

>  <SCORE.INTRA.SOLV>
-4.5568

>  <SCORE.INTRA.SOLV.lig_0>
-87.6316

>  <SCORE.INTRA.VDW>
0.844077

>  <SCORE.INTRA.VDW.0>
-2.87309

>  <SCORE.INTRA.norm>
-0.112267

>  <SCORE.RESTR>
3.02366

>  <SCORE.RESTR.CAVITY>
3.02366

>  <SCORE.RESTR.norm>
0.0975375

>  <SCORE.SYSTEM>
0

>  <SCORE.SYSTEM.CONST>
0

>  <SCORE.SYSTEM.DIHEDRAL>
0

>  <SCORE.SYSTEM.SOLV>
0

>  <SCORE.SYSTEM.norm>
0

>  <SCORE.heavy>
31

>  <SCORE.norm>
-0.675571

>  <SYMMETRIC_BONDS>
33 34 3

>  <RMSD>
9.996

$$$$
1fmn_cryst
 OpenBabel11021811393D
libRbt.so/2013.1/901 2013/11/27
 31 33  0  0  0  0  0  0  0  0999 V2000
  -12.3066   -2.7111   -1.3028 N   0  0  0  0  0  0  0  0  0  0  0  0
  -12.1222   -2.5078   -2.6504 C   0  0  0  0  0  0  0  0  0  0  0  0
  -12.9523   -1.9155   -3.3408 O   0  0  0  0  0  0  0  0  0  0  0  0
  -10.9202   -3.0269   -3.1938 N   0  0  0  0  0  0  0  0  0  0  0  0
   -9.9099   -3.7237   -2.4952 C   0  0  0  0  0  0  0  0  0  0  0  0
   -8.9047   -4.1228   -3.0965 O   0  0  0  0  0  0  0  0  0  0  0  0
  -10.1813   -3.8996   -1.0668 C   0  0  0  0  0  0  0  0  0  0  0  0
   -9.2465   -4.5675   -0.3156 N   0  0  0  0  0  0  0  0  0  0  0  0
   -9.5813   -4.8876    0.9681 C   0  0  0  0  0  0  0  0  0  0  0  0
   -8.7261   -5.7175    1.6712 C   0  0  0  0  0  0  0  0  0  0  0  0
   -8.9942   -6.0760    2.9483 C   0  0  0  0  0  0  0  0  0  0  0  0
   -8.0354   -6.9726    3.6647 C   0  0  0  0  0  0  0  0  0  0  0  0
  -10.1186   -5.6248    3.5673 C   0  0  0  0  0  0  0  0  0  0  0  0
  -10.4103   -6.0312    4.9751 C   0  0  0  0  0  0  0  0  0  0  0  0
  -10.9863   -4.8080    2.9171 C   0  0  0  0  0  0  0  0  0  0  0  0
  -10.7564   -4.4085    1.6007 C   0  0  0  0  0  0  0  0  0  0  0  0
  -11.6134   -3.5602    0.8687 N   0  0  0  0  0  0  0  0  0  0  0  0
  -11.4045   -3.3685   -0.5125 C   0  0  0  0  0  0  0  0  0  0  0  0
  -12.3381   -2.4680    1.6172 C   0  0  0  0  0  0  0  0  0  0  0  0
  -11.9597   -1.0031    1.2413 C   0  0  1  0  0  0  0  0  0  0  0  0
  -12.5423   -0.6519   -0.0057 O   0  0  0  0  0  0  0  0  0  0  0  0
  -12.3004    0.0192    2.3517 C   0  0  1  0  0  0  0  0  0  0  0  0
  -11.6687   -0.3509    3.5738 O   0  0  0  0  0  0  0  0  0  0  0  0
  -12.0179    1.5099    2.0425 C   0  0  1  0  0  0  0  0  0  0  0  0
  -12.6295    1.8347    0.7990 O   0  0  0  0  0  0  0  0  0  0  0  0
  -12.5624    2.4644    3.1289 C   0  0  0  0  0  0  0  0  0  0  0  0
  -13.9844    2.4909    3.1657 O   0  0  0  0  0  0  0  0  0  0  0  0
  -14.7999    2.9129    4.4573 P   0  0  0  0  0  0  0  0  0  0  0  0
  -15.3128    1.7217    5.1713 O   0  0  0  0  0  0  0  0  0  0  0  0
  -14.0623    3.9371    5.2280 O   0  5  0  0  0  0  0  0  0  0  0  0
  -16.0871    3.6424    3.8692 O   0  5  0  0  0  0  0  0  0  0  0  0
  1 18  1  0  0  0  0
  1  2  1  0  0  0  0
  2  4  1  0  0  0  0
  2  3  2  0  0  0  0
  4  5  1  0  0  0  0
  5  7  1  0  0  0  0
  5  6  2  0  0  0  0
  7 18  2  0  0  0  0
  7  8  1  0  0  0  0
  8  9  1  0  0  0  0
  9 10  2  0  0  0  0
  9 16  1  0  0  0  0
 10 11  1  0  0  0  0
 11 12  1  0  0  0  0
 11 13  2  0  0  0  0
 13 14  1  0  0  0  0
 13 15  1  0  0  0  0
 15 16  2  0  0  0  0
 16 17  1  0  0  0  0
 17 19  1  0  0  0  0
 17 18  1  0  0  0  0
 20 19  1  1  0  0  0
 20 22  1  0  0  0  0
 20 21  1  0  0  0  0
 22 24  1  0  0  0  0
 22 23  1  1  0  0  0
 24 26  1  1  0  0  0
 24 25  1  0  0  0  0
 26 27  1  0  0  0  0
 27 28  1  0  0  0  0
 28 30  1  0  0  0  0
 28 29  2  0  0  0  0
 28 31  1  0  0  0  0
M  CHG  2  30  -1  31  -1
M  END
>  <CHROM.1>
114.99601311,75.37651325,56.17665799,-109.56035657,51.68932781,-170.05179985
-68.01949645,62.42097064,156.37487744,-101.06110479,-11.81040051,-1.63796069
1.50155510,0.35817883,1.04334273,-1.52839866

>  <Name>
1fmn_cryst

>  <RI>
0

>  <Rbt.Current_Directory>
/home/itssahil/PROJECTS/Mol_Feturizer/New_Systems/rnas/1fmn

>  <Rbt.Executable>
rbdock ($Id: //depot/dev/client3/rdock/2013.1/src/exe/rbdock.cxx#4 $)

>  <Rbt.Library>
libRbt.so (2013.1, Build901 2013/11/27)

>  <Rbt.Parameter_File>
/export/apps/rDock/src/rDock_2013.1_src/data/scripts/dock_solv.prm

>  <Rbt.Receptor>
prm/blind_docking_40.prm

>  <SCORE>
-29.5964

>  <SCORE.INTER>
-30.4133

>  <SCORE.INTER.CONST>
1

>  <SCORE.INTER.POLAR>
-0.8

>  <SCORE.INTER.ROT>
7

>  <SCORE.INTER.SOLV>
20.9506

>  <SCORE.INTER.VDW>
-32.8591

>  <SCORE.INTER.norm>
-0.981075

>  <SCORE.INTRA>
-0.597258

>  <SCORE.INTRA.DIHEDRAL>
-1.19321

>  <SCORE.INTRA.DIHEDRAL.0>
15.5708

>  <SCORE.INTRA.POLAR>
0.0263873

>  <SCORE.INTRA.POLAR.0>
-0.0677885

>  <SCORE.INTRA.REPUL>
0

>  <SCORE.INTRA.REPUL.0>
0

>  <SCORE.INTRA.SOLV>
-3.233

>  <SCORE.INTRA.SOLV.lig_0>
-87.6316

>  <SCORE.INTRA.VDW>
1.52613

>  <SCORE.INTRA.VDW.0>
-2.87309

>  <SCORE.INTRA.norm>
-0.0192664

>  <SCORE.RESTR>
1.41419

>  <SCORE.RESTR.CAVITY>
1.41419

>  <SCORE.RESTR.norm>
0.045619

>  <SCORE.SYSTEM>
0

>  <SCORE.SYSTEM.CONST>
0

>  <SCORE.SYSTEM.DIHEDRAL>
0

>  <SCORE.SYSTEM.SOLV>
0

>  <SCORE.SYSTEM.norm>
0

>  <SCORE.heavy>
31

>  <SCORE.norm>
-0.954723

>  <SYMMETRIC_BONDS>
33 34 3

>  <RMSD>
10.002

$$$$
1fmn_cryst
 OpenBabel11021811393D
libRbt.so/2013.1/901 2013/11/27
 31 33  0  0  0  0  0  0  0  0999 V2000
  -11.8891   -2.7947   -2.3852 N   0  0  0  0  0  0  0  0  0  0  0  0
  -11.4993   -2.7477   -3.7033 C   0  0  0  0  0  0  0  0  0  0  0  0
  -12.1987   -2.2266   -4.5727 O   0  0  0  0  0  0  0  0  0  0  0  0
  -10.2458   -3.3408   -3.9974 N   0  0  0  0  0  0  0  0  0  0  0  0
   -9.3727   -3.9672   -3.0811 C   0  0  0  0  0  0  0  0  0  0  0  0
   -8.3013   -4.4449   -3.4750 O   0  0  0  0  0  0  0  0  0  0  0  0
   -9.8597   -3.9766   -1.6998 C   0  0  0  0  0  0  0  0  0  0  0  0
   -9.0682   -4.5674   -0.7466 N   0  0  0  0  0  0  0  0  0  0  0  0
   -9.6007   -4.7356    0.4987 C   0  0  0  0  0  0  0  0  0  0  0  0
   -8.8855   -5.4916    1.4105 C   0  0  0  0  0  0  0  0  0  0  0  0
   -9.3522   -5.6997    2.6636 C   0  0  0  0  0  0  0  0  0  0  0  0
   -8.5387   -6.5218    3.6116 C   0  0  0  0  0  0  0  0  0  0  0  0
  -10.5424   -5.1665    3.0513 C   0  0  0  0  0  0  0  0  0  0  0  0
  -11.0533   -5.4070    4.4345 C   0  0  0  0  0  0  0  0  0  0  0  0
  -11.2781   -4.4173    2.1909 C   0  0  0  0  0  0  0  0  0  0  0  0
  -10.8421   -4.1725    0.8888 C   0  0  0  0  0  0  0  0  0  0  0  0
  -11.5542   -3.4014   -0.0536 N   0  0  0  0  0  0  0  0  0  0  0  0
  -11.1355   -3.3702   -1.3996 C   0  0  0  0  0  0  0  0  0  0  0  0
  -12.3494   -2.2221    0.4514 C   0  0  0  0  0  0  0  0  0  0  0  0
  -11.9002   -1.6182    1.8166 C   0  0  1  0  0  0  0  0  0  0  0  0
  -10.8431   -0.6904    1.6171 O   0  0  0  0  0  0  0  0  0  0  0  0
  -13.0676   -1.0055    2.6265 C   0  0  1  0  0  0  0  0  0  0  0  0
  -13.4524   -1.8846    3.6794 O   0  0  0  0  0  0  0  0  0  0  0  0
  -12.8600    0.4245    3.1829 C   0  0  1  0  0  0  0  0  0  0  0  0
  -12.6984    1.3151    2.0844 O   0  0  0  0  0  0  0  0  0  0  0  0
  -14.0435    0.9120    4.0486 C   0  0  0  0  0  0  0  0  0  0  0  0
  -13.8970    2.2674    4.4556 O   0  0  0  0  0  0  0  0  0  0  0  0
  -14.8977    2.9722    5.4621 P   0  0  0  0  0  0  0  0  0  0  0  0
  -14.6628    2.5127    6.8498 O   0  0  0  0  0  0  0  0  0  0  0  0
  -14.9635    4.4261    5.1993 O   0  5  0  0  0  0  0  0  0  0  0  0
  -16.3197    2.3833    5.0547 O   0  5  0  0  0  0  0  0  0  0  0  0
  1 18  1  0  0  0  0
  1  2  1  0  0  0  0
  2  4  1  0  0  0  0
  2  3  2  0  0  0  0
  4  5  1  0  0  0  0
  5  7  1  0  0  0  0
  5  6  2  0  0  0  0
  7 18  2  0  0  0  0
  7  8  1  0  0  0  0
  8  9  1  0  0  0  0
  9 10  2  0  0  0  0
  9 16  1  0  0  0  0
 10 11  1  0  0  0  0
 11 12  1  0  0  0  0
 11 13  2  0  0  0  0
 13 14  1  0  0  0  0
 13 15  1  0  0  0  0
 15 16  2  0  0  0  0
 16 17  1  0  0  0  0
 17 19  1  0  0  0  0
 17 18  1  0  0  0  0
 20 19  1  6  0  0  0
 20 22  1  0  0  0  0
 20 21  1  0  0  0  0
 22 24  1  0  0  0  0
 22 23  1  1  0  0  0
 24 26  1  6  0  0  0
 24 25  1  0  0  0  0
 26 27  1  0  0  0  0
 27 28  1  0  0  0  0
 28 30  1  0  0  0  0
 28 29  2  0  0  0  0
 28 31  1  0  0  0  0
M  CHG  2  30  -1  31  -1
M  END
>  <CHROM.1>
23.20338773,84.43133860,102.99399639,-176.60089736,62.95306980,64.56204081
-174.75664994,-65.06674262,-174.02563865,74.94243738,-11.85769284,-1.79825089
1.53392877,0.53977181,1.01663069,-1.41827838

>  <Name>
1fmn_cryst

>  <RI>
0

>  <Rbt.Current_Directory>
/home/itssahil/PROJECTS/Mol_Feturizer/New_Systems/rnas/1fmn

>  <Rbt.Executable>
rbdock ($Id: //depot/dev/client3/rdock/2013.1/src/exe/rbdock.cxx#4 $)

>  <Rbt.Library>
libRbt.so (2013.1, Build901 2013/11/27)

>  <Rbt.Parameter_File>
/export/apps/rDock/src/rDock_2013.1_src/data/scripts/dock_solv.prm

>  <Rbt.Receptor>
prm/blind_docking_40.prm

>  <SCORE>
-41.3487

>  <SCORE.INTER>
-37.499

>  <SCORE.INTER.CONST>
1

>  <SCORE.INTER.POLAR>
-1.75139

>  <SCORE.INTER.ROT>
7

>  <SCORE.INTER.SOLV>
20.8438

>  <SCORE.INTER.VDW>
-34.376

>  <SCORE.INTER.norm>
-1.20965

>  <SCORE.INTRA>
-4.02268

>  <SCORE.INTRA.DIHEDRAL>
-5.62409

>  <SCORE.INTRA.DIHEDRAL.0>
15.5708

>  <SCORE.INTRA.POLAR>
-0.153946

>  <SCORE.INTRA.POLAR.0>
-0.0677885

>  <SCORE.INTRA.REPUL>
0

>  <SCORE.INTRA.REPUL.0>
0

>  <SCORE.INTRA.SOLV>
-4.49788

>  <SCORE.INTRA.SOLV.lig_0>
-87.6316

>  <SCORE.INTRA.VDW>
1.56173

>  <SCORE.INTRA.VDW.0>
-2.87309

>  <SCORE.INTRA.norm>
-0.129764

>  <SCORE.RESTR>
0.17302

>  <SCORE.RESTR.CAVITY>
0.17302

>  <SCORE.RESTR.norm>
0.00558128

>  <SCORE.SYSTEM>
0

>  <SCORE.SYSTEM.CONST>
0

>  <SCORE.SYSTEM.DIHEDRAL>
0

>  <SCORE.SYSTEM.SOLV>
0

>  <SCORE.SYSTEM.norm>
0

>  <SCORE.heavy>
31

>  <SCORE.norm>
-1.33383

>  <SYMMETRIC_BONDS>
33 34 3

>  <RMSD>
10.002

$$$$
1fmn_cryst
 OpenBabel11021811393D
libRbt.so/2013.1/901 2013/11/27
 31 33  0  0  0  0  0  0  0  0999 V2000
  -12.9403   -2.2541   -0.6817 N   0  0  0  0  0  0  0  0  0  0  0  0
  -12.9121   -1.9465   -2.0219 C   0  0  0  0  0  0  0  0  0  0  0  0
  -13.8082   -1.2965   -2.5614 O   0  0  0  0  0  0  0  0  0  0  0  0
  -11.7903   -2.4287   -2.7419 N   0  0  0  0  0  0  0  0  0  0  0  0
  -10.7159   -3.1845   -2.2236 C   0  0  0  0  0  0  0  0  0  0  0  0
   -9.7944   -3.5413   -2.9684 O   0  0  0  0  0  0  0  0  0  0  0  0
  -10.8207   -3.4707   -0.7910 C   0  0  0  0  0  0  0  0  0  0  0  0
   -9.8147   -4.2014   -0.2095 N   0  0  0  0  0  0  0  0  0  0  0  0
  -10.0016   -4.6195    1.0761 C   0  0  0  0  0  0  0  0  0  0  0  0
   -9.0828   -5.5074    1.6069 C   0  0  0  0  0  0  0  0  0  0  0  0
   -9.2048   -5.9636    2.8751 C   0  0  0  0  0  0  0  0  0  0  0  0
   -8.1826   -6.9198    3.4017 C   0  0  0  0  0  0  0  0  0  0  0  0
  -10.2418   -5.5556    3.6556 C   0  0  0  0  0  0  0  0  0  0  0  0
  -10.3727   -6.0697    5.0523 C   0  0  0  0  0  0  0  0  0  0  0  0
  -11.1670   -4.6848    3.1776 C   0  0  0  0  0  0  0  0  0  0  0  0
  -11.0869   -4.1844    1.8782 C   0  0  0  0  0  0  0  0  0  0  0  0
  -12.0106   -3.2757    1.3204 N   0  0  0  0  0  0  0  0  0  0  0  0
  -11.9621   -2.9773   -0.0568 C   0  0  0  0  0  0  0  0  0  0  0  0
  -12.6256   -2.2414    2.2315 C   0  0  0  0  0  0  0  0  0  0  0  0
  -11.8816   -0.8749    2.3287 C   0  0  1  0  0  0  0  0  0  0  0  0
  -11.2157   -0.5923    1.1061 O   0  0  0  0  0  0  0  0  0  0  0  0
  -12.7986    0.2888    2.7747 C   0  0  1  0  0  0  0  0  0  0  0  0
  -14.0986    0.1361    2.2122 O   0  0  0  0  0  0  0  0  0  0  0  0
  -12.9103    0.5492    4.2971 C   0  0  1  0  0  0  0  0  0  0  0  0
  -11.6053    0.8003    4.8069 O   0  0  0  0  0  0  0  0  0  0  0  0
  -13.8175    1.7528    4.6377 C   0  0  0  0  0  0  0  0  0  0  0  0
  -13.7816    2.0863    6.0203 O   0  0  0  0  0  0  0  0  0  0  0  0
  -14.6758    3.2343    6.6478 P   0  0  0  0  0  0  0  0  0  0  0  0
  -14.5718    4.4793    5.8533 O   0  0  0  0  0  0  0  0  0  0  0  0
  -16.0207    2.7211    6.9867 O   0  5  0  0  0  0  0  0  0  0  0  0
  -13.9610    3.5541    8.0340 O   0  5  0  0  0  0  0  0  0  0  0  0
  1 18  1  0  0  0  0
  1  2  1  0  0  0  0
  2  4  1  0  0  0  0
  2  3  2  0  0  0  0
  4  5  1  0  0  0  0
  5  7  1  0  0  0  0
  5  6  2  0  0  0  0
  7 18  2  0  0  0  0
  7  8  1  0  0  0  0
  8  9  1  0  0  0  0
  9 10  2  0  0  0  0
  9 16  1  0  0  0  0
 10 11  1  0  0  0  0
 11 12  1  0  0  0  0
 11 13  2  0  0  0  0
 13 14  1  0  0  0  0
 13 15  1  0  0  0  0
 15 16  2  0  0  0  0
 16 17  1  0  0  0  0
 17 19  1  0  0  0  0
 17 18  1  0  0  0  0
 20 19  1  6  0  0  0
 20 22  1  0  0  0  0
 20 21  1  0  0  0  0
 22 24  1  0  0  0  0
 22 23  1  1  0  0  0
 24 26  1  6  0  0  0
 24 25  1  0  0  0  0
 26 27  1  0  0  0  0
 27 28  1  0  0  0  0
 28 30  1  0  0  0  0
 28 29  2  0  0  0  0
 28 31  1  0  0  0  0
M  CHG  2  30  -1  31  -1
M  END
>  <CHROM.1>
91.37782906,30.20025188,-36.76492457,67.84849004,57.84574128,69.77830929
-172.66978494,-79.96788627,-176.83734227,-49.00722785,-12.11369232,-1.45679477
2.43146418,0.75279179,1.02023620,-1.69551291

>  <Name>
1fmn_cryst

>  <RI>
0

>  <Rbt.Current_Directory>
/home/itssahil/PROJECTS/Mol_Feturizer/New_Systems/rnas/1fmn

>  <Rbt.Executable>
rbdock ($Id: //depot/dev/client3/rdock/2013.1/src/exe/rbdock.cxx#4 $)

>  <Rbt.Library>
libRbt.so (2013.1, Build901 2013/11/27)

>  <Rbt.Parameter_File>
/export/apps/rDock/src/rDock_2013.1_src/data/scripts/dock_solv.prm

>  <Rbt.Receptor>
prm/blind_docking_80.prm

>  <SCORE>
-33.9667

>  <SCORE.INTER>
-31.7933

>  <SCORE.INTER.CONST>
1

>  <SCORE.INTER.POLAR>
-1.81049

>  <SCORE.INTER.ROT>
7

>  <SCORE.INTER.SOLV>
25.3343

>  <SCORE.INTER.VDW>
-31.872

>  <SCORE.INTER.norm>
-1.02559

>  <SCORE.INTRA>
-4.34309

>  <SCORE.INTRA.DIHEDRAL>
-6.57012

>  <SCORE.INTRA.DIHEDRAL.0>
15.5708

>  <SCORE.INTRA.POLAR>
0.0677885

>  <SCORE.INTRA.POLAR.0>
-0.0677885

>  <SCORE.INTRA.REPUL>
0

>  <SCORE.INTRA.REPUL.0>
0

>  <SCORE.INTRA.SOLV>
-4.05563

>  <SCORE.INTRA.SOLV.lig_0>
-87.6316

>  <SCORE.INTRA.VDW>
0.739301

>  <SCORE.INTRA.VDW.0>
-2.87309

>  <SCORE.INTRA.norm>
-0.1401

>  <SCORE.RESTR>
2.16966

>  <SCORE.RESTR.CAVITY>
2.16966

>  <SCORE.RESTR.norm>
0.0699891

>  <SCORE.SYSTEM>
0

>  <SCORE.SYSTEM.CONST>
0

>  <SCORE.SYSTEM.DIHEDRAL>
0

>  <SCORE.SYSTEM.SOLV>
0

>  <SCORE.SYSTEM.norm>
0

>  <SCORE.heavy>
31

>  <SCORE.norm>
-1.0957

>  <SYMMETRIC_BONDS>
33 34 3

>  <RMSD>
10.010

$$$$
1fmn_cryst
 OpenBabel11021811393D
libRbt.so/2013.1/901 2013/11/27
 31 33  0  0  0  0  0  0  0  0999 V2000
  -11.7968   -2.8780   -2.4756 N   0  0  0  0  0  0  0  0  0  0  0  0
  -11.3458   -2.8637   -3.7748 C   0  0  0  0  0  0  0  0  0  0  0  0
  -12.0011   -2.3600   -4.6877 O   0  0  0  0  0  0  0  0  0  0  0  0
  -10.0833   -3.4692   -3.9962 N   0  0  0  0  0  0  0  0  0  0  0  0
   -9.2573   -4.0779   -3.0259 C   0  0  0  0  0  0  0  0  0  0  0  0
   -8.1715   -4.5696   -3.3583 O   0  0  0  0  0  0  0  0  0  0  0  0
   -9.8082   -4.0527   -1.6691 C   0  0  0  0  0  0  0  0  0  0  0  0
   -9.0652   -4.6245   -0.6665 N   0  0  0  0  0  0  0  0  0  0  0  0
   -9.6559   -4.7610    0.5562 C   0  0  0  0  0  0  0  0  0  0  0  0
   -8.9881   -5.4987    1.5176 C   0  0  0  0  0  0  0  0  0  0  0  0
   -9.5137   -5.6752    2.7521 C   0  0  0  0  0  0  0  0  0  0  0  0
   -8.7498   -6.4786    3.7558 C   0  0  0  0  0  0  0  0  0  0  0  0
  -10.7177   -5.1278    3.0714 C   0  0  0  0  0  0  0  0  0  0  0  0
  -11.2937   -5.3334    4.4345 C   0  0  0  0  0  0  0  0  0  0  0  0
  -11.4084   -4.3956    2.1605 C   0  0  0  0  0  0  0  0  0  0  0  0
  -10.9110   -4.1834    0.8748 C   0  0  0  0  0  0  0  0  0  0  0  0
  -11.5741   -3.4314   -0.1175 N   0  0  0  0  0  0  0  0  0  0  0  0
  -11.0931   -3.4336   -1.4428 C   0  0  0  0  0  0  0  0  0  0  0  0
  -12.3853   -2.2369    0.3224 C   0  0  0  0  0  0  0  0  0  0  0  0
  -11.9901   -1.5970    1.6879 C   0  0  1  0  0  0  0  0  0  0  0  0
  -10.8837   -0.7226    1.5165 O   0  0  0  0  0  0  0  0  0  0  0  0
  -13.1746   -0.9041    2.4026 C   0  0  1  0  0  0  0  0  0  0  0  0
  -13.3913   -1.4923    3.6819 O   0  0  0  0  0  0  0  0  0  0  0  0
  -13.1083    0.6373    2.5355 C   0  0  1  0  0  0  0  0  0  0  0  0
  -12.9174    1.1923    1.2388 O   0  0  0  0  0  0  0  0  0  0  0  0
  -14.3880    1.2445    3.1530 C   0  0  0  0  0  0  0  0  0  0  0  0
  -14.3178    1.3331    4.5712 O   0  0  0  0  0  0  0  0  0  0  0  0
  -15.3890    2.1201    5.4341 P   0  0  0  0  0  0  0  0  0  0  0  0
  -14.8976    2.3413    6.8131 O   0  0  0  0  0  0  0  0  0  0  0  0
  -15.9209    3.2746    4.6783 O   0  5  0  0  0  0  0  0  0  0  0  0
  -16.5935    1.0882    5.5729 O   0  5  0  0  0  0  0  0  0  0  0  0
  1 18  1  0  0  0  0
  1  2  1  0  0  0  0
  2  4  1  0  0  0  0
  2  3  2  0  0  0  0
  4  5  1  0  0  0  0
  5  7  1  0  0  0  0
  5  6  2  0  0  0  0
  7 18  2  0  0  0  0
  7  8  1  0  0  0  0
  8  9  1  0  0  0  0
  9 10  2  0  0  0  0
  9 16  1  0  0  0  0
 10 11  1  0  0  0  0
 11 12  1  0  0  0  0
 11 13  2  0  0  0  0
 13 14  1  0  0  0  0
 13 15  1  0  0  0  0
 15 16  2  0  0  0  0
 16 17  1  0  0  0  0
 17 19  1  0  0  0  0
 17 18  1  0  0  0  0
 20 19  1  6  0  0  0
 20 22  1  0  0  0  0
 20 21  1  0  0  0  0
 22 24  1  0  0  0  0
 22 23  1  1  0  0  0
 24 26  1  6  0  0  0
 24 25  1  0  0  0  0
 26 27  1  0  0  0  0
 27 28  1  0  0  0  0
 28 30  1  0  0  0  0
 28 29  2  0  0  0  0
 28 31  1  0  0  0  0
M  CHG  2  30  -1  31  -1
M  END
>  <CHROM.1>
23.62547485,81.82960636,120.83735247,67.50609804,54.46209458,60.33989211
90.04869037,63.58842226,170.14112372,-165.58359541,-11.99825945,-1.97457115
1.44411169,0.51311827,0.95379803,-1.35148660

>  <Name>
1fmn_cryst

>  <RI>
0

>  <Rbt.Current_Directory>
/home/itssahil/PROJECTS/Mol_Feturizer/New_Systems/rnas/1fmn

>  <Rbt.Executable>
rbdock ($Id: //depot/dev/client3/rdock/2013.1/src/exe/rbdock.cxx#4 $)

>  <Rbt.Library>
libRbt.so (2013.1, Build901 2013/11/27)

>  <Rbt.Parameter_File>
/export/apps/rDock/src/rDock_2013.1_src/data/scripts/dock_solv.prm

>  <Rbt.Receptor>
prm/blind_docking_40.prm

>  <SCORE>
-39.1855

>  <SCORE.INTER>
-36.3253

>  <SCORE.INTER.CONST>
1

>  <SCORE.INTER.POLAR>
-1.68951

>  <SCORE.INTER.ROT>
7

>  <SCORE.INTER.SOLV>
22.8596

>  <SCORE.INTER.VDW>
-34.4717

>  <SCORE.INTER.norm>
-1.17178

>  <SCORE.INTRA>
-2.98196

>  <SCORE.INTRA.DIHEDRAL>
-1.99914

>  <SCORE.INTRA.DIHEDRAL.0>
15.5708

>  <SCORE.INTRA.POLAR>
-0.323773

>  <SCORE.INTRA.POLAR.0>
-0.0677885

>  <SCORE.INTRA.REPUL>
0

>  <SCORE.INTRA.REPUL.0>
0

>  <SCORE.INTRA.SOLV>
-4.68451

>  <SCORE.INTRA.SOLV.lig_0>
-87.6316

>  <SCORE.INTRA.VDW>
1.46069

>  <SCORE.INTRA.VDW.0>
-2.87309

>  <SCORE.INTRA.norm>
-0.0961922

>  <SCORE.RESTR>
0.12174

>  <SCORE.RESTR.CAVITY>
0.12174

>  <SCORE.RESTR.norm>
0.0039271

>  <SCORE.SYSTEM>
0

>  <SCORE.SYSTEM.CONST>
0

>  <SCORE.SYSTEM.DIHEDRAL>
0

>  <SCORE.SYSTEM.SOLV>
0

>  <SCORE.SYSTEM.norm>
0

>  <SCORE.heavy>
31

>  <SCORE.norm>
-1.26405

>  <SYMMETRIC_BONDS>
33 34 3

>  <RMSD>
10.021

$$$$
1fmn_cryst
 OpenBabel11021811393D
libRbt.so/2013.1/901 2013/11/27
 31 33  0  0  0  0  0  0  0  0999 V2000
  -12.9392   -2.2278   -0.6556 N   0  0  0  0  0  0  0  0  0  0  0  0
  -12.9232   -1.9163   -1.9951 C   0  0  0  0  0  0  0  0  0  0  0  0
  -13.8205   -1.2585   -2.5231 O   0  0  0  0  0  0  0  0  0  0  0  0
  -11.8126   -2.4042   -2.7286 N   0  0  0  0  0  0  0  0  0  0  0  0
  -10.7381   -3.1691   -2.2241 C   0  0  0  0  0  0  0  0  0  0  0  0
   -9.8271   -3.5300   -2.9798 O   0  0  0  0  0  0  0  0  0  0  0  0
  -10.8295   -3.4588   -0.7913 C   0  0  0  0  0  0  0  0  0  0  0  0
   -9.8224   -4.1983   -0.2228 N   0  0  0  0  0  0  0  0  0  0  0  0
   -9.9985   -4.6189    1.0636 C   0  0  0  0  0  0  0  0  0  0  0  0
   -9.0803   -5.5148    1.5818 C   0  0  0  0  0  0  0  0  0  0  0  0
   -9.1919   -5.9740    2.8499 C   0  0  0  0  0  0  0  0  0  0  0  0
   -8.1708   -6.9389    3.3627 C   0  0  0  0  0  0  0  0  0  0  0  0
  -10.2175   -5.5611    3.6428 C   0  0  0  0  0  0  0  0  0  0  0  0
  -10.3370   -6.0785    5.0392 C   0  0  0  0  0  0  0  0  0  0  0  0
  -11.1417   -4.6825    3.1773 C   0  0  0  0  0  0  0  0  0  0  0  0
  -11.0720   -4.1787    1.8785 C   0  0  0  0  0  0  0  0  0  0  0  0
  -11.9953   -3.2619    1.3334 N   0  0  0  0  0  0  0  0  0  0  0  0
  -11.9595   -2.9597   -0.0434 C   0  0  0  0  0  0  0  0  0  0  0  0
  -12.5932   -2.2261    2.2541 C   0  0  0  0  0  0  0  0  0  0  0  0
  -11.8458   -0.8605    2.3375 C   0  0  1  0  0  0  0  0  0  0  0  0
  -11.1564   -0.6051    1.1220 O   0  0  0  0  0  0  0  0  0  0  0  0
  -12.7664    0.3152    2.7429 C   0  0  1  0  0  0  0  0  0  0  0  0
  -14.0669    0.1371    2.1894 O   0  0  0  0  0  0  0  0  0  0  0  0
  -12.8757    0.6305    4.2551 C   0  0  1  0  0  0  0  0  0  0  0  0
  -11.5670    0.8745    4.7589 O   0  0  0  0  0  0  0  0  0  0  0  0
  -13.7605    1.8621    4.5514 C   0  0  0  0  0  0  0  0  0  0  0  0
  -13.7293    2.2361    5.9237 O   0  0  0  0  0  0  0  0  0  0  0  0
  -14.6397    3.3890    6.5180 P   0  0  0  0  0  0  0  0  0  0  0  0
  -14.2405    3.7154    7.9059 O   0  0  0  0  0  0  0  0  0  0  0  0
  -14.7842    4.4930    5.5447 O   0  5  0  0  0  0  0  0  0  0  0  0
  -16.0759    2.7122    6.6372 O   0  5  0  0  0  0  0  0  0  0  0  0
  1 18  1  0  0  0  0
  1  2  1  0  0  0  0
  2  4  1  0  0  0  0
  2  3  2  0  0  0  0
  4  5  1  0  0  0  0
  5  7  1  0  0  0  0
  5  6  2  0  0  0  0
  7 18  2  0  0  0  0
  7  8  1  0  0  0  0
  8  9  1  0  0  0  0
  9 10  2  0  0  0  0
  9 16  1  0  0  0  0
 10 11  1  0  0  0  0
 11 12  1  0  0  0  0
 11 13  2  0  0  0  0
 13 14  1  0  0  0  0
 13 15  1  0  0  0  0
 15 16  2  0  0  0  0
 16 17  1  0  0  0  0
 17 19  1  0  0  0  0
 17 18  1  0  0  0  0
 20 19  1  6  0  0  0
 20 22  1  0  0  0  0
 20 21  1  0  0  0  0
 22 24  1  0  0  0  0
 22 23  1  1  0  0  0
 24 26  1  6  0  0  0
 24 25  1  0  0  0  0
 26 27  1  0  0  0  0
 27 28  1  0  0  0  0
 28 30  1  0  0  0  0
 28 29  2  0  0  0  0
 28 31  1  0  0  0  0
M  CHG  2  30  -1  31  -1
M  END
>  <CHROM.1>
91.91066608,27.87453120,-35.19281745,66.61964618,56.51519925,71.84455873
-173.15795595,-78.84601552,-174.77713875,-170.47053599,-12.11740826,-1.42099372
2.38542341,0.72668482,1.02080300,-1.69920518

>  <Name>
1fmn_cryst

>  <RI>
0

>  <Rbt.Current_Directory>
/home/itssahil/PROJECTS/Mol_Feturizer/New_Systems/rnas/1fmn

>  <Rbt.Executable>
rbdock ($Id: //depot/dev/client3/rdock/2013.1/src/exe/rbdock.cxx#4 $)

>  <Rbt.Library>
libRbt.so (2013.1, Build901 2013/11/27)

>  <Rbt.Parameter_File>
/export/apps/rDock/src/rDock_2013.1_src/data/scripts/dock_solv.prm

>  <Rbt.Receptor>
prm/blind_docking_80.prm

>  <SCORE>
-34.0428

>  <SCORE.INTER>
-32.4665

>  <SCORE.INTER.CONST>
1

>  <SCORE.INTER.POLAR>
-1.83371

>  <SCORE.INTER.ROT>
7

>  <SCORE.INTER.SOLV>
23.7894

>  <SCORE.INTER.VDW>
-31.7284

>  <SCORE.INTER.norm>
-1.04731

>  <SCORE.INTRA>
-3.79531

>  <SCORE.INTRA.DIHEDRAL>
-6.09895

>  <SCORE.INTRA.DIHEDRAL.0>
15.5708

>  <SCORE.INTRA.POLAR>
0.0677885

>  <SCORE.INTRA.POLAR.0>
-0.0677885

>  <SCORE.INTRA.REPUL>
0

>  <SCORE.INTRA.REPUL.0>
0

>  <SCORE.INTRA.SOLV>
-3.73668

>  <SCORE.INTRA.SOLV.lig_0>
-87.6316

>  <SCORE.INTRA.VDW>
0.892024

>  <SCORE.INTRA.VDW.0>
-2.87309

>  <SCORE.INTRA.norm>
-0.122429

>  <SCORE.RESTR>
2.21902

>  <SCORE.RESTR.CAVITY>
2.21902

>  <SCORE.RESTR.norm>
0.0715814

>  <SCORE.SYSTEM>
0

>  <SCORE.SYSTEM.CONST>
0

>  <SCORE.SYSTEM.DIHEDRAL>
0

>  <SCORE.SYSTEM.SOLV>
0

>  <SCORE.SYSTEM.norm>
0

>  <SCORE.heavy>
31

>  <SCORE.norm>
-1.09815

>  <SYMMETRIC_BONDS>
33 34 3

>  <RMSD>
10.045

$$$$
1fmn_cryst
 OpenBabel11021811393D
libRbt.so/2013.1/901 2013/11/27
 31 33  0  0  0  0  0  0  0  0999 V2000
  -11.7621   -2.8231   -2.5926 N   0  0  0  0  0  0  0  0  0  0  0  0
  -11.3109   -2.7830   -3.8912 C   0  0  0  0  0  0  0  0  0  0  0  0
  -11.9729   -2.2749   -4.7968 O   0  0  0  0  0  0  0  0  0  0  0  0
  -10.0399   -3.3672   -4.1209 N   0  0  0  0  0  0  0  0  0  0  0  0
   -9.2058   -3.9786   -3.1594 C   0  0  0  0  0  0  0  0  0  0  0  0
   -8.1129   -4.4499   -3.4984 O   0  0  0  0  0  0  0  0  0  0  0  0
   -9.7574   -3.9816   -1.8026 C   0  0  0  0  0  0  0  0  0  0  0  0
   -9.0068   -4.5579   -0.8082 N   0  0  0  0  0  0  0  0  0  0  0  0
   -9.5960   -4.7210    0.4119 C   0  0  0  0  0  0  0  0  0  0  0  0
   -8.9183   -5.4636    1.3626 C   0  0  0  0  0  0  0  0  0  0  0  0
   -9.4418   -5.6660    2.5940 C   0  0  0  0  0  0  0  0  0  0  0  0
   -8.6670   -6.4735    3.5859 C   0  0  0  0  0  0  0  0  0  0  0  0
  -10.6535   -5.1404    2.9207 C   0  0  0  0  0  0  0  0  0  0  0  0
  -11.2271   -5.3746    4.2802 C   0  0  0  0  0  0  0  0  0  0  0  0
  -11.3542   -4.4045    2.0205 C   0  0  0  0  0  0  0  0  0  0  0  0
  -10.8592   -4.1660    0.7384 C   0  0  0  0  0  0  0  0  0  0  0  0
  -11.5325   -3.4086   -0.2429 N   0  0  0  0  0  0  0  0  0  0  0  0
  -11.0510   -3.3842   -1.5679 C   0  0  0  0  0  0  0  0  0  0  0  0
  -12.3607   -2.2325    0.2144 C   0  0  0  0  0  0  0  0  0  0  0  0
  -12.1013   -1.7261    1.6657 C   0  0  1  0  0  0  0  0  0  0  0  0
  -10.9393   -0.9096    1.6987 O   0  0  0  0  0  0  0  0  0  0  0  0
  -13.3267   -1.0205    2.2940 C   0  0  1  0  0  0  0  0  0  0  0  0
  -13.3266   -1.1971    3.7076 O   0  0  0  0  0  0  0  0  0  0  0  0
  -13.5266    0.4759    1.9497 C   0  0  1  0  0  0  0  0  0  0  0  0
  -14.9238    0.7411    1.8925 O   0  0  0  0  0  0  0  0  0  0  0  0
  -12.8824    1.4240    2.9859 C   0  0  0  0  0  0  0  0  0  0  0  0
  -12.5346    2.6850    2.4263 O   0  0  0  0  0  0  0  0  0  0  0  0
  -13.5834    3.6091    1.6798 P   0  0  0  0  0  0  0  0  0  0  0  0
  -14.0036    3.0020    0.3965 O   0  0  0  0  0  0  0  0  0  0  0  0
  -14.6272    4.0760    2.6175 O   0  5  0  0  0  0  0  0  0  0  0  0
  -12.7358    4.8971    1.2827 O   0  5  0  0  0  0  0  0  0  0  0  0
  1 18  1  0  0  0  0
  1  2  1  0  0  0  0
  2  4  1  0  0  0  0
  2  3  2  0  0  0  0
  4  5  1  0  0  0  0
  5  7  1  0  0  0  0
  5  6  2  0  0  0  0
  7 18  2  0  0  0  0
  7  8  1  0  0  0  0
  8  9  1  0  0  0  0
  9 10  2  0  0  0  0
  9 16  1  0  0  0  0
 10 11  1  0  0  0  0
 11 12  1  0  0  0  0
 11 13  2  0  0  0  0
 13 14  1  0  0  0  0
 13 15  1  0  0  0  0
 15 16  2  0  0  0  0
 16 17  1  0  0  0  0
 17 19  1  0  0  0  0
 17 18  1  0  0  0  0
 20 19  1  6  0  0  0
 20 22  1  0  0  0  0
 20 21  1  0  0  0  0
 22 24  1  0  0  0  0
 22 23  1  1  0  0  0
 24 26  1  1  0  0  0
 24 25  1  0  0  0  0
 26 27  1  0  0  0  0
 27 28  1  0  0  0  0
 28 30  1  0  0  0  0
 28 29  2  0  0  0  0
 28 31  1  0  0  0  0
M  CHG  2  30  -1  31  -1
M  END
>  <CHROM.1>
15.86239660,79.94724461,150.05441890,-164.13605421,146.21277418,-160.36541949
153.78414379,46.03918745,55.49819889,-68.74606054,-11.62130947,-1.63764005
0.60214798,0.03692183,1.11231090,-1.27441821

>  <Name>
1fmn_cryst

>  <RI>
0

>  <Rbt.Current_Directory>
/home/itssahil/PROJECTS/Mol_Feturizer/New_Systems/rnas/1fmn

>  <Rbt.Executable>
rbdock ($Id: //depot/dev/client3/rdock/2013.1/src/exe/rbdock.cxx#4 $)

>  <Rbt.Library>
libRbt.so (2013.1, Build901 2013/11/27)

>  <Rbt.Parameter_File>
/export/apps/rDock/src/rDock_2013.1_src/data/scripts/dock_solv.prm

>  <Rbt.Receptor>
prm/blind_docking_40.prm

>  <SCORE>
-39.7827

>  <SCORE.INTER>
-41.6972

>  <SCORE.INTER.CONST>
1

>  <SCORE.INTER.POLAR>
-2.5611

>  <SCORE.INTER.ROT>
7

>  <SCORE.INTER.SOLV>
21.5116

>  <SCORE.INTER.VDW>
-34.6984

>  <SCORE.INTER.norm>
-1.34507

>  <SCORE.INTRA>
1.71104

>  <SCORE.INTRA.DIHEDRAL>
0.1143

>  <SCORE.INTRA.DIHEDRAL.0>
15.5708

>  <SCORE.INTRA.POLAR>
0.0677885

>  <SCORE.INTRA.POLAR.0>
-0.0677885

>  <SCORE.INTRA.REPUL>
0

>  <SCORE.INTRA.REPUL.0>
0

>  <SCORE.INTRA.SOLV>
-0.556135

>  <SCORE.INTRA.SOLV.lig_0>
-87.6316

>  <SCORE.INTRA.VDW>
1.70148

>  <SCORE.INTRA.VDW.0>
-2.87309

>  <SCORE.INTRA.norm>
0.0551949

>  <SCORE.RESTR>
0.203464

>  <SCORE.RESTR.CAVITY>
0.203464

>  <SCORE.RESTR.norm>
0.00656336

>  <SCORE.SYSTEM>
0

>  <SCORE.SYSTEM.CONST>
0

>  <SCORE.SYSTEM.DIHEDRAL>
0

>  <SCORE.SYSTEM.SOLV>
0

>  <SCORE.SYSTEM.norm>
0

>  <SCORE.heavy>
31

>  <SCORE.norm>
-1.28331

>  <SYMMETRIC_BONDS>
33 34 3

>  <RMSD>
10.078

$$$$
1fmn_cryst
 OpenBabel11021811393D
libRbt.so/2013.1/901 2013/11/27
 31 33  0  0  0  0  0  0  0  0999 V2000
  -11.2621   -3.0132   -2.8174 N   0  0  0  0  0  0  0  0  0  0  0  0
  -10.5809   -3.0601   -4.0112 C   0  0  0  0  0  0  0  0  0  0  0  0
  -11.0688   -2.6335   -5.0584 O   0  0  0  0  0  0  0  0  0  0  0  0
   -9.2859   -3.6344   -3.9603 N   0  0  0  0  0  0  0  0  0  0  0  0
   -8.6384   -4.1565   -2.8191 C   0  0  0  0  0  0  0  0  0  0  0  0
   -7.4991   -4.6297   -2.9164 O   0  0  0  0  0  0  0  0  0  0  0  0
   -9.4292   -4.0702   -1.5893 C   0  0  0  0  0  0  0  0  0  0  0  0
   -8.8700   -4.5564   -0.4339 N   0  0  0  0  0  0  0  0  0  0  0  0
   -9.6718   -4.6407    0.6673 C   0  0  0  0  0  0  0  0  0  0  0  0
   -9.1753   -5.2974    1.7793 C   0  0  0  0  0  0  0  0  0  0  0  0
   -9.9144   -5.4186    2.9065 C   0  0  0  0  0  0  0  0  0  0  0  0
   -9.3296   -6.1352    4.0817 C   0  0  0  0  0  0  0  0  0  0  0  0
  -11.1685   -4.8946    2.9659 C   0  0  0  0  0  0  0  0  0  0  0  0
  -11.9801   -5.0390    4.2119 C   0  0  0  0  0  0  0  0  0  0  0  0
  -11.6968   -4.2412    1.8997 C   0  0  0  0  0  0  0  0  0  0  0  0
  -10.9768   -4.0883    0.7149 C   0  0  0  0  0  0  0  0  0  0  0  0
  -11.4634   -3.4189   -0.4275 N   0  0  0  0  0  0  0  0  0  0  0  0
  -10.7475   -3.4829   -1.6405 C   0  0  0  0  0  0  0  0  0  0  0  0
  -12.3684   -2.2289   -0.2199 C   0  0  0  0  0  0  0  0  0  0  0  0
  -12.3461   -1.5817    1.1982 C   0  0  1  0  0  0  0  0  0  0  0  0
  -11.0563   -1.0547    1.4752 O   0  0  0  0  0  0  0  0  0  0  0  0
  -13.4618   -0.5302    1.4067 C   0  0  1  0  0  0  0  0  0  0  0  0
  -14.7430   -1.1310    1.2421 O   0  0  0  0  0  0  0  0  0  0  0  0
  -13.4246    0.2789    2.7264 C   0  0  1  0  0  0  0  0  0  0  0  0
  -12.1468    0.0998    3.3274 O   0  0  0  0  0  0  0  0  0  0  0  0
  -13.6668    1.7902    2.5138 C   0  0  0  0  0  0  0  0  0  0  0  0
  -12.9001    2.3173    1.4375 O   0  0  0  0  0  0  0  0  0  0  0  0
  -13.0211    3.8223    0.9564 P   0  0  0  0  0  0  0  0  0  0  0  0
  -11.8218    4.5992    1.3438 O   0  0  0  0  0  0  0  0  0  0  0  0
  -13.4825    3.8853   -0.4472 O   0  5  0  0  0  0  0  0  0  0  0  0
  -14.2094    4.4066    1.8404 O   0  5  0  0  0  0  0  0  0  0  0  0
  1 18  1  0  0  0  0
  1  2  1  0  0  0  0
  2  4  1  0  0  0  0
  2  3  2  0  0  0  0
  4  5  1  0  0  0  0
  5  7  1  0  0  0  0
  5  6  2  0  0  0  0
  7 18  2  0  0  0  0
  7  8  1  0  0  0  0
  8  9  1  0  0  0  0
  9 10  2  0  0  0  0
  9 16  1  0  0  0  0
 10 11  1  0  0  0  0
 11 12  1  0  0  0  0
 11 13  2  0  0  0  0
 13 14  1  0  0  0  0
 13 15  1  0  0  0  0
 15 16  2  0  0  0  0
 16 17  1  0  0  0  0
 17 19  1  0  0  0  0
 17 18  1  0  0  0  0
 20 19  1  6  0  0  0
 20 22  1  0  0  0  0
 20 21  1  0  0  0  0
 22 24  1  0  0  0  0
 22 23  1  1  0  0  0
 24 26  1  6  0  0  0
 24 25  1  0  0  0  0
 26 27  1  0  0  0  0
 27 28  1  0  0  0  0
 28 30  1  0  0  0  0
 28 29  2  0  0  0  0
 28 31  1  0  0  0  0
M  CHG  2  30  -1  31  -1
M  END
>  <CHROM.1>
17.86701915,63.30514765,60.10662686,79.14944265,14.57988760,-174.48732770
-46.37128518,-89.36926007,176.51822905,107.78492830,-11.45858391,-1.60743724
0.43204282,-0.26202153,1.12312720,-1.01360842

>  <Name>
1fmn_cryst

>  <RI>
0

>  <Rbt.Current_Directory>
/home/itssahil/PROJECTS/Mol_Feturizer/New_Systems/rnas/1fmn

>  <Rbt.Executable>
rbdock ($Id: //depot/dev/client3/rdock/2013.1/src/exe/rbdock.cxx#4 $)

>  <Rbt.Library>
libRbt.so (2013.1, Build901 2013/11/27)

>  <Rbt.Parameter_File>
/export/apps/rDock/src/rDock_2013.1_src/data/scripts/dock_solv.prm

>  <Rbt.Receptor>
prm/blind_docking_40.prm

>  <SCORE>
-34.8295

>  <SCORE.INTER>
-36.1021

>  <SCORE.INTER.CONST>
1

>  <SCORE.INTER.POLAR>
-1.84891

>  <SCORE.INTER.ROT>
7

>  <SCORE.INTER.SOLV>
23.8194

>  <SCORE.INTER.VDW>
-34.1115

>  <SCORE.INTER.norm>
-1.16458

>  <SCORE.INTRA>
1.07171

>  <SCORE.INTRA.DIHEDRAL>
-0.0129562

>  <SCORE.INTRA.DIHEDRAL.0>
15.5708

>  <SCORE.INTRA.POLAR>
0.0677885

>  <SCORE.INTRA.POLAR.0>
-0.0677885

>  <SCORE.INTRA.REPUL>
0

>  <SCORE.INTRA.REPUL.0>
0

>  <SCORE.INTRA.SOLV>
-4.16494

>  <SCORE.INTRA.SOLV.lig_0>
-87.6316

>  <SCORE.INTRA.VDW>
2.93017

>  <SCORE.INTRA.VDW.0>
-2.87309

>  <SCORE.INTRA.norm>
0.0345712

>  <SCORE.RESTR>
0.200851

>  <SCORE.RESTR.CAVITY>
0.200851

>  <SCORE.RESTR.norm>
0.00647905

>  <SCORE.SYSTEM>
0

>  <SCORE.SYSTEM.CONST>
0

>  <SCORE.SYSTEM.DIHEDRAL>
0

>  <SCORE.SYSTEM.SOLV>
0

>  <SCORE.SYSTEM.norm>
0

>  <SCORE.heavy>
31

>  <SCORE.norm>
-1.12353

>  <SYMMETRIC_BONDS>
33 34 3

>  <RMSD>
10.084

$$$$
1fmn_cryst
 OpenBabel11021811393D
libRbt.so/2013.1/901 2013/11/27
 31 33  0  0  0  0  0  0  0  0999 V2000
  -13.1278   -1.9004   -2.6282 N   0  0  0  0  0  0  0  0  0  0  0  0
  -14.0238   -1.2319   -1.8270 C   0  0  0  0  0  0  0  0  0  0  0  0
  -14.9461   -0.5638   -2.2955 O   0  0  0  0  0  0  0  0  0  0  0  0
  -13.8151   -1.3569   -0.4305 N   0  0  0  0  0  0  0  0  0  0  0  0
  -12.7902   -2.0895    0.2076 C   0  0  0  0  0  0  0  0  0  0  0  0
  -12.7254   -2.1153    1.4431 O   0  0  0  0  0  0  0  0  0  0  0  0
  -11.8781   -2.7710   -0.7137 C   0  0  0  0  0  0  0  0  0  0  0  0
  -10.8531   -3.5059   -0.1720 N   0  0  0  0  0  0  0  0  0  0  0  0
   -9.9036   -3.9879   -1.0257 C   0  0  0  0  0  0  0  0  0  0  0  0
   -8.7745   -4.5680   -0.4753 C   0  0  0  0  0  0  0  0  0  0  0  0
   -7.7926   -5.0678   -1.2610 C   0  0  0  0  0  0  0  0  0  0  0  0
   -6.5942   -5.6874   -0.6158 C   0  0  0  0  0  0  0  0  0  0  0  0
   -7.8984   -5.0065   -2.6161 C   0  0  0  0  0  0  0  0  0  0  0  0
   -6.8064   -5.5544   -3.4760 C   0  0  0  0  0  0  0  0  0  0  0  0
   -8.9884   -4.4471   -3.2006 C   0  0  0  0  0  0  0  0  0  0  0  0
  -10.0284   -3.9181   -2.4363 C   0  0  0  0  0  0  0  0  0  0  0  0
  -11.1889   -3.3268   -2.9782 N   0  0  0  0  0  0  0  0  0  0  0  0
  -12.0920   -2.6459   -2.1364 C   0  0  0  0  0  0  0  0  0  0  0  0
  -11.7349   -3.8896   -4.2680 C   0  0  0  0  0  0  0  0  0  0  0  0
  -11.1224   -3.3222   -5.5845 C   0  0  1  0  0  0  0  0  0  0  0  0
  -10.3643   -4.3264   -6.2440 O   0  0  0  0  0  0  0  0  0  0  0  0
  -12.1744   -2.6789   -6.5192 C   0  0  1  0  0  0  0  0  0  0  0  0
  -13.1481   -1.9737   -5.7548 O   0  0  0  0  0  0  0  0  0  0  0  0
  -11.6409   -1.7740   -7.6569 C   0  0  1  0  0  0  0  0  0  0  0  0
  -10.8265   -0.7593   -7.0797 O   0  0  0  0  0  0  0  0  0  0  0  0
  -10.8056   -2.5481   -8.7012 C   0  0  0  0  0  0  0  0  0  0  0  0
   -9.5011   -2.8628   -8.2285 O   0  0  0  0  0  0  0  0  0  0  0  0
   -8.3878   -3.5085   -9.1531 P   0  0  0  0  0  0  0  0  0  0  0  0
   -8.8290   -4.8229   -9.6725 O   0  0  0  0  0  0  0  0  0  0  0  0
   -7.8606   -2.5105  -10.1086 O   0  5  0  0  0  0  0  0  0  0  0  0
   -7.1983   -3.8280   -8.1443 O   0  5  0  0  0  0  0  0  0  0  0  0
  1 18  1  0  0  0  0
  1  2  1  0  0  0  0
  2  4  1  0  0  0  0
  2  3  2  0  0  0  0
  4  5  1  0  0  0  0
  5  7  1  0  0  0  0
  5  6  2  0  0  0  0
  7 18  2  0  0  0  0
  7  8  1  0  0  0  0
  8  9  1  0  0  0  0
  9 10  2  0  0  0  0
  9 16  1  0  0  0  0
 10 11  1  0  0  0  0
 11 12  1  0  0  0  0
 11 13  2  0  0  0  0
 13 14  1  0  0  0  0
 13 15  1  0  0  0  0
 15 16  2  0  0  0  0
 16 17  1  0  0  0  0
 17 19  1  0  0  0  0
 17 18  1  0  0  0  0
 20 19  1  1  0  0  0
 20 22  1  0  0  0  0
 20 21  1  0  0  0  0
 22 24  1  0  0  0  0
 22 23  1  1  0  0  0
 24 26  1  6  0  0  0
 24 25  1  0  0  0  0
 26 27  1  0  0  0  0
 27 28  1  0  0  0  0
 28 30  1  0  0  0  0
 28 29  2  0  0  0  0
 28 31  1  0  0  0  0
M  CHG  2  30  -1  31  -1
M  END
>  <CHROM.1>
-86.04100742,111.93823231,38.13110720,57.66216283,-55.39926564,-177.68103288
-75.95644963,-175.42675745,-173.01355999,-60.55742006,-10.49250221,-3.16061562
-4.34207429,1.97829143,-0.53702975,1.71389503

>  <Name>
1fmn_cryst

>  <RI>
0

>  <Rbt.Current_Directory>
/home/itssahil/PROJECTS/Mol_Feturizer/New_Systems/rnas/1fmn

>  <Rbt.Executable>
rbdock ($Id: //depot/dev/client3/rdock/2013.1/src/exe/rbdock.cxx#4 $)

>  <Rbt.Library>
libRbt.so (2013.1, Build901 2013/11/27)

>  <Rbt.Parameter_File>
/export/apps/rDock/src/rDock_2013.1_src/data/scripts/dock_solv.prm

>  <Rbt.Receptor>
prm/pocket_docking_8.prm

>  <SCORE>
-28.8261

>  <SCORE.INTER>
-21.9325

>  <SCORE.INTER.CONST>
1

>  <SCORE.INTER.POLAR>
-0.064507

>  <SCORE.INTER.ROT>
7

>  <SCORE.INTER.SOLV>
11.4337

>  <SCORE.INTER.VDW>
-26.4845

>  <SCORE.INTER.norm>
-0.707499

>  <SCORE.INTRA>
-6.90064

>  <SCORE.INTRA.DIHEDRAL>
-5.1956

>  <SCORE.INTRA.DIHEDRAL.0>
15.5708

>  <SCORE.INTRA.POLAR>
-0.932211

>  <SCORE.INTRA.POLAR.0>
-0.0677885

>  <SCORE.INTRA.REPUL>
0

>  <SCORE.INTRA.REPUL.0>
0

>  <SCORE.INTRA.SOLV>
-2.32556

>  <SCORE.INTRA.SOLV.lig_0>
-87.6316

>  <SCORE.INTRA.VDW>
0.0294584

>  <SCORE.INTRA.VDW.0>
-2.87309

>  <SCORE.INTRA.norm>
-0.222601

>  <SCORE.RESTR>
0.00697773

>  <SCORE.RESTR.CAVITY>
0.00697773

>  <SCORE.RESTR.norm>
0.000225088

>  <SCORE.SYSTEM>
0

>  <SCORE.SYSTEM.CONST>
0

>  <SCORE.SYSTEM.DIHEDRAL>
0

>  <SCORE.SYSTEM.SOLV>
0

>  <SCORE.SYSTEM.norm>
0

>  <SCORE.heavy>
31

>  <SCORE.norm>
-0.929875

>  <SYMMETRIC_BONDS>
33 34 3

>  <RMSD>
10.174

$$$$
1fmn_cryst
 OpenBabel11021811393D
libRbt.so/2013.1/901 2013/11/27
 31 33  0  0  0  0  0  0  0  0999 V2000
  -12.8712   -2.2921   -0.7242 N   0  0  0  0  0  0  0  0  0  0  0  0
  -12.8485   -2.0203   -2.0722 C   0  0  0  0  0  0  0  0  0  0  0  0
  -13.7408   -1.3747   -2.6230 O   0  0  0  0  0  0  0  0  0  0  0  0
  -11.7370   -2.5341   -2.7864 N   0  0  0  0  0  0  0  0  0  0  0  0
  -10.6677   -3.2881   -2.2551 C   0  0  0  0  0  0  0  0  0  0  0  0
   -9.7551   -3.6748   -2.9961 O   0  0  0  0  0  0  0  0  0  0  0  0
  -10.7660   -3.5351   -0.8148 C   0  0  0  0  0  0  0  0  0  0  0  0
   -9.7644   -4.2616   -0.2206 N   0  0  0  0  0  0  0  0  0  0  0  0
   -9.9473   -4.6434    1.0768 C   0  0  0  0  0  0  0  0  0  0  0  0
   -9.0349   -5.5274    1.6250 C   0  0  0  0  0  0  0  0  0  0  0  0
   -9.1536   -5.9486    2.9056 C   0  0  0  0  0  0  0  0  0  0  0  0
   -8.1386   -6.9021    3.4508 C   0  0  0  0  0  0  0  0  0  0  0  0
  -10.1807   -5.5084    3.6817 C   0  0  0  0  0  0  0  0  0  0  0  0
  -10.3079   -5.9839    5.0923 C   0  0  0  0  0  0  0  0  0  0  0  0
  -11.0993   -4.6401    3.1867 C   0  0  0  0  0  0  0  0  0  0  0  0
  -11.0223   -4.1750    1.8740 C   0  0  0  0  0  0  0  0  0  0  0  0
  -11.9395   -3.2710    1.2983 N   0  0  0  0  0  0  0  0  0  0  0  0
  -11.8969   -3.0096   -0.0866 C   0  0  0  0  0  0  0  0  0  0  0  0
  -12.5368   -2.2061    2.1856 C   0  0  0  0  0  0  0  0  0  0  0  0
  -11.7964   -0.8345    2.2149 C   0  0  1  0  0  0  0  0  0  0  0  0
  -11.3669   -0.4823    0.9075 O   0  0  0  0  0  0  0  0  0  0  0  0
  -12.6240    0.2916    2.8791 C   0  0  1  0  0  0  0  0  0  0  0  0
  -12.3363    0.3590    4.2727 O   0  0  0  0  0  0  0  0  0  0  0  0
  -12.5189    1.7027    2.2502 C   0  0  1  0  0  0  0  0  0  0  0  0
  -11.1485    1.9707    1.9742 O   0  0  0  0  0  0  0  0  0  0  0  0
  -13.3263    1.8402    0.9400 C   0  0  0  0  0  0  0  0  0  0  0  0
  -13.9036    3.1319    0.7904 O   0  0  0  0  0  0  0  0  0  0  0  0
  -13.0364    4.4328    0.5319 P   0  0  0  0  0  0  0  0  0  0  0  0
  -11.7574    4.3719    1.2754 O   0  0  0  0  0  0  0  0  0  0  0  0
  -13.0021    4.7585   -0.9102 O   0  5  0  0  0  0  0  0  0  0  0  0
  -13.8775    5.5915    1.2282 O   0  5  0  0  0  0  0  0  0  0  0  0
  1 18  1  0  0  0  0
  1  2  1  0  0  0  0
  2  4  1  0  0  0  0
  2  3  2  0  0  0  0
  4  5  1  0  0  0  0
  5  7  1  0  0  0  0
  5  6  2  0  0  0  0
  7 18  2  0  0  0  0
  7  8  1  0  0  0  0
  8  9  1  0  0  0  0
  9 10  2  0  0  0  0
  9 16  1  0  0  0  0
 10 11  1  0  0  0  0
 11 12  1  0  0  0  0
 11 13  2  0  0  0  0
 13 14  1  0  0  0  0
 13 15  1  0  0  0  0
 15 16  2  0  0  0  0
 16 17  1  0  0  0  0
 17 19  1  0  0  0  0
 17 18  1  0  0  0  0
 20 19  1  6  0  0  0
 20 22  1  0  0  0  0
 20 21  1  0  0  0  0
 22 24  1  0  0  0  0
 22 23  1  1  0  0  0
 24 26  1  6  0  0  0
 24 25  1  0  0  0  0
 26 27  1  0  0  0  0
 27 28  1  0  0  0  0
 28 30  1  0  0  0  0
 28 29  2  0  0  0  0
 28 31  1  0  0  0  0
M  CHG  2  30  -1  31  -1
M  END
>  <CHROM.1>
92.81877411,40.60830474,91.28580459,65.73781025,-44.44742266,-48.05671402
144.58692032,-175.07406424,68.81306863,-36.27655290,-11.65530530,-1.11810226
0.94083104,0.21155452,1.23696481,-1.90713301

>  <Name>
1fmn_cryst

>  <RI>
0

>  <Rbt.Current_Directory>
/home/itssahil/PROJECTS/Mol_Feturizer/New_Systems/rnas/1fmn

>  <Rbt.Executable>
rbdock ($Id: //depot/dev/client3/rdock/2013.1/src/exe/rbdock.cxx#4 $)

>  <Rbt.Library>
libRbt.so (2013.1, Build901 2013/11/27)

>  <Rbt.Parameter_File>
/export/apps/rDock/src/rDock_2013.1_src/data/scripts/dock_solv.prm

>  <Rbt.Receptor>
prm/blind_docking_60.prm

>  <SCORE>
-27.2739

>  <SCORE.INTER>
-25.7886

>  <SCORE.INTER.CONST>
1

>  <SCORE.INTER.POLAR>
-1.42608

>  <SCORE.INTER.ROT>
7

>  <SCORE.INTER.SOLV>
24.1499

>  <SCORE.INTER.VDW>
-28.7554

>  <SCORE.INTER.norm>
-0.83189

>  <SCORE.INTRA>
-4.82861

>  <SCORE.INTRA.DIHEDRAL>
-3.43115

>  <SCORE.INTRA.DIHEDRAL.0>
15.5708

>  <SCORE.INTRA.POLAR>
-1.25393

>  <SCORE.INTRA.POLAR.0>
-0.0677885

>  <SCORE.INTRA.REPUL>
0

>  <SCORE.INTRA.REPUL.0>
0

>  <SCORE.INTRA.SOLV>
0.658376

>  <SCORE.INTRA.SOLV.lig_0>
-87.6316

>  <SCORE.INTRA.VDW>
0.821147

>  <SCORE.INTRA.VDW.0>
-2.87309

>  <SCORE.INTRA.norm>
-0.155762

>  <SCORE.RESTR>
3.34335

>  <SCORE.RESTR.CAVITY>
3.34335

>  <SCORE.RESTR.norm>
0.10785

>  <SCORE.SYSTEM>
0

>  <SCORE.SYSTEM.CONST>
0

>  <SCORE.SYSTEM.DIHEDRAL>
0

>  <SCORE.SYSTEM.SOLV>
0

>  <SCORE.SYSTEM.norm>
0

>  <SCORE.heavy>
31

>  <SCORE.norm>
-0.879802

>  <SYMMETRIC_BONDS>
33 34 3

>  <RMSD>
10.221

$$$$
1fmn_cryst
 OpenBabel11021811393D
libRbt.so/2013.1/901 2013/11/27
 31 33  0  0  0  0  0  0  0  0999 V2000
  -12.1412   -2.6046   -1.5975 N   0  0  0  0  0  0  0  0  0  0  0  0
  -12.0619   -2.6145   -2.9705 C   0  0  0  0  0  0  0  0  0  0  0  0
  -12.8036   -1.9260   -3.6722 O   0  0  0  0  0  0  0  0  0  0  0  0
  -11.0770   -3.4700   -3.5253 N   0  0  0  0  0  0  0  0  0  0  0  0
  -10.1841   -4.3016   -2.8145 C   0  0  0  0  0  0  0  0  0  0  0  0
   -9.3682   -5.0008   -3.4284 O   0  0  0  0  0  0  0  0  0  0  0  0
  -10.3326   -4.2346   -1.3590 C   0  0  0  0  0  0  0  0  0  0  0  0
   -9.5004   -5.0140   -0.5946 N   0  0  0  0  0  0  0  0  0  0  0  0
   -9.7590   -5.0878    0.7434 C   0  0  0  0  0  0  0  0  0  0  0  0
   -9.0461   -6.0096    1.4893 C   0  0  0  0  0  0  0  0  0  0  0  0
   -9.2497   -6.1373    2.8211 C   0  0  0  0  0  0  0  0  0  0  0  0
   -8.4505   -7.1468    3.5818 C   0  0  0  0  0  0  0  0  0  0  0  0
  -10.1669   -5.3571    3.4543 C   0  0  0  0  0  0  0  0  0  0  0  0
  -10.3901   -5.5096    4.9237 C   0  0  0  0  0  0  0  0  0  0  0  0
  -10.8891   -4.4385    2.7633 C   0  0  0  0  0  0  0  0  0  0  0  0
  -10.7174   -4.2668    1.3898 C   0  0  0  0  0  0  0  0  0  0  0  0
  -11.4309   -3.3302    0.6128 N   0  0  0  0  0  0  0  0  0  0  0  0
  -11.3341   -3.3613   -0.7935 C   0  0  0  0  0  0  0  0  0  0  0  0
  -11.8005   -2.0138    1.2522 C   0  0  0  0  0  0  0  0  0  0  0  0
  -13.0717   -2.0156    2.1546 C   0  0  1  0  0  0  0  0  0  0  0  0
  -12.8972   -2.9106    3.2438 O   0  0  0  0  0  0  0  0  0  0  0  0
  -13.4888   -0.6015    2.6239 C   0  0  1  0  0  0  0  0  0  0  0  0
  -12.4929   -0.0528    3.4823 O   0  0  0  0  0  0  0  0  0  0  0  0
  -13.8575    0.4223    1.5222 C   0  0  1  0  0  0  0  0  0  0  0  0
  -15.1350    0.0775    0.9978 O   0  0  0  0  0  0  0  0  0  0  0  0
  -13.9096    1.8760    2.0436 C   0  0  0  0  0  0  0  0  0  0  0  0
  -14.2717    2.8047    1.0284 O   0  0  0  0  0  0  0  0  0  0  0  0
  -14.1728    4.3736    1.2283 P   0  0  0  0  0  0  0  0  0  0  0  0
  -12.7599    4.8075    1.3147 O   0  0  0  0  0  0  0  0  0  0  0  0
  -15.0731    5.0765    0.2889 O   0  5  0  0  0  0  0  0  0  0  0  0
  -14.7785    4.6077    2.6820 O   0  5  0  0  0  0  0  0  0  0  0  0
  1 18  1  0  0  0  0
  1  2  1  0  0  0  0
  2  4  1  0  0  0  0
  2  3  2  0  0  0  0
  4  5  1  0  0  0  0
  5  7  1  0  0  0  0
  5  6  2  0  0  0  0
  7 18  2  0  0  0  0
  7  8  1  0  0  0  0
  8  9  1  0  0  0  0
  9 10  2  0  0  0  0
  9 16  1  0  0  0  0
 10 11  1  0  0  0  0
 11 12  1  0  0  0  0
 11 13  2  0  0  0  0
 13 14  1  0  0  0  0
 13 15  1  0  0  0  0
 15 16  2  0  0  0  0
 16 17  1  0  0  0  0
 17 19  1  0  0  0  0
 17 18  1  0  0  0  0
 20 19  1  1  0  0  0
 20 22  1  0  0  0  0
 20 21  1  0  0  0  0
 22 24  1  0  0  0  0
 22 23  1  6  0  0  0
 24 26  1  1  0  0  0
 24 25  1  0  0  0  0
 26 27  1  0  0  0  0
 27 28  1  0  0  0  0
 28 30  1  0  0  0  0
 28 29  2  0  0  0  0
 28 31  1  0  0  0  0
M  CHG  2  30  -1  31  -1
M  END
>  <CHROM.1>
-81.60339202,61.01898199,-65.44108662,73.42033046,73.93836809,-57.84521174
-178.98348476,-172.27145920,-169.84493186,68.64670030,-12.00811009,-1.62586133
0.83339309,0.03280628,1.11302442,-1.52790036

>  <Name>
1fmn_cryst

>  <RI>
0

>  <Rbt.Current_Directory>
/home/itssahil/PROJECTS/Mol_Feturizer/New_Systems/rnas/1fmn

>  <Rbt.Executable>
rbdock ($Id: //depot/dev/client3/rdock/2013.1/src/exe/rbdock.cxx#4 $)

>  <Rbt.Library>
libRbt.so (2013.1, Build901 2013/11/27)

>  <Rbt.Parameter_File>
/export/apps/rDock/src/rDock_2013.1_src/data/scripts/dock_solv.prm

>  <Rbt.Receptor>
prm/blind_docking_40.prm

>  <SCORE>
-27.9147

>  <SCORE.INTER>
-24.297

>  <SCORE.INTER.CONST>
1

>  <SCORE.INTER.POLAR>
-2.00168

>  <SCORE.INTER.ROT>
7

>  <SCORE.INTER.SOLV>
21.3642

>  <SCORE.INTER.VDW>
-24.9138

>  <SCORE.INTER.norm>
-0.783773

>  <SCORE.INTRA>
-4.7287

>  <SCORE.INTRA.DIHEDRAL>
-10.3658

>  <SCORE.INTRA.DIHEDRAL.0>
15.5708

>  <SCORE.INTRA.POLAR>
0.0677885

>  <SCORE.INTRA.POLAR.0>
-0.0677885

>  <SCORE.INTRA.REPUL>
0

>  <SCORE.INTRA.REPUL.0>
0

>  <SCORE.INTRA.SOLV>
-4.72154

>  <SCORE.INTRA.SOLV.lig_0>
-87.6316

>  <SCORE.INTRA.VDW>
2.58449

>  <SCORE.INTRA.VDW.0>
-2.87309

>  <SCORE.INTRA.norm>
-0.152539

>  <SCORE.RESTR>
1.11094

>  <SCORE.RESTR.CAVITY>
1.11094

>  <SCORE.RESTR.norm>
0.0358369

>  <SCORE.SYSTEM>
0

>  <SCORE.SYSTEM.CONST>
0

>  <SCORE.SYSTEM.DIHEDRAL>
0

>  <SCORE.SYSTEM.SOLV>
0

>  <SCORE.SYSTEM.norm>
0

>  <SCORE.heavy>
31

>  <SCORE.norm>
-0.900474

>  <SYMMETRIC_BONDS>
33 34 3

>  <RMSD>
10.410

$$$$
1fmn_cryst
 OpenBabel11021811393D
libRbt.so/2013.1/901 2013/11/27
 31 33  0  0  0  0  0  0  0  0999 V2000
  -12.1209   -2.6068   -1.6153 N   0  0  0  0  0  0  0  0  0  0  0  0
  -11.9890   -2.6133   -2.9843 C   0  0  0  0  0  0  0  0  0  0  0  0
  -12.7159   -1.9375   -3.7133 O   0  0  0  0  0  0  0  0  0  0  0  0
  -10.9683   -3.4499   -3.5017 N   0  0  0  0  0  0  0  0  0  0  0  0
  -10.0881   -4.2661   -2.7579 C   0  0  0  0  0  0  0  0  0  0  0  0
   -9.2366   -4.9493   -3.3406 O   0  0  0  0  0  0  0  0  0  0  0  0
  -10.2932   -4.2038   -1.3090 C   0  0  0  0  0  0  0  0  0  0  0  0
   -9.4767   -4.9689   -0.5140 N   0  0  0  0  0  0  0  0  0  0  0  0
   -9.7848   -5.0493    0.8131 C   0  0  0  0  0  0  0  0  0  0  0  0
   -9.0841   -5.9590    1.5851 C   0  0  0  0  0  0  0  0  0  0  0  0
   -9.3360   -6.0923    2.9081 C   0  0  0  0  0  0  0  0  0  0  0  0
   -8.5481   -7.0881    3.6980 C   0  0  0  0  0  0  0  0  0  0  0  0
  -10.2909   -5.3298    3.5063 C   0  0  0  0  0  0  0  0  0  0  0  0
  -10.5672   -5.4884    4.9659 C   0  0  0  0  0  0  0  0  0  0  0  0
  -11.0029   -4.4236    2.7888 C   0  0  0  0  0  0  0  0  0  0  0  0
  -10.7820   -4.2468    1.4230 C   0  0  0  0  0  0  0  0  0  0  0  0
  -11.4823   -3.3224    0.6200 N   0  0  0  0  0  0  0  0  0  0  0  0
  -11.3314   -3.3497   -0.7816 C   0  0  0  0  0  0  0  0  0  0  0  0
  -11.9001   -2.0138    1.2457 C   0  0  0  0  0  0  0  0  0  0  0  0
  -13.2469   -1.4074    0.7474 C   0  0  1  0  0  0  0  0  0  0  0  0
  -14.2590   -1.5923    1.7270 O   0  0  0  0  0  0  0  0  0  0  0  0
  -13.1249    0.0712    0.3082 C   0  0  1  0  0  0  0  0  0  0  0  0
  -14.3983    0.5765   -0.0828 O   0  0  0  0  0  0  0  0  0  0  0  0
  -12.4551    1.0462    1.3075 C   0  0  1  0  0  0  0  0  0  0  0  0
  -11.0934    1.2132    0.9282 O   0  0  0  0  0  0  0  0  0  0  0  0
  -13.1350    2.4333    1.3437 C   0  0  0  0  0  0  0  0  0  0  0  0
  -12.7388    3.2612    0.2566 O   0  0  0  0  0  0  0  0  0  0  0  0
  -13.1093    4.7997    0.1724 P   0  0  0  0  0  0  0  0  0  0  0  0
  -14.5728    4.9849    0.0463 O   0  0  0  0  0  0  0  0  0  0  0  0
  -12.3852    5.5677    1.2082 O   0  5  0  0  0  0  0  0  0  0  0  0
  -12.5012    5.2583   -1.2257 O   0  5  0  0  0  0  0  0  0  0  0  0
  1 18  1  0  0  0  0
  1  2  1  0  0  0  0
  2  4  1  0  0  0  0
  2  3  2  0  0  0  0
  4  5  1  0  0  0  0
  5  7  1  0  0  0  0
  5  6  2  0  0  0  0
  7 18  2  0  0  0  0
  7  8  1  0  0  0  0
  8  9  1  0  0  0  0
  9 10  2  0  0  0  0
  9 16  1  0  0  0  0
 10 11  1  0  0  0  0
 11 12  1  0  0  0  0
 11 13  2  0  0  0  0
 13 14  1  0  0  0  0
 13 15  1  0  0  0  0
 15 16  2  0  0  0  0
 16 17  1  0  0  0  0
 17 19  1  0  0  0  0
 17 18  1  0  0  0  0
 20 19  1  1  0  0  0
 20 22  1  0  0  0  0
 20 21  1  0  0  0  0
 22 24  1  0  0  0  0
 22 23  1  1  0  0  0
 24 26  1  6  0  0  0
 24 25  1  0  0  0  0
 26 27  1  0  0  0  0
 27 28  1  0  0  0  0
 28 30  1  0  0  0  0
 28 29  2  0  0  0  0
 28 31  1  0  0  0  0
M  CHG  2  30  -1  31  -1
M  END
>  <CHROM.1>
-146.19898594,104.96870559,-177.65900050,-170.30592788,98.17214412,65.10267322
-79.49089570,-58.53454425,-170.39962925,-65.14700370,-11.68463841,-1.33665432
0.28139432,-0.04662042,1.23576568,-1.61672797

>  <Name>
1fmn_cryst

>  <RI>
0

>  <Rbt.Current_Directory>
/home/itssahil/PROJECTS/Mol_Feturizer/New_Systems/rnas/1fmn

>  <Rbt.Executable>
rbdock ($Id: //depot/dev/client3/rdock/2013.1/src/exe/rbdock.cxx#4 $)

>  <Rbt.Library>
libRbt.so (2013.1, Build901 2013/11/27)

>  <Rbt.Parameter_File>
/export/apps/rDock/src/rDock_2013.1_src/data/scripts/dock_solv.prm

>  <Rbt.Receptor>
prm/blind_docking_60.prm

>  <SCORE>
-11.8223

>  <SCORE.INTER>
-17.14

>  <SCORE.INTER.CONST>
1

>  <SCORE.INTER.POLAR>
-0.0203731

>  <SCORE.INTER.ROT>
7

>  <SCORE.INTER.SOLV>
24.4617

>  <SCORE.INTER.VDW>
-27.7793

>  <SCORE.INTER.norm>
-0.552903

>  <SCORE.INTRA>
1.24886

>  <SCORE.INTRA.DIHEDRAL>
-3.70071

>  <SCORE.INTRA.DIHEDRAL.0>
15.5708

>  <SCORE.INTRA.POLAR>
0.0677885

>  <SCORE.INTRA.POLAR.0>
-0.0677885

>  <SCORE.INTRA.REPUL>
0

>  <SCORE.INTRA.REPUL.0>
0

>  <SCORE.INTRA.SOLV>
-4.65883

>  <SCORE.INTRA.SOLV.lig_0>
-87.6316

>  <SCORE.INTRA.VDW>
5.19814

>  <SCORE.INTRA.VDW.0>
-2.87309

>  <SCORE.INTRA.norm>
0.0402857

>  <SCORE.RESTR>
4.06884

>  <SCORE.RESTR.CAVITY>
4.06884

>  <SCORE.RESTR.norm>
0.131253

>  <SCORE.SYSTEM>
0

>  <SCORE.SYSTEM.CONST>
0

>  <SCORE.SYSTEM.DIHEDRAL>
0

>  <SCORE.SYSTEM.SOLV>
0

>  <SCORE.SYSTEM.norm>
0

>  <SCORE.heavy>
31

>  <SCORE.norm>
-0.381364

>  <SYMMETRIC_BONDS>
33 34 3

>  <RMSD>
10.449

$$$$
1fmn_cryst
 OpenBabel11021811393D
libRbt.so/2013.1/901 2013/11/27
 31 33  0  0  0  0  0  0  0  0999 V2000
  -11.7663    2.0121    1.0595 N   0  0  0  0  0  0  0  0  0  0  0  0
  -12.0925    2.6751   -0.1005 C   0  0  0  0  0  0  0  0  0  0  0  0
  -11.5350    2.4305   -1.1710 O   0  0  0  0  0  0  0  0  0  0  0  0
  -13.1061    3.6593    0.0157 N   0  0  0  0  0  0  0  0  0  0  0  0
  -13.8014    4.0202    1.1906 C   0  0  0  0  0  0  0  0  0  0  0  0
  -14.6697    4.9010    1.1498 O   0  0  0  0  0  0  0  0  0  0  0  0
  -13.3958    3.2699    2.3813 C   0  0  0  0  0  0  0  0  0  0  0  0
  -14.0252    3.5613    3.5659 N   0  0  0  0  0  0  0  0  0  0  0  0
  -13.5241    2.9943    4.7017 C   0  0  0  0  0  0  0  0  0  0  0  0
  -14.0307    3.4234    5.9157 C   0  0  0  0  0  0  0  0  0  0  0  0
  -13.5814    2.9050    7.0822 C   0  0  0  0  0  0  0  0  0  0  0  0
  -14.1645    3.4011    8.3668 C   0  0  0  0  0  0  0  0  0  0  0  0
  -12.6152    1.9470    7.0819 C   0  0  0  0  0  0  0  0  0  0  0  0
  -12.1201    1.3852    8.3747 C   0  0  0  0  0  0  0  0  0  0  0  0
  -12.0893    1.4949    5.9149 C   0  0  0  0  0  0  0  0  0  0  0  0
  -12.5178    1.9957    4.6856 C   0  0  0  0  0  0  0  0  0  0  0  0
  -12.0171    1.5686    3.4379 N   0  0  0  0  0  0  0  0  0  0  0  0
  -12.3652    2.2654    2.2626 C   0  0  0  0  0  0  0  0  0  0  0  0
  -11.6209    0.1194    3.2916 C   0  0  0  0  0  0  0  0  0  0  0  0
  -12.7502   -0.9323    3.5127 C   0  0  1  0  0  0  0  0  0  0  0  0
  -13.7463   -0.4061    4.3781 O   0  0  0  0  0  0  0  0  0  0  0  0
  -13.3510   -1.4693    2.1918 C   0  0  1  0  0  0  0  0  0  0  0  0
  -14.1300   -0.4592    1.5575 O   0  0  0  0  0  0  0  0  0  0  0  0
  -12.3630   -2.0902    1.1739 C   0  0  1  0  0  0  0  0  0  0  0  0
  -11.3737   -1.1171    0.8570 O   0  0  0  0  0  0  0  0  0  0  0  0
  -11.6603   -3.3569    1.7117 C   0  0  0  0  0  0  0  0  0  0  0  0
  -10.5868   -3.7781    0.8785 O   0  0  0  0  0  0  0  0  0  0  0  0
   -9.5796   -4.9284    1.2954 P   0  0  0  0  0  0  0  0  0  0  0  0
   -8.6671   -5.2624    0.1784 O   0  0  0  0  0  0  0  0  0  0  0  0
   -8.9979   -4.6546    2.6271 O   0  5  0  0  0  0  0  0  0  0  0  0
  -10.5162   -6.2034    1.4743 O   0  5  0  0  0  0  0  0  0  0  0  0
  1 18  1  0  0  0  0
  1  2  1  0  0  0  0
  2  4  1  0  0  0  0
  2  3  2  0  0  0  0
  4  5  1  0  0  0  0
  5  7  1  0  0  0  0
  5  6  2  0  0  0  0
  7 18  2  0  0  0  0
  7  8  1  0  0  0  0
  8  9  1  0  0  0  0
  9 10  2  0  0  0  0
  9 16  1  0  0  0  0
 10 11  1  0  0  0  0
 11 12  1  0  0  0  0
 11 13  2  0  0  0  0
 13 14  1  0  0  0  0
 13 15  1  0  0  0  0
 15 16  2  0  0  0  0
 16 17  1  0  0  0  0
 17 19  1  0  0  0  0
 17 18  1  0  0  0  0
 20 19  1  6  0  0  0
 20 22  1  0  0  0  0
 20 21  1  0  0  0  0
 22 24  1  0  0  0  0
 22 23  1  6  0  0  0
 24 26  1  1  0  0  0
 24 25  1  0  0  0  0
 26 27  1  0  0  0  0
 27 28  1  0  0  0  0
 28 30  1  0  0  0  0
 28 29  2  0  0  0  0
 28 31  1  0  0  0  0
M  CHG  2  30  -1  31  -1
M  END
>  <CHROM.1>
60.74322932,-26.70112390,-70.90827938,-178.34694467,-57.06431550,-63.16241189
-169.28744056,-63.27917341,171.57042597,173.42212374,-12.20292825,0.15588396
2.78796548,2.95103538,-1.17716902,1.77902214

>  <Name>
1fmn_cryst

>  <RI>
0

>  <Rbt.Current_Directory>
/home/itssahil/PROJECTS/Mol_Feturizer/New_Systems/rnas/1fmn

>  <Rbt.Executable>
rbdock ($Id: //depot/dev/client3/rdock/2013.1/src/exe/rbdock.cxx#4 $)

>  <Rbt.Library>
libRbt.so (2013.1, Build901 2013/11/27)

>  <Rbt.Parameter_File>
/export/apps/rDock/src/rDock_2013.1_src/data/scripts/dock_solv.prm

>  <Rbt.Receptor>
prm/blind_docking_60.prm

>  <SCORE>
-20.4547

>  <SCORE.INTER>
-16.4423

>  <SCORE.INTER.CONST>
1

>  <SCORE.INTER.POLAR>
-2.23264

>  <SCORE.INTER.ROT>
7

>  <SCORE.INTER.SOLV>
31.5764

>  <SCORE.INTER.VDW>
-22.3115

>  <SCORE.INTER.norm>
-0.530397

>  <SCORE.INTRA>
-5.40299

>  <SCORE.INTRA.DIHEDRAL>
-9.62305

>  <SCORE.INTRA.DIHEDRAL.0>
15.5708

>  <SCORE.INTRA.POLAR>
0.0183324

>  <SCORE.INTRA.POLAR.0>
-0.0677885

>  <SCORE.INTRA.REPUL>
0

>  <SCORE.INTRA.REPUL.0>
0

>  <SCORE.INTRA.SOLV>
-1.42773

>  <SCORE.INTRA.SOLV.lig_0>
-87.6316

>  <SCORE.INTRA.VDW>
0.0600673

>  <SCORE.INTRA.VDW.0>
-2.87309

>  <SCORE.INTRA.norm>
-0.17429

>  <SCORE.RESTR>
1.3906

>  <SCORE.RESTR.CAVITY>
1.3906

>  <SCORE.RESTR.norm>
0.0448582

>  <SCORE.SYSTEM>
0

>  <SCORE.SYSTEM.CONST>
0

>  <SCORE.SYSTEM.DIHEDRAL>
0

>  <SCORE.SYSTEM.SOLV>
0

>  <SCORE.SYSTEM.norm>
0

>  <SCORE.heavy>
31

>  <SCORE.norm>
-0.659829

>  <SYMMETRIC_BONDS>
33 34 3

>  <RMSD>
10.464

$$$$
1fmn_cryst
 OpenBabel11021811393D
libRbt.so/2013.1/901 2013/11/27
 31 33  0  0  0  0  0  0  0  0999 V2000
   -9.4880   -4.2562   -5.0085 N   0  0  0  0  0  0  0  0  0  0  0  0
   -8.6358   -4.6822   -6.0004 C   0  0  0  0  0  0  0  0  0  0  0  0
   -8.8906   -4.5197   -7.1942 O   0  0  0  0  0  0  0  0  0  0  0  0
   -7.4502   -5.3236   -5.5616 N   0  0  0  0  0  0  0  0  0  0  0  0
   -7.0665   -5.5649   -4.2241 C   0  0  0  0  0  0  0  0  0  0  0  0
   -5.9967   -6.1373   -3.9811 O   0  0  0  0  0  0  0  0  0  0  0  0
   -8.0267   -5.0825   -3.2289 C   0  0  0  0  0  0  0  0  0  0  0  0
   -7.7272   -5.2784   -1.9037 N   0  0  0  0  0  0  0  0  0  0  0  0
   -8.6994   -4.9937   -0.9892 C   0  0  0  0  0  0  0  0  0  0  0  0
   -8.4761   -5.3598    0.3263 C   0  0  0  0  0  0  0  0  0  0  0  0
   -9.3957   -5.1086    1.2868 C   0  0  0  0  0  0  0  0  0  0  0  0
   -9.1039   -5.5219    2.6940 C   0  0  0  0  0  0  0  0  0  0  0  0
  -10.5655   -4.4885    0.9731 C   0  0  0  0  0  0  0  0  0  0  0  0
  -11.5782   -4.2212    2.0385 C   0  0  0  0  0  0  0  0  0  0  0  0
  -10.8276   -4.1105   -0.3041 C   0  0  0  0  0  0  0  0  0  0  0  0
   -9.9133   -4.3456   -1.3309 C   0  0  0  0  0  0  0  0  0  0  0  0
  -10.1204   -3.9764   -2.6765 N   0  0  0  0  0  0  0  0  0  0  0  0
   -9.2333   -4.4268   -3.6757 C   0  0  0  0  0  0  0  0  0  0  0  0
  -10.8868   -2.7057   -2.9529 C   0  0  0  0  0  0  0  0  0  0  0  0
  -12.3642   -2.6670   -2.4570 C   0  0  1  0  0  0  0  0  0  0  0  0
  -12.4146   -2.2437   -1.1019 O   0  0  0  0  0  0  0  0  0  0  0  0
  -13.2908   -1.8240   -3.3652 C   0  0  1  0  0  0  0  0  0  0  0  0
  -14.3168   -2.6427   -3.9189 O   0  0  0  0  0  0  0  0  0  0  0  0
  -13.9118   -0.5494   -2.7427 C   0  0  1  0  0  0  0  0  0  0  0  0
  -14.5592   -0.9122   -1.5281 O   0  0  0  0  0  0  0  0  0  0  0  0
  -12.8642    0.5454   -2.4402 C   0  0  0  0  0  0  0  0  0  0  0  0
  -12.5625    1.3391   -3.5817 O   0  0  0  0  0  0  0  0  0  0  0  0
  -11.7341    0.7865   -4.8144 P   0  0  0  0  0  0  0  0  0  0  0  0
  -10.4927    0.1193   -4.3606 O   0  0  0  0  0  0  0  0  0  0  0  0
  -12.6189    0.0695   -5.7578 O   0  5  0  0  0  0  0  0  0  0  0  0
  -11.2563    2.1044   -5.5692 O   0  5  0  0  0  0  0  0  0  0  0  0
  1 18  1  0  0  0  0
  1  2  1  0  0  0  0
  2  4  1  0  0  0  0
  2  3  2  0  0  0  0
  4  5  1  0  0  0  0
  5  7  1  0  0  0  0
  5  6  2  0  0  0  0
  7 18  2  0  0  0  0
  7  8  1  0  0  0  0
  8  9  1  0  0  0  0
  9 10  2  0  0  0  0
  9 16  1  0  0  0  0
 10 11  1  0  0  0  0
 11 12  1  0  0  0  0
 11 13  2  0  0  0  0
 13 14  1  0  0  0  0
 13 15  1  0  0  0  0
 15 16  2  0  0  0  0
 16 17  1  0  0  0  0
 17 19  1  0  0  0  0
 17 18  1  0  0  0  0
 20 19  1  6  0  0  0
 20 22  1  0  0  0  0
 20 21  1  0  0  0  0
 22 24  1  0  0  0  0
 22 23  1  1  0  0  0
 24 26  1  1  0  0  0
 24 25  1  0  0  0  0
 26 27  1  0  0  0  0
 27 28  1  0  0  0  0
 28 30  1  0  0  0  0
 28 29  2  0  0  0  0
 28 31  1  0  0  0  0
M  CHG  2  30  -1  31  -1
M  END
>  <CHROM.1>
-62.43014273,86.00109572,118.25175263,177.20099924,-52.90826536,-175.60687841
83.43178502,-52.22584753,-71.14545915,-49.29742577,-10.60137909,-2.84047295
-2.83942081,-0.67022701,0.75266968,-1.13711870

>  <Name>
1fmn_cryst

>  <RI>
0

>  <Rbt.Current_Directory>
/home/itssahil/PROJECTS/Mol_Feturizer/New_Systems/rnas/1fmn

>  <Rbt.Executable>
rbdock ($Id: //depot/dev/client3/rdock/2013.1/src/exe/rbdock.cxx#4 $)

>  <Rbt.Library>
libRbt.so (2013.1, Build901 2013/11/27)

>  <Rbt.Parameter_File>
/export/apps/rDock/src/rDock_2013.1_src/data/scripts/dock_solv.prm

>  <Rbt.Receptor>
prm/pocket_docking_8.prm

>  <SCORE>
-33.1275

>  <SCORE.INTER>
-33.2604

>  <SCORE.INTER.CONST>
1

>  <SCORE.INTER.POLAR>
-0.72111

>  <SCORE.INTER.ROT>
7

>  <SCORE.INTER.SOLV>
17.0591

>  <SCORE.INTER.VDW>
-33.723

>  <SCORE.INTER.norm>
-1.07292

>  <SCORE.INTRA>
0.132927

>  <SCORE.INTRA.DIHEDRAL>
-3.3712

>  <SCORE.INTRA.DIHEDRAL.0>
15.5708

>  <SCORE.INTRA.POLAR>
-0.160551

>  <SCORE.INTRA.POLAR.0>
-0.0677885

>  <SCORE.INTRA.REPUL>
0

>  <SCORE.INTRA.REPUL.0>
0

>  <SCORE.INTRA.SOLV>
2.46286

>  <SCORE.INTRA.SOLV.lig_0>
-87.6316

>  <SCORE.INTRA.VDW>
1.13297

>  <SCORE.INTRA.VDW.0>
-2.87309

>  <SCORE.INTRA.norm>
0.00428798

>  <SCORE.RESTR>
0

>  <SCORE.RESTR.CAVITY>
0

>  <SCORE.RESTR.norm>
0

>  <SCORE.SYSTEM>
0

>  <SCORE.SYSTEM.CONST>
0

>  <SCORE.SYSTEM.DIHEDRAL>
0

>  <SCORE.SYSTEM.SOLV>
0

>  <SCORE.SYSTEM.norm>
0

>  <SCORE.heavy>
31

>  <SCORE.norm>
-1.06863

>  <SYMMETRIC_BONDS>
33 34 3

>  <RMSD>
10.469

$$$$
1fmn_cryst
 OpenBabel11021811393D
libRbt.so/2013.1/901 2013/11/27
 31 33  0  0  0  0  0  0  0  0999 V2000
  -12.8799    3.1355    1.2683 N   0  0  0  0  0  0  0  0  0  0  0  0
  -13.4330    3.8987    0.2668 C   0  0  0  0  0  0  0  0  0  0  0  0
  -13.0022    3.8736   -0.8866 O   0  0  0  0  0  0  0  0  0  0  0  0
  -14.5253    4.7182    0.6475 N   0  0  0  0  0  0  0  0  0  0  0  0
  -15.0905    4.8258    1.9371 C   0  0  0  0  0  0  0  0  0  0  0  0
  -16.0495    5.5834    2.1310 O   0  0  0  0  0  0  0  0  0  0  0  0
  -14.4454    3.9829    2.9464 C   0  0  0  0  0  0  0  0  0  0  0  0
  -14.9366    4.0295    4.2273 N   0  0  0  0  0  0  0  0  0  0  0  0
  -14.2255    3.3865    5.1986 C   0  0  0  0  0  0  0  0  0  0  0  0
  -14.6073    3.5804    6.5143 C   0  0  0  0  0  0  0  0  0  0  0  0
  -13.9484    2.9743    7.5292 C   0  0  0  0  0  0  0  0  0  0  0  0
  -14.4034    3.2148    8.9333 C   0  0  0  0  0  0  0  0  0  0  0  0
  -12.8900    2.1591    7.2718 C   0  0  0  0  0  0  0  0  0  0  0  0
  -12.1639    1.4995    8.3987 C   0  0  0  0  0  0  0  0  0  0  0  0
  -12.4801    1.9387    5.9965 C   0  0  0  0  0  0  0  0  0  0  0  0
  -13.1251    2.5386    4.9149 C   0  0  0  0  0  0  0  0  0  0  0  0
  -12.7539    2.3503    3.5671 N   0  0  0  0  0  0  0  0  0  0  0  0
  -13.3344    3.1461    2.5582 C   0  0  0  0  0  0  0  0  0  0  0  0
  -12.2213    0.9976    3.1609 C   0  0  0  0  0  0  0  0  0  0  0  0
  -13.2742   -0.1407    3.0000 C   0  0  1  0  0  0  0  0  0  0  0  0
  -14.2924    0.2591    2.0938 O   0  0  0  0  0  0  0  0  0  0  0  0
  -12.6478   -1.5004    2.6091 C   0  0  1  0  0  0  0  0  0  0  0  0
  -13.2613   -2.5557    3.3436 O   0  0  0  0  0  0  0  0  0  0  0  0
  -12.6226   -1.8529    1.1014 C   0  0  1  0  0  0  0  0  0  0  0  0
  -12.2426   -0.6897    0.3744 O   0  0  0  0  0  0  0  0  0  0  0  0
  -11.6360   -2.9937    0.7657 C   0  0  0  0  0  0  0  0  0  0  0  0
  -11.1209   -3.6272    1.9308 O   0  0  0  0  0  0  0  0  0  0  0  0
  -10.4060   -5.0410    1.8918 P   0  0  0  0  0  0  0  0  0  0  0  0
  -11.4011   -6.1372    1.9077 O   0  0  0  0  0  0  0  0  0  0  0  0
   -9.3468   -5.0612    0.8600 O   0  5  0  0  0  0  0  0  0  0  0  0
   -9.6592   -5.1249    3.2954 O   0  5  0  0  0  0  0  0  0  0  0  0
  1 18  1  0  0  0  0
  1  2  1  0  0  0  0
  2  4  1  0  0  0  0
  2  3  2  0  0  0  0
  4  5  1  0  0  0  0
  5  7  1  0  0  0  0
  5  6  2  0  0  0  0
  7 18  2  0  0  0  0
  7  8  1  0  0  0  0
  8  9  1  0  0  0  0
  9 10  2  0  0  0  0
  9 16  1  0  0  0  0
 10 11  1  0  0  0  0
 11 12  1  0  0  0  0
 11 13  2  0  0  0  0
 13 14  1  0  0  0  0
 13 15  1  0  0  0  0
 15 16  2  0  0  0  0
 16 17  1  0  0  0  0
 17 19  1  0  0  0  0
 17 18  1  0  0  0  0
 20 19  1  6  0  0  0
 20 22  1  0  0  0  0
 20 21  1  0  0  0  0
 22 24  1  0  0  0  0
 22 23  1  1  0  0  0
 24 26  1  1  0  0  0
 24 25  1  0  0  0  0
 26 27  1  0  0  0  0
 27 28  1  0  0  0  0
 28 30  1  0  0  0  0
 28 29  2  0  0  0  0
 28 31  1  0  0  0  0
M  CHG  2  30  -1  31  -1
M  END
>  <CHROM.1>
76.10329342,54.67847647,138.12542239,66.07729936,42.49316852,-66.15666649
9.61063941,167.82040593,163.51673320,-82.85382029,-12.83700128,0.50280031
3.07563355,2.89035107,-1.18093334,1.57484330

>  <Name>
1fmn_cryst

>  <RI>
0

>  <Rbt.Current_Directory>
/home/itssahil/PROJECTS/Mol_Feturizer/New_Systems/rnas/1fmn

>  <Rbt.Executable>
rbdock ($Id: //depot/dev/client3/rdock/2013.1/src/exe/rbdock.cxx#4 $)

>  <Rbt.Library>
libRbt.so (2013.1, Build901 2013/11/27)

>  <Rbt.Parameter_File>
/export/apps/rDock/src/rDock_2013.1_src/data/scripts/dock_solv.prm

>  <Rbt.Receptor>
prm/blind_docking_40.prm

>  <SCORE>
-20.631

>  <SCORE.INTER>
-17.8253

>  <SCORE.INTER.CONST>
1

>  <SCORE.INTER.POLAR>
-2.41371

>  <SCORE.INTER.ROT>
7

>  <SCORE.INTER.SOLV>
28.8495

>  <SCORE.INTER.VDW>
-21.721

>  <SCORE.INTER.norm>
-0.575009

>  <SCORE.INTRA>
-3.25535

>  <SCORE.INTRA.DIHEDRAL>
-1.26219

>  <SCORE.INTRA.DIHEDRAL.0>
15.5708

>  <SCORE.INTRA.POLAR>
-0.428278

>  <SCORE.INTRA.POLAR.0>
-0.0677885

>  <SCORE.INTRA.REPUL>
0

>  <SCORE.INTRA.REPUL.0>
0

>  <SCORE.INTRA.SOLV>
-3.43047

>  <SCORE.INTRA.SOLV.lig_0>
-87.6316

>  <SCORE.INTRA.VDW>
0.547123

>  <SCORE.INTRA.VDW.0>
-2.87309

>  <SCORE.INTRA.norm>
-0.105011

>  <SCORE.RESTR>
0.44965

>  <SCORE.RESTR.CAVITY>
0.44965

>  <SCORE.RESTR.norm>
0.0145048

>  <SCORE.SYSTEM>
0

>  <SCORE.SYSTEM.CONST>
0

>  <SCORE.SYSTEM.DIHEDRAL>
0

>  <SCORE.SYSTEM.SOLV>
0

>  <SCORE.SYSTEM.norm>
0

>  <SCORE.heavy>
31

>  <SCORE.norm>
-0.665516

>  <SYMMETRIC_BONDS>
33 34 3

>  <RMSD>
11.028

$$$$
1fmn_cryst
 OpenBabel11021811393D
libRbt.so/2013.1/901 2013/11/27
 31 33  0  0  0  0  0  0  0  0999 V2000
  -11.6789   -2.1480    0.3374 N   0  0  0  0  0  0  0  0  0  0  0  0
  -11.4536   -3.5012    0.2395 C   0  0  0  0  0  0  0  0  0  0  0  0
  -11.0131   -4.0169   -0.7884 O   0  0  0  0  0  0  0  0  0  0  0  0
  -11.7649   -4.2635    1.3934 N   0  0  0  0  0  0  0  0  0  0  0  0
  -12.2779   -3.7745    2.6149 C   0  0  0  0  0  0  0  0  0  0  0  0
  -12.5042   -4.5555    3.5477 O   0  0  0  0  0  0  0  0  0  0  0  0
  -12.4905   -2.3256    2.6384 C   0  0  0  0  0  0  0  0  0  0  0  0
  -12.9875   -1.7707    3.7914 N   0  0  0  0  0  0  0  0  0  0  0  0
  -13.3535   -0.4566    3.7514 C   0  0  0  0  0  0  0  0  0  0  0  0
  -14.0238    0.0609    4.8456 C   0  0  0  0  0  0  0  0  0  0  0  0
  -14.4166    1.3556    4.8756 C   0  0  0  0  0  0  0  0  0  0  0  0
  -15.1351    1.8661    6.0837 C   0  0  0  0  0  0  0  0  0  0  0  0
  -14.1588    2.1767    3.8218 C   0  0  0  0  0  0  0  0  0  0  0  0
  -14.6021    3.6030    3.8604 C   0  0  0  0  0  0  0  0  0  0  0  0
  -13.5033    1.7130    2.7273 C   0  0  0  0  0  0  0  0  0  0  0  0
  -13.0768    0.3875    2.6463 C   0  0  0  0  0  0  0  0  0  0  0  0
  -12.3887   -0.1577    1.5421 N   0  0  0  0  0  0  0  0  0  0  0  0
  -12.1710   -1.5486    1.4639 C   0  0  0  0  0  0  0  0  0  0  0  0
  -11.4311    0.7361    0.7921 C   0  0  0  0  0  0  0  0  0  0  0  0
  -12.0484    1.6232   -0.3313 C   0  0  1  0  0  0  0  0  0  0  0  0
  -11.2346    2.7659   -0.5551 O   0  0  0  0  0  0  0  0  0  0  0  0
  -12.3304    0.8443   -1.6381 C   0  0  1  0  0  0  0  0  0  0  0  0
  -13.4066   -0.0691   -1.4457 O   0  0  0  0  0  0  0  0  0  0  0  0
  -12.5739    1.6842   -2.9161 C   0  0  1  0  0  0  0  0  0  0  0  0
  -12.8372    3.0279   -2.5272 O   0  0  0  0  0  0  0  0  0  0  0  0
  -11.3688    1.6733   -3.8831 C   0  0  0  0  0  0  0  0  0  0  0  0
  -11.5600    2.5342   -4.9995 O   0  0  0  0  0  0  0  0  0  0  0  0
  -11.0008    4.0163   -5.0437 P   0  0  0  0  0  0  0  0  0  0  0  0
  -11.0288    4.5510   -6.4240 O   0  0  0  0  0  0  0  0  0  0  0  0
  -11.5906    4.8286   -3.9577 O   0  5  0  0  0  0  0  0  0  0  0  0
   -9.4588    3.8486   -4.6845 O   0  5  0  0  0  0  0  0  0  0  0  0
  1 18  1  0  0  0  0
  1  2  1  0  0  0  0
  2  4  1  0  0  0  0
  2  3  2  0  0  0  0
  4  5  1  0  0  0  0
  5  7  1  0  0  0  0
  5  6  2  0  0  0  0
  7 18  2  0  0  0  0
  7  8  1  0  0  0  0
  8  9  1  0  0  0  0
  9 10  2  0  0  0  0
  9 16  1  0  0  0  0
 10 11  1  0  0  0  0
 11 12  1  0  0  0  0
 11 13  2  0  0  0  0
 13 14  1  0  0  0  0
 13 15  1  0  0  0  0
 15 16  2  0  0  0  0
 16 17  1  0  0  0  0
 17 19  1  0  0  0  0
 17 18  1  0  0  0  0
 20 19  1  1  0  0  0
 20 22  1  0  0  0  0
 20 21  1  0  0  0  0
 22 24  1  0  0  0  0
 22 23  1  1  0  0  0
 24 26  1  6  0  0  0
 24 25  1  0  0  0  0
 26 27  1  0  0  0  0
 27 28  1  0  0  0  0
 28 30  1  0  0  0  0
 28 29  2  0  0  0  0
 28 31  1  0  0  0  0
M  CHG  2  30  -1  31  -1
M  END
>  <CHROM.1>
-85.84292754,155.43276667,69.65756293,-65.19777762,-15.54897274,-175.01419431
-175.17568977,60.94019142,95.87863330,165.15260117,-12.31617887,0.68357291
0.00191394,-2.11494655,1.16542976,-0.51944364

>  <Name>
1fmn_cryst

>  <RI>
0

>  <Rbt.Current_Directory>
/home/itssahil/PROJECTS/Mol_Feturizer/New_Systems/rnas/1fmn

>  <Rbt.Executable>
rbdock ($Id: //depot/dev/client3/rdock/2013.1/src/exe/rbdock.cxx#4 $)

>  <Rbt.Library>
libRbt.so (2013.1, Build901 2013/11/27)

>  <Rbt.Parameter_File>
/export/apps/rDock/src/rDock_2013.1_src/data/scripts/dock_solv.prm

>  <Rbt.Receptor>
prm/blind_docking_20.prm

>  <SCORE>
-6.61991

>  <SCORE.INTER>
-5.99169

>  <SCORE.INTER.CONST>
1

>  <SCORE.INTER.POLAR>
-1.1752

>  <SCORE.INTER.ROT>
7

>  <SCORE.INTER.SOLV>
23.2506

>  <SCORE.INTER.VDW>
-16.094

>  <SCORE.INTER.norm>
-0.19328

>  <SCORE.INTRA>
-1.52605

>  <SCORE.INTRA.DIHEDRAL>
-1.35138

>  <SCORE.INTRA.DIHEDRAL.0>
15.5708

>  <SCORE.INTRA.POLAR>
-0.488563

>  <SCORE.INTRA.POLAR.0>
-0.0677885

>  <SCORE.INTRA.REPUL>
0

>  <SCORE.INTRA.REPUL.0>
0

>  <SCORE.INTRA.SOLV>
0.542619

>  <SCORE.INTRA.SOLV.lig_0>
-87.6316

>  <SCORE.INTRA.VDW>
0.539444

>  <SCORE.INTRA.VDW.0>
-2.87309

>  <SCORE.INTRA.norm>
-0.0492276

>  <SCORE.RESTR>
0.897828

>  <SCORE.RESTR.CAVITY>
0.897828

>  <SCORE.RESTR.norm>
0.0289622

>  <SCORE.SYSTEM>
0

>  <SCORE.SYSTEM.CONST>
0

>  <SCORE.SYSTEM.DIHEDRAL>
0

>  <SCORE.SYSTEM.SOLV>
0

>  <SCORE.SYSTEM.norm>
0

>  <SCORE.heavy>
31

>  <SCORE.norm>
-0.213546

>  <SYMMETRIC_BONDS>
33 34 3

>  <RMSD>
11.376

$$$$
1fmn_cryst
 OpenBabel11021811393D
libRbt.so/2013.1/901 2013/11/27
 31 33  0  0  0  0  0  0  0  0999 V2000
  -12.4086    5.5966   -0.4490 N   0  0  0  0  0  0  0  0  0  0  0  0
  -12.9428    6.6875   -1.0941 C   0  0  0  0  0  0  0  0  0  0  0  0
  -12.3781    7.2224   -2.0489 O   0  0  0  0  0  0  0  0  0  0  0  0
  -14.1801    7.1589   -0.5876 N   0  0  0  0  0  0  0  0  0  0  0  0
  -14.9051    6.6251    0.5003 C   0  0  0  0  0  0  0  0  0  0  0  0
  -15.9801    7.1366    0.8379 O   0  0  0  0  0  0  0  0  0  0  0  0
  -14.2699    5.4671    1.1333 C   0  0  0  0  0  0  0  0  0  0  0  0
  -14.9124    4.8886    2.1996 N   0  0  0  0  0  0  0  0  0  0  0  0
  -14.2368    3.9302    2.8979 C   0  0  0  0  0  0  0  0  0  0  0  0
  -14.7974    3.4751    4.0782 C   0  0  0  0  0  0  0  0  0  0  0  0
  -14.1837    2.5256    4.8220 C   0  0  0  0  0  0  0  0  0  0  0  0
  -14.8335    2.0660    6.0881 C   0  0  0  0  0  0  0  0  0  0  0  0
  -12.9951    1.9994    4.4203 C   0  0  0  0  0  0  0  0  0  0  0  0
  -12.3211    0.9566    5.2512 C   0  0  0  0  0  0  0  0  0  0  0  0
  -12.4080    2.4148    3.2690 C   0  0  0  0  0  0  0  0  0  0  0  0
  -12.9991    3.3901    2.4659 C   0  0  0  0  0  0  0  0  0  0  0  0
  -12.4459    3.8641    1.2579 N   0  0  0  0  0  0  0  0  0  0  0  0
  -13.0109    4.9851    0.6158 C   0  0  0  0  0  0  0  0  0  0  0  0
  -11.6780    2.8888    0.3992 C   0  0  0  0  0  0  0  0  0  0  0  0
  -12.5234    1.8252   -0.3651 C   0  0  1  0  0  0  0  0  0  0  0  0
  -11.8253    1.3835   -1.5207 O   0  0  0  0  0  0  0  0  0  0  0  0
  -12.9736    0.6457    0.5295 C   0  0  1  0  0  0  0  0  0  0  0  0
  -13.9513   -0.1404   -0.1455 O   0  0  0  0  0  0  0  0  0  0  0  0
  -11.8601   -0.2696    1.0952 C   0  0  1  0  0  0  0  0  0  0  0  0
  -11.7231   -0.0032    2.4867 O   0  0  0  0  0  0  0  0  0  0  0  0
  -12.1608   -1.7732    0.9039 C   0  0  0  0  0  0  0  0  0  0  0  0
  -11.1265   -2.6039    1.4176 O   0  0  0  0  0  0  0  0  0  0  0  0
  -11.0966   -4.1723    1.1929 P   0  0  0  0  0  0  0  0  0  0  0  0
  -12.0182   -4.8579    2.1272 O   0  0  0  0  0  0  0  0  0  0  0  0
  -11.1807   -4.4942   -0.2481 O   0  5  0  0  0  0  0  0  0  0  0  0
   -9.6324   -4.5921    1.6562 O   0  5  0  0  0  0  0  0  0  0  0  0
  1 18  1  0  0  0  0
  1  2  1  0  0  0  0
  2  4  1  0  0  0  0
  2  3  2  0  0  0  0
  4  5  1  0  0  0  0
  5  7  1  0  0  0  0
  5  6  2  0  0  0  0
  7 18  2  0  0  0  0
  7  8  1  0  0  0  0
  8  9  1  0  0  0  0
  9 10  2  0  0  0  0
  9 16  1  0  0  0  0
 10 11  1  0  0  0  0
 11 12  1  0  0  0  0
 11 13  2  0  0  0  0
 13 14  1  0  0  0  0
 13 15  1  0  0  0  0
 15 16  2  0  0  0  0
 16 17  1  0  0  0  0
 17 19  1  0  0  0  0
 17 18  1  0  0  0  0
 20 19  1  1  0  0  0
 20 22  1  0  0  0  0
 20 21  1  0  0  0  0
 22 24  1  0  0  0  0
 22 23  1  6  0  0  0
 24 26  1  1  0  0  0
 24 25  1  0  0  0  0
 26 27  1  0  0  0  0
 27 28  1  0  0  0  0
 28 30  1  0  0  0  0
 28 29  2  0  0  0  0
 28 31  1  0  0  0  0
M  CHG  2  30  -1  31  -1
M  END
>  <CHROM.1>
73.06939223,154.74313860,168.37675866,65.48591680,107.30609381,-59.89099186
179.53145058,178.26898119,-172.24821188,-79.20327420,-12.78548180,1.68784889
1.39338604,-2.30717535,-1.15298624,2.36887755

>  <Name>
1fmn_cryst

>  <RI>
0

>  <Rbt.Current_Directory>
/home/itssahil/PROJECTS/Mol_Feturizer/New_Systems/rnas/1fmn

>  <Rbt.Executable>
rbdock ($Id: //depot/dev/client3/rdock/2013.1/src/exe/rbdock.cxx#4 $)

>  <Rbt.Library>
libRbt.so (2013.1, Build901 2013/11/27)

>  <Rbt.Parameter_File>
/export/apps/rDock/src/rDock_2013.1_src/data/scripts/dock_solv.prm

>  <Rbt.Receptor>
prm/blind_docking_60.prm

>  <SCORE>
-16.0287

>  <SCORE.INTER>
-15.3587

>  <SCORE.INTER.CONST>
1

>  <SCORE.INTER.POLAR>
-2.44718

>  <SCORE.INTER.ROT>
7

>  <SCORE.INTER.SOLV>
28.9893

>  <SCORE.INTER.VDW>
-20.0116

>  <SCORE.INTER.norm>
-0.495442

>  <SCORE.INTRA>
-3.7629

>  <SCORE.INTRA.DIHEDRAL>
-6.40186

>  <SCORE.INTRA.DIHEDRAL.0>
15.5708

>  <SCORE.INTRA.POLAR>
0.0636371

>  <SCORE.INTRA.POLAR.0>
-0.0677885

>  <SCORE.INTRA.REPUL>
0

>  <SCORE.INTRA.REPUL.0>
0

>  <SCORE.INTRA.SOLV>
-4.65162

>  <SCORE.INTRA.SOLV.lig_0>
-87.6316

>  <SCORE.INTRA.VDW>
1.54747

>  <SCORE.INTRA.VDW.0>
-2.87309

>  <SCORE.INTRA.norm>
-0.121384

>  <SCORE.RESTR>
3.09296

>  <SCORE.RESTR.CAVITY>
3.09296

>  <SCORE.RESTR.norm>
0.099773

>  <SCORE.SYSTEM>
0

>  <SCORE.SYSTEM.CONST>
0

>  <SCORE.SYSTEM.DIHEDRAL>
0

>  <SCORE.SYSTEM.SOLV>
0

>  <SCORE.SYSTEM.norm>
0

>  <SCORE.heavy>
31

>  <SCORE.norm>
-0.517053

>  <SYMMETRIC_BONDS>
33 34 3

>  <RMSD>
11.628

$$$$
1fmn_cryst
 OpenBabel11021811393D
libRbt.so/2013.1/901 2013/11/27
 31 33  0  0  0  0  0  0  0  0999 V2000
   -9.5653   -4.7158   -7.2676 N   0  0  0  0  0  0  0  0  0  0  0  0
   -9.0276   -5.0807   -8.4797 C   0  0  0  0  0  0  0  0  0  0  0  0
   -9.6628   -4.9861   -9.5305 O   0  0  0  0  0  0  0  0  0  0  0  0
   -7.7001   -5.5763   -8.4415 N   0  0  0  0  0  0  0  0  0  0  0  0
   -6.8894   -5.7305   -7.2956 C   0  0  0  0  0  0  0  0  0  0  0  0
   -5.7403   -6.1765   -7.4062 O   0  0  0  0  0  0  0  0  0  0  0  0
   -7.5341   -5.3211   -6.0459 C   0  0  0  0  0  0  0  0  0  0  0  0
   -6.8116   -5.4397   -4.8848 N   0  0  0  0  0  0  0  0  0  0  0  0
   -7.4708   -5.2307   -3.7082 C   0  0  0  0  0  0  0  0  0  0  0  0
   -6.8041   -5.5269   -2.5326 C   0  0  0  0  0  0  0  0  0  0  0  0
   -7.3957   -5.3440   -1.3293 C   0  0  0  0  0  0  0  0  0  0  0  0
   -6.6301   -5.6768   -0.0885 C   0  0  0  0  0  0  0  0  0  0  0  0
   -8.6664   -4.8638   -1.2539 C   0  0  0  0  0  0  0  0  0  0  0  0
   -9.3143   -4.6714    0.0786 C   0  0  0  0  0  0  0  0  0  0  0  0
   -9.3590   -4.5587   -2.3808 C   0  0  0  0  0  0  0  0  0  0  0  0
   -8.7952   -4.7283   -3.6453 C   0  0  0  0  0  0  0  0  0  0  0  0
   -9.4566   -4.4283   -4.8547 N   0  0  0  0  0  0  0  0  0  0  0  0
   -8.8856   -4.8138   -6.0849 C   0  0  0  0  0  0  0  0  0  0  0  0
  -10.4085   -3.2570   -4.8703 C   0  0  0  0  0  0  0  0  0  0  0  0
   -9.8279   -1.9002   -5.3723 C   0  0  1  0  0  0  0  0  0  0  0  0
   -9.9135   -1.8252   -6.7882 O   0  0  0  0  0  0  0  0  0  0  0  0
  -10.4677   -0.6708   -4.6843 C   0  0  1  0  0  0  0  0  0  0  0  0
   -9.5806    0.4426   -4.7390 O   0  0  0  0  0  0  0  0  0  0  0  0
  -11.8751   -0.2479   -5.1725 C   0  0  1  0  0  0  0  0  0  0  0  0
  -12.4926   -1.3715   -5.7907 O   0  0  0  0  0  0  0  0  0  0  0  0
  -12.7848    0.2524   -4.0280 C   0  0  0  0  0  0  0  0  0  0  0  0
  -14.1111    0.5220   -4.4665 O   0  0  0  0  0  0  0  0  0  0  0  0
  -15.2671    0.9637   -3.4766 P   0  0  0  0  0  0  0  0  0  0  0  0
  -14.8411    2.1123   -2.6452 O   0  0  0  0  0  0  0  0  0  0  0  0
  -16.5603    1.0467   -4.1893 O   0  5  0  0  0  0  0  0  0  0  0  0
  -15.3929   -0.2646   -2.4715 O   0  5  0  0  0  0  0  0  0  0  0  0
  1 18  1  0  0  0  0
  1  2  1  0  0  0  0
  2  4  1  0  0  0  0
  2  3  2  0  0  0  0
  4  5  1  0  0  0  0
  5  7  1  0  0  0  0
  5  6  2  0  0  0  0
  7 18  2  0  0  0  0
  7  8  1  0  0  0  0
  8  9  1  0  0  0  0
  9 10  2  0  0  0  0
  9 16  1  0  0  0  0
 10 11  1  0  0  0  0
 11 12  1  0  0  0  0
 11 13  2  0  0  0  0
 13 14  1  0  0  0  0
 13 15  1  0  0  0  0
 15 16  2  0  0  0  0
 16 17  1  0  0  0  0
 17 19  1  0  0  0  0
 17 18  1  0  0  0  0
 20 19  1  1  0  0  0
 20 22  1  0  0  0  0
 20 21  1  0  0  0  0
 22 24  1  0  0  0  0
 22 23  1  6  0  0  0
 24 26  1  1  0  0  0
 24 25  1  0  0  0  0
 26 27  1  0  0  0  0
 27 28  1  0  0  0  0
 28 30  1  0  0  0  0
 28 29  2  0  0  0  0
 28 31  1  0  0  0  0
M  CHG  2  30  -1  31  -1
M  END
>  <CHROM.1>
95.66589124,85.66472079,156.06509298,62.53228428,22.12391103,-174.35842397
-174.61853734,67.49628520,176.23516363,51.68652019,-10.30733067,-2.84612188
-4.62908050,0.16744311,0.71881992,-1.58305151

>  <Name>
1fmn_cryst

>  <RI>
0

>  <Rbt.Current_Directory>
/home/itssahil/PROJECTS/Mol_Feturizer/New_Systems/rnas/1fmn

>  <Rbt.Executable>
rbdock ($Id: //depot/dev/client3/rdock/2013.1/src/exe/rbdock.cxx#4 $)

>  <Rbt.Library>
libRbt.so (2013.1, Build901 2013/11/27)

>  <Rbt.Parameter_File>
/export/apps/rDock/src/rDock_2013.1_src/data/scripts/dock_solv.prm

>  <Rbt.Receptor>
prm/pocket_docking_8.prm

>  <SCORE>
-31.2

>  <SCORE.INTER>
-26.2095

>  <SCORE.INTER.CONST>
1

>  <SCORE.INTER.POLAR>
-0.745605

>  <SCORE.INTER.ROT>
7

>  <SCORE.INTER.SOLV>
8.41197

>  <SCORE.INTER.VDW>
-26.0583

>  <SCORE.INTER.norm>
-0.845469

>  <SCORE.INTRA>
-5.0064

>  <SCORE.INTRA.DIHEDRAL>
-5.7956

>  <SCORE.INTRA.DIHEDRAL.0>
15.5708

>  <SCORE.INTRA.POLAR>
-0.324674

>  <SCORE.INTRA.POLAR.0>
-0.0677885

>  <SCORE.INTRA.REPUL>
0

>  <SCORE.INTRA.REPUL.0>
0

>  <SCORE.INTRA.SOLV>
-3.88793

>  <SCORE.INTRA.SOLV.lig_0>
-87.6316

>  <SCORE.INTRA.VDW>
0.939257

>  <SCORE.INTRA.VDW.0>
-2.87309

>  <SCORE.INTRA.norm>
-0.161497

>  <SCORE.RESTR>
0.0159387

>  <SCORE.RESTR.CAVITY>
0.0159387

>  <SCORE.RESTR.norm>
0.000514151

>  <SCORE.SYSTEM>
0

>  <SCORE.SYSTEM.CONST>
0

>  <SCORE.SYSTEM.DIHEDRAL>
0

>  <SCORE.SYSTEM.SOLV>
0

>  <SCORE.SYSTEM.norm>
0

>  <SCORE.heavy>
31

>  <SCORE.norm>
-1.00645

>  <SYMMETRIC_BONDS>
33 34 3

>  <RMSD>
11.633

$$$$
1fmn_cryst
 OpenBabel11021811393D
libRbt.so/2013.1/901 2013/11/27
 31 33  0  0  0  0  0  0  0  0999 V2000
  -12.3302    2.9211    1.5082 N   0  0  0  0  0  0  0  0  0  0  0  0
  -11.9292    3.2472    0.2337 C   0  0  0  0  0  0  0  0  0  0  0  0
  -11.0042    2.6609   -0.3296 O   0  0  0  0  0  0  0  0  0  0  0  0
  -12.6438    4.3025   -0.3868 N   0  0  0  0  0  0  0  0  0  0  0  0
  -13.7109    5.0410    0.1700 C   0  0  0  0  0  0  0  0  0  0  0  0
  -14.2498    5.9407   -0.4869 O   0  0  0  0  0  0  0  0  0  0  0  0
  -14.0768    4.6340    1.5285 C   0  0  0  0  0  0  0  0  0  0  0  0
  -15.1065    5.3036    2.1414 N   0  0  0  0  0  0  0  0  0  0  0  0
  -15.3257    5.0479    3.4639 C   0  0  0  0  0  0  0  0  0  0  0  0
  -16.2343    5.8473    4.1346 C   0  0  0  0  0  0  0  0  0  0  0  0
  -16.5018    5.6511    5.4466 C   0  0  0  0  0  0  0  0  0  0  0  0
  -17.4947    6.5411    6.1237 C   0  0  0  0  0  0  0  0  0  0  0  0
  -15.8762    4.6580    6.1347 C   0  0  0  0  0  0  0  0  0  0  0  0
  -16.1724    4.4528    7.5846 C   0  0  0  0  0  0  0  0  0  0  0  0
  -14.9778    3.8485    5.5180 C   0  0  0  0  0  0  0  0  0  0  0  0
  -14.6668    4.0082    4.1677 C   0  0  0  0  0  0  0  0  0  0  0  0
  -13.7472    3.2014    3.4653 N   0  0  0  0  0  0  0  0  0  0  0  0
  -13.3506    3.5573    2.1599 C   0  0  0  0  0  0  0  0  0  0  0  0
  -13.6481    1.7440    3.8457 C   0  0  0  0  0  0  0  0  0  0  0  0
  -12.7194    0.8593    2.9597 C   0  0  1  0  0  0  0  0  0  0  0  0
  -11.7261    0.2365    3.7618 O   0  0  0  0  0  0  0  0  0  0  0  0
  -13.4944   -0.1629    2.0946 C   0  0  1  0  0  0  0  0  0  0  0  0
  -14.1712    0.5025    1.0321 O   0  0  0  0  0  0  0  0  0  0  0  0
  -12.6894   -1.3626    1.5373 C   0  0  1  0  0  0  0  0  0  0  0  0
  -11.4060   -0.8952    1.1367 O   0  0  0  0  0  0  0  0  0  0  0  0
  -12.5055   -2.4969    2.5703 C   0  0  0  0  0  0  0  0  0  0  0  0
  -11.8741   -3.6431    2.0121 O   0  0  0  0  0  0  0  0  0  0  0  0
  -11.6013   -4.9622    2.8468 P   0  0  0  0  0  0  0  0  0  0  0  0
  -12.0063   -6.1643    2.0832 O   0  0  0  0  0  0  0  0  0  0  0  0
  -10.2512   -4.9279    3.4494 O   0  5  0  0  0  0  0  0  0  0  0  0
  -12.6299   -4.8619    4.0579 O   0  5  0  0  0  0  0  0  0  0  0  0
  1 18  1  0  0  0  0
  1  2  1  0  0  0  0
  2  4  1  0  0  0  0
  2  3  2  0  0  0  0
  4  5  1  0  0  0  0
  5  7  1  0  0  0  0
  5  6  2  0  0  0  0
  7 18  2  0  0  0  0
  7  8  1  0  0  0  0
  8  9  1  0  0  0  0
  9 10  2  0  0  0  0
  9 16  1  0  0  0  0
 10 11  1  0  0  0  0
 11 12  1  0  0  0  0
 11 13  2  0  0  0  0
 13 14  1  0  0  0  0
 13 15  1  0  0  0  0
 15 16  2  0  0  0  0
 16 17  1  0  0  0  0
 17 19  1  0  0  0  0
 17 18  1  0  0  0  0
 20 19  1  1  0  0  0
 20 22  1  0  0  0  0
 20 21  1  0  0  0  0
 22 24  1  0  0  0  0
 22 23  1  6  0  0  0
 24 26  1  1  0  0  0
 24 25  1  0  0  0  0
 26 27  1  0  0  0  0
 27 28  1  0  0  0  0
 28 30  1  0  0  0  0
 28 29  2  0  0  0  0
 28 31  1  0  0  0  0
M  CHG  2  30  -1  31  -1
M  END
>  <CHROM.1>
174.49069880,123.03793083,72.39128718,-70.89600550,-39.37281758,-172.61282362
174.53595880,-73.30158481,-178.34832169,133.61253431,-13.39443045,1.32400139
2.72736634,-2.32428851,-1.03025880,2.57553904

>  <Name>
1fmn_cryst

>  <RI>
0

>  <Rbt.Current_Directory>
/home/itssahil/PROJECTS/Mol_Feturizer/New_Systems/rnas/1fmn

>  <Rbt.Executable>
rbdock ($Id: //depot/dev/client3/rdock/2013.1/src/exe/rbdock.cxx#4 $)

>  <Rbt.Library>
libRbt.so (2013.1, Build901 2013/11/27)

>  <Rbt.Parameter_File>
/export/apps/rDock/src/rDock_2013.1_src/data/scripts/dock_solv.prm

>  <Rbt.Receptor>
prm/blind_docking_40.prm

>  <SCORE>
-9.03039

>  <SCORE.INTER>
-18.2206

>  <SCORE.INTER.CONST>
1

>  <SCORE.INTER.POLAR>
-3.07006

>  <SCORE.INTER.ROT>
7

>  <SCORE.INTER.SOLV>
31.2749

>  <SCORE.INTER.VDW>
-20.6052

>  <SCORE.INTER.norm>
-0.587761

>  <SCORE.INTRA>
7.58482

>  <SCORE.INTRA.DIHEDRAL>
-3.38552

>  <SCORE.INTRA.DIHEDRAL.0>
15.5708

>  <SCORE.INTRA.POLAR>
0.0677885

>  <SCORE.INTRA.POLAR.0>
-0.0677885

>  <SCORE.INTRA.REPUL>
0

>  <SCORE.INTRA.REPUL.0>
0

>  <SCORE.INTRA.SOLV>
-2.41146

>  <SCORE.INTRA.SOLV.lig_0>
-87.6316

>  <SCORE.INTRA.VDW>
10.2528

>  <SCORE.INTRA.VDW.0>
-2.87309

>  <SCORE.INTRA.norm>
0.244672

>  <SCORE.RESTR>
1.60539

>  <SCORE.RESTR.CAVITY>
1.60539

>  <SCORE.RESTR.norm>
0.0517867

>  <SCORE.SYSTEM>
0

>  <SCORE.SYSTEM.CONST>
0

>  <SCORE.SYSTEM.DIHEDRAL>
0

>  <SCORE.SYSTEM.SOLV>
0

>  <SCORE.SYSTEM.norm>
0

>  <SCORE.heavy>
31

>  <SCORE.norm>
-0.291303

>  <SYMMETRIC_BONDS>
33 34 3

>  <RMSD>
11.740

$$$$
1fmn_cryst
 OpenBabel11021811393D
libRbt.so/2013.1/901 2013/11/27
 31 33  0  0  0  0  0  0  0  0999 V2000
  -14.2468    5.2598    0.1887 N   0  0  0  0  0  0  0  0  0  0  0  0
  -14.8269    6.3047   -0.4919 C   0  0  0  0  0  0  0  0  0  0  0  0
  -14.4945    6.6005   -1.6401 O   0  0  0  0  0  0  0  0  0  0  0  0
  -15.8263    7.0211    0.2134 N   0  0  0  0  0  0  0  0  0  0  0  0
  -16.2757    6.7698    1.5283 C   0  0  0  0  0  0  0  0  0  0  0  0
  -17.1620    7.4764    2.0249 O   0  0  0  0  0  0  0  0  0  0  0  0
  -15.6089    5.6428    2.1844 C   0  0  0  0  0  0  0  0  0  0  0  0
  -15.9895    5.3327    3.4663 N   0  0  0  0  0  0  0  0  0  0  0  0
  -15.2466    4.4050    4.1372 C   0  0  0  0  0  0  0  0  0  0  0  0
  -15.5056    4.2210    5.4838 C   0  0  0  0  0  0  0  0  0  0  0  0
  -14.8086    3.3179    6.2119 C   0  0  0  0  0  0  0  0  0  0  0  0
  -15.1301    3.1555    7.6633 C   0  0  0  0  0  0  0  0  0  0  0  0
  -13.8325    2.5709    5.6286 C   0  0  0  0  0  0  0  0  0  0  0  0
  -13.0633    1.5812    6.4415 C   0  0  0  0  0  0  0  0  0  0  0  0
  -13.5441    2.7166    4.3101 C   0  0  0  0  0  0  0  0  0  0  0  0
  -14.2331    3.6327    3.5153 C   0  0  0  0  0  0  0  0  0  0  0  0
  -13.9869    3.8319    2.1406 N   0  0  0  0  0  0  0  0  0  0  0  0
  -14.5926    4.9112    1.4652 C   0  0  0  0  0  0  0  0  0  0  0  0
  -13.5823    2.6366    1.3126 C   0  0  0  0  0  0  0  0  0  0  0  0
  -13.5775    1.2590    2.0423 C   0  0  1  0  0  0  0  0  0  0  0  0
  -14.8973    0.9077    2.4332 O   0  0  0  0  0  0  0  0  0  0  0  0
  -12.8946    0.1374    1.2240 C   0  0  1  0  0  0  0  0  0  0  0  0
  -11.8878    0.6864    0.3787 O   0  0  0  0  0  0  0  0  0  0  0  0
  -12.3194   -1.0600    2.0198 C   0  0  1  0  0  0  0  0  0  0  0  0
  -13.2269   -1.3799    3.0687 O   0  0  0  0  0  0  0  0  0  0  0  0
  -12.1053   -2.3168    1.1468 C   0  0  0  0  0  0  0  0  0  0  0  0
  -10.9873   -3.0883    1.5698 O   0  0  0  0  0  0  0  0  0  0  0  0
  -10.5545   -4.4336    0.8528 P   0  0  0  0  0  0  0  0  0  0  0  0
  -10.9053   -4.4027   -0.5853 O   0  0  0  0  0  0  0  0  0  0  0  0
   -9.1770   -4.8097    1.2376 O   0  5  0  0  0  0  0  0  0  0  0  0
  -11.5106   -5.5302    1.4996 O   0  5  0  0  0  0  0  0  0  0  0  0
  1 18  1  0  0  0  0
  1  2  1  0  0  0  0
  2  4  1  0  0  0  0
  2  3  2  0  0  0  0
  4  5  1  0  0  0  0
  5  7  1  0  0  0  0
  5  6  2  0  0  0  0
  7 18  2  0  0  0  0
  7  8  1  0  0  0  0
  8  9  1  0  0  0  0
  9 10  2  0  0  0  0
  9 16  1  0  0  0  0
 10 11  1  0  0  0  0
 11 12  1  0  0  0  0
 11 13  2  0  0  0  0
 13 14  1  0  0  0  0
 13 15  1  0  0  0  0
 15 16  2  0  0  0  0
 16 17  1  0  0  0  0
 17 19  1  0  0  0  0
 17 18  1  0  0  0  0
 20 19  1  6  0  0  0
 20 22  1  0  0  0  0
 20 21  1  0  0  0  0
 22 24  1  0  0  0  0
 22 23  1  1  0  0  0
 24 26  1  6  0  0  0
 24 25  1  0  0  0  0
 26 27  1  0  0  0  0
 27 28  1  0  0  0  0
 28 30  1  0  0  0  0
 28 29  2  0  0  0  0
 28 31  1  0  0  0  0
M  CHG  2  30  -1  31  -1
M  END
>  <CHROM.1>
4.43912354,64.88328296,29.17436609,175.73786371,39.69006204,-176.26029268
147.16576432,-117.23497380,179.48219658,30.20283274,-13.55156492,1.63276852
2.22126051,-2.92487597,-1.12329512,1.92996401

>  <Name>
1fmn_cryst

>  <RI>
0

>  <Rbt.Current_Directory>
/home/itssahil/PROJECTS/Mol_Feturizer/New_Systems/rnas/1fmn

>  <Rbt.Executable>
rbdock ($Id: //depot/dev/client3/rdock/2013.1/src/exe/rbdock.cxx#4 $)

>  <Rbt.Library>
libRbt.so (2013.1, Build901 2013/11/27)

>  <Rbt.Parameter_File>
/export/apps/rDock/src/rDock_2013.1_src/data/scripts/dock_solv.prm

>  <Rbt.Receptor>
prm/blind_docking_40.prm

>  <SCORE>
-21.1844

>  <SCORE.INTER>
-21.7518

>  <SCORE.INTER.CONST>
1

>  <SCORE.INTER.POLAR>
-3.40944

>  <SCORE.INTER.ROT>
7

>  <SCORE.INTER.SOLV>
26.8771

>  <SCORE.INTER.VDW>
-20.3621

>  <SCORE.INTER.norm>
-0.701672

>  <SCORE.INTRA>
0.55671

>  <SCORE.INTRA.DIHEDRAL>
2.29528

>  <SCORE.INTRA.DIHEDRAL.0>
15.5708

>  <SCORE.INTRA.POLAR>
-0.445527

>  <SCORE.INTRA.POLAR.0>
-0.0677885

>  <SCORE.INTRA.REPUL>
0

>  <SCORE.INTRA.REPUL.0>
0

>  <SCORE.INTRA.SOLV>
-4.60096

>  <SCORE.INTRA.SOLV.lig_0>
-87.6316

>  <SCORE.INTRA.VDW>
3.22434

>  <SCORE.INTRA.VDW.0>
-2.87309

>  <SCORE.INTRA.norm>
0.0179584

>  <SCORE.RESTR>
0.0107172

>  <SCORE.RESTR.CAVITY>
0.0107172

>  <SCORE.RESTR.norm>
0.000345717

>  <SCORE.SYSTEM>
0

>  <SCORE.SYSTEM.CONST>
0

>  <SCORE.SYSTEM.DIHEDRAL>
0

>  <SCORE.SYSTEM.SOLV>
0

>  <SCORE.SYSTEM.norm>
0

>  <SCORE.heavy>
31

>  <SCORE.norm>
-0.683368

>  <SYMMETRIC_BONDS>
33 34 3

>  <RMSD>
12.110

$$$$
1fmn_cryst
 OpenBabel11021811393D
libRbt.so/2013.1/901 2013/11/27
 31 33  0  0  0  0  0  0  0  0999 V2000
  -15.5137    5.4125    1.5170 N   0  0  0  0  0  0  0  0  0  0  0  0
  -16.2042    6.4898    1.0126 C   0  0  0  0  0  0  0  0  0  0  0  0
  -16.2232    6.7471   -0.1916 O   0  0  0  0  0  0  0  0  0  0  0  0
  -16.8870    7.2861    1.9660 N   0  0  0  0  0  0  0  0  0  0  0  0
  -16.9245    7.0837    3.3631 C   0  0  0  0  0  0  0  0  0  0  0  0
  -17.5651    7.8595    4.0836 O   0  0  0  0  0  0  0  0  0  0  0  0
  -16.1648    5.9180    3.8203 C   0  0  0  0  0  0  0  0  0  0  0  0
  -16.1512    5.6514    5.1668 N   0  0  0  0  0  0  0  0  0  0  0  0
  -15.3014    4.6790    5.6081 C   0  0  0  0  0  0  0  0  0  0  0  0
  -15.1440    4.5299    6.9747 C   0  0  0  0  0  0  0  0  0  0  0  0
  -14.3184    3.5862    7.4836 C   0  0  0  0  0  0  0  0  0  0  0  0
  -14.1865    3.4645    8.9683 C   0  0  0  0  0  0  0  0  0  0  0  0
  -13.6222    2.7623    6.6544 C   0  0  0  0  0  0  0  0  0  0  0  0
  -12.7077    1.7277    7.2248 C   0  0  0  0  0  0  0  0  0  0  0  0
  -13.7456    2.8714    5.3069 C   0  0  0  0  0  0  0  0  0  0  0  0
  -14.5833    3.8268    4.7316 C   0  0  0  0  0  0  0  0  0  0  0  0
  -14.7604    3.9917    3.3418 N   0  0  0  0  0  0  0  0  0  0  0  0
  -15.4713    5.1051    2.8489 C   0  0  0  0  0  0  0  0  0  0  0  0
  -14.7119    2.7603    2.4702 C   0  0  0  0  0  0  0  0  0  0  0  0
  -13.5894    1.7278    2.7931 C   0  0  1  0  0  0  0  0  0  0  0  0
  -14.0461    0.7958    3.7630 O   0  0  0  0  0  0  0  0  0  0  0  0
  -13.0235    1.0281    1.5344 C   0  0  1  0  0  0  0  0  0  0  0  0
  -12.5945    1.9970    0.5822 O   0  0  0  0  0  0  0  0  0  0  0  0
  -11.9072   -0.0214    1.7582 C   0  0  1  0  0  0  0  0  0  0  0  0
  -11.7319   -0.1991    3.1595 O   0  0  0  0  0  0  0  0  0  0  0  0
  -12.2308   -1.3909    1.1198 C   0  0  0  0  0  0  0  0  0  0  0  0
  -11.1850   -2.3375    1.3049 O   0  0  0  0  0  0  0  0  0  0  0  0
  -11.1251   -3.7122    0.5188 P   0  0  0  0  0  0  0  0  0  0  0  0
  -11.9220   -3.6438   -0.7272 O   0  0  0  0  0  0  0  0  0  0  0  0
   -9.7344   -4.2094    0.4434 O   0  5  0  0  0  0  0  0  0  0  0  0
  -11.9068   -4.7238    1.4678 O   0  5  0  0  0  0  0  0  0  0  0  0
  1 18  1  0  0  0  0
  1  2  1  0  0  0  0
  2  4  1  0  0  0  0
  2  3  2  0  0  0  0
  4  5  1  0  0  0  0
  5  7  1  0  0  0  0
  5  6  2  0  0  0  0
  7 18  2  0  0  0  0
  7  8  1  0  0  0  0
  8  9  1  0  0  0  0
  9 10  2  0  0  0  0
  9 16  1  0  0  0  0
 10 11  1  0  0  0  0
 11 12  1  0  0  0  0
 11 13  2  0  0  0  0
 13 14  1  0  0  0  0
 13 15  1  0  0  0  0
 15 16  2  0  0  0  0
 16 17  1  0  0  0  0
 17 19  1  0  0  0  0
 17 18  1  0  0  0  0
 20 19  1  6  0  0  0
 20 22  1  0  0  0  0
 20 21  1  0  0  0  0
 22 24  1  0  0  0  0
 22 23  1  6  0  0  0
 24 26  1  6  0  0  0
 24 25  1  0  0  0  0
 26 27  1  0  0  0  0
 27 28  1  0  0  0  0
 28 30  1  0  0  0  0
 28 29  2  0  0  0  0
 28 31  1  0  0  0  0
M  CHG  2  30  -1  31  -1
M  END
>  <CHROM.1>
-42.82405048,88.48158484,53.84370867,69.46188197,5.47761904,179.02544596
178.62768042,-177.97150160,-167.58278016,21.98207812,-13.85345630,2.09881107
3.02555313,2.73163818,-1.06900082,1.45087471

>  <Name>
1fmn_cryst

>  <RI>
0

>  <Rbt.Current_Directory>
/home/itssahil/PROJECTS/Mol_Feturizer/New_Systems/rnas/1fmn

>  <Rbt.Executable>
rbdock ($Id: //depot/dev/client3/rdock/2013.1/src/exe/rbdock.cxx#4 $)

>  <Rbt.Library>
libRbt.so (2013.1, Build901 2013/11/27)

>  <Rbt.Parameter_File>
/export/apps/rDock/src/rDock_2013.1_src/data/scripts/dock_solv.prm

>  <Rbt.Receptor>
prm/blind_docking_40.prm

>  <SCORE>
-17.5742

>  <SCORE.INTER>
-17.4376

>  <SCORE.INTER.CONST>
1

>  <SCORE.INTER.POLAR>
-2.2961

>  <SCORE.INTER.ROT>
7

>  <SCORE.INTER.SOLV>
28.1835

>  <SCORE.INTER.VDW>
-21.6326

>  <SCORE.INTER.norm>
-0.562504

>  <SCORE.INTRA>
-0.149085

>  <SCORE.INTRA.DIHEDRAL>
-4.18231

>  <SCORE.INTRA.DIHEDRAL.0>
15.5708

>  <SCORE.INTRA.POLAR>
0.0677885

>  <SCORE.INTRA.POLAR.0>
-0.0677885

>  <SCORE.INTRA.REPUL>
0

>  <SCORE.INTRA.REPUL.0>
0

>  <SCORE.INTRA.SOLV>
-4.3883

>  <SCORE.INTRA.SOLV.lig_0>
-87.6316

>  <SCORE.INTRA.VDW>
3.90574

>  <SCORE.INTRA.VDW.0>
-2.87309

>  <SCORE.INTRA.norm>
-0.0048092

>  <SCORE.RESTR>
0.0124767

>  <SCORE.RESTR.CAVITY>
0.0124767

>  <SCORE.RESTR.norm>
0.000402476

>  <SCORE.SYSTEM>
0

>  <SCORE.SYSTEM.CONST>
0

>  <SCORE.SYSTEM.DIHEDRAL>
0

>  <SCORE.SYSTEM.SOLV>
0

>  <SCORE.SYSTEM.norm>
0

>  <SCORE.heavy>
31

>  <SCORE.norm>
-0.566911

>  <SYMMETRIC_BONDS>
33 34 3

>  <RMSD>
12.708

$$$$
1fmn_cryst
 OpenBabel11021811393D
libRbt.so/2013.1/901 2013/11/27
 31 33  0  0  0  0  0  0  0  0999 V2000
  -12.2564   -1.1668    0.5797 N   0  0  0  0  0  0  0  0  0  0  0  0
  -11.9207   -2.5002    0.5510 C   0  0  0  0  0  0  0  0  0  0  0  0
  -11.5084   -3.0476   -0.4721 O   0  0  0  0  0  0  0  0  0  0  0  0
  -12.0841   -3.2039    1.7707 N   0  0  0  0  0  0  0  0  0  0  0  0
  -12.5529   -2.6756    2.9936 C   0  0  0  0  0  0  0  0  0  0  0  0
  -12.6454   -3.4062    3.9881 O   0  0  0  0  0  0  0  0  0  0  0  0
  -12.8895   -1.2512    2.9413 C   0  0  0  0  0  0  0  0  0  0  0  0
  -13.3529   -0.6609    4.0906 N   0  0  0  0  0  0  0  0  0  0  0  0
  -13.8345    0.6125    3.9951 C   0  0  0  0  0  0  0  0  0  0  0  0
  -14.4709    1.1473    5.1011 C   0  0  0  0  0  0  0  0  0  0  0  0
  -14.9726    2.4040    5.0783 C   0  0  0  0  0  0  0  0  0  0  0  0
  -15.6485    2.9357    6.3018 C   0  0  0  0  0  0  0  0  0  0  0  0
  -14.8607    3.1686    3.9586 C   0  0  0  0  0  0  0  0  0  0  0  0
  -15.4235    4.5524    3.9399 C   0  0  0  0  0  0  0  0  0  0  0  0
  -14.2437    2.6861    2.8498 C   0  0  0  0  0  0  0  0  0  0  0  0
  -13.7093    1.3980    2.8213 C   0  0  0  0  0  0  0  0  0  0  0  0
  -13.0535    0.8365    1.7057 N   0  0  0  0  0  0  0  0  0  0  0  0
  -12.7206   -0.5336    1.6996 C   0  0  0  0  0  0  0  0  0  0  0  0
  -12.2316    1.7524    0.8317 C   0  0  0  0  0  0  0  0  0  0  0  0
  -12.9972    2.9232    0.1437 C   0  0  1  0  0  0  0  0  0  0  0  0
  -14.3807    2.6148    0.0498 O   0  0  0  0  0  0  0  0  0  0  0  0
  -12.7506    4.2935    0.8185 C   0  0  1  0  0  0  0  0  0  0  0  0
  -11.4970    4.2918    1.4953 O   0  0  0  0  0  0  0  0  0  0  0  0
  -12.8617    5.5483   -0.0821 C   0  0  1  0  0  0  0  0  0  0  0  0
  -12.4806    5.1871   -1.4050 O   0  0  0  0  0  0  0  0  0  0  0  0
  -14.2891    6.1389   -0.1193 C   0  0  0  0  0  0  0  0  0  0  0  0
  -14.7222    6.5944    1.1570 O   0  0  0  0  0  0  0  0  0  0  0  0
  -16.0637    7.4122    1.3645 P   0  0  0  0  0  0  0  0  0  0  0  0
  -17.1107    6.9585    0.4210 O   0  0  0  0  0  0  0  0  0  0  0  0
  -16.3990    7.5076    2.8017 O   0  5  0  0  0  0  0  0  0  0  0  0
  -15.6827    8.8864    0.8992 O   0  5  0  0  0  0  0  0  0  0  0  0
  1 18  1  0  0  0  0
  1  2  1  0  0  0  0
  2  4  1  0  0  0  0
  2  3  2  0  0  0  0
  4  5  1  0  0  0  0
  5  7  1  0  0  0  0
  5  6  2  0  0  0  0
  7 18  2  0  0  0  0
  7  8  1  0  0  0  0
  8  9  1  0  0  0  0
  9 10  2  0  0  0  0
  9 16  1  0  0  0  0
 10 11  1  0  0  0  0
 11 12  1  0  0  0  0
 11 13  2  0  0  0  0
 13 14  1  0  0  0  0
 13 15  1  0  0  0  0
 15 16  2  0  0  0  0
 16 17  1  0  0  0  0
 17 19  1  0  0  0  0
 17 18  1  0  0  0  0
 20 19  1  1  0  0  0
 20 22  1  0  0  0  0
 20 21  1  0  0  0  0
 22 24  1  0  0  0  0
 22 23  1  6  0  0  0
 24 26  1  6  0  0  0
 24 25  1  0  0  0  0
 26 27  1  0  0  0  0
 27 28  1  0  0  0  0
 28 30  1  0  0  0  0
 28 29  2  0  0  0  0
 28 31  1  0  0  0  0
M  CHG  2  30  -1  31  -1
M  END
>  <CHROM.1>
-60.75001013,-22.60130138,25.30327919,-64.24396138,-30.32735278,77.49520415
62.77438951,63.19551447,171.78070209,34.53262356,-13.83543504,2.61169679
1.91106855,-0.94506627,1.02136703,-0.66315431

>  <Name>
1fmn_cryst

>  <RI>
0

>  <Rbt.Current_Directory>
/home/itssahil/PROJECTS/Mol_Feturizer/New_Systems/rnas/1fmn

>  <Rbt.Executable>
rbdock ($Id: //depot/dev/client3/rdock/2013.1/src/exe/rbdock.cxx#4 $)

>  <Rbt.Library>
libRbt.so (2013.1, Build901 2013/11/27)

>  <Rbt.Parameter_File>
/export/apps/rDock/src/rDock_2013.1_src/data/scripts/dock_solv.prm

>  <Rbt.Receptor>
prm/blind_docking_40.prm

>  <SCORE>
-15.738

>  <SCORE.INTER>
-15.667

>  <SCORE.INTER.CONST>
1

>  <SCORE.INTER.POLAR>
-1.69626

>  <SCORE.INTER.ROT>
7

>  <SCORE.INTER.SOLV>
17.4783

>  <SCORE.INTER.VDW>
-18.8832

>  <SCORE.INTER.norm>
-0.505387

>  <SCORE.INTRA>
-0.802003

>  <SCORE.INTRA.DIHEDRAL>
-2.42485

>  <SCORE.INTRA.DIHEDRAL.0>
15.5708

>  <SCORE.INTRA.POLAR>
0.0677885

>  <SCORE.INTRA.POLAR.0>
-0.0677885

>  <SCORE.INTRA.REPUL>
0

>  <SCORE.INTRA.REPUL.0>
0

>  <SCORE.INTRA.SOLV>
-2.29445

>  <SCORE.INTRA.SOLV.lig_0>
-87.6316

>  <SCORE.INTRA.VDW>
1.32717

>  <SCORE.INTRA.VDW.0>
-2.87309

>  <SCORE.INTRA.norm>
-0.025871

>  <SCORE.RESTR>
0.731001

>  <SCORE.RESTR.CAVITY>
0.731001

>  <SCORE.RESTR.norm>
0.0235807

>  <SCORE.SYSTEM>
0

>  <SCORE.SYSTEM.CONST>
0

>  <SCORE.SYSTEM.DIHEDRAL>
0

>  <SCORE.SYSTEM.SOLV>
0

>  <SCORE.SYSTEM.norm>
0

>  <SCORE.heavy>
31

>  <SCORE.norm>
-0.507678

>  <SYMMETRIC_BONDS>
33 34 3

>  <RMSD>
13.052

$$$$
1fmn_cryst
 OpenBabel11021811393D
libRbt.so/2013.1/901 2013/11/27
 31 33  0  0  0  0  0  0  0  0999 V2000
  -14.5074    5.8687    2.0365 N   0  0  0  0  0  0  0  0  0  0  0  0
  -15.1714    6.8393    2.7497 C   0  0  0  0  0  0  0  0  0  0  0  0
  -15.7128    6.6003    3.8296 O   0  0  0  0  0  0  0  0  0  0  0  0
  -15.1969    8.1285    2.1609 N   0  0  0  0  0  0  0  0  0  0  0  0
  -14.6162    8.5060    0.9302 C   0  0  0  0  0  0  0  0  0  0  0  0
  -14.7129    9.6740    0.5330 O   0  0  0  0  0  0  0  0  0  0  0  0
  -13.9292    7.4168    0.2326 C   0  0  0  0  0  0  0  0  0  0  0  0
  -13.3371    7.7021   -0.9725 N   0  0  0  0  0  0  0  0  0  0  0  0
  -12.8575    6.6537   -1.7028 C   0  0  0  0  0  0  0  0  0  0  0  0
  -12.4284    6.9080   -2.9934 C   0  0  0  0  0  0  0  0  0  0  0  0
  -11.9404    5.9168   -3.7750 C   0  0  0  0  0  0  0  0  0  0  0  0
  -11.4869    6.2455   -5.1617 C   0  0  0  0  0  0  0  0  0  0  0  0
  -11.8642    4.6432   -3.3026 C   0  0  0  0  0  0  0  0  0  0  0  0
  -11.3305    3.5539   -4.1748 C   0  0  0  0  0  0  0  0  0  0  0  0
  -12.2728    4.3468   -2.0425 C   0  0  0  0  0  0  0  0  0  0  0  0
  -12.7829    5.3314   -1.1964 C   0  0  0  0  0  0  0  0  0  0  0  0
  -13.2212    5.0932    0.1231 N   0  0  0  0  0  0  0  0  0  0  0  0
  -13.9009    6.1039    0.8335 C   0  0  0  0  0  0  0  0  0  0  0  0
  -12.4954    4.0465    0.9330 C   0  0  0  0  0  0  0  0  0  0  0  0
  -12.9837    2.5763    0.7600 C   0  0  1  0  0  0  0  0  0  0  0  0
  -13.2085    2.2937   -0.6139 O   0  0  0  0  0  0  0  0  0  0  0  0
  -12.0448    1.5396    1.4217 C   0  0  1  0  0  0  0  0  0  0  0  0
  -10.7114    2.0392    1.4662 O   0  0  0  0  0  0  0  0  0  0  0  0
  -12.4567    1.0115    2.8179 C   0  0  1  0  0  0  0  0  0  0  0  0
  -11.7126   -0.1713    3.0884 O   0  0  0  0  0  0  0  0  0  0  0  0
  -12.1972    2.0320    3.9488 C   0  0  0  0  0  0  0  0  0  0  0  0
  -12.9693    1.7613    5.1127 O   0  0  0  0  0  0  0  0  0  0  0  0
  -14.5410    1.9575    5.1626 P   0  0  0  0  0  0  0  0  0  0  0  0
  -15.1404    1.1492    6.2486 O   0  0  0  0  0  0  0  0  0  0  0  0
  -14.8905    3.3915    5.0718 O   0  5  0  0  0  0  0  0  0  0  0  0
  -15.0475    1.2912    3.8082 O   0  5  0  0  0  0  0  0  0  0  0  0
  1 18  1  0  0  0  0
  1  2  1  0  0  0  0
  2  4  1  0  0  0  0
  2  3  2  0  0  0  0
  4  5  1  0  0  0  0
  5  7  1  0  0  0  0
  5  6  2  0  0  0  0
  7 18  2  0  0  0  0
  7  8  1  0  0  0  0
  8  9  1  0  0  0  0
  9 10  2  0  0  0  0
  9 16  1  0  0  0  0
 10 11  1  0  0  0  0
 11 12  1  0  0  0  0
 11 13  2  0  0  0  0
 13 14  1  0  0  0  0
 13 15  1  0  0  0  0
 15 16  2  0  0  0  0
 16 17  1  0  0  0  0
 17 19  1  0  0  0  0
 17 18  1  0  0  0  0
 20 19  1  6  0  0  0
 20 22  1  0  0  0  0
 20 21  1  0  0  0  0
 22 24  1  0  0  0  0
 22 23  1  1  0  0  0
 24 26  1  1  0  0  0
 24 25  1  0  0  0  0
 26 27  1  0  0  0  0
 27 28  1  0  0  0  0
 28 30  1  0  0  0  0
 28 29  2  0  0  0  0
 28 31  1  0  0  0  0
M  CHG  2  30  -1  31  -1
M  END
>  <CHROM.1>
-85.97211111,43.52578640,-27.59201948,174.33534337,163.77639840,156.75007571
159.65699403,-179.75623882,-69.82506790,158.39595592,-13.34212211,4.32310045
1.17799655,1.30138011,1.02787391,-0.73992902

>  <Name>
1fmn_cryst

>  <RI>
0

>  <Rbt.Current_Directory>
/home/itssahil/PROJECTS/Mol_Feturizer/New_Systems/rnas/1fmn

>  <Rbt.Executable>
rbdock ($Id: //depot/dev/client3/rdock/2013.1/src/exe/rbdock.cxx#4 $)

>  <Rbt.Library>
libRbt.so (2013.1, Build901 2013/11/27)

>  <Rbt.Parameter_File>
/export/apps/rDock/src/rDock_2013.1_src/data/scripts/dock_solv.prm

>  <Rbt.Receptor>
prm/blind_docking_20.prm

>  <SCORE>
-22.014

>  <SCORE.INTER>
-27.2279

>  <SCORE.INTER.CONST>
1

>  <SCORE.INTER.POLAR>
-3.78005

>  <SCORE.INTER.ROT>
7

>  <SCORE.INTER.SOLV>
17.2092

>  <SCORE.INTER.VDW>
-19.5548

>  <SCORE.INTER.norm>
-0.878319

>  <SCORE.INTRA>
0.453615

>  <SCORE.INTRA.DIHEDRAL>
-3.84387

>  <SCORE.INTRA.DIHEDRAL.0>
15.5708

>  <SCORE.INTRA.POLAR>
0.0646686

>  <SCORE.INTRA.POLAR.0>
-0.0677885

>  <SCORE.INTRA.REPUL>
0

>  <SCORE.INTRA.REPUL.0>
0

>  <SCORE.INTRA.SOLV>
0.320234

>  <SCORE.INTRA.SOLV.lig_0>
-87.6316

>  <SCORE.INTRA.VDW>
1.99556

>  <SCORE.INTRA.VDW.0>
-2.87309

>  <SCORE.INTRA.norm>
0.0146327

>  <SCORE.RESTR>
4.76023

>  <SCORE.RESTR.CAVITY>
4.76023

>  <SCORE.RESTR.norm>
0.153556

>  <SCORE.SYSTEM>
0

>  <SCORE.SYSTEM.CONST>
0

>  <SCORE.SYSTEM.DIHEDRAL>
0

>  <SCORE.SYSTEM.SOLV>
0

>  <SCORE.SYSTEM.norm>
0

>  <SCORE.heavy>
31

>  <SCORE.norm>
-0.710131

>  <SYMMETRIC_BONDS>
33 34 3

>  <RMSD>
13.072

$$$$
1fmn_cryst
 OpenBabel11021811393D
libRbt.so/2013.1/901 2013/11/27
 31 33  0  0  0  0  0  0  0  0999 V2000
  -15.3966    4.1909    7.5956 N   0  0  0  0  0  0  0  0  0  0  0  0
  -15.0899    4.5329    8.8919 C   0  0  0  0  0  0  0  0  0  0  0  0
  -15.3015    3.7705    9.8356 O   0  0  0  0  0  0  0  0  0  0  0  0
  -14.5204    5.8184    9.0725 N   0  0  0  0  0  0  0  0  0  0  0  0
  -14.2434    6.7680    8.0647 C   0  0  0  0  0  0  0  0  0  0  0  0
  -13.7400    7.8583    8.3634 O   0  0  0  0  0  0  0  0  0  0  0  0
  -14.5991    6.3289    6.7134 C   0  0  0  0  0  0  0  0  0  0  0  0
  -14.3608    7.1953    5.6758 N   0  0  0  0  0  0  0  0  0  0  0  0
  -14.8559    6.8605    4.4489 C   0  0  0  0  0  0  0  0  0  0  0  0
  -14.7832    7.8073    3.4426 C   0  0  0  0  0  0  0  0  0  0  0  0
  -15.2536    7.5444    2.2012 C   0  0  0  0  0  0  0  0  0  0  0  0
  -15.1480    8.6012    1.1484 C   0  0  0  0  0  0  0  0  0  0  0  0
  -15.8120    6.3362    1.9193 C   0  0  0  0  0  0  0  0  0  0  0  0
  -16.3351    6.0569    0.5480 C   0  0  0  0  0  0  0  0  0  0  0  0
  -15.9040    5.3764    2.8749 C   0  0  0  0  0  0  0  0  0  0  0  0
  -15.4340    5.5964    4.1696 C   0  0  0  0  0  0  0  0  0  0  0  0
  -15.4951    4.6431    5.2076 N   0  0  0  0  0  0  0  0  0  0  0  0
  -15.1769    5.0183    6.5290 C   0  0  0  0  0  0  0  0  0  0  0  0
  -15.3328    3.1873    4.8434 C   0  0  0  0  0  0  0  0  0  0  0  0
  -13.8698    2.6597    4.7365 C   0  0  1  0  0  0  0  0  0  0  0  0
  -13.3632    2.3570    6.0286 O   0  0  0  0  0  0  0  0  0  0  0  0
  -13.7202    1.4698    3.7588 C   0  0  1  0  0  0  0  0  0  0  0  0
  -13.9621    0.2405    4.4370 O   0  0  0  0  0  0  0  0  0  0  0  0
  -14.5532    1.5252    2.4547 C   0  0  1  0  0  0  0  0  0  0  0  0
  -14.1051    2.6333    1.6819 O   0  0  0  0  0  0  0  0  0  0  0  0
  -14.4265    0.2416    1.6037 C   0  0  0  0  0  0  0  0  0  0  0  0
  -13.1359    0.1006    1.0219 O   0  0  0  0  0  0  0  0  0  0  0  0
  -12.2346   -1.1847    1.2387 P   0  0  0  0  0  0  0  0  0  0  0  0
  -12.3325   -2.1006    0.0796 O   0  0  0  0  0  0  0  0  0  0  0  0
  -10.8923   -0.8035    1.7284 O   0  5  0  0  0  0  0  0  0  0  0  0
  -12.9461   -1.9458    2.4426 O   0  5  0  0  0  0  0  0  0  0  0  0
  1 18  1  0  0  0  0
  1  2  1  0  0  0  0
  2  4  1  0  0  0  0
  2  3  2  0  0  0  0
  4  5  1  0  0  0  0
  5  7  1  0  0  0  0
  5  6  2  0  0  0  0
  7 18  2  0  0  0  0
  7  8  1  0  0  0  0
  8  9  1  0  0  0  0
  9 10  2  0  0  0  0
  9 16  1  0  0  0  0
 10 11  1  0  0  0  0
 11 12  1  0  0  0  0
 11 13  2  0  0  0  0
 13 14  1  0  0  0  0
 13 15  1  0  0  0  0
 15 16  2  0  0  0  0
 16 17  1  0  0  0  0
 17 19  1  0  0  0  0
 17 18  1  0  0  0  0
 20 19  1  1  0  0  0
 20 22  1  0  0  0  0
 20 21  1  0  0  0  0
 22 24  1  0  0  0  0
 22 23  1  1  0  0  0
 24 26  1  6  0  0  0
 24 25  1  0  0  0  0
 26 27  1  0  0  0  0
 27 28  1  0  0  0  0
 28 30  1  0  0  0  0
 28 29  2  0  0  0  0
 28 31  1  0  0  0  0
M  CHG  2  30  -1  31  -1
M  END
>  <CHROM.1>
84.86746327,81.21334630,-87.56843564,57.18192267,64.20893173,-77.81984944
-69.63785422,-60.50852292,124.33633465,99.41543948,-14.25301969,3.47971602
4.13676319,-2.51125086,1.27448112,-1.61733609

>  <Name>
1fmn_cryst

>  <RI>
0

>  <Rbt.Current_Directory>
/home/itssahil/PROJECTS/Mol_Feturizer/New_Systems/rnas/1fmn

>  <Rbt.Executable>
rbdock ($Id: //depot/dev/client3/rdock/2013.1/src/exe/rbdock.cxx#4 $)

>  <Rbt.Library>
libRbt.so (2013.1, Build901 2013/11/27)

>  <Rbt.Parameter_File>
/export/apps/rDock/src/rDock_2013.1_src/data/scripts/dock_solv.prm

>  <Rbt.Receptor>
prm/blind_docking_40.prm

>  <SCORE>
-13.2645

>  <SCORE.INTER>
-13.8107

>  <SCORE.INTER.CONST>
1

>  <SCORE.INTER.POLAR>
-2.00658

>  <SCORE.INTER.ROT>
7

>  <SCORE.INTER.SOLV>
26.2471

>  <SCORE.INTER.VDW>
-19.5342

>  <SCORE.INTER.norm>
-0.445506

>  <SCORE.INTRA>
0.19727

>  <SCORE.INTRA.DIHEDRAL>
0.409286

>  <SCORE.INTRA.DIHEDRAL.0>
15.5708

>  <SCORE.INTRA.POLAR>
0.0677885

>  <SCORE.INTRA.POLAR.0>
-0.0677885

>  <SCORE.INTRA.REPUL>
0

>  <SCORE.INTRA.REPUL.0>
0

>  <SCORE.INTRA.SOLV>
-0.506046

>  <SCORE.INTRA.SOLV.lig_0>
-87.6316

>  <SCORE.INTRA.VDW>
0.0151696

>  <SCORE.INTRA.VDW.0>
-2.87309

>  <SCORE.INTRA.norm>
0.00636356

>  <SCORE.RESTR>
0.348928

>  <SCORE.RESTR.CAVITY>
0.348928

>  <SCORE.RESTR.norm>
0.0112557

>  <SCORE.SYSTEM>
0

>  <SCORE.SYSTEM.CONST>
0

>  <SCORE.SYSTEM.DIHEDRAL>
0

>  <SCORE.SYSTEM.SOLV>
0

>  <SCORE.SYSTEM.norm>
0

>  <SCORE.heavy>
31

>  <SCORE.norm>
-0.427886

>  <SYMMETRIC_BONDS>
33 34 3

>  <RMSD>
13.400

$$$$
1fmn_cryst
 OpenBabel11021811393D
libRbt.so/2013.1/901 2013/11/27
 31 33  0  0  0  0  0  0  0  0999 V2000
  -15.3705    4.8938    8.0270 N   0  0  0  0  0  0  0  0  0  0  0  0
  -15.0775    5.3470    9.2920 C   0  0  0  0  0  0  0  0  0  0  0  0
  -15.3608    4.6982   10.2997 O   0  0  0  0  0  0  0  0  0  0  0  0
  -14.4346    6.6084    9.3618 N   0  0  0  0  0  0  0  0  0  0  0  0
  -14.0727    7.4327    8.2738 C   0  0  0  0  0  0  0  0  0  0  0  0
  -13.5110    8.5162    8.4784 O   0  0  0  0  0  0  0  0  0  0  0  0
  -14.4191    6.8803    6.9623 C   0  0  0  0  0  0  0  0  0  0  0  0
  -14.1003    7.6213    5.8517 N   0  0  0  0  0  0  0  0  0  0  0  0
  -14.5825    7.1934    4.6488 C   0  0  0  0  0  0  0  0  0  0  0  0
  -14.4248    8.0271    3.5559 C   0  0  0  0  0  0  0  0  0  0  0  0
  -14.8776    7.6676    2.3324 C   0  0  0  0  0  0  0  0  0  0  0  0
  -14.6790    8.6040    1.1834 C   0  0  0  0  0  0  0  0  0  0  0  0
  -15.5021    6.4720    2.1545 C   0  0  0  0  0  0  0  0  0  0  0  0
  -16.0050    6.0862    0.8016 C   0  0  0  0  0  0  0  0  0  0  0  0
  -15.6786    5.6214    3.1976 C   0  0  0  0  0  0  0  0  0  0  0  0
  -15.2302    5.9437    4.4784 C   0  0  0  0  0  0  0  0  0  0  0  0
  -15.3776    5.1061    5.6039 N   0  0  0  0  0  0  0  0  0  0  0  0
  -15.0718    5.5941    6.8908 C   0  0  0  0  0  0  0  0  0  0  0  0
  -15.2962    3.6138    5.3922 C   0  0  0  0  0  0  0  0  0  0  0  0
  -14.0016    2.9120    5.9039 C   0  0  1  0  0  0  0  0  0  0  0  0
  -14.0118    2.8407    7.3226 O   0  0  0  0  0  0  0  0  0  0  0  0
  -13.7592    1.5293    5.2531 C   0  0  1  0  0  0  0  0  0  0  0  0
  -14.9721    1.0234    4.7030 O   0  0  0  0  0  0  0  0  0  0  0  0
  -12.6254    1.4382    4.2024 C   0  0  1  0  0  0  0  0  0  0  0  0
  -11.4271    1.9321    4.7905 O   0  0  0  0  0  0  0  0  0  0  0  0
  -12.3783   -0.0040    3.7060 C   0  0  0  0  0  0  0  0  0  0  0  0
  -13.3149   -0.4050    2.7130 O   0  0  0  0  0  0  0  0  0  0  0  0
  -12.9556   -0.4632    1.1706 P   0  0  0  0  0  0  0  0  0  0  0  0
  -13.9994   -1.1888    0.4117 O   0  0  0  0  0  0  0  0  0  0  0  0
  -12.5221    0.8650    0.6858 O   0  5  0  0  0  0  0  0  0  0  0  0
  -11.6667   -1.3965    1.1185 O   0  5  0  0  0  0  0  0  0  0  0  0
  1 18  1  0  0  0  0
  1  2  1  0  0  0  0
  2  4  1  0  0  0  0
  2  3  2  0  0  0  0
  4  5  1  0  0  0  0
  5  7  1  0  0  0  0
  5  6  2  0  0  0  0
  7 18  2  0  0  0  0
  7  8  1  0  0  0  0
  8  9  1  0  0  0  0
  9 10  2  0  0  0  0
  9 16  1  0  0  0  0
 10 11  1  0  0  0  0
 11 12  1  0  0  0  0
 11 13  2  0  0  0  0
 13 14  1  0  0  0  0
 13 15  1  0  0  0  0
 15 16  2  0  0  0  0
 16 17  1  0  0  0  0
 17 19  1  0  0  0  0
 17 18  1  0  0  0  0
 20 19  1  6  0  0  0
 20 22  1  0  0  0  0
 20 21  1  0  0  0  0
 22 24  1  0  0  0  0
 22 23  1  6  0  0  0
 24 26  1  1  0  0  0
 24 25  1  0  0  0  0
 26 27  1  0  0  0  0
 27 28  1  0  0  0  0
 28 30  1  0  0  0  0
 28 29  2  0  0  0  0
 28 31  1  0  0  0  0
M  CHG  2  30  -1  31  -1
M  END
>  <CHROM.1>
107.20671308,73.15713714,-19.92999534,77.64546441,54.21085999,177.83402360
80.47684117,76.40834962,103.14465032,167.42686019,-14.11933466,3.88968091
4.63816033,-2.50938577,1.32849924,-1.56477596

>  <Name>
1fmn_cryst

>  <RI>
0

>  <Rbt.Current_Directory>
/home/itssahil/PROJECTS/Mol_Feturizer/New_Systems/rnas/1fmn

>  <Rbt.Executable>
rbdock ($Id: //depot/dev/client3/rdock/2013.1/src/exe/rbdock.cxx#4 $)

>  <Rbt.Library>
libRbt.so (2013.1, Build901 2013/11/27)

>  <Rbt.Parameter_File>
/export/apps/rDock/src/rDock_2013.1_src/data/scripts/dock_solv.prm

>  <Rbt.Receptor>
prm/blind_docking_40.prm

>  <SCORE>
-25.2213

>  <SCORE.INTER>
-25.9236

>  <SCORE.INTER.CONST>
1

>  <SCORE.INTER.POLAR>
-3.17385

>  <SCORE.INTER.ROT>
7

>  <SCORE.INTER.SOLV>
21.9273

>  <SCORE.INTER.VDW>
-22.2787

>  <SCORE.INTER.norm>
-0.836244

>  <SCORE.INTRA>
-0.421086

>  <SCORE.INTRA.DIHEDRAL>
0.961938

>  <SCORE.INTRA.DIHEDRAL.0>
15.5708

>  <SCORE.INTRA.POLAR>
-0.415597

>  <SCORE.INTRA.POLAR.0>
-0.0677885

>  <SCORE.INTRA.REPUL>
0

>  <SCORE.INTRA.REPUL.0>
0

>  <SCORE.INTRA.SOLV>
-3.08758

>  <SCORE.INTRA.SOLV.lig_0>
-87.6316

>  <SCORE.INTRA.VDW>
2.05477

>  <SCORE.INTRA.VDW.0>
-2.87309

>  <SCORE.INTRA.norm>
-0.0135834

>  <SCORE.RESTR>
1.12339

>  <SCORE.RESTR.CAVITY>
1.12339

>  <SCORE.RESTR.norm>
0.0362385

>  <SCORE.SYSTEM>
0

>  <SCORE.SYSTEM.CONST>
0

>  <SCORE.SYSTEM.DIHEDRAL>
0

>  <SCORE.SYSTEM.SOLV>
0

>  <SCORE.SYSTEM.norm>
0

>  <SCORE.heavy>
31

>  <SCORE.norm>
-0.813589

>  <SYMMETRIC_BONDS>
33 34 3

>  <RMSD>
13.721

$$$$
1fmn_cryst
 OpenBabel11021811393D
libRbt.so/2013.1/901 2013/11/27
 31 33  0  0  0  0  0  0  0  0999 V2000
  -16.0385    6.0619    6.4346 N   0  0  0  0  0  0  0  0  0  0  0  0
  -15.8872    6.8581    7.5458 C   0  0  0  0  0  0  0  0  0  0  0  0
  -16.3894    6.5657    8.6315 O   0  0  0  0  0  0  0  0  0  0  0  0
  -15.1219    8.0368    7.3604 N   0  0  0  0  0  0  0  0  0  0  0  0
  -14.5105    8.4666    6.1622 C   0  0  0  0  0  0  0  0  0  0  0  0
  -13.8655    9.5224    6.1408 O   0  0  0  0  0  0  0  0  0  0  0  0
  -14.7188    7.5655    5.0265 C   0  0  0  0  0  0  0  0  0  0  0  0
  -14.1558    7.9120    3.8235 N   0  0  0  0  0  0  0  0  0  0  0  0
  -14.4995    7.1709    2.7302 C   0  0  0  0  0  0  0  0  0  0  0  0
  -14.0868    7.6213    1.4887 C   0  0  0  0  0  0  0  0  0  0  0  0
  -14.3907    6.9372    0.3613 C   0  0  0  0  0  0  0  0  0  0  0  0
  -13.9178    7.4654   -0.9554 C   0  0  0  0  0  0  0  0  0  0  0  0
  -15.1142    5.7869    0.4292 C   0  0  0  0  0  0  0  0  0  0  0  0
  -15.4511    5.0417   -0.8211 C   0  0  0  0  0  0  0  0  0  0  0  0
  -15.5398    5.3065    1.6254 C   0  0  0  0  0  0  0  0  0  0  0  0
  -15.2531    5.9730    2.8166 C   0  0  0  0  0  0  0  0  0  0  0  0
  -15.6609    5.5282    4.0917 N   0  0  0  0  0  0  0  0  0  0  0  0
  -15.4962    6.3633    5.2157 C   0  0  0  0  0  0  0  0  0  0  0  0
  -15.7199    4.0401    4.3377 C   0  0  0  0  0  0  0  0  0  0  0  0
  -14.8037    3.4896    5.4725 C   0  0  1  0  0  0  0  0  0  0  0  0
  -15.4508    3.6199    6.7304 O   0  0  0  0  0  0  0  0  0  0  0  0
  -14.3161    2.0438    5.2157 C   0  0  1  0  0  0  0  0  0  0  0  0
  -15.4235    1.1483    5.1812 O   0  0  0  0  0  0  0  0  0  0  0  0
  -13.4163    1.8174    3.9759 C   0  0  1  0  0  0  0  0  0  0  0  0
  -12.5899    2.9637    3.8051 O   0  0  0  0  0  0  0  0  0  0  0  0
  -12.5149    0.5691    4.1053 C   0  0  0  0  0  0  0  0  0  0  0  0
  -11.7010    0.3650    2.9563 O   0  0  0  0  0  0  0  0  0  0  0  0
  -12.2809   -0.1615    1.5787 P   0  0  0  0  0  0  0  0  0  0  0  0
  -13.7138   -0.5113    1.7074 O   0  0  0  0  0  0  0  0  0  0  0  0
  -11.8644    0.7200    0.4668 O   0  5  0  0  0  0  0  0  0  0  0  0
  -11.5246   -1.5446    1.3551 O   0  5  0  0  0  0  0  0  0  0  0  0
  1 18  1  0  0  0  0
  1  2  1  0  0  0  0
  2  4  1  0  0  0  0
  2  3  2  0  0  0  0
  4  5  1  0  0  0  0
  5  7  1  0  0  0  0
  5  6  2  0  0  0  0
  7 18  2  0  0  0  0
  7  8  1  0  0  0  0
  8  9  1  0  0  0  0
  9 10  2  0  0  0  0
  9 16  1  0  0  0  0
 10 11  1  0  0  0  0
 11 12  1  0  0  0  0
 11 13  2  0  0  0  0
 13 14  1  0  0  0  0
 13 15  1  0  0  0  0
 15 16  2  0  0  0  0
 16 17  1  0  0  0  0
 17 19  1  0  0  0  0
 17 18  1  0  0  0  0
 20 19  1  6  0  0  0
 20 22  1  0  0  0  0
 20 21  1  0  0  0  0
 22 24  1  0  0  0  0
 22 23  1  6  0  0  0
 24 26  1  1  0  0  0
 24 25  1  0  0  0  0
 26 27  1  0  0  0  0
 27 28  1  0  0  0  0
 28 30  1  0  0  0  0
 28 29  2  0  0  0  0
 28 31  1  0  0  0  0
M  CHG  2  30  -1  31  -1
M  END
>  <CHROM.1>
119.62109959,84.45744970,-63.17112240,-178.23280653,35.07466951,167.12741400
179.51412312,-176.59282996,-73.23705383,-5.06156111,-14.24223147,4.28251744
3.64962492,2.94737038,1.26001314,-0.90021306

>  <Name>
1fmn_cryst

>  <RI>
0

>  <Rbt.Current_Directory>
/home/itssahil/PROJECTS/Mol_Feturizer/New_Systems/rnas/1fmn

>  <Rbt.Executable>
rbdock ($Id: //depot/dev/client3/rdock/2013.1/src/exe/rbdock.cxx#4 $)

>  <Rbt.Library>
libRbt.so (2013.1, Build901 2013/11/27)

>  <Rbt.Parameter_File>
/export/apps/rDock/src/rDock_2013.1_src/data/scripts/dock_solv.prm

>  <Rbt.Receptor>
prm/blind_docking_40.prm

>  <SCORE>
-16.6527

>  <SCORE.INTER>
-15.7768

>  <SCORE.INTER.CONST>
1

>  <SCORE.INTER.POLAR>
-2.15026

>  <SCORE.INTER.ROT>
7

>  <SCORE.INTER.SOLV>
21.9141

>  <SCORE.INTER.VDW>
-18.9217

>  <SCORE.INTER.norm>
-0.508929

>  <SCORE.INTRA>
-2.85551

>  <SCORE.INTRA.DIHEDRAL>
-5.28927

>  <SCORE.INTRA.DIHEDRAL.0>
15.5708

>  <SCORE.INTRA.POLAR>
-0.179876

>  <SCORE.INTRA.POLAR.0>
-0.0677885

>  <SCORE.INTRA.REPUL>
0

>  <SCORE.INTRA.REPUL.0>
0

>  <SCORE.INTRA.SOLV>
-1.03578

>  <SCORE.INTRA.SOLV.lig_0>
-87.6316

>  <SCORE.INTRA.VDW>
0.918593

>  <SCORE.INTRA.VDW.0>
-2.87309

>  <SCORE.INTRA.norm>
-0.0921132

>  <SCORE.RESTR>
1.97965

>  <SCORE.RESTR.CAVITY>
1.97965

>  <SCORE.RESTR.norm>
0.0638595

>  <SCORE.SYSTEM>
0

>  <SCORE.SYSTEM.CONST>
0

>  <SCORE.SYSTEM.DIHEDRAL>
0

>  <SCORE.SYSTEM.SOLV>
0

>  <SCORE.SYSTEM.norm>
0

>  <SCORE.heavy>
31

>  <SCORE.norm>
-0.537183

>  <SYMMETRIC_BONDS>
33 34 3

>  <RMSD>
13.798

$$$$
1fmn_cryst
 OpenBabel11021811393D
libRbt.so/2013.1/901 2013/11/27
 31 33  0  0  0  0  0  0  0  0999 V2000
  -15.6287    5.5213    7.4974 N   0  0  0  0  0  0  0  0  0  0  0  0
  -14.9537    5.8738    8.6427 C   0  0  0  0  0  0  0  0  0  0  0  0
  -15.2066    5.3612    9.7334 O   0  0  0  0  0  0  0  0  0  0  0  0
  -13.9536    6.8665    8.4884 N   0  0  0  0  0  0  0  0  0  0  0  0
  -13.5903    7.5196    7.2902 C   0  0  0  0  0  0  0  0  0  0  0  0
  -12.6923    8.3710    7.2973 O   0  0  0  0  0  0  0  0  0  0  0  0
  -14.3552    7.0894    6.1176 C   0  0  0  0  0  0  0  0  0  0  0  0
  -14.0622    7.6769    4.9121 N   0  0  0  0  0  0  0  0  0  0  0  0
  -14.8923    7.4093    3.8623 C   0  0  0  0  0  0  0  0  0  0  0  0
  -14.7166    8.1361    2.6981 C   0  0  0  0  0  0  0  0  0  0  0  0
  -15.5026    7.9237    1.6171 C   0  0  0  0  0  0  0  0  0  0  0  0
  -15.2690    8.7341    0.3822 C   0  0  0  0  0  0  0  0  0  0  0  0
  -16.4877    6.9862    1.6570 C   0  0  0  0  0  0  0  0  0  0  0  0
  -17.3552    6.7631    0.4613 C   0  0  0  0  0  0  0  0  0  0  0  0
  -16.6964    6.2487    2.7774 C   0  0  0  0  0  0  0  0  0  0  0  0
  -15.9141    6.4279    3.9182 C   0  0  0  0  0  0  0  0  0  0  0  0
  -16.0746    5.6945    5.1126 N   0  0  0  0  0  0  0  0  0  0  0  0
  -15.3723    6.0763    6.2741 C   0  0  0  0  0  0  0  0  0  0  0  0
  -16.5030    4.2511    5.0058 C   0  0  0  0  0  0  0  0  0  0  0  0
  -15.3973    3.2294    4.6010 C   0  0  1  0  0  0  0  0  0  0  0  0
  -14.5403    3.7984    3.6213 O   0  0  0  0  0  0  0  0  0  0  0  0
  -14.6097    2.6715    5.8103 C   0  0  1  0  0  0  0  0  0  0  0  0
  -15.4706    1.9076    6.6498 O   0  0  0  0  0  0  0  0  0  0  0  0
  -13.3254    1.8646    5.4984 C   0  0  1  0  0  0  0  0  0  0  0  0
  -12.7279    1.4770    6.7307 O   0  0  0  0  0  0  0  0  0  0  0  0
  -13.5993    0.5972    4.6580 C   0  0  0  0  0  0  0  0  0  0  0  0
  -12.7659    0.5172    3.5078 O   0  0  0  0  0  0  0  0  0  0  0  0
  -12.8002   -0.7128    2.5092 P   0  0  0  0  0  0  0  0  0  0  0  0
  -12.8796   -1.9926    3.2493 O   0  0  0  0  0  0  0  0  0  0  0  0
  -13.7626   -0.4678    1.4133 O   0  5  0  0  0  0  0  0  0  0  0  0
  -11.3549   -0.6972    1.8416 O   0  5  0  0  0  0  0  0  0  0  0  0
  1 18  1  0  0  0  0
  1  2  1  0  0  0  0
  2  4  1  0  0  0  0
  2  3  2  0  0  0  0
  4  5  1  0  0  0  0
  5  7  1  0  0  0  0
  5  6  2  0  0  0  0
  7 18  2  0  0  0  0
  7  8  1  0  0  0  0
  8  9  1  0  0  0  0
  9 10  2  0  0  0  0
  9 16  1  0  0  0  0
 10 11  1  0  0  0  0
 11 12  1  0  0  0  0
 11 13  2  0  0  0  0
 13 14  1  0  0  0  0
 13 15  1  0  0  0  0
 15 16  2  0  0  0  0
 16 17  1  0  0  0  0
 17 19  1  0  0  0  0
 17 18  1  0  0  0  0
 20 19  1  1  0  0  0
 20 22  1  0  0  0  0
 20 21  1  0  0  0  0
 22 24  1  0  0  0  0
 22 23  1  6  0  0  0
 24 26  1  6  0  0  0
 24 25  1  0  0  0  0
 26 27  1  0  0  0  0
 27 28  1  0  0  0  0
 28 30  1  0  0  0  0
 28 29  2  0  0  0  0
 28 31  1  0  0  0  0
M  CHG  2  30  -1  31  -1
M  END
>  <CHROM.1>
77.72407253,-38.50523496,64.82416617,-65.28693637,178.21887401,179.98937701
128.43679882,-60.87866793,177.36752865,-42.44255056,-14.46582893,4.19205936
4.57068051,-2.52716687,1.25544178,-1.96763574

>  <Name>
1fmn_cryst

>  <RI>
0

>  <Rbt.Current_Directory>
/home/itssahil/PROJECTS/Mol_Feturizer/New_Systems/rnas/1fmn

>  <Rbt.Executable>
rbdock ($Id: //depot/dev/client3/rdock/2013.1/src/exe/rbdock.cxx#4 $)

>  <Rbt.Library>
libRbt.so (2013.1, Build901 2013/11/27)

>  <Rbt.Parameter_File>
/export/apps/rDock/src/rDock_2013.1_src/data/scripts/dock_solv.prm

>  <Rbt.Receptor>
prm/blind_docking_40.prm

>  <SCORE>
-26.0965

>  <SCORE.INTER>
-20.8442

>  <SCORE.INTER.CONST>
1

>  <SCORE.INTER.POLAR>
-2.58135

>  <SCORE.INTER.ROT>
7

>  <SCORE.INTER.SOLV>
24.6839

>  <SCORE.INTER.VDW>
-21.7863

>  <SCORE.INTER.norm>
-0.672394

>  <SCORE.INTRA>
-6.01854

>  <SCORE.INTRA.DIHEDRAL>
-6.61035

>  <SCORE.INTRA.DIHEDRAL.0>
15.5708

>  <SCORE.INTRA.POLAR>
0.0637184

>  <SCORE.INTRA.POLAR.0>
-0.0677885

>  <SCORE.INTRA.REPUL>
0

>  <SCORE.INTRA.REPUL.0>
0

>  <SCORE.INTRA.SOLV>
-4.1973

>  <SCORE.INTRA.SOLV.lig_0>
-87.6316

>  <SCORE.INTRA.VDW>
-0.831351

>  <SCORE.INTRA.VDW.0>
-2.87309

>  <SCORE.INTRA.norm>
-0.194146

>  <SCORE.RESTR>
0.766243

>  <SCORE.RESTR.CAVITY>
0.766243

>  <SCORE.RESTR.norm>
0.0247175

>  <SCORE.SYSTEM>
0

>  <SCORE.SYSTEM.CONST>
0

>  <SCORE.SYSTEM.DIHEDRAL>
0

>  <SCORE.SYSTEM.SOLV>
0

>  <SCORE.SYSTEM.norm>
0

>  <SCORE.heavy>
31

>  <SCORE.norm>
-0.841822

>  <SYMMETRIC_BONDS>
33 34 3

>  <RMSD>
14.016

$$$$
1fmn_cryst
 OpenBabel11021811393D
libRbt.so/2013.1/901 2013/11/27
 31 33  0  0  0  0  0  0  0  0999 V2000
  -14.5255    2.9319   10.8593 N   0  0  0  0  0  0  0  0  0  0  0  0
  -14.6695    2.8574   12.2251 C   0  0  0  0  0  0  0  0  0  0  0  0
  -14.3155    1.8671   12.8657 O   0  0  0  0  0  0  0  0  0  0  0  0
  -15.2549    3.9892   12.8463 N   0  0  0  0  0  0  0  0  0  0  0  0
  -15.6992    5.1674   12.2070 C   0  0  0  0  0  0  0  0  0  0  0  0
  -16.1929    6.0850   12.8746 O   0  0  0  0  0  0  0  0  0  0  0  0
  -15.5119    5.1682   10.7544 C   0  0  0  0  0  0  0  0  0  0  0  0
  -15.9183    6.2789   10.0577 N   0  0  0  0  0  0  0  0  0  0  0  0
  -15.9105    6.2058    8.6950 C   0  0  0  0  0  0  0  0  0  0  0  0
  -16.4893    7.2454    7.9888 C   0  0  0  0  0  0  0  0  0  0  0  0
  -16.5172    7.2402    6.6359 C   0  0  0  0  0  0  0  0  0  0  0  0
  -17.1521    8.3899    5.9207 C   0  0  0  0  0  0  0  0  0  0  0  0
  -15.9742    6.2041    5.9411 C   0  0  0  0  0  0  0  0  0  0  0  0
  -16.0155    6.2032    4.4476 C   0  0  0  0  0  0  0  0  0  0  0  0
  -15.3949    5.1628    6.5914 C   0  0  0  0  0  0  0  0  0  0  0  0
  -15.3394    5.1198    7.9845 C   0  0  0  0  0  0  0  0  0  0  0  0
  -14.7504    4.0716    8.7223 N   0  0  0  0  0  0  0  0  0  0  0  0
  -14.9132    4.0164   10.1217 C   0  0  0  0  0  0  0  0  0  0  0  0
  -13.5367    3.3894    8.1392 C   0  0  0  0  0  0  0  0  0  0  0  0
  -13.8107    2.2460    7.1156 C   0  0  1  0  0  0  0  0  0  0  0  0
  -14.9149    2.5841    6.2882 O   0  0  0  0  0  0  0  0  0  0  0  0
  -12.5624    1.8545    6.2895 C   0  0  1  0  0  0  0  0  0  0  0  0
  -11.5917    1.2329    7.1267 O   0  0  0  0  0  0  0  0  0  0  0  0
  -12.8003    0.9903    5.0268 C   0  0  1  0  0  0  0  0  0  0  0  0
  -13.9152    0.1390    5.2684 O   0  0  0  0  0  0  0  0  0  0  0  0
  -13.0834    1.8341    3.7636 C   0  0  0  0  0  0  0  0  0  0  0  0
  -12.0916    1.6579    2.7589 O   0  0  0  0  0  0  0  0  0  0  0  0
  -11.8987    0.2937    1.9760 P   0  0  0  0  0  0  0  0  0  0  0  0
  -12.0987   -0.8650    2.8757 O   0  0  0  0  0  0  0  0  0  0  0  0
  -12.6258    0.3242    0.6886 O   0  5  0  0  0  0  0  0  0  0  0  0
  -10.3492    0.2847    1.6099 O   0  5  0  0  0  0  0  0  0  0  0  0
  1 18  1  0  0  0  0
  1  2  1  0  0  0  0
  2  4  1  0  0  0  0
  2  3  2  0  0  0  0
  4  5  1  0  0  0  0
  5  7  1  0  0  0  0
  5  6  2  0  0  0  0
  7 18  2  0  0  0  0
  7  8  1  0  0  0  0
  8  9  1  0  0  0  0
  9 10  2  0  0  0  0
  9 16  1  0  0  0  0
 10 11  1  0  0  0  0
 11 12  1  0  0  0  0
 11 13  2  0  0  0  0
 13 14  1  0  0  0  0
 13 15  1  0  0  0  0
 15 16  2  0  0  0  0
 16 17  1  0  0  0  0
 17 19  1  0  0  0  0
 17 18  1  0  0  0  0
 20 19  1  6  0  0  0
 20 22  1  0  0  0  0
 20 21  1  0  0  0  0
 22 24  1  0  0  0  0
 22 23  1  1  0  0  0
 24 26  1  6  0  0  0
 24 25  1  0  0  0  0
 26 27  1  0  0  0  0
 27 28  1  0  0  0  0
 28 30  1  0  0  0  0
 28 29  2  0  0  0  0
 28 31  1  0  0  0  0
M  CHG  2  30  -1  31  -1
M  END
>  <CHROM.1>
-84.18295944,38.27721372,68.05256654,-64.79012889,-32.43492670,-57.61920349
117.19397550,173.55716038,67.71058216,-38.00158391,-14.21118223,3.30052225
7.00461487,-2.31788712,1.02494445,-1.42245762

>  <Name>
1fmn_cryst

>  <RI>
0

>  <Rbt.Current_Directory>
/home/itssahil/PROJECTS/Mol_Feturizer/New_Systems/rnas/1fmn

>  <Rbt.Executable>
rbdock ($Id: //depot/dev/client3/rdock/2013.1/src/exe/rbdock.cxx#4 $)

>  <Rbt.Library>
libRbt.so (2013.1, Build901 2013/11/27)

>  <Rbt.Parameter_File>
/export/apps/rDock/src/rDock_2013.1_src/data/scripts/dock_solv.prm

>  <Rbt.Receptor>
prm/blind_docking_80.prm

>  <SCORE>
-9.12918

>  <SCORE.INTER>
-13.9446

>  <SCORE.INTER.CONST>
1

>  <SCORE.INTER.POLAR>
-2.11157

>  <SCORE.INTER.ROT>
7

>  <SCORE.INTER.SOLV>
26.1125

>  <SCORE.INTER.VDW>
-19.2287

>  <SCORE.INTER.norm>
-0.449826

>  <SCORE.INTRA>
0.0549684

>  <SCORE.INTRA.DIHEDRAL>
-2.13244

>  <SCORE.INTRA.DIHEDRAL.0>
15.5708

>  <SCORE.INTRA.POLAR>
0.0677885

>  <SCORE.INTRA.POLAR.0>
-0.0677885

>  <SCORE.INTRA.REPUL>
0

>  <SCORE.INTRA.REPUL.0>
0

>  <SCORE.INTRA.SOLV>
-0.943821

>  <SCORE.INTRA.SOLV.lig_0>
-87.6316

>  <SCORE.INTRA.VDW>
1.36262

>  <SCORE.INTRA.VDW.0>
-2.87309

>  <SCORE.INTRA.norm>
0.00177317

>  <SCORE.RESTR>
4.76045

>  <SCORE.RESTR.CAVITY>
4.76045

>  <SCORE.RESTR.norm>
0.153563

>  <SCORE.SYSTEM>
0

>  <SCORE.SYSTEM.CONST>
0

>  <SCORE.SYSTEM.DIHEDRAL>
0

>  <SCORE.SYSTEM.SOLV>
0

>  <SCORE.SYSTEM.norm>
0

>  <SCORE.heavy>
31

>  <SCORE.norm>
-0.29449

>  <SYMMETRIC_BONDS>
33 34 3

>  <RMSD>
14.124

$$$$
1fmn_cryst
 OpenBabel11021811393D
libRbt.so/2013.1/901 2013/11/27
 31 33  0  0  0  0  0  0  0  0999 V2000
  -16.4295    3.7496    9.9877 N   0  0  0  0  0  0  0  0  0  0  0  0
  -16.4953    3.7010   11.3606 C   0  0  0  0  0  0  0  0  0  0  0  0
  -17.0954    2.8041   11.9540 O   0  0  0  0  0  0  0  0  0  0  0  0
  -15.8336    4.7498   12.0474 N   0  0  0  0  0  0  0  0  0  0  0  0
  -15.1255    5.8244   11.4662 C   0  0  0  0  0  0  0  0  0  0  0  0
  -14.5905    6.6753   12.1881 O   0  0  0  0  0  0  0  0  0  0  0  0
  -15.1026    5.8049   10.0019 C   0  0  0  0  0  0  0  0  0  0  0  0
  -14.4334    6.8164    9.3591 N   0  0  0  0  0  0  0  0  0  0  0  0
  -14.5652    6.8971    8.0032 C   0  0  0  0  0  0  0  0  0  0  0  0
  -14.0500    8.0139    7.3693 C   0  0  0  0  0  0  0  0  0  0  0  0
  -14.1440    8.1606    6.0273 C   0  0  0  0  0  0  0  0  0  0  0  0
  -13.5678    9.3852    5.3910 C   0  0  0  0  0  0  0  0  0  0  0  0
  -14.7528    7.2063    5.2724 C   0  0  0  0  0  0  0  0  0  0  0  0
  -14.8582    7.3797    3.7922 C   0  0  0  0  0  0  0  0  0  0  0  0
  -15.2722    6.0934    5.8507 C   0  0  0  0  0  0  0  0  0  0  0  0
  -15.2013    5.8937    7.2294 C   0  0  0  0  0  0  0  0  0  0  0  0
  -15.7163    4.7607    7.8936 N   0  0  0  0  0  0  0  0  0  0  0  0
  -15.7743    4.7351    9.3021 C   0  0  0  0  0  0  0  0  0  0  0  0
  -15.6573    3.4325    7.1790 C   0  0  0  0  0  0  0  0  0  0  0  0
  -14.2948    3.0623    6.5181 C   0  0  1  0  0  0  0  0  0  0  0  0
  -13.4602    2.3983    7.4565 O   0  0  0  0  0  0  0  0  0  0  0  0
  -14.4518    2.2569    5.2063 C   0  0  1  0  0  0  0  0  0  0  0  0
  -14.2424    3.1033    4.0796 O   0  0  0  0  0  0  0  0  0  0  0  0
  -13.5988    0.9722    5.0664 C   0  0  1  0  0  0  0  0  0  0  0  0
  -14.2938   -0.0993    5.6946 O   0  0  0  0  0  0  0  0  0  0  0  0
  -13.3214    0.5903    3.5950 C   0  0  0  0  0  0  0  0  0  0  0  0
  -12.9993   -0.7871    3.4425 O   0  0  0  0  0  0  0  0  0  0  0  0
  -12.3176   -1.3675    2.1350 P   0  0  0  0  0  0  0  0  0  0  0  0
  -11.0682   -0.6374    1.8216 O   0  0  0  0  0  0  0  0  0  0  0  0
  -12.2822   -2.8453    2.1776 O   0  5  0  0  0  0  0  0  0  0  0  0
  -13.3373   -0.9816    0.9748 O   0  5  0  0  0  0  0  0  0  0  0  0
  1 18  1  0  0  0  0
  1  2  1  0  0  0  0
  2  4  1  0  0  0  0
  2  3  2  0  0  0  0
  4  5  1  0  0  0  0
  5  7  1  0  0  0  0
  5  6  2  0  0  0  0
  7 18  2  0  0  0  0
  7  8  1  0  0  0  0
  8  9  1  0  0  0  0
  9 10  2  0  0  0  0
  9 16  1  0  0  0  0
 10 11  1  0  0  0  0
 11 12  1  0  0  0  0
 11 13  2  0  0  0  0
 13 14  1  0  0  0  0
 13 15  1  0  0  0  0
 15 16  2  0  0  0  0
 16 17  1  0  0  0  0
 17 19  1  0  0  0  0
 17 18  1  0  0  0  0
 20 19  1  1  0  0  0
 20 22  1  0  0  0  0
 20 21  1  0  0  0  0
 22 24  1  0  0  0  0
 22 23  1  6  0  0  0
 24 26  1  6  0  0  0
 24 25  1  0  0  0  0
 26 27  1  0  0  0  0
 27 28  1  0  0  0  0
 28 30  1  0  0  0  0
 28 29  2  0  0  0  0
 28 31  1  0  0  0  0
M  CHG  2  30  -1  31  -1
M  END
>  <CHROM.1>
47.31623291,87.86526182,102.46575246,55.26670210,84.86420102,-51.00029405
-157.93655651,-50.01797920,-163.86443703,54.48032129,-14.33622792,3.43441562
6.50605193,2.52557399,1.25671719,-0.12985456

>  <Name>
1fmn_cryst

>  <RI>
0

>  <Rbt.Current_Directory>
/home/itssahil/PROJECTS/Mol_Feturizer/New_Systems/rnas/1fmn

>  <Rbt.Executable>
rbdock ($Id: //depot/dev/client3/rdock/2013.1/src/exe/rbdock.cxx#4 $)

>  <Rbt.Library>
libRbt.so (2013.1, Build901 2013/11/27)

>  <Rbt.Parameter_File>
/export/apps/rDock/src/rDock_2013.1_src/data/scripts/dock_solv.prm

>  <Rbt.Receptor>
prm/blind_docking_80.prm

>  <SCORE>
-25.8832

>  <SCORE.INTER>
-25.3777

>  <SCORE.INTER.CONST>
1

>  <SCORE.INTER.POLAR>
-3.01362

>  <SCORE.INTER.ROT>
7

>  <SCORE.INTER.SOLV>
27.3685

>  <SCORE.INTER.VDW>
-24.2625

>  <SCORE.INTER.norm>
-0.818635

>  <SCORE.INTRA>
-1.62363

>  <SCORE.INTRA.DIHEDRAL>
-1.58611

>  <SCORE.INTRA.DIHEDRAL.0>
15.5708

>  <SCORE.INTRA.POLAR>
0.0677885

>  <SCORE.INTRA.POLAR.0>
-0.0677885

>  <SCORE.INTRA.REPUL>
0.00109095

>  <SCORE.INTRA.REPUL.0>
0

>  <SCORE.INTRA.SOLV>
-4.74488

>  <SCORE.INTRA.SOLV.lig_0>
-87.6316

>  <SCORE.INTRA.VDW>
1.30593

>  <SCORE.INTRA.VDW.0>
-2.87309

>  <SCORE.INTRA.norm>
-0.0523752

>  <SCORE.RESTR>
1.11813

>  <SCORE.RESTR.CAVITY>
1.11813

>  <SCORE.RESTR.norm>
0.0360686

>  <SCORE.SYSTEM>
0

>  <SCORE.SYSTEM.CONST>
0

>  <SCORE.SYSTEM.DIHEDRAL>
0

>  <SCORE.SYSTEM.SOLV>
0

>  <SCORE.SYSTEM.norm>
0

>  <SCORE.heavy>
31

>  <SCORE.norm>
-0.834942

>  <SYMMETRIC_BONDS>
33 34 3

>  <RMSD>
14.248

$$$$
1fmn_cryst
 OpenBabel11021811393D
libRbt.so/2013.1/901 2013/11/27
 31 33  0  0  0  0  0  0  0  0999 V2000
  -16.8304    5.8384    3.7340 N   0  0  0  0  0  0  0  0  0  0  0  0
  -17.0508    7.1865    3.5740 C   0  0  0  0  0  0  0  0  0  0  0  0
  -17.9614    7.7731    4.1598 O   0  0  0  0  0  0  0  0  0  0  0  0
  -16.1675    7.8551    2.6895 N   0  0  0  0  0  0  0  0  0  0  0  0
  -15.1002    7.2785    1.9666 C   0  0  0  0  0  0  0  0  0  0  0  0
  -14.4025    7.9831    1.2263 O   0  0  0  0  0  0  0  0  0  0  0  0
  -14.9323    5.8409    2.1907 C   0  0  0  0  0  0  0  0  0  0  0  0
  -13.9152    5.2043    1.5240 N   0  0  0  0  0  0  0  0  0  0  0  0
  -13.8729    3.8419    1.5921 C   0  0  0  0  0  0  0  0  0  0  0  0
  -12.9688    3.1821    0.7787 C   0  0  0  0  0  0  0  0  0  0  0  0
  -12.8714    1.8324    0.7940 C   0  0  0  0  0  0  0  0  0  0  0  0
  -11.8756    1.1684   -0.1026 C   0  0  0  0  0  0  0  0  0  0  0  0
  -13.6679    1.0950    1.6143 C   0  0  0  0  0  0  0  0  0  0  0  0
  -13.5586   -0.3950    1.6197 C   0  0  0  0  0  0  0  0  0  0  0  0
  -14.5690    1.6991    2.4304 C   0  0  0  0  0  0  0  0  0  0  0  0
  -14.7086    3.0867    2.4533 C   0  0  0  0  0  0  0  0  0  0  0  0
  -15.6208    3.7780    3.2779 N   0  0  0  0  0  0  0  0  0  0  0  0
  -15.8303    5.1600    3.0936 C   0  0  0  0  0  0  0  0  0  0  0  0
  -15.9095    3.2106    4.6465 C   0  0  0  0  0  0  0  0  0  0  0  0
  -14.6731    2.9266    5.5526 C   0  0  1  0  0  0  0  0  0  0  0  0
  -13.4920    2.8706    4.7654 O   0  0  0  0  0  0  0  0  0  0  0  0
  -14.5402    3.9191    6.7322 C   0  0  1  0  0  0  0  0  0  0  0  0
  -15.4091    5.0318    6.5411 O   0  0  0  0  0  0  0  0  0  0  0  0
  -14.7270    3.3430    8.1573 C   0  0  1  0  0  0  0  0  0  0  0  0
  -13.5332    2.6617    8.5267 O   0  0  0  0  0  0  0  0  0  0  0  0
  -15.0256    4.4313    9.2129 C   0  0  0  0  0  0  0  0  0  0  0  0
  -15.3398    3.8811   10.4867 O   0  0  0  0  0  0  0  0  0  0  0  0
  -15.5864    4.7780   11.7697 P   0  0  0  0  0  0  0  0  0  0  0  0
  -14.3292    4.9751   12.5265 O   0  0  0  0  0  0  0  0  0  0  0  0
  -16.4002    5.9645   11.4278 O   0  5  0  0  0  0  0  0  0  0  0  0
  -16.5022    3.8648   12.6982 O   0  5  0  0  0  0  0  0  0  0  0  0
  1 18  1  0  0  0  0
  1  2  1  0  0  0  0
  2  4  1  0  0  0  0
  2  3  2  0  0  0  0
  4  5  1  0  0  0  0
  5  7  1  0  0  0  0
  5  6  2  0  0  0  0
  7 18  2  0  0  0  0
  7  8  1  0  0  0  0
  8  9  1  0  0  0  0
  9 10  2  0  0  0  0
  9 16  1  0  0  0  0
 10 11  1  0  0  0  0
 11 12  1  0  0  0  0
 11 13  2  0  0  0  0
 13 14  1  0  0  0  0
 13 15  1  0  0  0  0
 15 16  2  0  0  0  0
 16 17  1  0  0  0  0
 17 19  1  0  0  0  0
 17 18  1  0  0  0  0
 20 19  1  6  0  0  0
 20 22  1  0  0  0  0
 20 21  1  0  0  0  0
 22 24  1  0  0  0  0
 22 23  1  6  0  0  0
 24 26  1  1  0  0  0
 24 25  1  0  0  0  0
 26 27  1  0  0  0  0
 27 28  1  0  0  0  0
 28 30  1  0  0  0  0
 28 29  2  0  0  0  0
 28 31  1  0  0  0  0
M  CHG  2  30  -1  31  -1
M  END
>  <CHROM.1>
53.49122472,-18.11106284,-12.83090514,-164.65071305,77.71373766,-61.00743103
173.53958379,-91.38457847,175.59673978,-91.87524971,-14.92346675,4.28355779
5.34577385,1.25019095,1.10653398,-1.37326929

>  <Name>
1fmn_cryst

>  <RI>
0

>  <Rbt.Current_Directory>
/home/itssahil/PROJECTS/Mol_Feturizer/New_Systems/rnas/1fmn

>  <Rbt.Executable>
rbdock ($Id: //depot/dev/client3/rdock/2013.1/src/exe/rbdock.cxx#4 $)

>  <Rbt.Library>
libRbt.so (2013.1, Build901 2013/11/27)

>  <Rbt.Parameter_File>
/export/apps/rDock/src/rDock_2013.1_src/data/scripts/dock_solv.prm

>  <Rbt.Receptor>
prm/blind_docking_40.prm

>  <SCORE>
-6.34789

>  <SCORE.INTER>
-7.55575

>  <SCORE.INTER.CONST>
1

>  <SCORE.INTER.POLAR>
-0.781329

>  <SCORE.INTER.ROT>
7

>  <SCORE.INTER.SOLV>
13.6575

>  <SCORE.INTER.VDW>
-15.2519

>  <SCORE.INTER.norm>
-0.243734

>  <SCORE.INTRA>
0.908314

>  <SCORE.INTRA.DIHEDRAL>
1.80387

>  <SCORE.INTRA.DIHEDRAL.0>
15.5708

>  <SCORE.INTRA.POLAR>
0.0677885

>  <SCORE.INTRA.POLAR.0>
-0.0677885

>  <SCORE.INTRA.REPUL>
0

>  <SCORE.INTRA.REPUL.0>
0

>  <SCORE.INTRA.SOLV>
-3.41247

>  <SCORE.INTRA.SOLV.lig_0>
-87.6316

>  <SCORE.INTRA.VDW>
1.48214

>  <SCORE.INTRA.VDW.0>
-2.87309

>  <SCORE.INTRA.norm>
0.0293004

>  <SCORE.RESTR>
0.299546

>  <SCORE.RESTR.CAVITY>
0.299546

>  <SCORE.RESTR.norm>
0.00966277

>  <SCORE.SYSTEM>
0

>  <SCORE.SYSTEM.CONST>
0

>  <SCORE.SYSTEM.DIHEDRAL>
0

>  <SCORE.SYSTEM.SOLV>
0

>  <SCORE.SYSTEM.norm>
0

>  <SCORE.heavy>
31

>  <SCORE.norm>
-0.204771

>  <SYMMETRIC_BONDS>
33 34 3

>  <RMSD>
14.309

$$$$
1fmn_cryst
 OpenBabel11021811393D
libRbt.so/2013.1/901 2013/11/27
 31 33  0  0  0  0  0  0  0  0999 V2000
  -16.4115    3.7588   10.0216 N   0  0  0  0  0  0  0  0  0  0  0  0
  -16.4980    3.7162   11.3935 C   0  0  0  0  0  0  0  0  0  0  0  0
  -17.0902    2.8112   11.9824 O   0  0  0  0  0  0  0  0  0  0  0  0
  -15.8673    4.7810   12.0847 N   0  0  0  0  0  0  0  0  0  0  0  0
  -15.1706    5.8659   11.5087 C   0  0  0  0  0  0  0  0  0  0  0  0
  -14.6633    6.7306   12.2341 O   0  0  0  0  0  0  0  0  0  0  0  0
  -15.1242    5.8390   10.0450 C   0  0  0  0  0  0  0  0  0  0  0  0
  -14.4642    6.8597    9.4072 N   0  0  0  0  0  0  0  0  0  0  0  0
  -14.5761    6.9307    8.0489 C   0  0  0  0  0  0  0  0  0  0  0  0
  -14.0723    8.0537    7.4169 C   0  0  0  0  0  0  0  0  0  0  0  0
  -14.1478    8.1915    6.0728 C   0  0  0  0  0  0  0  0  0  0  0  0
  -13.5850    9.4234    5.4388 C   0  0  0  0  0  0  0  0  0  0  0  0
  -14.7264    7.2218    5.3138 C   0  0  0  0  0  0  0  0  0  0  0  0
  -14.8117    7.3852    3.8312 C   0  0  0  0  0  0  0  0  0  0  0  0
  -15.2337    6.1023    5.8902 C   0  0  0  0  0  0  0  0  0  0  0  0
  -15.1808    5.9112    7.2708 C   0  0  0  0  0  0  0  0  0  0  0  0
  -15.6846    4.7722    7.9332 N   0  0  0  0  0  0  0  0  0  0  0  0
  -15.7644    4.7529    9.3408 C   0  0  0  0  0  0  0  0  0  0  0  0
  -15.5891    3.4415    7.2271 C   0  0  0  0  0  0  0  0  0  0  0  0
  -14.1761    3.0315    6.7119 C   0  0  1  0  0  0  0  0  0  0  0  0
  -13.3291    2.7137    7.8072 O   0  0  0  0  0  0  0  0  0  0  0  0
  -14.2156    1.8987    5.6587 C   0  0  1  0  0  0  0  0  0  0  0  0
  -15.1370    2.2215    4.6212 O   0  0  0  0  0  0  0  0  0  0  0  0
  -12.8618    1.4646    5.0451 C   0  0  1  0  0  0  0  0  0  0  0  0
  -11.9717    1.1373    6.1065 O   0  0  0  0  0  0  0  0  0  0  0  0
  -12.9890    0.2426    4.1080 C   0  0  0  0  0  0  0  0  0  0  0  0
  -12.9811    0.6088    2.7333 O   0  0  0  0  0  0  0  0  0  0  0  0
  -12.5781   -0.4009    1.5803 P   0  0  0  0  0  0  0  0  0  0  0  0
  -13.2295   -1.7158    1.7777 O   0  0  0  0  0  0  0  0  0  0  0  0
  -12.6840    0.2501    0.2567 O   0  5  0  0  0  0  0  0  0  0  0  0
  -11.0258   -0.6548    1.8266 O   0  5  0  0  0  0  0  0  0  0  0  0
  1 18  1  0  0  0  0
  1  2  1  0  0  0  0
  2  4  1  0  0  0  0
  2  3  2  0  0  0  0
  4  5  1  0  0  0  0
  5  7  1  0  0  0  0
  5  6  2  0  0  0  0
  7 18  2  0  0  0  0
  7  8  1  0  0  0  0
  8  9  1  0  0  0  0
  9 10  2  0  0  0  0
  9 16  1  0  0  0  0
 10 11  1  0  0  0  0
 11 12  1  0  0  0  0
 11 13  2  0  0  0  0
 13 14  1  0  0  0  0
 13 15  1  0  0  0  0
 15 16  2  0  0  0  0
 16 17  1  0  0  0  0
 17 19  1  0  0  0  0
 17 18  1  0  0  0  0
 20 19  1  1  0  0  0
 20 22  1  0  0  0  0
 20 21  1  0  0  0  0
 22 24  1  0  0  0  0
 22 23  1  6  0  0  0
 24 26  1  6  0  0  0
 24 25  1  0  0  0  0
 26 27  1  0  0  0  0
 27 28  1  0  0  0  0
 28 30  1  0  0  0  0
 28 29  2  0  0  0  0
 28 31  1  0  0  0  0
M  CHG  2  30  -1  31  -1
M  END
>  <CHROM.1>
53.11134594,70.65430975,51.06118059,54.58022572,53.93305311,61.69814018,101.29264192
-54.60923377,157.37834474,45.30226321,-14.26010763,3.66350812,6.50865647
2.67730409,1.26714071,-0.17380332

>  <Name>
1fmn_cryst

>  <RI>
0

>  <Rbt.Current_Directory>
/home/itssahil/PROJECTS/Mol_Feturizer/New_Systems/rnas/1fmn

>  <Rbt.Executable>
rbdock ($Id: //depot/dev/client3/rdock/2013.1/src/exe/rbdock.cxx#4 $)

>  <Rbt.Library>
libRbt.so (2013.1, Build901 2013/11/27)

>  <Rbt.Parameter_File>
/export/apps/rDock/src/rDock_2013.1_src/data/scripts/dock_solv.prm

>  <Rbt.Receptor>
prm/blind_docking_80.prm

>  <SCORE>
-24.1436

>  <SCORE.INTER>
-19.4742

>  <SCORE.INTER.CONST>
1

>  <SCORE.INTER.POLAR>
-2.20891

>  <SCORE.INTER.ROT>
7

>  <SCORE.INTER.SOLV>
24.9533

>  <SCORE.INTER.VDW>
-22.2042

>  <SCORE.INTER.norm>
-0.628199

>  <SCORE.INTRA>
-5.96933

>  <SCORE.INTRA.DIHEDRAL>
-6.06374

>  <SCORE.INTRA.DIHEDRAL.0>
15.5708

>  <SCORE.INTRA.POLAR>
-0.349863

>  <SCORE.INTRA.POLAR.0>
-0.0677885

>  <SCORE.INTRA.REPUL>
0

>  <SCORE.INTRA.REPUL.0>
0

>  <SCORE.INTRA.SOLV>
-4.67379

>  <SCORE.INTRA.SOLV.lig_0>
-87.6316

>  <SCORE.INTRA.VDW>
0.588971

>  <SCORE.INTRA.VDW.0>
-2.87309

>  <SCORE.INTRA.norm>
-0.192559

>  <SCORE.RESTR>
1.29987

>  <SCORE.RESTR.CAVITY>
1.29987

>  <SCORE.RESTR.norm>
0.0419314

>  <SCORE.SYSTEM>
0

>  <SCORE.SYSTEM.CONST>
0

>  <SCORE.SYSTEM.DIHEDRAL>
0

>  <SCORE.SYSTEM.SOLV>
0

>  <SCORE.SYSTEM.norm>
0

>  <SCORE.heavy>
31

>  <SCORE.norm>
-0.778827

>  <SYMMETRIC_BONDS>
33 34 3

>  <RMSD>
14.333

$$$$
1fmn_cryst
 OpenBabel11021811393D
libRbt.so/2013.1/901 2013/11/27
 31 33  0  0  0  0  0  0  0  0999 V2000
  -16.0564    3.5138   10.4148 N   0  0  0  0  0  0  0  0  0  0  0  0
  -16.1235    3.4698   11.7878 C   0  0  0  0  0  0  0  0  0  0  0  0
  -16.6234    2.5168   12.3866 O   0  0  0  0  0  0  0  0  0  0  0  0
  -15.5862    4.5914   12.4679 N   0  0  0  0  0  0  0  0  0  0  0  0
  -14.9989    5.7332   11.8801 C   0  0  0  0  0  0  0  0  0  0  0  0
  -14.5655    6.6444   12.5966 O   0  0  0  0  0  0  0  0  0  0  0  0
  -14.9663    5.7039   10.4161 C   0  0  0  0  0  0  0  0  0  0  0  0
  -14.4103    6.7781    9.7671 N   0  0  0  0  0  0  0  0  0  0  0  0
  -14.5432    6.8322    8.4099 C   0  0  0  0  0  0  0  0  0  0  0  0
  -14.1520    7.9940    7.7682 C   0  0  0  0  0  0  0  0  0  0  0  0
  -14.2547    8.1179    6.4246 C   0  0  0  0  0  0  0  0  0  0  0  0
  -13.8149    9.3936    5.7798 C   0  0  0  0  0  0  0  0  0  0  0  0
  -14.7497    7.0955    5.6757 C   0  0  0  0  0  0  0  0  0  0  0  0
  -14.8660    7.2436    4.1936 C   0  0  0  0  0  0  0  0  0  0  0  0
  -15.1452    5.9367    6.2618 C   0  0  0  0  0  0  0  0  0  0  0  0
  -15.0597    5.7577    7.6425 C   0  0  0  0  0  0  0  0  0  0  0  0
  -15.4491    4.5802    8.3146 N   0  0  0  0  0  0  0  0  0  0  0  0
  -15.5113    4.5602    9.7231 C   0  0  0  0  0  0  0  0  0  0  0  0
  -15.2391    3.2608    7.6123 C   0  0  0  0  0  0  0  0  0  0  0  0
  -13.7638    2.8790    7.2837 C   0  0  1  0  0  0  0  0  0  0  0  0
  -13.0296    2.6849    8.4841 O   0  0  0  0  0  0  0  0  0  0  0  0
  -13.6453    1.6691    6.3265 C   0  0  1  0  0  0  0  0  0  0  0  0
  -14.9339    1.1235    6.0591 O   0  0  0  0  0  0  0  0  0  0  0  0
  -12.8838    1.8984    4.9978 C   0  0  1  0  0  0  0  0  0  0  0  0
  -11.5626    1.3894    5.1435 O   0  0  0  0  0  0  0  0  0  0  0  0
  -13.5543    1.2038    3.7914 C   0  0  0  0  0  0  0  0  0  0  0  0
  -12.8869    0.0052    3.4146 O   0  0  0  0  0  0  0  0  0  0  0  0
  -12.6753   -0.4181    1.9022 P   0  0  0  0  0  0  0  0  0  0  0  0
  -11.5790   -1.4054    1.7779 O   0  0  0  0  0  0  0  0  0  0  0  0
  -13.9727   -0.7158    1.2578 O   0  5  0  0  0  0  0  0  0  0  0  0
  -12.1316    0.9094    1.2114 O   0  5  0  0  0  0  0  0  0  0  0  0
  1 18  1  0  0  0  0
  1  2  1  0  0  0  0
  2  4  1  0  0  0  0
  2  3  2  0  0  0  0
  4  5  1  0  0  0  0
  5  7  1  0  0  0  0
  5  6  2  0  0  0  0
  7 18  2  0  0  0  0
  7  8  1  0  0  0  0
  8  9  1  0  0  0  0
  9 10  2  0  0  0  0
  9 16  1  0  0  0  0
 10 11  1  0  0  0  0
 11 12  1  0  0  0  0
 11 13  2  0  0  0  0
 13 14  1  0  0  0  0
 13 15  1  0  0  0  0
 15 16  2  0  0  0  0
 16 17  1  0  0  0  0
 17 19  1  0  0  0  0
 17 18  1  0  0  0  0
 20 19  1  1  0  0  0
 20 22  1  0  0  0  0
 20 21  1  0  0  0  0
 22 24  1  0  0  0  0
 22 23  1  6  0  0  0
 24 26  1  6  0  0  0
 24 25  1  0  0  0  0
 26 27  1  0  0  0  0
 27 28  1  0  0  0  0
 28 30  1  0  0  0  0
 28 29  2  0  0  0  0
 28 31  1  0  0  0  0
M  CHG  2  30  -1  31  -1
M  END
>  <CHROM.1>
62.47480987,65.05804359,-4.69525161,-91.00522806,99.83604066,63.62113924
-102.50238248,-43.87940759,-140.60030673,159.98319486,-14.16757215,3.58908848
6.84467488,2.73977833,1.30337778,-0.20992783

>  <Name>
1fmn_cryst

>  <RI>
0

>  <Rbt.Current_Directory>
/home/itssahil/PROJECTS/Mol_Feturizer/New_Systems/rnas/1fmn

>  <Rbt.Executable>
rbdock ($Id: //depot/dev/client3/rdock/2013.1/src/exe/rbdock.cxx#4 $)

>  <Rbt.Library>
libRbt.so (2013.1, Build901 2013/11/27)

>  <Rbt.Parameter_File>
/export/apps/rDock/src/rDock_2013.1_src/data/scripts/dock_solv.prm

>  <Rbt.Receptor>
prm/blind_docking_100.prm

>  <SCORE>
-9.09305

>  <SCORE.INTER>
-18.4033

>  <SCORE.INTER.CONST>
1

>  <SCORE.INTER.POLAR>
-2.61639

>  <SCORE.INTER.ROT>
7

>  <SCORE.INTER.SOLV>
25.2312

>  <SCORE.INTER.VDW>
-20.2247

>  <SCORE.INTER.norm>
-0.593655

>  <SCORE.INTRA>
5.93381

>  <SCORE.INTRA.DIHEDRAL>
9.64295

>  <SCORE.INTRA.DIHEDRAL.0>
15.5708

>  <SCORE.INTRA.POLAR>
0.0677885

>  <SCORE.INTRA.POLAR.0>
-0.0677885

>  <SCORE.INTRA.REPUL>
0

>  <SCORE.INTRA.REPUL.0>
0

>  <SCORE.INTRA.SOLV>
-4.22465

>  <SCORE.INTRA.SOLV.lig_0>
-87.6316

>  <SCORE.INTRA.VDW>
2.99418

>  <SCORE.INTRA.VDW.0>
-2.87309

>  <SCORE.INTRA.norm>
0.191413

>  <SCORE.RESTR>
3.37645

>  <SCORE.RESTR.CAVITY>
3.37645

>  <SCORE.RESTR.norm>
0.108918

>  <SCORE.SYSTEM>
0

>  <SCORE.SYSTEM.CONST>
0

>  <SCORE.SYSTEM.DIHEDRAL>
0

>  <SCORE.SYSTEM.SOLV>
0

>  <SCORE.SYSTEM.norm>
0

>  <SCORE.heavy>
31

>  <SCORE.norm>
-0.293324

>  <SYMMETRIC_BONDS>
33 34 3

>  <RMSD>
14.369

$$$$
1fmn_cryst
 OpenBabel11021811393D
libRbt.so/2013.1/901 2013/11/27
 31 33  0  0  0  0  0  0  0  0999 V2000
  -16.0486    3.4957   10.5018 N   0  0  0  0  0  0  0  0  0  0  0  0
  -16.1027    3.4543   11.8754 C   0  0  0  0  0  0  0  0  0  0  0  0
  -16.5869    2.4976   12.4810 O   0  0  0  0  0  0  0  0  0  0  0  0
  -15.5711    4.5832   12.5480 N   0  0  0  0  0  0  0  0  0  0  0  0
  -15.0013    5.7297   11.9522 C   0  0  0  0  0  0  0  0  0  0  0  0
  -14.5711    6.6471   12.6625 O   0  0  0  0  0  0  0  0  0  0  0  0
  -14.9817    5.6972   10.4880 C   0  0  0  0  0  0  0  0  0  0  0  0
  -14.4431    6.7756    9.8315 N   0  0  0  0  0  0  0  0  0  0  0  0
  -14.5889    6.8250    8.4754 C   0  0  0  0  0  0  0  0  0  0  0  0
  -14.2159    7.9893    7.8275 C   0  0  0  0  0  0  0  0  0  0  0  0
  -14.3322    8.1089    6.4845 C   0  0  0  0  0  0  0  0  0  0  0  0
  -13.9118    9.3875    5.8328 C   0  0  0  0  0  0  0  0  0  0  0  0
  -14.8231    7.0795    5.7426 C   0  0  0  0  0  0  0  0  0  0  0  0
  -14.9546    7.2227    4.2613 C   0  0  0  0  0  0  0  0  0  0  0  0
  -15.2010    5.9180    6.3350 C   0  0  0  0  0  0  0  0  0  0  0  0
  -15.1010    5.7433    7.7152 C   0  0  0  0  0  0  0  0  0  0  0  0
  -15.4718    4.5634    8.3937 N   0  0  0  0  0  0  0  0  0  0  0  0
  -15.5209    4.5461    9.8027 C   0  0  0  0  0  0  0  0  0  0  0  0
  -15.2542    3.2445    7.6925 C   0  0  0  0  0  0  0  0  0  0  0  0
  -13.8473    3.0214    7.0593 C   0  0  1  0  0  0  0  0  0  0  0  0
  -12.8954    2.7295    8.0725 O   0  0  0  0  0  0  0  0  0  0  0  0
  -13.8457    1.9582    5.9352 C   0  0  1  0  0  0  0  0  0  0  0  0
  -14.7164    2.3549    4.8796 O   0  0  0  0  0  0  0  0  0  0  0  0
  -12.4679    1.5513    5.3572 C   0  0  1  0  0  0  0  0  0  0  0  0
  -11.6521    1.0852    6.4264 O   0  0  0  0  0  0  0  0  0  0  0  0
  -12.5675    0.4411    4.2871 C   0  0  0  0  0  0  0  0  0  0  0  0
  -12.6304    0.9642    2.9656 O   0  0  0  0  0  0  0  0  0  0  0  0
  -12.6305    0.0405    1.6779 P   0  0  0  0  0  0  0  0  0  0  0  0
  -11.4773   -0.8880    1.6933 O   0  0  0  0  0  0  0  0  0  0  0  0
  -13.9804   -0.5113    1.4323 O   0  5  0  0  0  0  0  0  0  0  0  0
  -12.3427    1.0554    0.4855 O   0  5  0  0  0  0  0  0  0  0  0  0
  1 18  1  0  0  0  0
  1  2  1  0  0  0  0
  2  4  1  0  0  0  0
  2  3  2  0  0  0  0
  4  5  1  0  0  0  0
  5  7  1  0  0  0  0
  5  6  2  0  0  0  0
  7 18  2  0  0  0  0
  7  8  1  0  0  0  0
  8  9  1  0  0  0  0
  9 10  2  0  0  0  0
  9 16  1  0  0  0  0
 10 11  1  0  0  0  0
 11 12  1  0  0  0  0
 11 13  2  0  0  0  0
 13 14  1  0  0  0  0
 13 15  1  0  0  0  0
 15 16  2  0  0  0  0
 16 17  1  0  0  0  0
 17 19  1  0  0  0  0
 17 18  1  0  0  0  0
 20 19  1  1  0  0  0
 20 22  1  0  0  0  0
 20 21  1  0  0  0  0
 22 24  1  0  0  0  0
 22 23  1  6  0  0  0
 24 26  1  6  0  0  0
 24 25  1  0  0  0  0
 26 27  1  0  0  0  0
 27 28  1  0  0  0  0
 28 30  1  0  0  0  0
 28 29  2  0  0  0  0
 28 31  1  0  0  0  0
M  CHG  2  30  -1  31  -1
M  END
>  <CHROM.1>
48.79299611,75.67998691,60.30413058,-85.82719050,56.81798935,-63.19547190
94.15795114,-44.61048733,175.42489445,-53.48528468,-14.13404790,3.69244024
6.83063020,3.01545366,1.31178237,-0.44033310

>  <Name>
1fmn_cryst

>  <RI>
0

>  <Rbt.Current_Directory>
/home/itssahil/PROJECTS/Mol_Feturizer/New_Systems/rnas/1fmn

>  <Rbt.Executable>
rbdock ($Id: //depot/dev/client3/rdock/2013.1/src/exe/rbdock.cxx#4 $)

>  <Rbt.Library>
libRbt.so (2013.1, Build901 2013/11/27)

>  <Rbt.Parameter_File>
/export/apps/rDock/src/rDock_2013.1_src/data/scripts/dock_solv.prm

>  <Rbt.Receptor>
prm/blind_docking_100.prm

>  <SCORE>
-17.1393

>  <SCORE.INTER>
-13.4272

>  <SCORE.INTER.CONST>
1

>  <SCORE.INTER.POLAR>
-2.32229

>  <SCORE.INTER.ROT>
7

>  <SCORE.INTER.SOLV>
23.0991

>  <SCORE.INTER.VDW>
-17.1769

>  <SCORE.INTER.norm>
-0.433136

>  <SCORE.INTRA>
-7.36567

>  <SCORE.INTRA.DIHEDRAL>
-5.20239

>  <SCORE.INTRA.DIHEDRAL.0>
15.5708

>  <SCORE.INTRA.POLAR>
-0.801336

>  <SCORE.INTRA.POLAR.0>
-0.0677885

>  <SCORE.INTRA.REPUL>
0

>  <SCORE.INTRA.REPUL.0>
0

>  <SCORE.INTRA.SOLV>
-5.03823

>  <SCORE.INTRA.SOLV.lig_0>
-87.6316

>  <SCORE.INTRA.VDW>
0.479188

>  <SCORE.INTRA.VDW.0>
-2.87309

>  <SCORE.INTRA.norm>
-0.237602

>  <SCORE.RESTR>
3.65358

>  <SCORE.RESTR.CAVITY>
3.65358

>  <SCORE.RESTR.norm>
0.117858

>  <SCORE.SYSTEM>
0

>  <SCORE.SYSTEM.CONST>
0

>  <SCORE.SYSTEM.DIHEDRAL>
0

>  <SCORE.SYSTEM.SOLV>
0

>  <SCORE.SYSTEM.norm>
0

>  <SCORE.heavy>
31

>  <SCORE.norm>
-0.552881

>  <SYMMETRIC_BONDS>
33 34 3

>  <RMSD>
14.406

$$$$
1fmn_cryst
 OpenBabel11021811393D
libRbt.so/2013.1/901 2013/11/27
 31 33  0  0  0  0  0  0  0  0999 V2000
  -16.3955    3.7543    9.9682 N   0  0  0  0  0  0  0  0  0  0  0  0
  -16.4506    3.7117   11.3417 C   0  0  0  0  0  0  0  0  0  0  0  0
  -17.0458    2.8173   11.9436 O   0  0  0  0  0  0  0  0  0  0  0  0
  -15.7840    4.7637   12.0188 N   0  0  0  0  0  0  0  0  0  0  0  0
  -15.0807    5.8360   11.4274 C   0  0  0  0  0  0  0  0  0  0  0  0
  -14.5403    6.6901   12.1413 O   0  0  0  0  0  0  0  0  0  0  0  0
  -15.0691    5.8099    9.9630 C   0  0  0  0  0  0  0  0  0  0  0  0
  -14.4052    6.8188    9.3106 N   0  0  0  0  0  0  0  0  0  0  0  0
  -14.5476    6.8935    7.9554 C   0  0  0  0  0  0  0  0  0  0  0  0
  -14.0377    8.0077    7.3126 C   0  0  0  0  0  0  0  0  0  0  0  0
  -14.1421    8.1484    5.9707 C   0  0  0  0  0  0  0  0  0  0  0  0
  -13.5712    9.3704    5.3246 C   0  0  0  0  0  0  0  0  0  0  0  0
  -14.7564    7.1907    5.2248 C   0  0  0  0  0  0  0  0  0  0  0  0
  -14.8734    7.3575    3.7447 C   0  0  0  0  0  0  0  0  0  0  0  0
  -15.2710    6.0802    5.8120 C   0  0  0  0  0  0  0  0  0  0  0  0
  -15.1894    5.8865    7.1909 C   0  0  0  0  0  0  0  0  0  0  0  0
  -15.6989    4.7564    7.8641 N   0  0  0  0  0  0  0  0  0  0  0  0
  -15.7460    4.7369    9.2731 C   0  0  0  0  0  0  0  0  0  0  0  0
  -15.6450    3.4250    7.1549 C   0  0  0  0  0  0  0  0  0  0  0  0
  -14.2264    2.8948    6.7855 C   0  0  1  0  0  0  0  0  0  0  0  0
  -13.4893    2.6064    7.9651 O   0  0  0  0  0  0  0  0  0  0  0  0
  -14.2586    1.6935    5.8108 C   0  0  1  0  0  0  0  0  0  0  0  0
  -15.3960    0.8764    6.0722 O   0  0  0  0  0  0  0  0  0  0  0  0
  -14.1774    2.0157    4.2984 C   0  0  1  0  0  0  0  0  0  0  0  0
  -14.8774    3.2318    4.0598 O   0  0  0  0  0  0  0  0  0  0  0  0
  -12.7256    2.1700    3.7923 C   0  0  0  0  0  0  0  0  0  0  0  0
  -12.0187    0.9353    3.7844 O   0  0  0  0  0  0  0  0  0  0  0  0
  -12.4047   -0.2663    2.8261 P   0  0  0  0  0  0  0  0  0  0  0  0
  -11.2775   -0.6110    1.9302 O   0  0  0  0  0  0  0  0  0  0  0  0
  -13.0605   -1.3509    3.5882 O   0  5  0  0  0  0  0  0  0  0  0  0
  -13.5261    0.3512    1.8796 O   0  5  0  0  0  0  0  0  0  0  0  0
  1 18  1  0  0  0  0
  1  2  1  0  0  0  0
  2  4  1  0  0  0  0
  2  3  2  0  0  0  0
  4  5  1  0  0  0  0
  5  7  1  0  0  0  0
  5  6  2  0  0  0  0
  7 18  2  0  0  0  0
  7  8  1  0  0  0  0
  8  9  1  0  0  0  0
  9 10  2  0  0  0  0
  9 16  1  0  0  0  0
 10 11  1  0  0  0  0
 11 12  1  0  0  0  0
 11 13  2  0  0  0  0
 13 14  1  0  0  0  0
 13 15  1  0  0  0  0
 15 16  2  0  0  0  0
 16 17  1  0  0  0  0
 17 19  1  0  0  0  0
 17 18  1  0  0  0  0
 20 19  1  1  0  0  0
 20 22  1  0  0  0  0
 20 21  1  0  0  0  0
 22 24  1  0  0  0  0
 22 23  1  6  0  0  0
 24 26  1  1  0  0  0
 24 25  1  0  0  0  0
 26 27  1  0  0  0  0
 27 28  1  0  0  0  0
 28 30  1  0  0  0  0
 28 29  2  0  0  0  0
 28 31  1  0  0  0  0
M  CHG  2  30  -1  31  -1
M  END
>  <CHROM.1>
61.48952646,65.75365916,-34.37582671,-63.05088673,-35.32144974,-63.41821697
69.49822873,-63.18389468,66.27239115,119.80628254,-14.39174289,3.77533671
6.67025900,2.59946500,1.25027042,-0.11760599

>  <Name>
1fmn_cryst

>  <RI>
0

>  <Rbt.Current_Directory>
/home/itssahil/PROJECTS/Mol_Feturizer/New_Systems/rnas/1fmn

>  <Rbt.Executable>
rbdock ($Id: //depot/dev/client3/rdock/2013.1/src/exe/rbdock.cxx#4 $)

>  <Rbt.Library>
libRbt.so (2013.1, Build901 2013/11/27)

>  <Rbt.Parameter_File>
/export/apps/rDock/src/rDock_2013.1_src/data/scripts/dock_solv.prm

>  <Rbt.Receptor>
prm/blind_docking_80.prm

>  <SCORE>
-24.1371

>  <SCORE.INTER>
-21.5894

>  <SCORE.INTER.CONST>
1

>  <SCORE.INTER.POLAR>
-2.25958

>  <SCORE.INTER.ROT>
7

>  <SCORE.INTER.SOLV>
25.0843

>  <SCORE.INTER.VDW>
-23.4891

>  <SCORE.INTER.norm>
-0.696433

>  <SCORE.INTRA>
-3.76412

>  <SCORE.INTRA.DIHEDRAL>
-7.17448

>  <SCORE.INTRA.DIHEDRAL.0>
15.5708

>  <SCORE.INTRA.POLAR>
0.0677885

>  <SCORE.INTRA.POLAR.0>
-0.0677885

>  <SCORE.INTRA.REPUL>
0

>  <SCORE.INTRA.REPUL.0>
0

>  <SCORE.INTRA.SOLV>
-0.972864

>  <SCORE.INTRA.SOLV.lig_0>
-87.6316

>  <SCORE.INTRA.VDW>
0.0790682

>  <SCORE.INTRA.VDW.0>
-2.87309

>  <SCORE.INTRA.norm>
-0.121423

>  <SCORE.RESTR>
1.21647

>  <SCORE.RESTR.CAVITY>
1.21647

>  <SCORE.RESTR.norm>
0.0392409

>  <SCORE.SYSTEM>
0

>  <SCORE.SYSTEM.CONST>
0

>  <SCORE.SYSTEM.DIHEDRAL>
0

>  <SCORE.SYSTEM.SOLV>
0

>  <SCORE.SYSTEM.norm>
0

>  <SCORE.heavy>
31

>  <SCORE.norm>
-0.778616

>  <SYMMETRIC_BONDS>
33 34 3

>  <RMSD>
14.420

$$$$
1fmn_cryst
 OpenBabel11021811393D
libRbt.so/2013.1/901 2013/11/27
 31 33  0  0  0  0  0  0  0  0999 V2000
  -16.4034    3.7729    9.9943 N   0  0  0  0  0  0  0  0  0  0  0  0
  -16.4824    3.7327   11.3667 C   0  0  0  0  0  0  0  0  0  0  0  0
  -17.0817    2.8353   11.9600 O   0  0  0  0  0  0  0  0  0  0  0  0
  -15.8353    4.7908   12.0531 N   0  0  0  0  0  0  0  0  0  0  0  0
  -15.1294    5.8669   11.4718 C   0  0  0  0  0  0  0  0  0  0  0  0
  -14.6078    6.7264   12.1933 O   0  0  0  0  0  0  0  0  0  0  0  0
  -15.0919    5.8380   10.0079 C   0  0  0  0  0  0  0  0  0  0  0  0
  -14.4239    6.8503    9.3651 N   0  0  0  0  0  0  0  0  0  0  0  0
  -14.5430    6.9213    8.0075 C   0  0  0  0  0  0  0  0  0  0  0  0
  -14.0298    8.0377    7.3713 C   0  0  0  0  0  0  0  0  0  0  0  0
  -14.1117    8.1750    6.0275 C   0  0  0  0  0  0  0  0  0  0  0  0
  -13.5383    9.3997    5.3889 C   0  0  0  0  0  0  0  0  0  0  0  0
  -14.7059    7.2114    5.2730 C   0  0  0  0  0  0  0  0  0  0  0  0
  -14.7981    7.3743    3.7907 C   0  0  0  0  0  0  0  0  0  0  0  0
  -15.2228    6.0984    5.8535 C   0  0  0  0  0  0  0  0  0  0  0  0
  -15.1640    5.9081    7.2340 C   0  0  0  0  0  0  0  0  0  0  0  0
  -15.6772    4.7757    7.9006 N   0  0  0  0  0  0  0  0  0  0  0  0
  -15.7488    4.7588    9.3086 C   0  0  0  0  0  0  0  0  0  0  0  0
  -15.6013    3.4433    7.1953 C   0  0  0  0  0  0  0  0  0  0  0  0
  -14.1741    2.9359    6.8268 C   0  0  1  0  0  0  0  0  0  0  0  0
  -13.4560    2.5969    8.0046 O   0  0  0  0  0  0  0  0  0  0  0  0
  -14.1842    1.7801    5.7980 C   0  0  1  0  0  0  0  0  0  0  0  0
  -15.2953    0.9200    6.0332 O   0  0  0  0  0  0  0  0  0  0  0  0
  -14.1296    2.1735    4.3013 C   0  0  1  0  0  0  0  0  0  0  0  0
  -13.0412    3.0711    4.1121 O   0  0  0  0  0  0  0  0  0  0  0  0
  -13.9408    0.9586    3.3654 C   0  0  0  0  0  0  0  0  0  0  0  0
  -12.6995    0.9950    2.6713 O   0  0  0  0  0  0  0  0  0  0  0  0
  -12.2298   -0.1617    1.6953 P   0  0  0  0  0  0  0  0  0  0  0  0
  -12.6633    0.1102    0.3060 O   0  0  0  0  0  0  0  0  0  0  0  0
  -10.8127   -0.5069    1.9399 O   0  5  0  0  0  0  0  0  0  0  0  0
  -13.0808   -1.4220    2.1668 O   0  5  0  0  0  0  0  0  0  0  0  0
  1 18  1  0  0  0  0
  1  2  1  0  0  0  0
  2  4  1  0  0  0  0
  2  3  2  0  0  0  0
  4  5  1  0  0  0  0
  5  7  1  0  0  0  0
  5  6  2  0  0  0  0
  7 18  2  0  0  0  0
  7  8  1  0  0  0  0
  8  9  1  0  0  0  0
  9 10  2  0  0  0  0
  9 16  1  0  0  0  0
 10 11  1  0  0  0  0
 11 12  1  0  0  0  0
 11 13  2  0  0  0  0
 13 14  1  0  0  0  0
 13 15  1  0  0  0  0
 15 16  2  0  0  0  0
 16 17  1  0  0  0  0
 17 19  1  0  0  0  0
 17 18  1  0  0  0  0
 20 19  1  1  0  0  0
 20 22  1  0  0  0  0
 20 21  1  0  0  0  0
 22 24  1  0  0  0  0
 22 23  1  6  0  0  0
 24 26  1  6  0  0  0
 24 25  1  0  0  0  0
 26 27  1  0  0  0  0
 27 28  1  0  0  0  0
 28 30  1  0  0  0  0
 28 29  2  0  0  0  0
 28 31  1  0  0  0  0
M  CHG  2  30  -1  31  -1
M  END
>  <CHROM.1>
60.31546777,68.79845764,-36.49414544,-174.43571119,51.16850428,-62.55561200
-115.01957180,-172.60785971,177.33864309,91.02300756,-14.31200581,3.75581996
6.45967324,2.55094173,1.23865763,-0.00292272

>  <Name>
1fmn_cryst

>  <RI>
0

>  <Rbt.Current_Directory>
/home/itssahil/PROJECTS/Mol_Feturizer/New_Systems/rnas/1fmn

>  <Rbt.Executable>
rbdock ($Id: //depot/dev/client3/rdock/2013.1/src/exe/rbdock.cxx#4 $)

>  <Rbt.Library>
libRbt.so (2013.1, Build901 2013/11/27)

>  <Rbt.Parameter_File>
/export/apps/rDock/src/rDock_2013.1_src/data/scripts/dock_solv.prm

>  <Rbt.Receptor>
prm/blind_docking_80.prm

>  <SCORE>
-20.377

>  <SCORE.INTER>
-18.2436

>  <SCORE.INTER.CONST>
1

>  <SCORE.INTER.POLAR>
-2.15329

>  <SCORE.INTER.ROT>
7

>  <SCORE.INTER.SOLV>
27.1349

>  <SCORE.INTER.VDW>
-22.2964

>  <SCORE.INTER.norm>
-0.588504

>  <SCORE.INTRA>
-3.27264

>  <SCORE.INTRA.DIHEDRAL>
-4.36479

>  <SCORE.INTRA.DIHEDRAL.0>
15.5708

>  <SCORE.INTRA.POLAR>
0.0677885

>  <SCORE.INTRA.POLAR.0>
-0.0677885

>  <SCORE.INTRA.REPUL>
0

>  <SCORE.INTRA.REPUL.0>
0

>  <SCORE.INTRA.SOLV>
-4.84845

>  <SCORE.INTRA.SOLV.lig_0>
-87.6316

>  <SCORE.INTRA.VDW>
1.1035

>  <SCORE.INTRA.VDW.0>
-2.87309

>  <SCORE.INTRA.norm>
-0.105569

>  <SCORE.RESTR>
1.13923

>  <SCORE.RESTR.CAVITY>
1.13923

>  <SCORE.RESTR.norm>
0.0367492

>  <SCORE.SYSTEM>
0

>  <SCORE.SYSTEM.CONST>
0

>  <SCORE.SYSTEM.DIHEDRAL>
0

>  <SCORE.SYSTEM.SOLV>
0

>  <SCORE.SYSTEM.norm>
0

>  <SCORE.heavy>
31

>  <SCORE.norm>
-0.657324

>  <SYMMETRIC_BONDS>
33 34 3

>  <RMSD>
14.424

$$$$
1fmn_cryst
 OpenBabel11021811393D
libRbt.so/2013.1/901 2013/11/27
 31 33  0  0  0  0  0  0  0  0999 V2000
  -14.7640    6.2191    0.3818 N   0  0  0  0  0  0  0  0  0  0  0  0
  -15.0495    6.9420   -0.7529 C   0  0  0  0  0  0  0  0  0  0  0  0
  -14.5066    6.7039   -1.8323 O   0  0  0  0  0  0  0  0  0  0  0  0
  -16.0029    7.9798   -0.5996 N   0  0  0  0  0  0  0  0  0  0  0  0
  -16.6764    8.3384    0.5887 C   0  0  0  0  0  0  0  0  0  0  0  0
  -17.4908    9.2701    0.5812 O   0  0  0  0  0  0  0  0  0  0  0  0
  -16.3171    7.5225    1.7508 C   0  0  0  0  0  0  0  0  0  0  0  0
  -16.9289    7.8075    2.9461 N   0  0  0  0  0  0  0  0  0  0  0  0
  -16.4632    7.1708    4.0598 C   0  0  0  0  0  0  0  0  0  0  0  0
  -16.9444    7.5847    5.2893 C   0  0  0  0  0  0  0  0  0  0  0  0
  -16.5275    6.9985    6.4356 C   0  0  0  0  0  0  0  0  0  0  0  0
  -17.0811    7.4814    7.7382 C   0  0  0  0  0  0  0  0  0  0  0  0
  -15.6200    5.9855    6.3991 C   0  0  0  0  0  0  0  0  0  0  0  0
  -15.1601    5.3487    7.6699 C   0  0  0  0  0  0  0  0  0  0  0  0
  -15.1209    5.5457    5.2157 C   0  0  0  0  0  0  0  0  0  0  0  0
  -15.5179    6.1154    4.0060 C   0  0  0  0  0  0  0  0  0  0  0  0
  -15.0426    5.7050    2.7428 N   0  0  0  0  0  0  0  0  0  0  0  0
  -15.3478    6.4636    1.5942 C   0  0  0  0  0  0  0  0  0  0  0  0
  -14.7330    4.2412    2.5435 C   0  0  0  0  0  0  0  0  0  0  0  0
  -15.4322    3.2469    3.5196 C   0  0  1  0  0  0  0  0  0  0  0  0
  -16.5465    2.6381    2.8828 O   0  0  0  0  0  0  0  0  0  0  0  0
  -14.4639    2.2019    4.1232 C   0  0  1  0  0  0  0  0  0  0  0  0
  -14.9777    1.7076    5.3565 O   0  0  0  0  0  0  0  0  0  0  0  0
  -14.0520    1.0195    3.2120 C   0  0  1  0  0  0  0  0  0  0  0  0
  -13.4162    1.5461    2.0525 O   0  0  0  0  0  0  0  0  0  0  0  0
  -13.0852    0.0332    3.9048 C   0  0  0  0  0  0  0  0  0  0  0  0
  -13.0020   -1.2140    3.2252 O   0  0  0  0  0  0  0  0  0  0  0  0
  -12.3516   -1.3643    1.7879 P   0  0  0  0  0  0  0  0  0  0  0  0
  -13.3509   -1.1077    0.7260 O   0  0  0  0  0  0  0  0  0  0  0  0
  -11.0549   -0.6561    1.7258 O   0  5  0  0  0  0  0  0  0  0  0  0
  -12.0141   -2.9169    1.6871 O   0  5  0  0  0  0  0  0  0  0  0  0
  1 18  1  0  0  0  0
  1  2  1  0  0  0  0
  2  4  1  0  0  0  0
  2  3  2  0  0  0  0
  4  5  1  0  0  0  0
  5  7  1  0  0  0  0
  5  6  2  0  0  0  0
  7 18  2  0  0  0  0
  7  8  1  0  0  0  0
  8  9  1  0  0  0  0
  9 10  2  0  0  0  0
  9 16  1  0  0  0  0
 10 11  1  0  0  0  0
 11 12  1  0  0  0  0
 11 13  2  0  0  0  0
 13 14  1  0  0  0  0
 13 15  1  0  0  0  0
 15 16  2  0  0  0  0
 16 17  1  0  0  0  0
 17 19  1  0  0  0  0
 17 18  1  0  0  0  0
 20 19  1  6  0  0  0
 20 22  1  0  0  0  0
 20 21  1  0  0  0  0
 22 24  1  0  0  0  0
 22 23  1  1  0  0  0
 24 26  1  1  0  0  0
 24 25  1  0  0  0  0
 26 27  1  0  0  0  0
 27 28  1  0  0  0  0
 28 30  1  0  0  0  0
 28 29  2  0  0  0  0
 28 31  1  0  0  0  0
M  CHG  2  30  -1  31  -1
M  END
>  <CHROM.1>
21.78787960,101.03929433,156.16907058,177.35961872,59.37985258,-57.77705039
163.74625756,-66.31240547,67.64793819,-86.95554358,-14.84414799,3.95679219
2.84181188,-2.87112549,-1.15015598,1.94030105

>  <Name>
1fmn_cryst

>  <RI>
0

>  <Rbt.Current_Directory>
/home/itssahil/PROJECTS/Mol_Feturizer/New_Systems/rnas/1fmn

>  <Rbt.Executable>
rbdock ($Id: //depot/dev/client3/rdock/2013.1/src/exe/rbdock.cxx#4 $)

>  <Rbt.Library>
libRbt.so (2013.1, Build901 2013/11/27)

>  <Rbt.Parameter_File>
/export/apps/rDock/src/rDock_2013.1_src/data/scripts/dock_solv.prm

>  <Rbt.Receptor>
prm/blind_docking_40.prm

>  <SCORE>
-9.26593

>  <SCORE.INTER>
-9.66944

>  <SCORE.INTER.CONST>
1

>  <SCORE.INTER.POLAR>
-1.14697

>  <SCORE.INTER.ROT>
7

>  <SCORE.INTER.SOLV>
20.9028

>  <SCORE.INTER.VDW>
-17.8574

>  <SCORE.INTER.norm>
-0.311917

>  <SCORE.INTRA>
-1.70219

>  <SCORE.INTRA.DIHEDRAL>
-5.04551

>  <SCORE.INTRA.DIHEDRAL.0>
15.5708

>  <SCORE.INTRA.POLAR>
0.0677885

>  <SCORE.INTRA.POLAR.0>
-0.0677885

>  <SCORE.INTRA.REPUL>
0

>  <SCORE.INTRA.REPUL.0>
0

>  <SCORE.INTRA.SOLV>
-0.763344

>  <SCORE.INTRA.SOLV.lig_0>
-87.6316

>  <SCORE.INTRA.VDW>
0.971757

>  <SCORE.INTRA.VDW.0>
-2.87309

>  <SCORE.INTRA.norm>
-0.0549094

>  <SCORE.RESTR>
2.1057

>  <SCORE.RESTR.CAVITY>
2.1057

>  <SCORE.RESTR.norm>
0.0679259

>  <SCORE.SYSTEM>
0

>  <SCORE.SYSTEM.CONST>
0

>  <SCORE.SYSTEM.DIHEDRAL>
0

>  <SCORE.SYSTEM.SOLV>
0

>  <SCORE.SYSTEM.norm>
0

>  <SCORE.heavy>
31

>  <SCORE.norm>
-0.298901

>  <SYMMETRIC_BONDS>
33 34 3

>  <RMSD>
14.433

$$$$
1fmn_cryst
 OpenBabel11021811393D
libRbt.so/2013.1/901 2013/11/27
 31 33  0  0  0  0  0  0  0  0999 V2000
  -15.9203    3.4934   10.4759 N   0  0  0  0  0  0  0  0  0  0  0  0
  -16.0516    3.4562   11.8445 C   0  0  0  0  0  0  0  0  0  0  0  0
  -16.5036    2.4718   12.4303 O   0  0  0  0  0  0  0  0  0  0  0  0
  -15.6389    4.6230   12.5356 N   0  0  0  0  0  0  0  0  0  0  0  0
  -15.1153    5.8027   11.9626 C   0  0  0  0  0  0  0  0  0  0  0  0
  -14.7913    6.7517   12.6877 O   0  0  0  0  0  0  0  0  0  0  0  0
  -15.0081    5.7632   10.5024 C   0  0  0  0  0  0  0  0  0  0  0  0
  -14.5074    6.8725    9.8676 N   0  0  0  0  0  0  0  0  0  0  0  0
  -14.5768    6.9039    8.5050 C   0  0  0  0  0  0  0  0  0  0  0  0
  -14.2474    8.0874    7.8684 C   0  0  0  0  0  0  0  0  0  0  0  0
  -14.2930    8.1909    6.5198 C   0  0  0  0  0  0  0  0  0  0  0  0
  -13.9240    9.4918    5.8811 C   0  0  0  0  0  0  0  0  0  0  0  0
  -14.6679    7.1258    5.7609 C   0  0  0  0  0  0  0  0  0  0  0  0
  -14.7221    7.2511    4.2731 C   0  0  0  0  0  0  0  0  0  0  0  0
  -14.9991    5.9444    6.3417 C   0  0  0  0  0  0  0  0  0  0  0  0
  -14.9682    5.7850    7.7271 C   0  0  0  0  0  0  0  0  0  0  0  0
  -15.2961    4.5862    8.3944 N   0  0  0  0  0  0  0  0  0  0  0  0
  -15.4261    4.5737    9.7983 C   0  0  0  0  0  0  0  0  0  0  0  0
  -14.9479    3.2815    7.7199 C   0  0  0  0  0  0  0  0  0  0  0  0
  -13.4336    2.9161    7.6600 C   0  0  1  0  0  0  0  0  0  0  0  0
  -13.0228    2.3300    8.8871 O   0  0  0  0  0  0  0  0  0  0  0  0
  -13.0662    2.0352    6.4422 C   0  0  1  0  0  0  0  0  0  0  0  0
  -12.1854    0.9879    6.8385 O   0  0  0  0  0  0  0  0  0  0  0  0
  -14.2410    1.4527    5.6186 C   0  0  1  0  0  0  0  0  0  0  0  0
  -14.7809    2.4916    4.8091 O   0  0  0  0  0  0  0  0  0  0  0  0
  -13.8144    0.2814    4.7055 C   0  0  0  0  0  0  0  0  0  0  0  0
  -13.6295    0.6855    3.3539 O   0  0  0  0  0  0  0  0  0  0  0  0
  -12.8414   -0.1941    2.2973 P   0  0  0  0  0  0  0  0  0  0  0  0
  -13.2989   -1.6017    2.3350 O   0  0  0  0  0  0  0  0  0  0  0  0
  -12.7770    0.4946    0.9902 O   0  5  0  0  0  0  0  0  0  0  0  0
  -11.3524   -0.2163    2.8606 O   0  5  0  0  0  0  0  0  0  0  0  0
  1 18  1  0  0  0  0
  1  2  1  0  0  0  0
  2  4  1  0  0  0  0
  2  3  2  0  0  0  0
  4  5  1  0  0  0  0
  5  7  1  0  0  0  0
  5  6  2  0  0  0  0
  7 18  2  0  0  0  0
  7  8  1  0  0  0  0
  8  9  1  0  0  0  0
  9 10  2  0  0  0  0
  9 16  1  0  0  0  0
 10 11  1  0  0  0  0
 11 12  1  0  0  0  0
 11 13  2  0  0  0  0
 13 14  1  0  0  0  0
 13 15  1  0  0  0  0
 15 16  2  0  0  0  0
 16 17  1  0  0  0  0
 17 19  1  0  0  0  0
 17 18  1  0  0  0  0
 20 19  1  1  0  0  0
 20 22  1  0  0  0  0
 20 21  1  0  0  0  0
 22 24  1  0  0  0  0
 22 23  1  1  0  0  0
 24 26  1  6  0  0  0
 24 25  1  0  0  0  0
 26 27  1  0  0  0  0
 27 28  1  0  0  0  0
 28 30  1  0  0  0  0
 28 29  2  0  0  0  0
 28 31  1  0  0  0  0
M  CHG  2  30  -1  31  -1
M  END
>  <CHROM.1>
71.34072870,82.10502178,-136.52217891,-67.59254199,76.26916898,-94.06839805
-100.21215450,-60.29680528,163.51314546,47.86288786,-14.21862938,3.63883633
7.07631132,2.86188966,1.33156652,-0.36241551

>  <Name>
1fmn_cryst

>  <RI>
0

>  <Rbt.Current_Directory>
/home/itssahil/PROJECTS/Mol_Feturizer/New_Systems/rnas/1fmn

>  <Rbt.Executable>
rbdock ($Id: //depot/dev/client3/rdock/2013.1/src/exe/rbdock.cxx#4 $)

>  <Rbt.Library>
libRbt.so (2013.1, Build901 2013/11/27)

>  <Rbt.Parameter_File>
/export/apps/rDock/src/rDock_2013.1_src/data/scripts/dock_solv.prm

>  <Rbt.Receptor>
prm/blind_docking_80.prm

>  <SCORE>
-3.8835

>  <SCORE.INTER>
-6.7607

>  <SCORE.INTER.CONST>
1

>  <SCORE.INTER.POLAR>
-1.75069

>  <SCORE.INTER.ROT>
7

>  <SCORE.INTER.SOLV>
25.0759

>  <SCORE.INTER.VDW>
-15.2968

>  <SCORE.INTER.norm>
-0.218087

>  <SCORE.INTRA>
1.82448

>  <SCORE.INTRA.DIHEDRAL>
1.87355

>  <SCORE.INTRA.DIHEDRAL.0>
15.5708

>  <SCORE.INTRA.POLAR>
0.0677885

>  <SCORE.INTRA.POLAR.0>
-0.0677885

>  <SCORE.INTRA.REPUL>
0

>  <SCORE.INTRA.REPUL.0>
0

>  <SCORE.INTRA.SOLV>
-4.08733

>  <SCORE.INTRA.SOLV.lig_0>
-87.6316

>  <SCORE.INTRA.VDW>
2.70089

>  <SCORE.INTRA.VDW.0>
-2.87309

>  <SCORE.INTRA.norm>
0.0588542

>  <SCORE.RESTR>
1.05271

>  <SCORE.RESTR.CAVITY>
1.05271

>  <SCORE.RESTR.norm>
0.0339585

>  <SCORE.SYSTEM>
0

>  <SCORE.SYSTEM.CONST>
0

>  <SCORE.SYSTEM.DIHEDRAL>
0

>  <SCORE.SYSTEM.SOLV>
0

>  <SCORE.SYSTEM.norm>
0

>  <SCORE.heavy>
31

>  <SCORE.norm>
-0.125274

>  <SYMMETRIC_BONDS>
33 34 3

>  <RMSD>
14.445

$$$$
1fmn_cryst
 OpenBabel11021811393D
libRbt.so/2013.1/901 2013/11/27
 31 33  0  0  0  0  0  0  0  0999 V2000
  -16.2820    3.5635   10.4667 N   0  0  0  0  0  0  0  0  0  0  0  0
  -16.3154    3.5250   11.8411 C   0  0  0  0  0  0  0  0  0  0  0  0
  -16.8642    2.6095   12.4553 O   0  0  0  0  0  0  0  0  0  0  0  0
  -15.6833    4.6068   12.5041 N   0  0  0  0  0  0  0  0  0  0  0  0
  -15.0337    5.7046   11.8981 C   0  0  0  0  0  0  0  0  0  0  0  0
  -14.5190    6.5837   12.6007 O   0  0  0  0  0  0  0  0  0  0  0  0
  -15.0423    5.6723   10.4339 C   0  0  0  0  0  0  0  0  0  0  0  0
  -14.4303    6.7047    9.7678 N   0  0  0  0  0  0  0  0  0  0  0  0
  -14.5952    6.7672    8.4145 C   0  0  0  0  0  0  0  0  0  0  0  0
  -14.1413    7.8985    7.7598 C   0  0  0  0  0  0  0  0  0  0  0  0
  -14.2709    8.0286    6.4191 C   0  0  0  0  0  0  0  0  0  0  0  0
  -13.7607    9.2702    5.7598 C   0  0  0  0  0  0  0  0  0  0  0  0
  -14.8557    7.0428    5.6861 C   0  0  0  0  0  0  0  0  0  0  0  0
  -15.0009    7.1978    4.2072 C   0  0  0  0  0  0  0  0  0  0  0  0
  -15.3153    5.9147    6.2853 C   0  0  0  0  0  0  0  0  0  0  0  0
  -15.2057    5.7310    7.6636 C   0  0  0  0  0  0  0  0  0  0  0  0
  -15.6581    4.5838    8.3487 N   0  0  0  0  0  0  0  0  0  0  0  0
  -15.6839    4.5690    9.7583 C   0  0  0  0  0  0  0  0  0  0  0  0
  -15.5593    3.2526    7.6441 C   0  0  0  0  0  0  0  0  0  0  0  0
  -14.2772    3.0155    6.7895 C   0  0  1  0  0  0  0  0  0  0  0  0
  -13.3391    2.2381    7.5199 O   0  0  0  0  0  0  0  0  0  0  0  0
  -14.5755    2.4111    5.3968 C   0  0  1  0  0  0  0  0  0  0  0  0
  -14.5503    3.4297    4.4011 O   0  0  0  0  0  0  0  0  0  0  0  0
  -13.6994    1.2151    4.9496 C   0  0  1  0  0  0  0  0  0  0  0  0
  -14.2861    0.0175    5.4471 O   0  0  0  0  0  0  0  0  0  0  0  0
  -13.5692    1.1045    3.4138 C   0  0  0  0  0  0  0  0  0  0  0  0
  -12.8624   -0.0627    3.0111 O   0  0  0  0  0  0  0  0  0  0  0  0
  -12.5092   -0.3703    1.4972 P   0  0  0  0  0  0  0  0  0  0  0  0
  -13.7104   -0.8131    0.7535 O   0  0  0  0  0  0  0  0  0  0  0  0
  -11.6815    0.7132    0.9245 O   0  5  0  0  0  0  0  0  0  0  0  0
  -11.5665   -1.6505    1.5822 O   0  5  0  0  0  0  0  0  0  0  0  0
  1 18  1  0  0  0  0
  1  2  1  0  0  0  0
  2  4  1  0  0  0  0
  2  3  2  0  0  0  0
  4  5  1  0  0  0  0
  5  7  1  0  0  0  0
  5  6  2  0  0  0  0
  7 18  2  0  0  0  0
  7  8  1  0  0  0  0
  8  9  1  0  0  0  0
  9 10  2  0  0  0  0
  9 16  1  0  0  0  0
 10 11  1  0  0  0  0
 11 12  1  0  0  0  0
 11 13  2  0  0  0  0
 13 14  1  0  0  0  0
 13 15  1  0  0  0  0
 15 16  2  0  0  0  0
 16 17  1  0  0  0  0
 17 19  1  0  0  0  0
 17 18  1  0  0  0  0
 20 19  1  1  0  0  0
 20 22  1  0  0  0  0
 20 21  1  0  0  0  0
 22 24  1  0  0  0  0
 22 23  1  6  0  0  0
 24 26  1  6  0  0  0
 24 25  1  0  0  0  0
 26 27  1  0  0  0  0
 27 28  1  0  0  0  0
 28 30  1  0  0  0  0
 28 29  2  0  0  0  0
 28 31  1  0  0  0  0
M  CHG  2  30  -1  31  -1
M  END
>  <CHROM.1>
39.01827759,99.09773435,100.17733289,-171.20073115,86.65350580,-59.40511601
-174.79384679,-168.03150525,-176.02234514,-74.62032541,-14.35485596,3.57339173
6.63792289,2.65584853,1.29571265,-0.10140555

>  <Name>
1fmn_cryst

>  <RI>
0

>  <Rbt.Current_Directory>
/home/itssahil/PROJECTS/Mol_Feturizer/New_Systems/rnas/1fmn

>  <Rbt.Executable>
rbdock ($Id: //depot/dev/client3/rdock/2013.1/src/exe/rbdock.cxx#4 $)

>  <Rbt.Library>
libRbt.so (2013.1, Build901 2013/11/27)

>  <Rbt.Parameter_File>
/export/apps/rDock/src/rDock_2013.1_src/data/scripts/dock_solv.prm

>  <Rbt.Receptor>
prm/blind_docking_40.prm

>  <SCORE>
-20.2808

>  <SCORE.INTER>
-19.13

>  <SCORE.INTER.CONST>
1

>  <SCORE.INTER.POLAR>
-2.56797

>  <SCORE.INTER.ROT>
7

>  <SCORE.INTER.SOLV>
23.9575

>  <SCORE.INTER.VDW>
-20.446

>  <SCORE.INTER.norm>
-0.617097

>  <SCORE.INTRA>
-2.27613

>  <SCORE.INTRA.DIHEDRAL>
-2.27452

>  <SCORE.INTRA.DIHEDRAL.0>
15.5708

>  <SCORE.INTRA.POLAR>
0.0677885

>  <SCORE.INTRA.POLAR.0>
-0.0677885

>  <SCORE.INTRA.REPUL>
0

>  <SCORE.INTRA.REPUL.0>
0

>  <SCORE.INTRA.SOLV>
-5.10175

>  <SCORE.INTRA.SOLV.lig_0>
-87.6316

>  <SCORE.INTRA.VDW>
1.18153

>  <SCORE.INTRA.VDW.0>
-2.87309

>  <SCORE.INTRA.norm>
-0.0734234

>  <SCORE.RESTR>
1.12538

>  <SCORE.RESTR.CAVITY>
1.12538

>  <SCORE.RESTR.norm>
0.0363024

>  <SCORE.SYSTEM>
0

>  <SCORE.SYSTEM.CONST>
0

>  <SCORE.SYSTEM.DIHEDRAL>
0

>  <SCORE.SYSTEM.SOLV>
0

>  <SCORE.SYSTEM.norm>
0

>  <SCORE.heavy>
31

>  <SCORE.norm>
-0.654218

>  <SYMMETRIC_BONDS>
33 34 3

>  <RMSD>
14.447

$$$$
1fmn_cryst
 OpenBabel11021811393D
libRbt.so/2013.1/901 2013/11/27
 31 33  0  0  0  0  0  0  0  0999 V2000
  -15.0908    5.2965    4.9768 N   0  0  0  0  0  0  0  0  0  0  0  0
  -15.1314    6.3628    4.1091 C   0  0  0  0  0  0  0  0  0  0  0  0
  -14.9516    6.2264    2.8985 O   0  0  0  0  0  0  0  0  0  0  0  0
  -15.3881    7.6270    4.6969 N   0  0  0  0  0  0  0  0  0  0  0  0
  -15.6013    7.8930    6.0673 C   0  0  0  0  0  0  0  0  0  0  0  0
  -15.8179    9.0509    6.4464 O   0  0  0  0  0  0  0  0  0  0  0  0
  -15.5413    6.7069    6.9244 C   0  0  0  0  0  0  0  0  0  0  0  0
  -15.7387    6.8807    8.2716 N   0  0  0  0  0  0  0  0  0  0  0  0
  -15.5044    5.8109    9.0860 C   0  0  0  0  0  0  0  0  0  0  0  0
  -15.5203    6.0238   10.4531 C   0  0  0  0  0  0  0  0  0  0  0  0
  -15.2969    5.0093   11.3204 C   0  0  0  0  0  0  0  0  0  0  0  0
  -15.3282    5.2923   12.7885 C   0  0  0  0  0  0  0  0  0  0  0  0
  -15.0492    3.7533   10.8600 C   0  0  0  0  0  0  0  0  0  0  0  0
  -14.7968    2.6405   11.8245 C   0  0  0  0  0  0  0  0  0  0  0  0
  -15.0246    3.4970    9.5271 C   0  0  0  0  0  0  0  0  0  0  0  0
  -15.2490    4.5068    8.5915 C   0  0  0  0  0  0  0  0  0  0  0  0
  -15.2412    4.3092    7.1947 N   0  0  0  0  0  0  0  0  0  0  0  0
  -15.2824    5.4186    6.3255 C   0  0  0  0  0  0  0  0  0  0  0  0
  -15.7543    2.9933    6.6623 C   0  0  0  0  0  0  0  0  0  0  0  0
  -14.6877    1.8832    6.4166 C   0  0  1  0  0  0  0  0  0  0  0  0
  -15.3165    0.6911    5.9678 O   0  0  0  0  0  0  0  0  0  0  0  0
  -13.5473    2.3312    5.4716 C   0  0  1  0  0  0  0  0  0  0  0  0
  -12.3646    1.5824    5.7359 O   0  0  0  0  0  0  0  0  0  0  0  0
  -13.8502    2.3197    3.9530 C   0  0  1  0  0  0  0  0  0  0  0  0
  -12.7847    2.9786    3.2773 O   0  0  0  0  0  0  0  0  0  0  0  0
  -13.9965    0.8928    3.3785 C   0  0  0  0  0  0  0  0  0  0  0  0
  -12.7636    0.3722    2.8959 O   0  0  0  0  0  0  0  0  0  0  0  0
  -12.6614   -1.0042    2.1172 P   0  0  0  0  0  0  0  0  0  0  0  0
  -12.8270   -2.1484    3.0421 O   0  0  0  0  0  0  0  0  0  0  0  0
  -13.4765   -0.9672    0.8839 O   0  5  0  0  0  0  0  0  0  0  0  0
  -11.1424   -1.0577    1.6433 O   0  5  0  0  0  0  0  0  0  0  0  0
  1 18  1  0  0  0  0
  1  2  1  0  0  0  0
  2  4  1  0  0  0  0
  2  3  2  0  0  0  0
  4  5  1  0  0  0  0
  5  7  1  0  0  0  0
  5  6  2  0  0  0  0
  7 18  2  0  0  0  0
  7  8  1  0  0  0  0
  8  9  1  0  0  0  0
  9 10  2  0  0  0  0
  9 16  1  0  0  0  0
 10 11  1  0  0  0  0
 11 12  1  0  0  0  0
 11 13  2  0  0  0  0
 13 14  1  0  0  0  0
 13 15  1  0  0  0  0
 15 16  2  0  0  0  0
 16 17  1  0  0  0  0
 17 19  1  0  0  0  0
 17 18  1  0  0  0  0
 20 19  1  6  0  0  0
 20 22  1  0  0  0  0
 20 21  1  0  0  0  0
 22 24  1  0  0  0  0
 22 23  1  6  0  0  0
 24 26  1  6  0  0  0
 24 25  1  0  0  0  0
 26 27  1  0  0  0  0
 27 28  1  0  0  0  0
 28 30  1  0  0  0  0
 28 29  2  0  0  0  0
 28 31  1  0  0  0  0
M  CHG  2  30  -1  31  -1
M  END
>  <CHROM.1>
-93.71293775,177.75463693,154.25171154,54.60914650,169.81246412,178.60919048
-91.13982351,-67.62817100,-173.27325970,-73.82068363,-14.40226949,3.35403566
5.94079342,2.78423100,-1.26927191,2.01660045

>  <Name>
1fmn_cryst

>  <RI>
0

>  <Rbt.Current_Directory>
/home/itssahil/PROJECTS/Mol_Feturizer/New_Systems/rnas/1fmn

>  <Rbt.Executable>
rbdock ($Id: //depot/dev/client3/rdock/2013.1/src/exe/rbdock.cxx#4 $)

>  <Rbt.Library>
libRbt.so (2013.1, Build901 2013/11/27)

>  <Rbt.Parameter_File>
/export/apps/rDock/src/rDock_2013.1_src/data/scripts/dock_solv.prm

>  <Rbt.Receptor>
prm/blind_docking_80.prm

>  <SCORE>
-17.0111

>  <SCORE.INTER>
-15.1828

>  <SCORE.INTER.CONST>
1

>  <SCORE.INTER.POLAR>
-2.98431

>  <SCORE.INTER.ROT>
7

>  <SCORE.INTER.SOLV>
27.313

>  <SCORE.INTER.VDW>
-17.5451

>  <SCORE.INTER.norm>
-0.489766

>  <SCORE.INTRA>
-4.80994

>  <SCORE.INTRA.DIHEDRAL>
-6.81392

>  <SCORE.INTRA.DIHEDRAL.0>
15.5708

>  <SCORE.INTRA.POLAR>
0.0634228

>  <SCORE.INTRA.POLAR.0>
-0.0677885

>  <SCORE.INTRA.REPUL>
0

>  <SCORE.INTRA.REPUL.0>
0

>  <SCORE.INTRA.SOLV>
-4.18177

>  <SCORE.INTRA.SOLV.lig_0>
-87.6316

>  <SCORE.INTRA.VDW>
0.472264

>  <SCORE.INTRA.VDW.0>
-2.87309

>  <SCORE.INTRA.norm>
-0.155159

>  <SCORE.RESTR>
2.98157

>  <SCORE.RESTR.CAVITY>
2.98157

>  <SCORE.RESTR.norm>
0.0961797

>  <SCORE.SYSTEM>
0

>  <SCORE.SYSTEM.CONST>
0

>  <SCORE.SYSTEM.DIHEDRAL>
0

>  <SCORE.SYSTEM.SOLV>
0

>  <SCORE.SYSTEM.norm>
0

>  <SCORE.heavy>
31

>  <SCORE.norm>
-0.548746

>  <SYMMETRIC_BONDS>
33 34 3

>  <RMSD>
14.576

$$$$
1fmn_cryst
 OpenBabel11021811393D
libRbt.so/2013.1/901 2013/11/27
 31 33  0  0  0  0  0  0  0  0999 V2000
  -16.7842    6.1396    3.5797 N   0  0  0  0  0  0  0  0  0  0  0  0
  -17.4465    7.1534    2.9277 C   0  0  0  0  0  0  0  0  0  0  0  0
  -18.2747    7.8645    3.4978 O   0  0  0  0  0  0  0  0  0  0  0  0
  -17.1193    7.3238    1.5590 N   0  0  0  0  0  0  0  0  0  0  0  0
  -16.1937    6.5632    0.8114 C   0  0  0  0  0  0  0  0  0  0  0  0
  -16.0019    6.8221   -0.3834 O   0  0  0  0  0  0  0  0  0  0  0  0
  -15.5320    5.5039    1.5765 C   0  0  0  0  0  0  0  0  0  0  0  0
  -14.6165    4.7184    0.9215 N   0  0  0  0  0  0  0  0  0  0  0  0
  -14.1380    3.6241    1.5819 C   0  0  0  0  0  0  0  0  0  0  0  0
  -13.3613    2.7278    0.8693 C   0  0  0  0  0  0  0  0  0  0  0  0
  -12.8529    1.6213    1.4595 C   0  0  0  0  0  0  0  0  0  0  0  0
  -12.0168    0.6861    0.6453 C   0  0  0  0  0  0  0  0  0  0  0  0
  -13.0998    1.3679    2.7732 C   0  0  0  0  0  0  0  0  0  0  0  0
  -12.5402    0.1402    3.4151 C   0  0  0  0  0  0  0  0  0  0  0  0
  -13.8558    2.2194    3.5122 C   0  0  0  0  0  0  0  0  0  0  0  0
  -14.4027    3.3739    2.9522 C   0  0  0  0  0  0  0  0  0  0  0  0
  -15.1931    4.3016    3.6625 N   0  0  0  0  0  0  0  0  0  0  0  0
  -15.8634    5.3318    2.9714 C   0  0  0  0  0  0  0  0  0  0  0  0
  -14.8699    4.5406    5.1174 C   0  0  0  0  0  0  0  0  0  0  0  0
  -15.4834    3.5335    6.1370 C   0  0  1  0  0  0  0  0  0  0  0  0
  -14.6165    2.4212    6.3081 O   0  0  0  0  0  0  0  0  0  0  0  0
  -15.8649    4.1874    7.4864 C   0  0  1  0  0  0  0  0  0  0  0  0
  -16.7833    3.3594    8.1938 O   0  0  0  0  0  0  0  0  0  0  0  0
  -14.6999    4.5996    8.4196 C   0  0  1  0  0  0  0  0  0  0  0  0
  -14.2335    3.4374    9.0962 O   0  0  0  0  0  0  0  0  0  0  0  0
  -13.5172    5.2411    7.6599 C   0  0  0  0  0  0  0  0  0  0  0  0
  -13.9281    6.3149    6.8218 O   0  0  0  0  0  0  0  0  0  0  0  0
  -14.5522    7.6554    7.3915 P   0  0  0  0  0  0  0  0  0  0  0  0
  -16.0085    7.5078    7.6140 O   0  0  0  0  0  0  0  0  0  0  0  0
  -13.7193    8.1930    8.4889 O   0  5  0  0  0  0  0  0  0  0  0  0
  -14.4092    8.6817    6.1827 O   0  5  0  0  0  0  0  0  0  0  0  0
  1 18  1  0  0  0  0
  1  2  1  0  0  0  0
  2  4  1  0  0  0  0
  2  3  2  0  0  0  0
  4  5  1  0  0  0  0
  5  7  1  0  0  0  0
  5  6  2  0  0  0  0
  7 18  2  0  0  0  0
  7  8  1  0  0  0  0
  8  9  1  0  0  0  0
  9 10  2  0  0  0  0
  9 16  1  0  0  0  0
 10 11  1  0  0  0  0
 11 12  1  0  0  0  0
 11 13  2  0  0  0  0
 13 14  1  0  0  0  0
 13 15  1  0  0  0  0
 15 16  2  0  0  0  0
 16 17  1  0  0  0  0
 17 19  1  0  0  0  0
 17 18  1  0  0  0  0
 20 19  1  6  0  0  0
 20 22  1  0  0  0  0
 20 21  1  0  0  0  0
 22 24  1  0  0  0  0
 22 23  1  1  0  0  0
 24 26  1  6  0  0  0
 24 25  1  0  0  0  0
 26 27  1  0  0  0  0
 27 28  1  0  0  0  0
 28 30  1  0  0  0  0
 28 29  2  0  0  0  0
 28 31  1  0  0  0  0
M  CHG  2  30  -1  31  -1
M  END
>  <CHROM.1>
-83.94729504,87.95085289,161.46721531,177.34439604,-79.49758394,-169.23973449
52.30343236,-170.32914418,64.61044812,-84.69455619,-14.90733918,4.91628273
4.55543129,1.29708680,1.10782322,-1.78947642

>  <Name>
1fmn_cryst

>  <RI>
0

>  <Rbt.Current_Directory>
/home/itssahil/PROJECTS/Mol_Feturizer/New_Systems/rnas/1fmn

>  <Rbt.Executable>
rbdock ($Id: //depot/dev/client3/rdock/2013.1/src/exe/rbdock.cxx#4 $)

>  <Rbt.Library>
libRbt.so (2013.1, Build901 2013/11/27)

>  <Rbt.Parameter_File>
/export/apps/rDock/src/rDock_2013.1_src/data/scripts/dock_solv.prm

>  <Rbt.Receptor>
prm/blind_docking_40.prm

>  <SCORE>
-13.0944

>  <SCORE.INTER>
-13.3863

>  <SCORE.INTER.CONST>
1

>  <SCORE.INTER.POLAR>
-1.61937

>  <SCORE.INTER.ROT>
7

>  <SCORE.INTER.SOLV>
18.5645

>  <SCORE.INTER.VDW>
-17.9811

>  <SCORE.INTER.norm>
-0.431816

>  <SCORE.INTRA>
-0.81251

>  <SCORE.INTRA.DIHEDRAL>
-6.56931

>  <SCORE.INTRA.DIHEDRAL.0>
15.5708

>  <SCORE.INTRA.POLAR>
0.0677885

>  <SCORE.INTRA.POLAR.0>
-0.0677885

>  <SCORE.INTRA.REPUL>
0

>  <SCORE.INTRA.REPUL.0>
0

>  <SCORE.INTRA.SOLV>
0.263007

>  <SCORE.INTRA.SOLV.lig_0>
-87.6316

>  <SCORE.INTRA.VDW>
2.11016

>  <SCORE.INTRA.VDW.0>
-2.87309

>  <SCORE.INTRA.norm>
-0.02621

>  <SCORE.RESTR>
1.10439

>  <SCORE.RESTR.CAVITY>
1.10439

>  <SCORE.RESTR.norm>
0.0356255

>  <SCORE.SYSTEM>
0

>  <SCORE.SYSTEM.CONST>
0

>  <SCORE.SYSTEM.DIHEDRAL>
0

>  <SCORE.SYSTEM.SOLV>
0

>  <SCORE.SYSTEM.norm>
0

>  <SCORE.heavy>
31

>  <SCORE.norm>
-0.422401

>  <SYMMETRIC_BONDS>
33 34 3

>  <RMSD>
14.671

$$$$
1fmn_cryst
 OpenBabel11021811393D
libRbt.so/2013.1/901 2013/11/27
 31 33  0  0  0  0  0  0  0  0999 V2000
  -16.2462    3.5330   10.4514 N   0  0  0  0  0  0  0  0  0  0  0  0
  -16.2829    3.4946   11.8257 C   0  0  0  0  0  0  0  0  0  0  0  0
  -16.8181    2.5705   12.4389 O   0  0  0  0  0  0  0  0  0  0  0  0
  -15.6707    4.5872   12.4898 N   0  0  0  0  0  0  0  0  0  0  0  0
  -15.0379    5.6953   11.8850 C   0  0  0  0  0  0  0  0  0  0  0  0
  -14.5398    6.5832   12.5885 O   0  0  0  0  0  0  0  0  0  0  0  0
  -15.0417    5.6621   10.4208 C   0  0  0  0  0  0  0  0  0  0  0  0
  -14.4452    6.7043    9.7558 N   0  0  0  0  0  0  0  0  0  0  0  0
  -14.6073    6.7632    8.4020 C   0  0  0  0  0  0  0  0  0  0  0  0
  -14.1704    7.9016    7.7480 C   0  0  0  0  0  0  0  0  0  0  0  0
  -14.2984    8.0288    6.4068 C   0  0  0  0  0  0  0  0  0  0  0  0
  -13.8070    9.2783    5.7482 C   0  0  0  0  0  0  0  0  0  0  0  0
  -14.8646    7.0330    5.6727 C   0  0  0  0  0  0  0  0  0  0  0  0
  -15.0081    7.1847    4.1934 C   0  0  0  0  0  0  0  0  0  0  0  0
  -15.3069    5.8977    6.2713 C   0  0  0  0  0  0  0  0  0  0  0  0
  -15.1982    5.7165    7.6500 C   0  0  0  0  0  0  0  0  0  0  0  0
  -15.6334    4.5624    8.3345 N   0  0  0  0  0  0  0  0  0  0  0  0
  -15.6630    4.5479    9.7441 C   0  0  0  0  0  0  0  0  0  0  0  0
  -15.5104    3.2326    7.6310 C   0  0  0  0  0  0  0  0  0  0  0  0
  -14.2258    3.0194    6.7740 C   0  0  1  0  0  0  0  0  0  0  0  0
  -13.2481    2.3137    7.5249 O   0  0  0  0  0  0  0  0  0  0  0  0
  -14.5077    2.3482    5.4087 C   0  0  1  0  0  0  0  0  0  0  0  0
  -14.4570    3.3151    4.3636 O   0  0  0  0  0  0  0  0  0  0  0  0
  -13.6360    1.1236    5.0365 C   0  0  1  0  0  0  0  0  0  0  0  0
  -14.2087   -0.0340    5.6348 O   0  0  0  0  0  0  0  0  0  0  0  0
  -13.5350    0.8970    3.5113 C   0  0  0  0  0  0  0  0  0  0  0  0
  -12.7293    1.8775    2.8684 O   0  0  0  0  0  0  0  0  0  0  0  0
  -12.6480    2.0199    1.2922 P   0  0  0  0  0  0  0  0  0  0  0  0
  -12.7085    0.6932    0.6378 O   0  0  0  0  0  0  0  0  0  0  0  0
  -13.5569    3.0855    0.8175 O   0  5  0  0  0  0  0  0  0  0  0  0
  -11.1694    2.5522    1.0372 O   0  5  0  0  0  0  0  0  0  0  0  0
  1 18  1  0  0  0  0
  1  2  1  0  0  0  0
  2  4  1  0  0  0  0
  2  3  2  0  0  0  0
  4  5  1  0  0  0  0
  5  7  1  0  0  0  0
  5  6  2  0  0  0  0
  7 18  2  0  0  0  0
  7  8  1  0  0  0  0
  8  9  1  0  0  0  0
  9 10  2  0  0  0  0
  9 16  1  0  0  0  0
 10 11  1  0  0  0  0
 11 12  1  0  0  0  0
 11 13  2  0  0  0  0
 13 14  1  0  0  0  0
 13 15  1  0  0  0  0
 15 16  2  0  0  0  0
 16 17  1  0  0  0  0
 17 19  1  0  0  0  0
 17 18  1  0  0  0  0
 20 19  1  1  0  0  0
 20 22  1  0  0  0  0
 20 21  1  0  0  0  0
 22 24  1  0  0  0  0
 22 23  1  6  0  0  0
 24 26  1  6  0  0  0
 24 25  1  0  0  0  0
 26 27  1  0  0  0  0
 27 28  1  0  0  0  0
 28 30  1  0  0  0  0
 28 29  2  0  0  0  0
 28 31  1  0  0  0  0
M  CHG  2  30  -1  31  -1
M  END
>  <CHROM.1>
38.69791125,96.44944698,103.63327264,55.09073273,84.05165693,50.06106687
71.74123501,-56.69328099,-169.87448010,-36.23409434,-14.35913858,4.06521696
6.59945799,2.79062316,1.29584272,0.00644422

>  <Name>
1fmn_cryst

>  <RI>
0

>  <Rbt.Current_Directory>
/home/itssahil/PROJECTS/Mol_Feturizer/New_Systems/rnas/1fmn

>  <Rbt.Executable>
rbdock ($Id: //depot/dev/client3/rdock/2013.1/src/exe/rbdock.cxx#4 $)

>  <Rbt.Library>
libRbt.so (2013.1, Build901 2013/11/27)

>  <Rbt.Parameter_File>
/export/apps/rDock/src/rDock_2013.1_src/data/scripts/dock_solv.prm

>  <Rbt.Receptor>
prm/blind_docking_40.prm

>  <SCORE>
-20.5958

>  <SCORE.INTER>
-20.5391

>  <SCORE.INTER.CONST>
1

>  <SCORE.INTER.POLAR>
-2.42272

>  <SCORE.INTER.ROT>
7

>  <SCORE.INTER.SOLV>
17.0225

>  <SCORE.INTER.VDW>
-19.5578

>  <SCORE.INTER.norm>
-0.662552

>  <SCORE.INTRA>
-1.07919

>  <SCORE.INTRA.DIHEDRAL>
-1.08775

>  <SCORE.INTRA.DIHEDRAL.0>
15.5708

>  <SCORE.INTRA.POLAR>
0.0677885

>  <SCORE.INTRA.POLAR.0>
-0.0677885

>  <SCORE.INTRA.REPUL>
0.0115132

>  <SCORE.INTRA.REPUL.0>
0

>  <SCORE.INTRA.SOLV>
-3.78407

>  <SCORE.INTRA.SOLV.lig_0>
-87.6316

>  <SCORE.INTRA.VDW>
1.06867

>  <SCORE.INTRA.VDW.0>
-2.87309

>  <SCORE.INTRA.norm>
-0.0348125

>  <SCORE.RESTR>
1.0225

>  <SCORE.RESTR.CAVITY>
1.0225

>  <SCORE.RESTR.norm>
0.0329838

>  <SCORE.SYSTEM>
0

>  <SCORE.SYSTEM.CONST>
0

>  <SCORE.SYSTEM.DIHEDRAL>
0

>  <SCORE.SYSTEM.SOLV>
0

>  <SCORE.SYSTEM.norm>
0

>  <SCORE.heavy>
31

>  <SCORE.norm>
-0.664381

>  <SYMMETRIC_BONDS>
33 34 3

>  <RMSD>
14.676

$$$$
1fmn_cryst
 OpenBabel11021811393D
libRbt.so/2013.1/901 2013/11/27
 31 33  0  0  0  0  0  0  0  0999 V2000
  -15.4246    6.9882    1.4199 N   0  0  0  0  0  0  0  0  0  0  0  0
  -15.2510    7.9935    0.4976 C   0  0  0  0  0  0  0  0  0  0  0  0
  -16.0445    8.9296    0.3952 O   0  0  0  0  0  0  0  0  0  0  0  0
  -14.1051    7.8807   -0.3294 N   0  0  0  0  0  0  0  0  0  0  0  0
  -13.1402    6.8502   -0.2987 C   0  0  0  0  0  0  0  0  0  0  0  0
  -12.1819    6.8764   -1.0812 O   0  0  0  0  0  0  0  0  0  0  0  0
  -13.3968    5.8188    0.7091 C   0  0  0  0  0  0  0  0  0  0  0  0
  -12.5037    4.7807    0.8035 N   0  0  0  0  0  0  0  0  0  0  0  0
  -12.8378    3.7336    1.6126 C   0  0  0  0  0  0  0  0  0  0  0  0
  -12.0379    2.6053    1.5726 C   0  0  0  0  0  0  0  0  0  0  0  0
  -12.3087    1.5296    2.3478 C   0  0  0  0  0  0  0  0  0  0  0  0
  -11.4107    0.3364    2.2690 C   0  0  0  0  0  0  0  0  0  0  0  0
  -13.3812    1.5380    3.1849 C   0  0  0  0  0  0  0  0  0  0  0  0
  -13.6768    0.3434    4.0320 C   0  0  0  0  0  0  0  0  0  0  0  0
  -14.1935    2.6232    3.2581 C   0  0  0  0  0  0  0  0  0  0  0  0
  -13.9583    3.7574    2.4811 C   0  0  0  0  0  0  0  0  0  0  0  0
  -14.7591    4.9184    2.5105 N   0  0  0  0  0  0  0  0  0  0  0  0
  -14.5626    5.9348    1.5533 C   0  0  0  0  0  0  0  0  0  0  0  0
  -15.3795    5.3181    3.8272 C   0  0  0  0  0  0  0  0  0  0  0  0
  -15.2008    6.8072    4.2525 C   0  0  1  0  0  0  0  0  0  0  0  0
  -16.4586    7.4674    4.2629 O   0  0  0  0  0  0  0  0  0  0  0  0
  -14.4453    6.9725    5.5926 C   0  0  1  0  0  0  0  0  0  0  0  0
  -13.7979    8.2407    5.6409 O   0  0  0  0  0  0  0  0  0  0  0  0
  -15.2609    6.7473    6.8895 C   0  0  1  0  0  0  0  0  0  0  0  0
  -16.1018    7.8775    7.0934 O   0  0  0  0  0  0  0  0  0  0  0  0
  -16.1391    5.4771    6.8361 C   0  0  0  0  0  0  0  0  0  0  0  0
  -15.3683    4.2887    6.7033 O   0  0  0  0  0  0  0  0  0  0  0  0
  -14.2974    3.8377    7.7808 P   0  0  0  0  0  0  0  0  0  0  0  0
  -13.1977    4.8242    7.8782 O   0  0  0  0  0  0  0  0  0  0  0  0
  -14.9638    3.3953    9.0247 O   0  5  0  0  0  0  0  0  0  0  0  0
  -13.6437    2.5348    7.1406 O   0  5  0  0  0  0  0  0  0  0  0  0
  1 18  1  0  0  0  0
  1  2  1  0  0  0  0
  2  4  1  0  0  0  0
  2  3  2  0  0  0  0
  4  5  1  0  0  0  0
  5  7  1  0  0  0  0
  5  6  2  0  0  0  0
  7 18  2  0  0  0  0
  7  8  1  0  0  0  0
  8  9  1  0  0  0  0
  9 10  2  0  0  0  0
  9 16  1  0  0  0  0
 10 11  1  0  0  0  0
 11 12  1  0  0  0  0
 11 13  2  0  0  0  0
 13 14  1  0  0  0  0
 13 15  1  0  0  0  0
 15 16  2  0  0  0  0
 16 17  1  0  0  0  0
 17 19  1  0  0  0  0
 17 18  1  0  0  0  0
 20 19  1  1  0  0  0
 20 22  1  0  0  0  0
 20 21  1  0  0  0  0
 22 24  1  0  0  0  0
 22 23  1  1  0  0  0
 24 26  1  6  0  0  0
 24 25  1  0  0  0  0
 26 27  1  0  0  0  0
 27 28  1  0  0  0  0
 28 30  1  0  0  0  0
 28 29  2  0  0  0  0
 28 31  1  0  0  0  0
M  CHG  2  30  -1  31  -1
M  END
>  <CHROM.1>
130.93198631,113.87919080,154.02981388,-172.55778439,-74.75953463,-66.83858218
62.64813453,65.41483297,60.73954325,-63.29085401,-14.21656252,5.08943801
3.81952232,1.32662127,1.12547387,-1.04014617

>  <Name>
1fmn_cryst

>  <RI>
0

>  <Rbt.Current_Directory>
/home/itssahil/PROJECTS/Mol_Feturizer/New_Systems/rnas/1fmn

>  <Rbt.Executable>
rbdock ($Id: //depot/dev/client3/rdock/2013.1/src/exe/rbdock.cxx#4 $)

>  <Rbt.Library>
libRbt.so (2013.1, Build901 2013/11/27)

>  <Rbt.Parameter_File>
/export/apps/rDock/src/rDock_2013.1_src/data/scripts/dock_solv.prm

>  <Rbt.Receptor>
prm/blind_docking_40.prm

>  <SCORE>
-19.5705

>  <SCORE.INTER>
-18.531

>  <SCORE.INTER.CONST>
1

>  <SCORE.INTER.POLAR>
-2.92526

>  <SCORE.INTER.ROT>
7

>  <SCORE.INTER.SOLV>
24.2302

>  <SCORE.INTER.VDW>
-18.9465

>  <SCORE.INTER.norm>
-0.597773

>  <SCORE.INTRA>
-1.73134

>  <SCORE.INTRA.DIHEDRAL>
-4.31868

>  <SCORE.INTRA.DIHEDRAL.0>
15.5708

>  <SCORE.INTRA.POLAR>
-0.165121

>  <SCORE.INTRA.POLAR.0>
-0.0677885

>  <SCORE.INTRA.REPUL>
0

>  <SCORE.INTRA.REPUL.0>
0

>  <SCORE.INTRA.SOLV>
0.903505

>  <SCORE.INTRA.SOLV.lig_0>
-87.6316

>  <SCORE.INTRA.VDW>
0.537659

>  <SCORE.INTRA.VDW.0>
-2.87309

>  <SCORE.INTRA.norm>
-0.0558496

>  <SCORE.RESTR>
0.691827

>  <SCORE.RESTR.CAVITY>
0.691827

>  <SCORE.RESTR.norm>
0.022317

>  <SCORE.SYSTEM>
0

>  <SCORE.SYSTEM.CONST>
0

>  <SCORE.SYSTEM.DIHEDRAL>
0

>  <SCORE.SYSTEM.SOLV>
0

>  <SCORE.SYSTEM.norm>
0

>  <SCORE.heavy>
31

>  <SCORE.norm>
-0.631306

>  <SYMMETRIC_BONDS>
33 34 3

>  <RMSD>
14.729

$$$$
1fmn_cryst
 OpenBabel11021811393D
libRbt.so/2013.1/901 2013/11/27
 31 33  0  0  0  0  0  0  0  0999 V2000
  -12.9023    2.4409    8.4607 N   0  0  0  0  0  0  0  0  0  0  0  0
  -12.6114    1.2176    7.9036 C   0  0  0  0  0  0  0  0  0  0  0  0
  -12.1886    0.2775    8.5774 O   0  0  0  0  0  0  0  0  0  0  0  0
  -12.8242    1.1097    6.5063 N   0  0  0  0  0  0  0  0  0  0  0  0
  -13.2975    2.1229    5.6439 C   0  0  0  0  0  0  0  0  0  0  0  0
  -13.4395    1.8913    4.4366 O   0  0  0  0  0  0  0  0  0  0  0  0
  -13.5830    3.3942    6.3129 C   0  0  0  0  0  0  0  0  0  0  0  0
  -14.0480    4.4315    5.5435 N   0  0  0  0  0  0  0  0  0  0  0  0
  -14.1404    5.6598    6.1311 C   0  0  0  0  0  0  0  0  0  0  0  0
  -14.4291    6.7436    5.3208 C   0  0  0  0  0  0  0  0  0  0  0  0
  -14.5365    7.9908    5.8349 C   0  0  0  0  0  0  0  0  0  0  0  0
  -14.8534    9.1274    4.9162 C   0  0  0  0  0  0  0  0  0  0  0  0
  -14.3594    8.2027    7.1671 C   0  0  0  0  0  0  0  0  0  0  0  0
  -14.4730    9.5840    7.7252 C   0  0  0  0  0  0  0  0  0  0  0  0
  -14.0754    7.1695    8.0006 C   0  0  0  0  0  0  0  0  0  0  0  0
  -13.9545    5.8651    7.5216 C   0  0  0  0  0  0  0  0  0  0  0  0
  -13.6650    4.7470    8.3316 N   0  0  0  0  0  0  0  0  0  0  0  0
  -13.3688    3.5034    7.7368 C   0  0  0  0  0  0  0  0  0  0  0  0
  -14.2152    4.7285    9.7370 C   0  0  0  0  0  0  0  0  0  0  0  0
  -15.6494    4.1429    9.9109 C   0  0  1  0  0  0  0  0  0  0  0  0
  -15.9153    3.1890    8.8925 O   0  0  0  0  0  0  0  0  0  0  0  0
  -15.9079    3.5717   11.3255 C   0  0  1  0  0  0  0  0  0  0  0  0
  -14.9653    2.5457   11.6232 O   0  0  0  0  0  0  0  0  0  0  0  0
  -15.9663    4.5884   12.4920 C   0  0  1  0  0  0  0  0  0  0  0  0
  -17.3314    4.8033   12.8328 O   0  0  0  0  0  0  0  0  0  0  0  0
  -15.2095    4.1063   13.7500 C   0  0  0  0  0  0  0  0  0  0  0  0
  -13.8395    3.8274   13.4865 O   0  0  0  0  0  0  0  0  0  0  0  0
  -13.0202    2.7302   14.2841 P   0  0  0  0  0  0  0  0  0  0  0  0
  -13.5343    1.3723   13.9946 O   0  0  0  0  0  0  0  0  0  0  0  0
  -11.5668    2.9770   14.1662 O   0  5  0  0  0  0  0  0  0  0  0  0
  -13.3955    3.0110   15.8056 O   0  5  0  0  0  0  0  0  0  0  0  0
  1 18  1  0  0  0  0
  1  2  1  0  0  0  0
  2  4  1  0  0  0  0
  2  3  2  0  0  0  0
  4  5  1  0  0  0  0
  5  7  1  0  0  0  0
  5  6  2  0  0  0  0
  7 18  2  0  0  0  0
  7  8  1  0  0  0  0
  8  9  1  0  0  0  0
  9 10  2  0  0  0  0
  9 16  1  0  0  0  0
 10 11  1  0  0  0  0
 11 12  1  0  0  0  0
 11 13  2  0  0  0  0
 13 14  1  0  0  0  0
 13 15  1  0  0  0  0
 15 16  2  0  0  0  0
 16 17  1  0  0  0  0
 17 19  1  0  0  0  0
 17 18  1  0  0  0  0
 20 19  1  1  0  0  0
 20 22  1  0  0  0  0
 20 21  1  0  0  0  0
 22 24  1  0  0  0  0
 22 23  1  1  0  0  0
 24 26  1  1  0  0  0
 24 25  1  0  0  0  0
 26 27  1  0  0  0  0
 27 28  1  0  0  0  0
 28 30  1  0  0  0  0
 28 29  2  0  0  0  0
 28 31  1  0  0  0  0
M  CHG  2  30  -1  31  -1
M  END
>  <CHROM.1>
87.44039325,27.81964926,-58.42652053,172.88171011,102.31410694,-21.96554437
57.79636342,-171.17459607,-149.87153714,66.66266156,-14.07383458,4.08735563
9.52102004,-1.64353351,-1.22667942,1.85162004

>  <Name>
1fmn_cryst

>  <RI>
0

>  <Rbt.Current_Directory>
/home/itssahil/PROJECTS/Mol_Feturizer/New_Systems/rnas/1fmn

>  <Rbt.Executable>
rbdock ($Id: //depot/dev/client3/rdock/2013.1/src/exe/rbdock.cxx#4 $)

>  <Rbt.Library>
libRbt.so (2013.1, Build901 2013/11/27)

>  <Rbt.Parameter_File>
/export/apps/rDock/src/rDock_2013.1_src/data/scripts/dock_solv.prm

>  <Rbt.Receptor>
prm/blind_docking_100.prm

>  <SCORE>
94.708

>  <SCORE.INTER>
89.5505

>  <SCORE.INTER.CONST>
1

>  <SCORE.INTER.POLAR>
-1.1738

>  <SCORE.INTER.ROT>
7

>  <SCORE.INTER.SOLV>
26.9024

>  <SCORE.INTER.VDW>
46.3788

>  <SCORE.INTER.norm>
2.88872

>  <SCORE.INTRA>
2.2512

>  <SCORE.INTRA.DIHEDRAL>
2.05308

>  <SCORE.INTRA.DIHEDRAL.0>
15.5708

>  <SCORE.INTRA.POLAR>
0.0677885

>  <SCORE.INTRA.POLAR.0>
-0.0677885

>  <SCORE.INTRA.REPUL>
0

>  <SCORE.INTRA.REPUL.0>
0

>  <SCORE.INTRA.SOLV>
-1.25841

>  <SCORE.INTRA.SOLV.lig_0>
-87.6316

>  <SCORE.INTRA.VDW>
1.62339

>  <SCORE.INTRA.VDW.0>
-2.87309

>  <SCORE.INTRA.norm>
0.0726194

>  <SCORE.RESTR>
2.90637

>  <SCORE.RESTR.CAVITY>
2.90637

>  <SCORE.RESTR.norm>
0.093754

>  <SCORE.SYSTEM>
0

>  <SCORE.SYSTEM.CONST>
0

>  <SCORE.SYSTEM.DIHEDRAL>
0

>  <SCORE.SYSTEM.SOLV>
0

>  <SCORE.SYSTEM.norm>
0

>  <SCORE.heavy>
31

>  <SCORE.norm>
3.0551

>  <SYMMETRIC_BONDS>
33 34 3

>  <RMSD>
15.140

$$$$
1fmn_cryst
 OpenBabel11021811393D
libRbt.so/2013.1/901 2013/11/27
 31 33  0  0  0  0  0  0  0  0999 V2000
  -13.8774    2.6151    6.4841 N   0  0  0  0  0  0  0  0  0  0  0  0
  -12.8296    1.9270    5.9183 C   0  0  0  0  0  0  0  0  0  0  0  0
  -12.7638    1.7192    4.7062 O   0  0  0  0  0  0  0  0  0  0  0  0
  -11.8349    1.4689    6.8183 N   0  0  0  0  0  0  0  0  0  0  0  0
  -11.8174    1.6470    8.2190 C   0  0  0  0  0  0  0  0  0  0  0  0
  -10.8806    1.1938    8.8887 O   0  0  0  0  0  0  0  0  0  0  0  0
  -12.9669    2.3879    8.7433 C   0  0  0  0  0  0  0  0  0  0  0  0
  -13.0247    2.6041   10.0976 N   0  0  0  0  0  0  0  0  0  0  0  0
  -14.1774    3.1320   10.6028 C   0  0  0  0  0  0  0  0  0  0  0  0
  -14.3168    3.1815   11.9785 C   0  0  0  0  0  0  0  0  0  0  0  0
  -15.4324    3.6923   12.5493 C   0  0  0  0  0  0  0  0  0  0  0  0
  -15.5317    3.7256   14.0411 C   0  0  0  0  0  0  0  0  0  0  0  0
  -16.4448    4.1680   11.7748 C   0  0  0  0  0  0  0  0  0  0  0  0
  -17.6758    4.7238   12.4134 C   0  0  0  0  0  0  0  0  0  0  0  0
  -16.3519    4.1405   10.4208 C   0  0  0  0  0  0  0  0  0  0  0  0
  -15.2237    3.6252    9.7828 C   0  0  0  0  0  0  0  0  0  0  0  0
  -15.0609    3.5698    8.3826 N   0  0  0  0  0  0  0  0  0  0  0  0
  -13.9790    2.8570    7.8263 C   0  0  0  0  0  0  0  0  0  0  0  0
  -15.6537    4.6847    7.5556 C   0  0  0  0  0  0  0  0  0  0  0  0
  -14.6472    5.5499    6.7379 C   0  0  1  0  0  0  0  0  0  0  0  0
  -14.3824    4.9381    5.4835 O   0  0  0  0  0  0  0  0  0  0  0  0
  -15.0937    7.0234    6.5844 C   0  0  1  0  0  0  0  0  0  0  0  0
  -15.8521    7.4301    7.7197 O   0  0  0  0  0  0  0  0  0  0  0  0
  -13.9857    8.0644    6.2901 C   0  0  1  0  0  0  0  0  0  0  0  0
  -12.7271    7.4856    6.6167 O   0  0  0  0  0  0  0  0  0  0  0  0
  -13.9581    8.5136    4.8119 C   0  0  0  0  0  0  0  0  0  0  0  0
  -14.3738    7.4834    3.9231 O   0  0  0  0  0  0  0  0  0  0  0  0
  -14.4101    7.6724    2.3501 P   0  0  0  0  0  0  0  0  0  0  0  0
  -14.7550    6.4019    1.6728 O   0  0  0  0  0  0  0  0  0  0  0  0
  -15.1616    8.8939    1.9891 O   0  5  0  0  0  0  0  0  0  0  0  0
  -12.8908    7.9579    1.9693 O   0  5  0  0  0  0  0  0  0  0  0  0
  1 18  1  0  0  0  0
  1  2  1  0  0  0  0
  2  4  1  0  0  0  0
  2  3  2  0  0  0  0
  4  5  1  0  0  0  0
  5  7  1  0  0  0  0
  5  6  2  0  0  0  0
  7 18  2  0  0  0  0
  7  8  1  0  0  0  0
  8  9  1  0  0  0  0
  9 10  2  0  0  0  0
  9 16  1  0  0  0  0
 10 11  1  0  0  0  0
 11 12  1  0  0  0  0
 11 13  2  0  0  0  0
 13 14  1  0  0  0  0
 13 15  1  0  0  0  0
 15 16  2  0  0  0  0
 16 17  1  0  0  0  0
 17 19  1  0  0  0  0
 17 18  1  0  0  0  0
 20 19  1  6  0  0  0
 20 22  1  0  0  0  0
 20 21  1  0  0  0  0
 22 24  1  0  0  0  0
 22 23  1  1  0  0  0
 24 26  1  6  0  0  0
 24 25  1  0  0  0  0
 26 27  1  0  0  0  0
 27 28  1  0  0  0  0
 28 30  1  0  0  0  0
 28 29  2  0  0  0  0
 28 31  1  0  0  0  0
M  CHG  2  30  -1  31  -1
M  END
>  <CHROM.1>
117.46583632,85.88541951,30.88398502,163.78333392,-17.23744025,72.73348859
-31.43109941,-71.72006368,-178.76565902,174.49433052,-14.24268722,4.86918971
7.17373684,-1.66004951,0.94215443,-0.99530914

>  <Name>
1fmn_cryst

>  <RI>
0

>  <Rbt.Current_Directory>
/home/itssahil/PROJECTS/Mol_Feturizer/New_Systems/rnas/1fmn

>  <Rbt.Executable>
rbdock ($Id: //depot/dev/client3/rdock/2013.1/src/exe/rbdock.cxx#4 $)

>  <Rbt.Library>
libRbt.so (2013.1, Build901 2013/11/27)

>  <Rbt.Parameter_File>
/export/apps/rDock/src/rDock_2013.1_src/data/scripts/dock_solv.prm

>  <Rbt.Receptor>
prm/blind_docking_80.prm

>  <SCORE>
-39.0088

>  <SCORE.INTER>
-37.6731

>  <SCORE.INTER.CONST>
1

>  <SCORE.INTER.POLAR>
-4.19838

>  <SCORE.INTER.ROT>
7

>  <SCORE.INTER.SOLV>
30.2816

>  <SCORE.INTER.VDW>
-29.4813

>  <SCORE.INTER.norm>
-1.21526

>  <SCORE.INTRA>
-3.28985

>  <SCORE.INTRA.DIHEDRAL>
0.457954

>  <SCORE.INTRA.DIHEDRAL.0>
15.5708

>  <SCORE.INTRA.POLAR>
-0.938883

>  <SCORE.INTRA.POLAR.0>
-0.0677885

>  <SCORE.INTRA.REPUL>
0

>  <SCORE.INTRA.REPUL.0>
0

>  <SCORE.INTRA.SOLV>
-2.61572

>  <SCORE.INTRA.SOLV.lig_0>
-87.6316

>  <SCORE.INTRA.VDW>
0.981237

>  <SCORE.INTRA.VDW.0>
-2.87309

>  <SCORE.INTRA.norm>
-0.106124

>  <SCORE.RESTR>
1.95413

>  <SCORE.RESTR.CAVITY>
1.95413

>  <SCORE.RESTR.norm>
0.0630366

>  <SCORE.SYSTEM>
0

>  <SCORE.SYSTEM.CONST>
0

>  <SCORE.SYSTEM.DIHEDRAL>
0

>  <SCORE.SYSTEM.SOLV>
0

>  <SCORE.SYSTEM.norm>
0

>  <SCORE.heavy>
31

>  <SCORE.norm>
-1.25835

>  <SYMMETRIC_BONDS>
33 34 3

>  <RMSD>
16.107

$$$$
1fmn_cryst
 OpenBabel11021811393D
libRbt.so/2013.1/901 2013/11/27
 31 33  0  0  0  0  0  0  0  0999 V2000
  -13.4558    3.1911    5.5771 N   0  0  0  0  0  0  0  0  0  0  0  0
  -12.6330    2.1903    5.1155 C   0  0  0  0  0  0  0  0  0  0  0  0
  -12.3842    2.0504    3.9176 O   0  0  0  0  0  0  0  0  0  0  0  0
  -12.0950    1.3289    6.1044 N   0  0  0  0  0  0  0  0  0  0  0  0
  -12.3203    1.3975    7.4968 C   0  0  0  0  0  0  0  0  0  0  0  0
  -11.7827    0.5775    8.2517 O   0  0  0  0  0  0  0  0  0  0  0  0
  -13.2069    2.4886    7.9073 C   0  0  0  0  0  0  0  0  0  0  0  0
  -13.4765    2.6243    9.2463 N   0  0  0  0  0  0  0  0  0  0  0  0
  -14.4392    3.5216    9.6076 C   0  0  0  0  0  0  0  0  0  0  0  0
  -14.8479    3.5338   10.9294 C   0  0  0  0  0  0  0  0  0  0  0  0
  -15.7975    4.3970   11.3588 C   0  0  0  0  0  0  0  0  0  0  0  0
  -16.2011    4.3713   12.7985 C   0  0  0  0  0  0  0  0  0  0  0  0
  -16.3726    5.2734   10.4915 C   0  0  0  0  0  0  0  0  0  0  0  0
  -17.4253    6.2182   10.9726 C   0  0  0  0  0  0  0  0  0  0  0  0
  -16.0028    5.2981    9.1856 C   0  0  0  0  0  0  0  0  0  0  0  0
  -15.0287    4.4301    8.6924 C   0  0  0  0  0  0  0  0  0  0  0  0
  -14.5956    4.4052    7.3501 N   0  0  0  0  0  0  0  0  0  0  0  0
  -13.7531    3.3679    6.9003 C   0  0  0  0  0  0  0  0  0  0  0  0
  -14.5470    5.7122    6.5967 C   0  0  0  0  0  0  0  0  0  0  0  0
  -13.7596    6.8735    7.2760 C   0  0  1  0  0  0  0  0  0  0  0  0
  -12.3960    6.8378    6.8794 O   0  0  0  0  0  0  0  0  0  0  0  0
  -14.3982    8.2631    7.0408 C   0  0  1  0  0  0  0  0  0  0  0  0
  -14.0109    9.1652    8.0732 O   0  0  0  0  0  0  0  0  0  0  0  0
  -14.1661    8.9158    5.6559 C   0  0  1  0  0  0  0  0  0  0  0  0
  -12.8402    9.4320    5.6190 O   0  0  0  0  0  0  0  0  0  0  0  0
  -14.3468    7.9244    4.4846 C   0  0  0  0  0  0  0  0  0  0  0  0
  -13.8603    8.4441    3.2528 O   0  0  0  0  0  0  0  0  0  0  0  0
  -14.2989    7.8630    1.8453 P   0  0  0  0  0  0  0  0  0  0  0  0
  -15.4817    8.5831    1.3214 O   0  0  0  0  0  0  0  0  0  0  0  0
  -13.1247    7.6937    0.9623 O   0  5  0  0  0  0  0  0  0  0  0  0
  -14.8123    6.3950    2.1865 O   0  5  0  0  0  0  0  0  0  0  0  0
  1 18  1  0  0  0  0
  1  2  1  0  0  0  0
  2  4  1  0  0  0  0
  2  3  2  0  0  0  0
  4  5  1  0  0  0  0
  5  7  1  0  0  0  0
  5  6  2  0  0  0  0
  7 18  2  0  0  0  0
  7  8  1  0  0  0  0
  8  9  1  0  0  0  0
  9 10  2  0  0  0  0
  9 16  1  0  0  0  0
 10 11  1  0  0  0  0
 11 12  1  0  0  0  0
 11 13  2  0  0  0  0
 13 14  1  0  0  0  0
 13 15  1  0  0  0  0
 15 16  2  0  0  0  0
 16 17  1  0  0  0  0
 17 19  1  0  0  0  0
 17 18  1  0  0  0  0
 20 19  1  6  0  0  0
 20 22  1  0  0  0  0
 20 21  1  0  0  0  0
 22 24  1  0  0  0  0
 22 23  1  1  0  0  0
 24 26  1  6  0  0  0
 24 25  1  0  0  0  0
 26 27  1  0  0  0  0
 27 28  1  0  0  0  0
 28 30  1  0  0  0  0
 28 29  2  0  0  0  0
 28 31  1  0  0  0  0
M  CHG  2  30  -1  31  -1
M  END
>  <CHROM.1>
52.54466454,89.70134449,156.11410455,83.07594619,-76.48383687,144.17489374
-167.42822439,100.76739022,-160.84115373,91.30427398,-14.08950886,5.45354665
6.54488937,-1.72532824,1.13634251,-0.86194438

>  <Name>
1fmn_cryst

>  <RI>
0

>  <Rbt.Current_Directory>
/home/itssahil/PROJECTS/Mol_Feturizer/New_Systems/rnas/1fmn

>  <Rbt.Executable>
rbdock ($Id: //depot/dev/client3/rdock/2013.1/src/exe/rbdock.cxx#4 $)

>  <Rbt.Library>
libRbt.so (2013.1, Build901 2013/11/27)

>  <Rbt.Parameter_File>
/export/apps/rDock/src/rDock_2013.1_src/data/scripts/dock_solv.prm

>  <Rbt.Receptor>
prm/blind_docking_80.prm

>  <SCORE>
-11.6021

>  <SCORE.INTER>
-18.4861

>  <SCORE.INTER.CONST>
1

>  <SCORE.INTER.POLAR>
-2.27406

>  <SCORE.INTER.ROT>
7

>  <SCORE.INTER.SOLV>
31.9163

>  <SCORE.INTER.VDW>
-23.6493

>  <SCORE.INTER.norm>
-0.596325

>  <SCORE.INTRA>
6.32616

>  <SCORE.INTRA.DIHEDRAL>
7.395

>  <SCORE.INTRA.DIHEDRAL.0>
15.5708

>  <SCORE.INTRA.POLAR>
0.0677885

>  <SCORE.INTRA.POLAR.0>
-0.0677885

>  <SCORE.INTRA.REPUL>
0

>  <SCORE.INTRA.REPUL.0>
0

>  <SCORE.INTRA.SOLV>
-4.04766

>  <SCORE.INTRA.SOLV.lig_0>
-87.6316

>  <SCORE.INTRA.VDW>
4.42201

>  <SCORE.INTRA.VDW.0>
-2.87309

>  <SCORE.INTRA.norm>
0.20407

>  <SCORE.RESTR>
0.557814

>  <SCORE.RESTR.CAVITY>
0.557814

>  <SCORE.RESTR.norm>
0.017994

>  <SCORE.SYSTEM>
0

>  <SCORE.SYSTEM.CONST>
0

>  <SCORE.SYSTEM.DIHEDRAL>
0

>  <SCORE.SYSTEM.SOLV>
0

>  <SCORE.SYSTEM.norm>
0

>  <SCORE.heavy>
31

>  <SCORE.norm>
-0.374261

>  <SYMMETRIC_BONDS>
33 34 3

>  <RMSD>
16.177

$$$$
1fmn_cryst
 OpenBabel11021811393D
libRbt.so/2013.1/901 2013/11/27
 31 33  0  0  0  0  0  0  0  0999 V2000
  -13.9695    2.9605    6.4547 N   0  0  0  0  0  0  0  0  0  0  0  0
  -13.0036    2.1980    5.8405 C   0  0  0  0  0  0  0  0  0  0  0  0
  -12.9438    2.0829    4.6159 O   0  0  0  0  0  0  0  0  0  0  0  0
  -12.0863    1.5505    6.7058 N   0  0  0  0  0  0  0  0  0  0  0  0
  -12.0701    1.6109    8.1166 C   0  0  0  0  0  0  0  0  0  0  0  0
  -11.2060    0.9940    8.7523 O   0  0  0  0  0  0  0  0  0  0  0  0
  -13.1298    2.4414    8.6931 C   0  0  0  0  0  0  0  0  0  0  0  0
  -13.1831    2.5524   10.0602 N   0  0  0  0  0  0  0  0  0  0  0  0
  -14.2714    3.1741   10.6001 C   0  0  0  0  0  0  0  0  0  0  0  0
  -14.4261    3.1284   11.9743 C   0  0  0  0  0  0  0  0  0  0  0  0
  -15.4808    3.7233   12.5784 C   0  0  0  0  0  0  0  0  0  0  0  0
  -15.5995    3.6473   14.0672 C   0  0  0  0  0  0  0  0  0  0  0  0
  -16.4155    4.3801   11.8396 C   0  0  0  0  0  0  0  0  0  0  0  0
  -17.5805    5.0282   12.5141 C   0  0  0  0  0  0  0  0  0  0  0  0
  -16.3048    4.4516   10.4885 C   0  0  0  0  0  0  0  0  0  0  0  0
  -15.2370    3.8561    9.8171 C   0  0  0  0  0  0  0  0  0  0  0  0
  -15.0594    3.8950    8.4182 N   0  0  0  0  0  0  0  0  0  0  0  0
  -14.0629    3.1032    7.8117 C   0  0  0  0  0  0  0  0  0  0  0  0
  -15.4995    5.1373    7.6823 C   0  0  0  0  0  0  0  0  0  0  0  0
  -14.4940    5.7181    6.6422 C   0  0  1  0  0  0  0  0  0  0  0  0
  -14.9424    5.4443    5.3224 O   0  0  0  0  0  0  0  0  0  0  0  0
  -14.1954    7.2212    6.8557 C   0  0  1  0  0  0  0  0  0  0  0  0
  -12.8148    7.4131    7.1503 O   0  0  0  0  0  0  0  0  0  0  0  0
  -14.6337    8.1897    5.7298 C   0  0  1  0  0  0  0  0  0  0  0  0
  -14.1595    9.4933    6.0485 O   0  0  0  0  0  0  0  0  0  0  0  0
  -14.0868    7.7870    4.3418 C   0  0  0  0  0  0  0  0  0  0  0  0
  -14.9964    8.0898    3.2906 O   0  0  0  0  0  0  0  0  0  0  0  0
  -14.6366    7.8841    1.7610 P   0  0  0  0  0  0  0  0  0  0  0  0
  -14.8261    6.4720    1.3586 O   0  0  0  0  0  0  0  0  0  0  0  0
  -15.2514    8.9446    0.9338 O   0  5  0  0  0  0  0  0  0  0  0  0
  -13.0652    8.1342    1.7062 O   0  5  0  0  0  0  0  0  0  0  0  0
  1 18  1  0  0  0  0
  1  2  1  0  0  0  0
  2  4  1  0  0  0  0
  2  3  2  0  0  0  0
  4  5  1  0  0  0  0
  5  7  1  0  0  0  0
  5  6  2  0  0  0  0
  7 18  2  0  0  0  0
  7  8  1  0  0  0  0
  8  9  1  0  0  0  0
  9 10  2  0  0  0  0
  9 16  1  0  0  0  0
 10 11  1  0  0  0  0
 11 12  1  0  0  0  0
 11 13  2  0  0  0  0
 13 14  1  0  0  0  0
 13 15  1  0  0  0  0
 15 16  2  0  0  0  0
 16 17  1  0  0  0  0
 17 19  1  0  0  0  0
 17 18  1  0  0  0  0
 20 19  1  1  0  0  0
 20 22  1  0  0  0  0
 20 21  1  0  0  0  0
 22 24  1  0  0  0  0
 22 23  1  6  0  0  0
 24 26  1  6  0  0  0
 24 25  1  0  0  0  0
 26 27  1  0  0  0  0
 27 28  1  0  0  0  0
 28 30  1  0  0  0  0
 28 29  2  0  0  0  0
 28 31  1  0  0  0  0
M  CHG  2  30  -1  31  -1
M  END
>  <CHROM.1>
133.50847492,106.11506592,117.69816397,63.94578302,-174.38964941,60.62671508
145.62364456,-44.14858122,175.07551958,81.71308124,-14.30003982,5.08348134
6.97203801,-1.62738281,1.01738118,-1.01710941

>  <Name>
1fmn_cryst

>  <RI>
0

>  <Rbt.Current_Directory>
/home/itssahil/PROJECTS/Mol_Feturizer/New_Systems/rnas/1fmn

>  <Rbt.Executable>
rbdock ($Id: //depot/dev/client3/rdock/2013.1/src/exe/rbdock.cxx#4 $)

>  <Rbt.Library>
libRbt.so (2013.1, Build901 2013/11/27)

>  <Rbt.Parameter_File>
/export/apps/rDock/src/rDock_2013.1_src/data/scripts/dock_solv.prm

>  <Rbt.Receptor>
prm/blind_docking_80.prm

>  <SCORE>
-23.0742

>  <SCORE.INTER>
-26.0087

>  <SCORE.INTER.CONST>
1

>  <SCORE.INTER.POLAR>
-2.8634

>  <SCORE.INTER.ROT>
7

>  <SCORE.INTER.SOLV>
30.0516

>  <SCORE.INTER.VDW>
-26.0783

>  <SCORE.INTER.norm>
-0.838989

>  <SCORE.INTRA>
1.26405

>  <SCORE.INTRA.DIHEDRAL>
2.48745

>  <SCORE.INTRA.DIHEDRAL.0>
15.5708

>  <SCORE.INTRA.POLAR>
-0.420035

>  <SCORE.INTRA.POLAR.0>
-0.0677885

>  <SCORE.INTRA.REPUL>
0

>  <SCORE.INTRA.REPUL.0>
0

>  <SCORE.INTRA.SOLV>
-3.87233

>  <SCORE.INTRA.SOLV.lig_0>
-87.6316

>  <SCORE.INTRA.VDW>
3.38461

>  <SCORE.INTRA.VDW.0>
-2.87309

>  <SCORE.INTRA.norm>
0.0407757

>  <SCORE.RESTR>
1.67047

>  <SCORE.RESTR.CAVITY>
1.67047

>  <SCORE.RESTR.norm>
0.053886

>  <SCORE.SYSTEM>
0

>  <SCORE.SYSTEM.CONST>
0

>  <SCORE.SYSTEM.DIHEDRAL>
0

>  <SCORE.SYSTEM.SOLV>
0

>  <SCORE.SYSTEM.norm>
0

>  <SCORE.heavy>
31

>  <SCORE.norm>
-0.744327

>  <SYMMETRIC_BONDS>
33 34 3

>  <RMSD>
16.290

$$$$
1fmn_cryst
 OpenBabel11021811393D
libRbt.so/2013.1/901 2013/11/27
 31 33  0  0  0  0  0  0  0  0999 V2000
  -15.0858    3.0214    6.1444 N   0  0  0  0  0  0  0  0  0  0  0  0
  -14.4390    2.3885    5.1087 C   0  0  0  0  0  0  0  0  0  0  0  0
  -14.8896    2.3852    3.9626 O   0  0  0  0  0  0  0  0  0  0  0  0
  -13.2255    1.7375    5.4451 N   0  0  0  0  0  0  0  0  0  0  0  0
  -12.6268    1.6758    6.7226 C   0  0  0  0  0  0  0  0  0  0  0  0
  -11.5580    1.0713    6.8764 O   0  0  0  0  0  0  0  0  0  0  0  0
  -13.3767    2.3725    7.7702 C   0  0  0  0  0  0  0  0  0  0  0  0
  -12.8608    2.3598    9.0421 N   0  0  0  0  0  0  0  0  0  0  0  0
  -13.6454    2.8502   10.0453 C   0  0  0  0  0  0  0  0  0  0  0  0
  -13.2139    2.6737   11.3481 C   0  0  0  0  0  0  0  0  0  0  0  0
  -13.9404    3.1344   12.3927 C   0  0  0  0  0  0  0  0  0  0  0  0
  -13.4276    2.9204   13.7811 C   0  0  0  0  0  0  0  0  0  0  0  0
  -15.1175    3.7823   12.1789 C   0  0  0  0  0  0  0  0  0  0  0  0
  -15.9166    4.2815   13.3384 C   0  0  0  0  0  0  0  0  0  0  0  0
  -15.5800    3.9791   10.9179 C   0  0  0  0  0  0  0  0  0  0  0  0
  -14.8695    3.5247    9.8070 C   0  0  0  0  0  0  0  0  0  0  0  0
  -15.2903    3.6984    8.4717 N   0  0  0  0  0  0  0  0  0  0  0  0
  -14.6115    3.0380    7.4271 C   0  0  0  0  0  0  0  0  0  0  0  0
  -16.0346    4.9642    8.1222 C   0  0  0  0  0  0  0  0  0  0  0  0
  -15.1664    6.2420    7.9131 C   0  0  1  0  0  0  0  0  0  0  0  0
  -14.0482    6.2226    8.7890 O   0  0  0  0  0  0  0  0  0  0  0  0
  -14.7482    6.4611    6.4396 C   0  0  1  0  0  0  0  0  0  0  0  0
  -14.1551    5.2774    5.9138 O   0  0  0  0  0  0  0  0  0  0  0  0
  -15.8395    6.9792    5.4709 C   0  0  1  0  0  0  0  0  0  0  0  0
  -16.2356    8.2792    5.8940 O   0  0  0  0  0  0  0  0  0  0  0  0
  -15.3559    7.0589    4.0055 C   0  0  0  0  0  0  0  0  0  0  0  0
  -16.3321    7.6284    3.1413 O   0  0  0  0  0  0  0  0  0  0  0  0
  -16.0598    7.9022    1.6043 P   0  0  0  0  0  0  0  0  0  0  0  0
  -17.2448    8.5103    0.9577 O   0  0  0  0  0  0  0  0  0  0  0  0
  -14.7418    8.5455    1.4149 O   0  5  0  0  0  0  0  0  0  0  0  0
  -15.9356    6.4439    0.9775 O   0  5  0  0  0  0  0  0  0  0  0  0
  1 18  1  0  0  0  0
  1  2  1  0  0  0  0
  2  4  1  0  0  0  0
  2  3  2  0  0  0  0
  4  5  1  0  0  0  0
  5  7  1  0  0  0  0
  5  6  2  0  0  0  0
  7 18  2  0  0  0  0
  7  8  1  0  0  0  0
  8  9  1  0  0  0  0
  9 10  2  0  0  0  0
  9 16  1  0  0  0  0
 10 11  1  0  0  0  0
 11 12  1  0  0  0  0
 11 13  2  0  0  0  0
 13 14  1  0  0  0  0
 13 15  1  0  0  0  0
 15 16  2  0  0  0  0
 16 17  1  0  0  0  0
 17 19  1  0  0  0  0
 17 18  1  0  0  0  0
 20 19  1  6  0  0  0
 20 22  1  0  0  0  0
 20 21  1  0  0  0  0
 22 24  1  0  0  0  0
 22 23  1  6  0  0  0
 24 26  1  6  0  0  0
 24 25  1  0  0  0  0
 26 27  1  0  0  0  0
 27 28  1  0  0  0  0
 28 30  1  0  0  0  0
 28 29  2  0  0  0  0
 28 31  1  0  0  0  0
M  CHG  2  30  -1  31  -1
M  END
>  <CHROM.1>
79.31985578,-34.26093100,-51.52398881,179.02920842,63.92979195,-172.18431295
-175.63815982,175.77576707,176.36601611,-179.44402770,-14.77086612,4.79320950
6.76515895,-1.15070733,1.09229566,-1.47818567

>  <Name>
1fmn_cryst

>  <RI>
0

>  <Rbt.Current_Directory>
/home/itssahil/PROJECTS/Mol_Feturizer/New_Systems/rnas/1fmn

>  <Rbt.Executable>
rbdock ($Id: //depot/dev/client3/rdock/2013.1/src/exe/rbdock.cxx#4 $)

>  <Rbt.Library>
libRbt.so (2013.1, Build901 2013/11/27)

>  <Rbt.Parameter_File>
/export/apps/rDock/src/rDock_2013.1_src/data/scripts/dock_solv.prm

>  <Rbt.Receptor>
prm/blind_docking_40.prm

>  <SCORE>
-21.2548

>  <SCORE.INTER>
-16.3041

>  <SCORE.INTER.CONST>
1

>  <SCORE.INTER.POLAR>
-0.822492

>  <SCORE.INTER.ROT>
7

>  <SCORE.INTER.SOLV>
18.2168

>  <SCORE.INTER.VDW>
-22.4667

>  <SCORE.INTER.norm>
-0.525939

>  <SCORE.INTRA>
-5.91188

>  <SCORE.INTRA.DIHEDRAL>
-11.3412

>  <SCORE.INTRA.DIHEDRAL.0>
15.5708

>  <SCORE.INTRA.POLAR>
0.0393749

>  <SCORE.INTRA.POLAR.0>
-0.0677885

>  <SCORE.INTRA.REPUL>
0

>  <SCORE.INTRA.REPUL.0>
0

>  <SCORE.INTRA.SOLV>
-2.12407

>  <SCORE.INTRA.SOLV.lig_0>
-87.6316

>  <SCORE.INTRA.VDW>
0.6869

>  <SCORE.INTRA.VDW.0>
-2.87309

>  <SCORE.INTRA.norm>
-0.190706

>  <SCORE.RESTR>
0.961184

>  <SCORE.RESTR.CAVITY>
0.961184

>  <SCORE.RESTR.norm>
0.0310059

>  <SCORE.SYSTEM>
0

>  <SCORE.SYSTEM.CONST>
0

>  <SCORE.SYSTEM.DIHEDRAL>
0

>  <SCORE.SYSTEM.SOLV>
0

>  <SCORE.SYSTEM.norm>
0

>  <SCORE.heavy>
31

>  <SCORE.norm>
-0.685639

>  <SYMMETRIC_BONDS>
33 34 3

>  <RMSD>
16.330

$$$$
