ligand
 OpenBabel11021811423D
libRbt.so/2013.1/901 2013/11/27
 10 11  0  0  0  0  0  0  0  0999 V2000
   11.8293   11.6835    8.6833 N   0  0  0  0  0  0  0  0  0  0  0  0
   11.6503   13.0503    8.6113 C   0  0  0  0  0  0  0  0  0  0  0  0
   11.3387   13.6675    7.4649 N   0  0  0  0  0  0  0  0  0  0  0  0
   11.2252   12.8144    6.4082 C   0  0  0  0  0  0  0  0  0  0  0  0
   11.3931   11.4379    6.4129 C   0  0  0  0  0  0  0  0  0  0  0  0
   11.7217   10.7759    7.6271 C   0  0  0  0  0  0  0  0  0  0  0  0
   11.9127    9.5816    7.8565 O   0  0  0  0  0  0  0  0  0  0  0  0
   11.1886   10.9714    5.1366 N   0  0  0  0  0  0  0  0  0  0  0  0
   10.9008   12.0525    4.3745 C   0  0  0  0  0  0  0  0  0  0  0  0
   10.9165   13.2036    5.1272 N   0  0  0  0  0  0  0  0  0  0  0  0
  1  2  1  0  0  0  0
  1  6  1  0  0  0  0
  2  3  2  0  0  0  0
  3  4  1  0  0  0  0
  4  5  2  0  0  0  0
  4 10  1  0  0  0  0
  5  6  1  0  0  0  0
  5  8  1  0  0  0  0
  6  7  2  0  0  0  0
  8  9  1  0  0  0  0
  9 10  2  0  0  0  0
M  END
>  <CHROM.1>
11.41753109,11.88077879,6.79292993,0.13242768,-1.33720271,0.53224005

>  <Name>
ligand

>  <RI>
0

>  <Rbt.Current_Directory>
/home/itssahil/PROJECTS/Mol_Feturizer/New_Systems/rnas/2EEU

>  <Rbt.Executable>
rbdock ($Id: //depot/dev/client3/rdock/2013.1/src/exe/rbdock.cxx#4 $)

>  <Rbt.Library>
libRbt.so (2013.1, Build901 2013/11/27)

>  <Rbt.Parameter_File>
/export/apps/rDock/src/rDock_2013.1_src/data/scripts/dock_solv.prm

>  <Rbt.Receptor>
prm/pocket_docking_7.prm

>  <SCORE>
-18.4353

>  <SCORE.INTER>
-18.4353

>  <SCORE.INTER.CONST>
1

>  <SCORE.INTER.POLAR>
0

>  <SCORE.INTER.ROT>
0

>  <SCORE.INTER.SOLV>
3.73611

>  <SCORE.INTER.VDW>
-17.1356

>  <SCORE.INTER.norm>
-1.84353

>  <SCORE.INTRA>
0

>  <SCORE.INTRA.DIHEDRAL>
0

>  <SCORE.INTRA.DIHEDRAL.0>
0

>  <SCORE.INTRA.POLAR>
0

>  <SCORE.INTRA.POLAR.0>
0

>  <SCORE.INTRA.REPUL>
0

>  <SCORE.INTRA.REPUL.0>
0

>  <SCORE.INTRA.SOLV>
0

>  <SCORE.INTRA.SOLV.lig_0>
-4.28148

>  <SCORE.INTRA.VDW>
0

>  <SCORE.INTRA.VDW.0>
0

>  <SCORE.INTRA.norm>
0

>  <SCORE.RESTR>
0

>  <SCORE.RESTR.CAVITY>
0

>  <SCORE.RESTR.norm>
0

>  <SCORE.SYSTEM>
0

>  <SCORE.SYSTEM.CONST>
0

>  <SCORE.SYSTEM.DIHEDRAL>
0

>  <SCORE.SYSTEM.SOLV>
0

>  <SCORE.SYSTEM.norm>
0

>  <SCORE.heavy>
10

>  <SCORE.norm>
-1.84353

>  <RMSD>
0.803

$$$$
ligand
 OpenBabel11021811423D
libRbt.so/2013.1/901 2013/11/27
 10 11  0  0  0  0  0  0  0  0999 V2000
   11.8691   11.5474    8.5884 N   0  0  0  0  0  0  0  0  0  0  0  0
   11.6883   12.9159    8.5928 C   0  0  0  0  0  0  0  0  0  0  0  0
   11.3576   13.5934    7.4865 N   0  0  0  0  0  0  0  0  0  0  0  0
   11.2272   12.7980    6.3875 C   0  0  0  0  0  0  0  0  0  0  0  0
   11.3959   11.4235    6.3155 C   0  0  0  0  0  0  0  0  0  0  0  0
   11.7446   10.6977    7.4869 C   0  0  0  0  0  0  0  0  0  0  0  0
   11.9398    9.4930    7.6486 O   0  0  0  0  0  0  0  0  0  0  0  0
   11.1707   11.0260    5.0195 N   0  0  0  0  0  0  0  0  0  0  0  0
   10.8699   12.1460    4.3214 C   0  0  0  0  0  0  0  0  0  0  0  0
   10.8974   13.2550    5.1345 N   0  0  0  0  0  0  0  0  0  0  0  0
  1  2  1  0  0  0  0
  1  6  1  0  0  0  0
  2  3  2  0  0  0  0
  3  4  1  0  0  0  0
  4  5  2  0  0  0  0
  4 10  1  0  0  0  0
  5  6  1  0  0  0  0
  5  8  1  0  0  0  0
  6  7  2  0  0  0  0
  8  9  1  0  0  0  0
  9 10  2  0  0  0  0
M  END
>  <CHROM.1>
11.42628126,11.84538192,6.71835157,0.10012902,-1.32272267,0.55459939

>  <Name>
ligand

>  <RI>
0

>  <Rbt.Current_Directory>
/home/itssahil/PROJECTS/Mol_Feturizer/New_Systems/rnas/2EEU

>  <Rbt.Executable>
rbdock ($Id: //depot/dev/client3/rdock/2013.1/src/exe/rbdock.cxx#4 $)

>  <Rbt.Library>
libRbt.so (2013.1, Build901 2013/11/27)

>  <Rbt.Parameter_File>
/export/apps/rDock/src/rDock_2013.1_src/data/scripts/dock_solv.prm

>  <Rbt.Receptor>
prm/blind_docking_100.prm

>  <SCORE>
-18.3516

>  <SCORE.INTER>
-18.3516

>  <SCORE.INTER.CONST>
1

>  <SCORE.INTER.POLAR>
0

>  <SCORE.INTER.ROT>
0

>  <SCORE.INTER.SOLV>
3.66116

>  <SCORE.INTER.VDW>
-17.0548

>  <SCORE.INTER.norm>
-1.83516

>  <SCORE.INTRA>
0

>  <SCORE.INTRA.DIHEDRAL>
0

>  <SCORE.INTRA.DIHEDRAL.0>
0

>  <SCORE.INTRA.POLAR>
0

>  <SCORE.INTRA.POLAR.0>
0

>  <SCORE.INTRA.REPUL>
0

>  <SCORE.INTRA.REPUL.0>
0

>  <SCORE.INTRA.SOLV>
0

>  <SCORE.INTRA.SOLV.lig_0>
-4.28148

>  <SCORE.INTRA.VDW>
0

>  <SCORE.INTRA.VDW.0>
0

>  <SCORE.INTRA.norm>
0

>  <SCORE.RESTR>
0

>  <SCORE.RESTR.CAVITY>
0

>  <SCORE.RESTR.norm>
0

>  <SCORE.SYSTEM>
0

>  <SCORE.SYSTEM.CONST>
0

>  <SCORE.SYSTEM.DIHEDRAL>
0

>  <SCORE.SYSTEM.SOLV>
0

>  <SCORE.SYSTEM.norm>
0

>  <SCORE.heavy>
10

>  <SCORE.norm>
-1.83516

>  <RMSD>
0.816

$$$$
ligand
 OpenBabel11021811423D
libRbt.so/2013.1/901 2013/11/27
 10 11  0  0  0  0  0  0  0  0999 V2000
   11.8693   10.7315    8.4798 N   0  0  0  0  0  0  0  0  0  0  0  0
   11.4935   12.0154    8.8204 C   0  0  0  0  0  0  0  0  0  0  0  0
   11.0845   12.9031    7.9056 N   0  0  0  0  0  0  0  0  0  0  0  0
   11.0854   12.4069    6.6363 C   0  0  0  0  0  0  0  0  0  0  0  0
   11.4509   11.1330    6.2283 C   0  0  0  0  0  0  0  0  0  0  0  0
   11.8839   10.1847    7.1946 C   0  0  0  0  0  0  0  0  0  0  0  0
   12.2480    9.0168    7.0568 O   0  0  0  0  0  0  0  0  0  0  0  0
   11.3036   11.0551    4.8643 N   0  0  0  0  0  0  0  0  0  0  0  0
   10.8547   12.2656    4.4572 C   0  0  0  0  0  0  0  0  0  0  0  0
   10.7110   13.1215    5.5242 N   0  0  0  0  0  0  0  0  0  0  0  0
  1  2  1  0  0  0  0
  1  6  1  0  0  0  0
  2  3  2  0  0  0  0
  3  4  1  0  0  0  0
  4  5  2  0  0  0  0
  4 10  1  0  0  0  0
  5  6  1  0  0  0  0
  5  8  1  0  0  0  0
  6  7  2  0  0  0  0
  8  9  1  0  0  0  0
  9 10  2  0  0  0  0
M  END
>  <CHROM.1>
11.41467406,11.43724041,6.72561733,0.50256059,-1.23323470,1.19962982

>  <Name>
ligand

>  <RI>
0

>  <Rbt.Current_Directory>
/home/itssahil/PROJECTS/Mol_Feturizer/New_Systems/rnas/2EEU

>  <Rbt.Executable>
rbdock ($Id: //depot/dev/client3/rdock/2013.1/src/exe/rbdock.cxx#4 $)

>  <Rbt.Library>
libRbt.so (2013.1, Build901 2013/11/27)

>  <Rbt.Parameter_File>
/export/apps/rDock/src/rDock_2013.1_src/data/scripts/dock_solv.prm

>  <Rbt.Receptor>
prm/blind_docking_20.prm

>  <SCORE>
-18.4158

>  <SCORE.INTER>
-18.4158

>  <SCORE.INTER.CONST>
1

>  <SCORE.INTER.POLAR>
0

>  <SCORE.INTER.ROT>
0

>  <SCORE.INTER.SOLV>
3.44764

>  <SCORE.INTER.VDW>
-17.0264

>  <SCORE.INTER.norm>
-1.84158

>  <SCORE.INTRA>
0

>  <SCORE.INTRA.DIHEDRAL>
0

>  <SCORE.INTRA.DIHEDRAL.0>
0

>  <SCORE.INTRA.POLAR>
0

>  <SCORE.INTRA.POLAR.0>
0

>  <SCORE.INTRA.REPUL>
0

>  <SCORE.INTRA.REPUL.0>
0

>  <SCORE.INTRA.SOLV>
0

>  <SCORE.INTRA.SOLV.lig_0>
-4.28148

>  <SCORE.INTRA.VDW>
0

>  <SCORE.INTRA.VDW.0>
0

>  <SCORE.INTRA.norm>
0

>  <SCORE.RESTR>
0

>  <SCORE.RESTR.CAVITY>
0

>  <SCORE.RESTR.norm>
0

>  <SCORE.SYSTEM>
0

>  <SCORE.SYSTEM.CONST>
0

>  <SCORE.SYSTEM.DIHEDRAL>
0

>  <SCORE.SYSTEM.SOLV>
0

>  <SCORE.SYSTEM.norm>
0

>  <SCORE.heavy>
10

>  <SCORE.norm>
-1.84158

>  <RMSD>
0.824

$$$$
ligand
 OpenBabel11021811423D
libRbt.so/2013.1/901 2013/11/27
 10 11  0  0  0  0  0  0  0  0999 V2000
   11.7987   11.6516    8.6580 N   0  0  0  0  0  0  0  0  0  0  0  0
   11.6268   13.0195    8.5887 C   0  0  0  0  0  0  0  0  0  0  0  0
   11.3187   13.6406    7.4435 N   0  0  0  0  0  0  0  0  0  0  0  0
   11.2009   12.7902    6.3851 C   0  0  0  0  0  0  0  0  0  0  0  0
   11.3617   11.4129    6.3870 C   0  0  0  0  0  0  0  0  0  0  0  0
   11.6866   10.7467    7.5999 C   0  0  0  0  0  0  0  0  0  0  0  0
   11.8713    9.5509    7.8269 O   0  0  0  0  0  0  0  0  0  0  0  0
   11.1550   10.9501    5.1097 N   0  0  0  0  0  0  0  0  0  0  0  0
   10.8729   12.0342    4.3498 C   0  0  0  0  0  0  0  0  0  0  0  0
   10.8945   13.1836    5.1048 N   0  0  0  0  0  0  0  0  0  0  0  0
  1  2  1  0  0  0  0
  1  6  1  0  0  0  0
  2  3  2  0  0  0  0
  3  4  1  0  0  0  0
  4  5  2  0  0  0  0
  4 10  1  0  0  0  0
  5  6  1  0  0  0  0
  5  8  1  0  0  0  0
  6  7  2  0  0  0  0
  8  9  1  0  0  0  0
  9 10  2  0  0  0  0
M  END
>  <CHROM.1>
11.38832521,11.85486641,6.76795477,0.11323102,-1.33995087,0.51559047

>  <Name>
ligand

>  <RI>
0

>  <Rbt.Current_Directory>
/home/itssahil/PROJECTS/Mol_Feturizer/New_Systems/rnas/2EEU

>  <Rbt.Executable>
rbdock ($Id: //depot/dev/client3/rdock/2013.1/src/exe/rbdock.cxx#4 $)

>  <Rbt.Library>
libRbt.so (2013.1, Build901 2013/11/27)

>  <Rbt.Parameter_File>
/export/apps/rDock/src/rDock_2013.1_src/data/scripts/dock_solv.prm

>  <Rbt.Receptor>
prm/pocket_docking_4.prm

>  <SCORE>
-18.3997

>  <SCORE.INTER>
-18.3997

>  <SCORE.INTER.CONST>
1

>  <SCORE.INTER.POLAR>
0

>  <SCORE.INTER.ROT>
0

>  <SCORE.INTER.SOLV>
3.76504

>  <SCORE.INTER.VDW>
-17.1215

>  <SCORE.INTER.norm>
-1.83997

>  <SCORE.INTRA>
0

>  <SCORE.INTRA.DIHEDRAL>
0

>  <SCORE.INTRA.DIHEDRAL.0>
0

>  <SCORE.INTRA.POLAR>
0

>  <SCORE.INTRA.POLAR.0>
0

>  <SCORE.INTRA.REPUL>
0

>  <SCORE.INTRA.REPUL.0>
0

>  <SCORE.INTRA.SOLV>
0

>  <SCORE.INTRA.SOLV.lig_0>
-4.28148

>  <SCORE.INTRA.VDW>
0

>  <SCORE.INTRA.VDW.0>
0

>  <SCORE.INTRA.norm>
0

>  <SCORE.RESTR>
0

>  <SCORE.RESTR.CAVITY>
0

>  <SCORE.RESTR.norm>
0

>  <SCORE.SYSTEM>
0

>  <SCORE.SYSTEM.CONST>
0

>  <SCORE.SYSTEM.DIHEDRAL>
0

>  <SCORE.SYSTEM.SOLV>
0

>  <SCORE.SYSTEM.norm>
0

>  <SCORE.heavy>
10

>  <SCORE.norm>
-1.83997

>  <RMSD>
0.824

$$$$
ligand
 OpenBabel11021811423D
libRbt.so/2013.1/901 2013/11/27
 10 11  0  0  0  0  0  0  0  0999 V2000
   11.8510   10.7883    8.4743 N   0  0  0  0  0  0  0  0  0  0  0  0
   11.5141   12.0909    8.7831 C   0  0  0  0  0  0  0  0  0  0  0  0
   11.1292   12.9671    7.8470 N   0  0  0  0  0  0  0  0  0  0  0  0
   11.1122   12.4393    6.5906 C   0  0  0  0  0  0  0  0  0  0  0  0
   11.4391   11.1454    6.2142 C   0  0  0  0  0  0  0  0  0  0  0  0
   11.8463   10.2093    7.2033 C   0  0  0  0  0  0  0  0  0  0  0  0
   12.1756    9.0280    7.0942 O   0  0  0  0  0  0  0  0  0  0  0  0
   11.2861   11.0377    4.8528 N   0  0  0  0  0  0  0  0  0  0  0  0
   10.8721   12.2503    4.4161 C   0  0  0  0  0  0  0  0  0  0  0  0
   10.7563   13.1366    5.4615 N   0  0  0  0  0  0  0  0  0  0  0  0
  1  2  1  0  0  0  0
  1  6  1  0  0  0  0
  2  3  2  0  0  0  0
  3  4  1  0  0  0  0
  4  5  2  0  0  0  0
  4 10  1  0  0  0  0
  5  6  1  0  0  0  0
  5  8  1  0  0  0  0
  6  7  2  0  0  0  0
  8  9  1  0  0  0  0
  9 10  2  0  0  0  0
M  END
>  <CHROM.1>
11.41306241,11.46295268,6.70372584,0.46006762,-1.25951263,1.13420646

>  <Name>
ligand

>  <RI>
0

>  <Rbt.Current_Directory>
/home/itssahil/PROJECTS/Mol_Feturizer/New_Systems/rnas/2EEU

>  <Rbt.Executable>
rbdock ($Id: //depot/dev/client3/rdock/2013.1/src/exe/rbdock.cxx#4 $)

>  <Rbt.Library>
libRbt.so (2013.1, Build901 2013/11/27)

>  <Rbt.Parameter_File>
/export/apps/rDock/src/rDock_2013.1_src/data/scripts/dock_solv.prm

>  <Rbt.Receptor>
prm/blind_docking_20.prm

>  <SCORE>
-18.4604

>  <SCORE.INTER>
-18.4604

>  <SCORE.INTER.CONST>
1

>  <SCORE.INTER.POLAR>
0

>  <SCORE.INTER.ROT>
0

>  <SCORE.INTER.SOLV>
3.51353

>  <SCORE.INTER.VDW>
-17.0781

>  <SCORE.INTER.norm>
-1.84604

>  <SCORE.INTRA>
0

>  <SCORE.INTRA.DIHEDRAL>
0

>  <SCORE.INTRA.DIHEDRAL.0>
0

>  <SCORE.INTRA.POLAR>
0

>  <SCORE.INTRA.POLAR.0>
0

>  <SCORE.INTRA.REPUL>
0

>  <SCORE.INTRA.REPUL.0>
0

>  <SCORE.INTRA.SOLV>
0

>  <SCORE.INTRA.SOLV.lig_0>
-4.28148

>  <SCORE.INTRA.VDW>
0

>  <SCORE.INTRA.VDW.0>
0

>  <SCORE.INTRA.norm>
0

>  <SCORE.RESTR>
0

>  <SCORE.RESTR.CAVITY>
0

>  <SCORE.RESTR.norm>
0

>  <SCORE.SYSTEM>
0

>  <SCORE.SYSTEM.CONST>
0

>  <SCORE.SYSTEM.DIHEDRAL>
0

>  <SCORE.SYSTEM.SOLV>
0

>  <SCORE.SYSTEM.norm>
0

>  <SCORE.heavy>
10

>  <SCORE.norm>
-1.84604

>  <RMSD>
0.828

$$$$
ligand
 OpenBabel11021811423D
libRbt.so/2013.1/901 2013/11/27
 10 11  0  0  0  0  0  0  0  0999 V2000
   12.0075   11.4247    8.4707 N   0  0  0  0  0  0  0  0  0  0  0  0
   11.7886   12.7833    8.5797 C   0  0  0  0  0  0  0  0  0  0  0  0
   11.3900   13.5253    7.5392 N   0  0  0  0  0  0  0  0  0  0  0  0
   11.2331   12.8046    6.3932 C   0  0  0  0  0  0  0  0  0  0  0  0
   11.4370   11.4444    6.2169 C   0  0  0  0  0  0  0  0  0  0  0  0
   11.8580   10.6502    7.3180 C   0  0  0  0  0  0  0  0  0  0  0  0
   12.0941    9.4438    7.3856 O   0  0  0  0  0  0  0  0  0  0  0  0
   11.1655   11.1311    4.9068 N   0  0  0  0  0  0  0  0  0  0  0  0
   10.8023   12.2870    4.3031 C   0  0  0  0  0  0  0  0  0  0  0  0
   10.8349   13.3371    5.1908 N   0  0  0  0  0  0  0  0  0  0  0  0
  1  2  1  0  0  0  0
  1  6  1  0  0  0  0
  2  3  2  0  0  0  0
  3  4  1  0  0  0  0
  4  5  2  0  0  0  0
  4 10  1  0  0  0  0
  5  6  1  0  0  0  0
  5  8  1  0  0  0  0
  6  7  2  0  0  0  0
  8  9  1  0  0  0  0
  9 10  2  0  0  0  0
M  END
>  <CHROM.1>
11.47347469,11.83797165,6.64695858,0.10166315,-1.26990454,0.62635519

>  <Name>
ligand

>  <RI>
0

>  <Rbt.Current_Directory>
/home/itssahil/PROJECTS/Mol_Feturizer/New_Systems/rnas/2EEU

>  <Rbt.Executable>
rbdock ($Id: //depot/dev/client3/rdock/2013.1/src/exe/rbdock.cxx#4 $)

>  <Rbt.Library>
libRbt.so (2013.1, Build901 2013/11/27)

>  <Rbt.Parameter_File>
/export/apps/rDock/src/rDock_2013.1_src/data/scripts/dock_solv.prm

>  <Rbt.Receptor>
prm/blind_docking_80.prm

>  <SCORE>
-18.4736

>  <SCORE.INTER>
-18.4736

>  <SCORE.INTER.CONST>
1

>  <SCORE.INTER.POLAR>
0

>  <SCORE.INTER.ROT>
0

>  <SCORE.INTER.SOLV>
3.46044

>  <SCORE.INTER.VDW>
-17.0692

>  <SCORE.INTER.norm>
-1.84736

>  <SCORE.INTRA>
0

>  <SCORE.INTRA.DIHEDRAL>
0

>  <SCORE.INTRA.DIHEDRAL.0>
0

>  <SCORE.INTRA.POLAR>
0

>  <SCORE.INTRA.POLAR.0>
0

>  <SCORE.INTRA.REPUL>
0

>  <SCORE.INTRA.REPUL.0>
0

>  <SCORE.INTRA.SOLV>
0

>  <SCORE.INTRA.SOLV.lig_0>
-4.28148

>  <SCORE.INTRA.VDW>
0

>  <SCORE.INTRA.VDW.0>
0

>  <SCORE.INTRA.norm>
0

>  <SCORE.RESTR>
0

>  <SCORE.RESTR.CAVITY>
0

>  <SCORE.RESTR.norm>
0

>  <SCORE.SYSTEM>
0

>  <SCORE.SYSTEM.CONST>
0

>  <SCORE.SYSTEM.DIHEDRAL>
0

>  <SCORE.SYSTEM.SOLV>
0

>  <SCORE.SYSTEM.norm>
0

>  <SCORE.heavy>
10

>  <SCORE.norm>
-1.84736

>  <RMSD>
0.829

$$$$
ligand
 OpenBabel11021811423D
libRbt.so/2013.1/901 2013/11/27
 10 11  0  0  0  0  0  0  0  0999 V2000
   11.8382   10.7892    8.4689 N   0  0  0  0  0  0  0  0  0  0  0  0
   11.5096   12.0931    8.7811 C   0  0  0  0  0  0  0  0  0  0  0  0
   11.1345   12.9754    7.8468 N   0  0  0  0  0  0  0  0  0  0  0  0
   11.1183   12.4522    6.5885 C   0  0  0  0  0  0  0  0  0  0  0  0
   11.4371   11.1573    6.2086 C   0  0  0  0  0  0  0  0  0  0  0  0
   11.8339   10.2147    7.1958 C   0  0  0  0  0  0  0  0  0  0  0  0
   12.1549    9.0315    7.0836 O   0  0  0  0  0  0  0  0  0  0  0  0
   11.2883   11.0556    4.8463 N   0  0  0  0  0  0  0  0  0  0  0  0
   10.8848   12.2727    4.4125 C   0  0  0  0  0  0  0  0  0  0  0  0
   10.7716   13.1561    5.4606 N   0  0  0  0  0  0  0  0  0  0  0  0
  1  2  1  0  0  0  0
  1  6  1  0  0  0  0
  2  3  2  0  0  0  0
  3  4  1  0  0  0  0
  4  5  2  0  0  0  0
  4 10  1  0  0  0  0
  5  6  1  0  0  0  0
  5  8  1  0  0  0  0
  6  7  2  0  0  0  0
  8  9  1  0  0  0  0
  9 10  2  0  0  0  0
M  END
>  <CHROM.1>
11.41162057,11.47329359,6.69913266,0.46081406,-1.26766529,1.13850681

>  <Name>
ligand

>  <RI>
0

>  <Rbt.Current_Directory>
/home/itssahil/PROJECTS/Mol_Feturizer/New_Systems/rnas/2EEU

>  <Rbt.Executable>
rbdock ($Id: //depot/dev/client3/rdock/2013.1/src/exe/rbdock.cxx#4 $)

>  <Rbt.Library>
libRbt.so (2013.1, Build901 2013/11/27)

>  <Rbt.Parameter_File>
/export/apps/rDock/src/rDock_2013.1_src/data/scripts/dock_solv.prm

>  <Rbt.Receptor>
prm/blind_docking_20.prm

>  <SCORE>
-18.4364

>  <SCORE.INTER>
-18.4364

>  <SCORE.INTER.CONST>
1

>  <SCORE.INTER.POLAR>
0

>  <SCORE.INTER.ROT>
0

>  <SCORE.INTER.SOLV>
3.54277

>  <SCORE.INTER.VDW>
-17.0719

>  <SCORE.INTER.norm>
-1.84364

>  <SCORE.INTRA>
0

>  <SCORE.INTRA.DIHEDRAL>
0

>  <SCORE.INTRA.DIHEDRAL.0>
0

>  <SCORE.INTRA.POLAR>
0

>  <SCORE.INTRA.POLAR.0>
0

>  <SCORE.INTRA.REPUL>
0

>  <SCORE.INTRA.REPUL.0>
0

>  <SCORE.INTRA.SOLV>
0

>  <SCORE.INTRA.SOLV.lig_0>
-4.28148

>  <SCORE.INTRA.VDW>
0

>  <SCORE.INTRA.VDW.0>
0

>  <SCORE.INTRA.norm>
0

>  <SCORE.RESTR>
0

>  <SCORE.RESTR.CAVITY>
0

>  <SCORE.RESTR.norm>
0

>  <SCORE.SYSTEM>
0

>  <SCORE.SYSTEM.CONST>
0

>  <SCORE.SYSTEM.DIHEDRAL>
0

>  <SCORE.SYSTEM.SOLV>
0

>  <SCORE.SYSTEM.norm>
0

>  <SCORE.heavy>
10

>  <SCORE.norm>
-1.84364

>  <RMSD>
0.832

$$$$
ligand
 OpenBabel11021811423D
libRbt.so/2013.1/901 2013/11/27
 10 11  0  0  0  0  0  0  0  0999 V2000
   11.8337   10.7839    8.4732 N   0  0  0  0  0  0  0  0  0  0  0  0
   11.5134   12.0906    8.7827 C   0  0  0  0  0  0  0  0  0  0  0  0
   11.1413   12.9726    7.8468 N   0  0  0  0  0  0  0  0  0  0  0  0
   11.1192   12.4462    6.5900 C   0  0  0  0  0  0  0  0  0  0  0  0
   11.4295   11.1484    6.2128 C   0  0  0  0  0  0  0  0  0  0  0  0
   11.8231   10.2061    7.2016 C   0  0  0  0  0  0  0  0  0  0  0  0
   12.1369    9.0208    7.0919 O   0  0  0  0  0  0  0  0  0  0  0  0
   11.2770   11.0439    4.8511 N   0  0  0  0  0  0  0  0  0  0  0  0
   10.8795   12.2622    4.4150 C   0  0  0  0  0  0  0  0  0  0  0  0
   10.7740   13.1490    5.4610 N   0  0  0  0  0  0  0  0  0  0  0  0
  1  2  1  0  0  0  0
  1  6  1  0  0  0  0
  2  3  2  0  0  0  0
  3  4  1  0  0  0  0
  4  5  2  0  0  0  0
  4 10  1  0  0  0  0
  5  6  1  0  0  0  0
  5  8  1  0  0  0  0
  6  7  2  0  0  0  0
  8  9  1  0  0  0  0
  9 10  2  0  0  0  0
M  END
>  <CHROM.1>
11.40698494,11.46582127,6.70259328,0.44533875,-1.27196864,1.12104635

>  <Name>
ligand

>  <RI>
0

>  <Rbt.Current_Directory>
/home/itssahil/PROJECTS/Mol_Feturizer/New_Systems/rnas/2EEU

>  <Rbt.Executable>
rbdock ($Id: //depot/dev/client3/rdock/2013.1/src/exe/rbdock.cxx#4 $)

>  <Rbt.Library>
libRbt.so (2013.1, Build901 2013/11/27)

>  <Rbt.Parameter_File>
/export/apps/rDock/src/rDock_2013.1_src/data/scripts/dock_solv.prm

>  <Rbt.Receptor>
prm/blind_docking_20.prm

>  <SCORE>
-18.4669

>  <SCORE.INTER>
-18.4669

>  <SCORE.INTER.CONST>
1

>  <SCORE.INTER.POLAR>
0

>  <SCORE.INTER.ROT>
0

>  <SCORE.INTER.SOLV>
3.56369

>  <SCORE.INTER.VDW>
-17.0991

>  <SCORE.INTER.norm>
-1.84669

>  <SCORE.INTRA>
0

>  <SCORE.INTRA.DIHEDRAL>
0

>  <SCORE.INTRA.DIHEDRAL.0>
0

>  <SCORE.INTRA.POLAR>
0

>  <SCORE.INTRA.POLAR.0>
0

>  <SCORE.INTRA.REPUL>
0

>  <SCORE.INTRA.REPUL.0>
0

>  <SCORE.INTRA.SOLV>
0

>  <SCORE.INTRA.SOLV.lig_0>
-4.28148

>  <SCORE.INTRA.VDW>
0

>  <SCORE.INTRA.VDW.0>
0

>  <SCORE.INTRA.norm>
0

>  <SCORE.RESTR>
0

>  <SCORE.RESTR.CAVITY>
0

>  <SCORE.RESTR.norm>
0

>  <SCORE.SYSTEM>
0

>  <SCORE.SYSTEM.CONST>
0

>  <SCORE.SYSTEM.DIHEDRAL>
0

>  <SCORE.SYSTEM.SOLV>
0

>  <SCORE.SYSTEM.norm>
0

>  <SCORE.heavy>
10

>  <SCORE.norm>
-1.84669

>  <RMSD>
0.832

$$$$
ligand
 OpenBabel11021811423D
libRbt.so/2013.1/901 2013/11/27
 10 11  0  0  0  0  0  0  0  0999 V2000
   11.8377   10.7847    8.4716 N   0  0  0  0  0  0  0  0  0  0  0  0
   11.5173   12.0912    8.7816 C   0  0  0  0  0  0  0  0  0  0  0  0
   11.1417   12.9726    7.8466 N   0  0  0  0  0  0  0  0  0  0  0  0
   11.1163   12.4458    6.5900 C   0  0  0  0  0  0  0  0  0  0  0  0
   11.4266   11.1481    6.2123 C   0  0  0  0  0  0  0  0  0  0  0  0
   11.8238   10.2065    7.2002 C   0  0  0  0  0  0  0  0  0  0  0  0
   12.1383    9.0214    7.0900 O   0  0  0  0  0  0  0  0  0  0  0  0
   11.2701   11.0431    4.8511 N   0  0  0  0  0  0  0  0  0  0  0  0
   10.8704   12.2610    4.4158 C   0  0  0  0  0  0  0  0  0  0  0  0
   10.7672   13.1480    5.4618 N   0  0  0  0  0  0  0  0  0  0  0  0
  1  2  1  0  0  0  0
  1  6  1  0  0  0  0
  2  3  2  0  0  0  0
  3  4  1  0  0  0  0
  4  5  2  0  0  0  0
  4 10  1  0  0  0  0
  5  6  1  0  0  0  0
  5  8  1  0  0  0  0
  6  7  2  0  0  0  0
  8  9  1  0  0  0  0
  9 10  2  0  0  0  0
M  END
>  <CHROM.1>
11.40522722,11.46573114,6.70205269,0.43762340,-1.26994296,1.11337244

>  <Name>
ligand

>  <RI>
0

>  <Rbt.Current_Directory>
/home/itssahil/PROJECTS/Mol_Feturizer/New_Systems/rnas/2EEU

>  <Rbt.Executable>
rbdock ($Id: //depot/dev/client3/rdock/2013.1/src/exe/rbdock.cxx#4 $)

>  <Rbt.Library>
libRbt.so (2013.1, Build901 2013/11/27)

>  <Rbt.Parameter_File>
/export/apps/rDock/src/rDock_2013.1_src/data/scripts/dock_solv.prm

>  <Rbt.Receptor>
prm/blind_docking_20.prm

>  <SCORE>
-18.4691

>  <SCORE.INTER>
-18.4691

>  <SCORE.INTER.CONST>
1

>  <SCORE.INTER.POLAR>
0

>  <SCORE.INTER.ROT>
0

>  <SCORE.INTER.SOLV>
3.55908

>  <SCORE.INTER.VDW>
-17.0991

>  <SCORE.INTER.norm>
-1.84691

>  <SCORE.INTRA>
0

>  <SCORE.INTRA.DIHEDRAL>
0

>  <SCORE.INTRA.DIHEDRAL.0>
0

>  <SCORE.INTRA.POLAR>
0

>  <SCORE.INTRA.POLAR.0>
0

>  <SCORE.INTRA.REPUL>
0

>  <SCORE.INTRA.REPUL.0>
0

>  <SCORE.INTRA.SOLV>
0

>  <SCORE.INTRA.SOLV.lig_0>
-4.28148

>  <SCORE.INTRA.VDW>
0

>  <SCORE.INTRA.VDW.0>
0

>  <SCORE.INTRA.norm>
0

>  <SCORE.RESTR>
0

>  <SCORE.RESTR.CAVITY>
0

>  <SCORE.RESTR.norm>
0

>  <SCORE.SYSTEM>
0

>  <SCORE.SYSTEM.CONST>
0

>  <SCORE.SYSTEM.DIHEDRAL>
0

>  <SCORE.SYSTEM.SOLV>
0

>  <SCORE.SYSTEM.norm>
0

>  <SCORE.heavy>
10

>  <SCORE.norm>
-1.84691

>  <RMSD>
0.832

$$$$
ligand
 OpenBabel11021811423D
libRbt.so/2013.1/901 2013/11/27
 10 11  0  0  0  0  0  0  0  0999 V2000
   11.8407   10.7862    8.4693 N   0  0  0  0  0  0  0  0  0  0  0  0
   11.5152   12.0915    8.7792 C   0  0  0  0  0  0  0  0  0  0  0  0
   11.1358   12.9712    7.8441 N   0  0  0  0  0  0  0  0  0  0  0  0
   11.1120   12.4440    6.5876 C   0  0  0  0  0  0  0  0  0  0  0  0
   11.4273   11.1475    6.2101 C   0  0  0  0  0  0  0  0  0  0  0  0
   11.8287   10.2076    7.1981 C   0  0  0  0  0  0  0  0  0  0  0  0
   12.1478    9.0238    7.0880 O   0  0  0  0  0  0  0  0  0  0  0  0
   11.2708   11.0415    4.8490 N   0  0  0  0  0  0  0  0  0  0  0  0
   10.8660   12.2577    4.4135 C   0  0  0  0  0  0  0  0  0  0  0  0
   10.7597   13.1446    5.4594 N   0  0  0  0  0  0  0  0  0  0  0  0
  1  2  1  0  0  0  0
  1  6  1  0  0  0  0
  2  3  2  0  0  0  0
  3  4  1  0  0  0  0
  4  5  2  0  0  0  0
  4 10  1  0  0  0  0
  5  6  1  0  0  0  0
  5  8  1  0  0  0  0
  6  7  2  0  0  0  0
  8  9  1  0  0  0  0
  9 10  2  0  0  0  0
M  END
>  <CHROM.1>
11.40489467,11.46509245,6.69979028,0.44232516,-1.26620530,1.11763463

>  <Name>
ligand

>  <RI>
0

>  <Rbt.Current_Directory>
/home/itssahil/PROJECTS/Mol_Feturizer/New_Systems/rnas/2EEU

>  <Rbt.Executable>
rbdock ($Id: //depot/dev/client3/rdock/2013.1/src/exe/rbdock.cxx#4 $)

>  <Rbt.Library>
libRbt.so (2013.1, Build901 2013/11/27)

>  <Rbt.Parameter_File>
/export/apps/rDock/src/rDock_2013.1_src/data/scripts/dock_solv.prm

>  <Rbt.Receptor>
prm/blind_docking_20.prm

>  <SCORE>
-18.467

>  <SCORE.INTER>
-18.467

>  <SCORE.INTER.CONST>
1

>  <SCORE.INTER.POLAR>
0

>  <SCORE.INTER.ROT>
0

>  <SCORE.INTER.SOLV>
3.54744

>  <SCORE.INTER.VDW>
-17.0938

>  <SCORE.INTER.norm>
-1.8467

>  <SCORE.INTRA>
0

>  <SCORE.INTRA.DIHEDRAL>
0

>  <SCORE.INTRA.DIHEDRAL.0>
0

>  <SCORE.INTRA.POLAR>
0

>  <SCORE.INTRA.POLAR.0>
0

>  <SCORE.INTRA.REPUL>
0

>  <SCORE.INTRA.REPUL.0>
0

>  <SCORE.INTRA.SOLV>
0

>  <SCORE.INTRA.SOLV.lig_0>
-4.28148

>  <SCORE.INTRA.VDW>
0

>  <SCORE.INTRA.VDW.0>
0

>  <SCORE.INTRA.norm>
0

>  <SCORE.RESTR>
0

>  <SCORE.RESTR.CAVITY>
0

>  <SCORE.RESTR.norm>
0

>  <SCORE.SYSTEM>
0

>  <SCORE.SYSTEM.CONST>
0

>  <SCORE.SYSTEM.DIHEDRAL>
0

>  <SCORE.SYSTEM.SOLV>
0

>  <SCORE.SYSTEM.norm>
0

>  <SCORE.heavy>
10

>  <SCORE.norm>
-1.8467

>  <RMSD>
0.834

$$$$
ligand
 OpenBabel11021811423D
libRbt.so/2013.1/901 2013/11/27
 10 11  0  0  0  0  0  0  0  0999 V2000
   12.0078   11.4231    8.4662 N   0  0  0  0  0  0  0  0  0  0  0  0
   11.8168   12.7860    8.5746 C   0  0  0  0  0  0  0  0  0  0  0  0
   11.4259   13.5343    7.5356 N   0  0  0  0  0  0  0  0  0  0  0  0
   11.2468   12.8152    6.3919 C   0  0  0  0  0  0  0  0  0  0  0  0
   11.4223   11.4509    6.2164 C   0  0  0  0  0  0  0  0  0  0  0  0
   11.8350   10.6501    7.3158 C   0  0  0  0  0  0  0  0  0  0  0  0
   12.0474    9.4394    7.3837 O   0  0  0  0  0  0  0  0  0  0  0  0
   11.1356   11.1412    4.9086 N   0  0  0  0  0  0  0  0  0  0  0  0
   10.7914   12.3033    4.3057 C   0  0  0  0  0  0  0  0  0  0  0  0
   10.8510   13.3538    5.1914 N   0  0  0  0  0  0  0  0  0  0  0  0
  1  2  1  0  0  0  0
  1  6  1  0  0  0  0
  2  3  2  0  0  0  0
  3  4  1  0  0  0  0
  4  5  2  0  0  0  0
  4 10  1  0  0  0  0
  5  6  1  0  0  0  0
  5  8  1  0  0  0  0
  6  7  2  0  0  0  0
  8  9  1  0  0  0  0
  9 10  2  0  0  0  0
M  END
>  <CHROM.1>
11.46957789,11.84432828,6.64552729,0.03224914,-1.27534627,0.55848660

>  <Name>
ligand

>  <RI>
0

>  <Rbt.Current_Directory>
/home/itssahil/PROJECTS/Mol_Feturizer/New_Systems/rnas/2EEU

>  <Rbt.Executable>
rbdock ($Id: //depot/dev/client3/rdock/2013.1/src/exe/rbdock.cxx#4 $)

>  <Rbt.Library>
libRbt.so (2013.1, Build901 2013/11/27)

>  <Rbt.Parameter_File>
/export/apps/rDock/src/rDock_2013.1_src/data/scripts/dock_solv.prm

>  <Rbt.Receptor>
prm/blind_docking_100.prm

>  <SCORE>
-18.4062

>  <SCORE.INTER>
-18.4062

>  <SCORE.INTER.CONST>
1

>  <SCORE.INTER.POLAR>
0

>  <SCORE.INTER.ROT>
0

>  <SCORE.INTER.SOLV>
3.50515

>  <SCORE.INTER.VDW>
-17.0392

>  <SCORE.INTER.norm>
-1.84062

>  <SCORE.INTRA>
0

>  <SCORE.INTRA.DIHEDRAL>
0

>  <SCORE.INTRA.DIHEDRAL.0>
0

>  <SCORE.INTRA.POLAR>
0

>  <SCORE.INTRA.POLAR.0>
0

>  <SCORE.INTRA.REPUL>
0

>  <SCORE.INTRA.REPUL.0>
0

>  <SCORE.INTRA.SOLV>
0

>  <SCORE.INTRA.SOLV.lig_0>
-4.28148

>  <SCORE.INTRA.VDW>
0

>  <SCORE.INTRA.VDW.0>
0

>  <SCORE.INTRA.norm>
0

>  <SCORE.RESTR>
0

>  <SCORE.RESTR.CAVITY>
0

>  <SCORE.RESTR.norm>
0

>  <SCORE.SYSTEM>
0

>  <SCORE.SYSTEM.CONST>
0

>  <SCORE.SYSTEM.DIHEDRAL>
0

>  <SCORE.SYSTEM.SOLV>
0

>  <SCORE.SYSTEM.norm>
0

>  <SCORE.heavy>
10

>  <SCORE.norm>
-1.84062

>  <RMSD>
0.835

$$$$
ligand
 OpenBabel11021811423D
libRbt.so/2013.1/901 2013/11/27
 10 11  0  0  0  0  0  0  0  0999 V2000
   11.9077   11.3981    8.4829 N   0  0  0  0  0  0  0  0  0  0  0  0
   11.6629   12.7520    8.5962 C   0  0  0  0  0  0  0  0  0  0  0  0
   11.2879   13.4971    7.5491 N   0  0  0  0  0  0  0  0  0  0  0  0
   11.1819   12.7845    6.3922 C   0  0  0  0  0  0  0  0  0  0  0  0
   11.4141   11.4295    6.2112 C   0  0  0  0  0  0  0  0  0  0  0  0
   11.8103   10.6320    7.3192 C   0  0  0  0  0  0  0  0  0  0  0  0
   12.0637    9.4290    7.3843 O   0  0  0  0  0  0  0  0  0  0  0  0
   11.1925   11.1239    4.8899 N   0  0  0  0  0  0  0  0  0  0  0  0
   10.8312   12.2793    4.2842 C   0  0  0  0  0  0  0  0  0  0  0  0
   10.8163   13.3216    5.1816 N   0  0  0  0  0  0  0  0  0  0  0  0
  1  2  1  0  0  0  0
  1  6  1  0  0  0  0
  2  3  2  0  0  0  0
  3  4  1  0  0  0  0
  4  5  2  0  0  0  0
  4 10  1  0  0  0  0
  5  6  1  0  0  0  0
  5  8  1  0  0  0  0
  6  7  2  0  0  0  0
  8  9  1  0  0  0  0
  9 10  2  0  0  0  0
M  END
>  <CHROM.1>
11.42938311,11.81958304,6.64565561,0.22032121,-1.28600394,0.74892436

>  <Name>
ligand

>  <RI>
0

>  <Rbt.Current_Directory>
/home/itssahil/PROJECTS/Mol_Feturizer/New_Systems/rnas/2EEU

>  <Rbt.Executable>
rbdock ($Id: //depot/dev/client3/rdock/2013.1/src/exe/rbdock.cxx#4 $)

>  <Rbt.Library>
libRbt.so (2013.1, Build901 2013/11/27)

>  <Rbt.Parameter_File>
/export/apps/rDock/src/rDock_2013.1_src/data/scripts/dock_solv.prm

>  <Rbt.Receptor>
prm/blind_docking_80.prm

>  <SCORE>
-18.5185

>  <SCORE.INTER>
-18.5185

>  <SCORE.INTER.CONST>
1

>  <SCORE.INTER.POLAR>
0

>  <SCORE.INTER.ROT>
0

>  <SCORE.INTER.SOLV>
3.49419

>  <SCORE.INTER.VDW>
-17.1104

>  <SCORE.INTER.norm>
-1.85185

>  <SCORE.INTRA>
0

>  <SCORE.INTRA.DIHEDRAL>
0

>  <SCORE.INTRA.DIHEDRAL.0>
0

>  <SCORE.INTRA.POLAR>
0

>  <SCORE.INTRA.POLAR.0>
0

>  <SCORE.INTRA.REPUL>
0

>  <SCORE.INTRA.REPUL.0>
0

>  <SCORE.INTRA.SOLV>
0

>  <SCORE.INTRA.SOLV.lig_0>
-4.28148

>  <SCORE.INTRA.VDW>
0

>  <SCORE.INTRA.VDW.0>
0

>  <SCORE.INTRA.norm>
0

>  <SCORE.RESTR>
0

>  <SCORE.RESTR.CAVITY>
0

>  <SCORE.RESTR.norm>
0

>  <SCORE.SYSTEM>
0

>  <SCORE.SYSTEM.CONST>
0

>  <SCORE.SYSTEM.DIHEDRAL>
0

>  <SCORE.SYSTEM.SOLV>
0

>  <SCORE.SYSTEM.norm>
0

>  <SCORE.heavy>
10

>  <SCORE.norm>
-1.85185

>  <RMSD>
0.835

$$$$
ligand
 OpenBabel11021811423D
libRbt.so/2013.1/901 2013/11/27
 10 11  0  0  0  0  0  0  0  0999 V2000
   11.8341   10.7894    8.4688 N   0  0  0  0  0  0  0  0  0  0  0  0
   11.5062   12.0945    8.7767 C   0  0  0  0  0  0  0  0  0  0  0  0
   11.1278   12.9728    7.8399 N   0  0  0  0  0  0  0  0  0  0  0  0
   11.1078   12.4444    6.5838 C   0  0  0  0  0  0  0  0  0  0  0  0
   11.4257   11.1480    6.2083 C   0  0  0  0  0  0  0  0  0  0  0  0
   11.8260   10.2097    7.1981 C   0  0  0  0  0  0  0  0  0  0  0  0
   12.1469    9.0261    7.0899 O   0  0  0  0  0  0  0  0  0  0  0  0
   11.2726   11.0406    4.8469 N   0  0  0  0  0  0  0  0  0  0  0  0
   10.8673   12.2558    4.4094 C   0  0  0  0  0  0  0  0  0  0  0  0
   10.7572   13.1435    5.4542 N   0  0  0  0  0  0  0  0  0  0  0  0
  1  2  1  0  0  0  0
  1  6  1  0  0  0  0
  2  3  2  0  0  0  0
  3  4  1  0  0  0  0
  4  5  2  0  0  0  0
  4 10  1  0  0  0  0
  5  6  1  0  0  0  0
  5  8  1  0  0  0  0
  6  7  2  0  0  0  0
  8  9  1  0  0  0  0
  9 10  2  0  0  0  0
M  END
>  <CHROM.1>
11.40169705,11.46606252,6.69764098,0.45156639,-1.26604211,1.12552399

>  <Name>
ligand

>  <RI>
0

>  <Rbt.Current_Directory>
/home/itssahil/PROJECTS/Mol_Feturizer/New_Systems/rnas/2EEU

>  <Rbt.Executable>
rbdock ($Id: //depot/dev/client3/rdock/2013.1/src/exe/rbdock.cxx#4 $)

>  <Rbt.Library>
libRbt.so (2013.1, Build901 2013/11/27)

>  <Rbt.Parameter_File>
/export/apps/rDock/src/rDock_2013.1_src/data/scripts/dock_solv.prm

>  <Rbt.Receptor>
prm/blind_docking_20.prm

>  <SCORE>
-18.4647

>  <SCORE.INTER>
-18.4647

>  <SCORE.INTER.CONST>
1

>  <SCORE.INTER.POLAR>
0

>  <SCORE.INTER.ROT>
0

>  <SCORE.INTER.SOLV>
3.54964

>  <SCORE.INTER.VDW>
-17.093

>  <SCORE.INTER.norm>
-1.84647

>  <SCORE.INTRA>
0

>  <SCORE.INTRA.DIHEDRAL>
0

>  <SCORE.INTRA.DIHEDRAL.0>
0

>  <SCORE.INTRA.POLAR>
0

>  <SCORE.INTRA.POLAR.0>
0

>  <SCORE.INTRA.REPUL>
0

>  <SCORE.INTRA.REPUL.0>
0

>  <SCORE.INTRA.SOLV>
0

>  <SCORE.INTRA.SOLV.lig_0>
-4.28148

>  <SCORE.INTRA.VDW>
0

>  <SCORE.INTRA.VDW.0>
0

>  <SCORE.INTRA.norm>
0

>  <SCORE.RESTR>
0

>  <SCORE.RESTR.CAVITY>
0

>  <SCORE.RESTR.norm>
0

>  <SCORE.SYSTEM>
0

>  <SCORE.SYSTEM.CONST>
0

>  <SCORE.SYSTEM.DIHEDRAL>
0

>  <SCORE.SYSTEM.SOLV>
0

>  <SCORE.SYSTEM.norm>
0

>  <SCORE.heavy>
10

>  <SCORE.norm>
-1.84647

>  <RMSD>
0.836

$$$$
ligand
 OpenBabel11021811423D
libRbt.so/2013.1/901 2013/11/27
 10 11  0  0  0  0  0  0  0  0999 V2000
   11.8376   10.7844    8.4664 N   0  0  0  0  0  0  0  0  0  0  0  0
   11.5174   12.0907    8.7771 C   0  0  0  0  0  0  0  0  0  0  0  0
   11.1401   12.9721    7.8428 N   0  0  0  0  0  0  0  0  0  0  0  0
   11.1127   12.4454    6.5861 C   0  0  0  0  0  0  0  0  0  0  0  0
   11.4226   11.1478    6.2079 C   0  0  0  0  0  0  0  0  0  0  0  0
   11.8217   10.2062    7.1951 C   0  0  0  0  0  0  0  0  0  0  0  0
   12.1362    9.0211    7.0842 O   0  0  0  0  0  0  0  0  0  0  0  0
   11.2639   11.0429    4.8469 N   0  0  0  0  0  0  0  0  0  0  0  0
   10.8632   12.2607    4.4123 C   0  0  0  0  0  0  0  0  0  0  0  0
   10.7616   13.1476    5.4586 N   0  0  0  0  0  0  0  0  0  0  0  0
  1  2  1  0  0  0  0
  1  6  1  0  0  0  0
  2  3  2  0  0  0  0
  3  4  1  0  0  0  0
  4  5  2  0  0  0  0
  4 10  1  0  0  0  0
  5  6  1  0  0  0  0
  5  8  1  0  0  0  0
  6  7  2  0  0  0  0
  8  9  1  0  0  0  0
  9 10  2  0  0  0  0
M  END
>  <CHROM.1>
11.40203582,11.46537828,6.69764966,0.43286310,-1.26903792,1.10888485

>  <Name>
ligand

>  <RI>
0

>  <Rbt.Current_Directory>
/home/itssahil/PROJECTS/Mol_Feturizer/New_Systems/rnas/2EEU

>  <Rbt.Executable>
rbdock ($Id: //depot/dev/client3/rdock/2013.1/src/exe/rbdock.cxx#4 $)

>  <Rbt.Library>
libRbt.so (2013.1, Build901 2013/11/27)

>  <Rbt.Parameter_File>
/export/apps/rDock/src/rDock_2013.1_src/data/scripts/dock_solv.prm

>  <Rbt.Receptor>
prm/blind_docking_20.prm

>  <SCORE>
-18.4663

>  <SCORE.INTER>
-18.4663

>  <SCORE.INTER.CONST>
1

>  <SCORE.INTER.POLAR>
0

>  <SCORE.INTER.ROT>
0

>  <SCORE.INTER.SOLV>
3.56178

>  <SCORE.INTER.VDW>
-17.0982

>  <SCORE.INTER.norm>
-1.84663

>  <SCORE.INTRA>
0

>  <SCORE.INTRA.DIHEDRAL>
0

>  <SCORE.INTRA.DIHEDRAL.0>
0

>  <SCORE.INTRA.POLAR>
0

>  <SCORE.INTRA.POLAR.0>
0

>  <SCORE.INTRA.REPUL>
0

>  <SCORE.INTRA.REPUL.0>
0

>  <SCORE.INTRA.SOLV>
0

>  <SCORE.INTRA.SOLV.lig_0>
-4.28148

>  <SCORE.INTRA.VDW>
0

>  <SCORE.INTRA.VDW.0>
0

>  <SCORE.INTRA.norm>
0

>  <SCORE.RESTR>
0

>  <SCORE.RESTR.CAVITY>
0

>  <SCORE.RESTR.norm>
0

>  <SCORE.SYSTEM>
0

>  <SCORE.SYSTEM.CONST>
0

>  <SCORE.SYSTEM.DIHEDRAL>
0

>  <SCORE.SYSTEM.SOLV>
0

>  <SCORE.SYSTEM.norm>
0

>  <SCORE.heavy>
10

>  <SCORE.norm>
-1.84663

>  <RMSD>
0.836

$$$$
ligand
 OpenBabel11021811423D
libRbt.so/2013.1/901 2013/11/27
 10 11  0  0  0  0  0  0  0  0999 V2000
   11.8249   10.8033    8.4609 N   0  0  0  0  0  0  0  0  0  0  0  0
   11.4726   12.0994    8.7796 C   0  0  0  0  0  0  0  0  0  0  0  0
   11.0830   12.9799    7.8494 N   0  0  0  0  0  0  0  0  0  0  0  0
   11.0779   12.4632    6.5883 C   0  0  0  0  0  0  0  0  0  0  0  0
   11.4203   11.1762    6.2020 C   0  0  0  0  0  0  0  0  0  0  0  0
   11.8326   10.2356    7.1848 C   0  0  0  0  0  0  0  0  0  0  0  0
   12.1748    9.0590    7.0668 O   0  0  0  0  0  0  0  0  0  0  0  0
   11.2752   11.0792    4.8390 N   0  0  0  0  0  0  0  0  0  0  0  0
   10.8505   12.2912    4.4110 C   0  0  0  0  0  0  0  0  0  0  0  0
   10.7202   13.1668    5.4637 N   0  0  0  0  0  0  0  0  0  0  0  0
  1  2  1  0  0  0  0
  1  6  1  0  0  0  0
  2  3  2  0  0  0  0
  3  4  1  0  0  0  0
  4  5  2  0  0  0  0
  4 10  1  0  0  0  0
  5  6  1  0  0  0  0
  5  8  1  0  0  0  0
  6  7  2  0  0  0  0
  8  9  1  0  0  0  0
  9 10  2  0  0  0  0
M  END
>  <CHROM.1>
11.38851425,11.48912557,6.69420067,0.48862566,-1.25187153,1.17029759

>  <Name>
ligand

>  <RI>
0

>  <Rbt.Current_Directory>
/home/itssahil/PROJECTS/Mol_Feturizer/New_Systems/rnas/2EEU

>  <Rbt.Executable>
rbdock ($Id: //depot/dev/client3/rdock/2013.1/src/exe/rbdock.cxx#4 $)

>  <Rbt.Library>
libRbt.so (2013.1, Build901 2013/11/27)

>  <Rbt.Parameter_File>
/export/apps/rDock/src/rDock_2013.1_src/data/scripts/dock_solv.prm

>  <Rbt.Receptor>
prm/blind_docking_20.prm

>  <SCORE>
-18.4299

>  <SCORE.INTER>
-18.4299

>  <SCORE.INTER.CONST>
1

>  <SCORE.INTER.POLAR>
0

>  <SCORE.INTER.ROT>
0

>  <SCORE.INTER.SOLV>
3.51461

>  <SCORE.INTER.VDW>
-17.0581

>  <SCORE.INTER.norm>
-1.84299

>  <SCORE.INTRA>
0

>  <SCORE.INTRA.DIHEDRAL>
0

>  <SCORE.INTRA.DIHEDRAL.0>
0

>  <SCORE.INTRA.POLAR>
0

>  <SCORE.INTRA.POLAR.0>
0

>  <SCORE.INTRA.REPUL>
0

>  <SCORE.INTRA.REPUL.0>
0

>  <SCORE.INTRA.SOLV>
0

>  <SCORE.INTRA.SOLV.lig_0>
-4.28148

>  <SCORE.INTRA.VDW>
0

>  <SCORE.INTRA.VDW.0>
0

>  <SCORE.INTRA.norm>
0

>  <SCORE.RESTR>
0

>  <SCORE.RESTR.CAVITY>
0

>  <SCORE.RESTR.norm>
0

>  <SCORE.SYSTEM>
0

>  <SCORE.SYSTEM.CONST>
0

>  <SCORE.SYSTEM.DIHEDRAL>
0

>  <SCORE.SYSTEM.SOLV>
0

>  <SCORE.SYSTEM.norm>
0

>  <SCORE.heavy>
10

>  <SCORE.norm>
-1.84299

>  <RMSD>
0.836

$$$$
ligand
 OpenBabel11021811423D
libRbt.so/2013.1/901 2013/11/27
 10 11  0  0  0  0  0  0  0  0999 V2000
   11.8314   10.7886    8.4691 N   0  0  0  0  0  0  0  0  0  0  0  0
   11.5074   12.0946    8.7771 C   0  0  0  0  0  0  0  0  0  0  0  0
   11.1317   12.9743    7.8404 N   0  0  0  0  0  0  0  0  0  0  0  0
   11.1101   12.4461    6.5843 C   0  0  0  0  0  0  0  0  0  0  0  0
   11.4241   11.1488    6.2086 C   0  0  0  0  0  0  0  0  0  0  0  0
   11.8215   10.2090    7.1983 C   0  0  0  0  0  0  0  0  0  0  0  0
   12.1389    9.0245    7.0899 O   0  0  0  0  0  0  0  0  0  0  0  0
   11.2707   11.0420    4.8472 N   0  0  0  0  0  0  0  0  0  0  0  0
   10.8691   12.2585    4.4098 C   0  0  0  0  0  0  0  0  0  0  0  0
   10.7617   13.1464    5.4547 N   0  0  0  0  0  0  0  0  0  0  0  0
  1  2  1  0  0  0  0
  1  6  1  0  0  0  0
  2  3  2  0  0  0  0
  3  4  1  0  0  0  0
  4  5  2  0  0  0  0
  4 10  1  0  0  0  0
  5  6  1  0  0  0  0
  5  8  1  0  0  0  0
  6  7  2  0  0  0  0
  8  9  1  0  0  0  0
  9 10  2  0  0  0  0
M  END
>  <CHROM.1>
11.40104833,11.46681423,6.69795019,0.44724067,-1.26878735,1.12154208

>  <Name>
ligand

>  <RI>
0

>  <Rbt.Current_Directory>
/home/itssahil/PROJECTS/Mol_Feturizer/New_Systems/rnas/2EEU

>  <Rbt.Executable>
rbdock ($Id: //depot/dev/client3/rdock/2013.1/src/exe/rbdock.cxx#4 $)

>  <Rbt.Library>
libRbt.so (2013.1, Build901 2013/11/27)

>  <Rbt.Parameter_File>
/export/apps/rDock/src/rDock_2013.1_src/data/scripts/dock_solv.prm

>  <Rbt.Receptor>
prm/blind_docking_20.prm

>  <SCORE>
-18.4661

>  <SCORE.INTER>
-18.4661

>  <SCORE.INTER.CONST>
1

>  <SCORE.INTER.POLAR>
0

>  <SCORE.INTER.ROT>
0

>  <SCORE.INTER.SOLV>
3.55958

>  <SCORE.INTER.VDW>
-17.0973

>  <SCORE.INTER.norm>
-1.84661

>  <SCORE.INTRA>
0

>  <SCORE.INTRA.DIHEDRAL>
0

>  <SCORE.INTRA.DIHEDRAL.0>
0

>  <SCORE.INTRA.POLAR>
0

>  <SCORE.INTRA.POLAR.0>
0

>  <SCORE.INTRA.REPUL>
0

>  <SCORE.INTRA.REPUL.0>
0

>  <SCORE.INTRA.SOLV>
0

>  <SCORE.INTRA.SOLV.lig_0>
-4.28148

>  <SCORE.INTRA.VDW>
0

>  <SCORE.INTRA.VDW.0>
0

>  <SCORE.INTRA.norm>
0

>  <SCORE.RESTR>
0

>  <SCORE.RESTR.CAVITY>
0

>  <SCORE.RESTR.norm>
0

>  <SCORE.SYSTEM>
0

>  <SCORE.SYSTEM.CONST>
0

>  <SCORE.SYSTEM.DIHEDRAL>
0

>  <SCORE.SYSTEM.SOLV>
0

>  <SCORE.SYSTEM.norm>
0

>  <SCORE.heavy>
10

>  <SCORE.norm>
-1.84661

>  <RMSD>
0.836

$$$$
ligand
 OpenBabel11021811423D
libRbt.so/2013.1/901 2013/11/27
 10 11  0  0  0  0  0  0  0  0999 V2000
   11.8318   10.7850    8.4683 N   0  0  0  0  0  0  0  0  0  0  0  0
   11.5020   12.0892    8.7778 C   0  0  0  0  0  0  0  0  0  0  0  0
   11.1246   12.9688    7.8418 N   0  0  0  0  0  0  0  0  0  0  0  0
   11.1074   12.4425    6.5848 C   0  0  0  0  0  0  0  0  0  0  0  0
   11.4272   11.1470    6.2077 C   0  0  0  0  0  0  0  0  0  0  0  0
   11.8264   10.2073    7.1967 C   0  0  0  0  0  0  0  0  0  0  0  0
   12.1487    9.0243    7.0870 O   0  0  0  0  0  0  0  0  0  0  0  0
   11.2767   11.0418    4.8458 N   0  0  0  0  0  0  0  0  0  0  0  0
   10.8711   12.2574    4.4096 C   0  0  0  0  0  0  0  0  0  0  0  0
   10.7583   13.1432    5.4557 N   0  0  0  0  0  0  0  0  0  0  0  0
  1  2  1  0  0  0  0
  1  6  1  0  0  0  0
  2  3  2  0  0  0  0
  3  4  1  0  0  0  0
  4  5  2  0  0  0  0
  4 10  1  0  0  0  0
  5  6  1  0  0  0  0
  5  8  1  0  0  0  0
  6  7  2  0  0  0  0
  8  9  1  0  0  0  0
  9 10  2  0  0  0  0
M  END
>  <CHROM.1>
11.40196340,11.46422273,6.69749733,0.45838837,-1.26601340,1.13372429

>  <Name>
ligand

>  <RI>
0

>  <Rbt.Current_Directory>
/home/itssahil/PROJECTS/Mol_Feturizer/New_Systems/rnas/2EEU

>  <Rbt.Executable>
rbdock ($Id: //depot/dev/client3/rdock/2013.1/src/exe/rbdock.cxx#4 $)

>  <Rbt.Library>
libRbt.so (2013.1, Build901 2013/11/27)

>  <Rbt.Parameter_File>
/export/apps/rDock/src/rDock_2013.1_src/data/scripts/dock_solv.prm

>  <Rbt.Receptor>
prm/blind_docking_20.prm

>  <SCORE>
-18.4615

>  <SCORE.INTER>
-18.4615

>  <SCORE.INTER.CONST>
1

>  <SCORE.INTER.POLAR>
0

>  <SCORE.INTER.ROT>
0

>  <SCORE.INTER.SOLV>
3.55146

>  <SCORE.INTER.VDW>
-17.0915

>  <SCORE.INTER.norm>
-1.84615

>  <SCORE.INTRA>
0

>  <SCORE.INTRA.DIHEDRAL>
0

>  <SCORE.INTRA.DIHEDRAL.0>
0

>  <SCORE.INTRA.POLAR>
0

>  <SCORE.INTRA.POLAR.0>
0

>  <SCORE.INTRA.REPUL>
0

>  <SCORE.INTRA.REPUL.0>
0

>  <SCORE.INTRA.SOLV>
0

>  <SCORE.INTRA.SOLV.lig_0>
-4.28148

>  <SCORE.INTRA.VDW>
0

>  <SCORE.INTRA.VDW.0>
0

>  <SCORE.INTRA.norm>
0

>  <SCORE.RESTR>
0

>  <SCORE.RESTR.CAVITY>
0

>  <SCORE.RESTR.norm>
0

>  <SCORE.SYSTEM>
0

>  <SCORE.SYSTEM.CONST>
0

>  <SCORE.SYSTEM.DIHEDRAL>
0

>  <SCORE.SYSTEM.SOLV>
0

>  <SCORE.SYSTEM.norm>
0

>  <SCORE.heavy>
10

>  <SCORE.norm>
-1.84615

>  <RMSD>
0.837

$$$$
ligand
 OpenBabel11021811423D
libRbt.so/2013.1/901 2013/11/27
 10 11  0  0  0  0  0  0  0  0999 V2000
   11.8985   11.4050    8.4854 N   0  0  0  0  0  0  0  0  0  0  0  0
   11.6464   12.7576    8.5972 C   0  0  0  0  0  0  0  0  0  0  0  0
   11.2764   13.5013    7.5473 N   0  0  0  0  0  0  0  0  0  0  0  0
   11.1833   12.7888    6.3893 C   0  0  0  0  0  0  0  0  0  0  0  0
   11.4233   11.4349    6.2097 C   0  0  0  0  0  0  0  0  0  0  0  0
   11.8142   10.6389    7.3206 C   0  0  0  0  0  0  0  0  0  0  0  0
   12.0728    9.4371    7.3874 O   0  0  0  0  0  0  0  0  0  0  0  0
   11.2140   11.1289    4.8865 N   0  0  0  0  0  0  0  0  0  0  0  0
   10.8523   12.2829    4.2784 C   0  0  0  0  0  0  0  0  0  0  0  0
   10.8250   13.3247    5.1760 N   0  0  0  0  0  0  0  0  0  0  0  0
  1  2  1  0  0  0  0
  1  6  1  0  0  0  0
  2  3  2  0  0  0  0
  3  4  1  0  0  0  0
  4  5  2  0  0  0  0
  4 10  1  0  0  0  0
  5  6  1  0  0  0  0
  5  8  1  0  0  0  0
  6  7  2  0  0  0  0
  8  9  1  0  0  0  0
  9 10  2  0  0  0  0
M  END
>  <CHROM.1>
11.43323925,11.82493639,6.64443511,0.25284365,-1.28863499,0.78055641

>  <Name>
ligand

>  <RI>
0

>  <Rbt.Current_Directory>
/home/itssahil/PROJECTS/Mol_Feturizer/New_Systems/rnas/2EEU

>  <Rbt.Executable>
rbdock ($Id: //depot/dev/client3/rdock/2013.1/src/exe/rbdock.cxx#4 $)

>  <Rbt.Library>
libRbt.so (2013.1, Build901 2013/11/27)

>  <Rbt.Parameter_File>
/export/apps/rDock/src/rDock_2013.1_src/data/scripts/dock_solv.prm

>  <Rbt.Receptor>
prm/blind_docking_40.prm

>  <SCORE>
-18.5082

>  <SCORE.INTER>
-18.5082

>  <SCORE.INTER.CONST>
1

>  <SCORE.INTER.POLAR>
0

>  <SCORE.INTER.ROT>
0

>  <SCORE.INTER.SOLV>
3.49771

>  <SCORE.INTER.VDW>
-17.1047

>  <SCORE.INTER.norm>
-1.85082

>  <SCORE.INTRA>
0

>  <SCORE.INTRA.DIHEDRAL>
0

>  <SCORE.INTRA.DIHEDRAL.0>
0

>  <SCORE.INTRA.POLAR>
0

>  <SCORE.INTRA.POLAR.0>
0

>  <SCORE.INTRA.REPUL>
0

>  <SCORE.INTRA.REPUL.0>
0

>  <SCORE.INTRA.SOLV>
0

>  <SCORE.INTRA.SOLV.lig_0>
-4.28148

>  <SCORE.INTRA.VDW>
0

>  <SCORE.INTRA.VDW.0>
0

>  <SCORE.INTRA.norm>
0

>  <SCORE.RESTR>
0

>  <SCORE.RESTR.CAVITY>
0

>  <SCORE.RESTR.norm>
0

>  <SCORE.SYSTEM>
0

>  <SCORE.SYSTEM.CONST>
0

>  <SCORE.SYSTEM.DIHEDRAL>
0

>  <SCORE.SYSTEM.SOLV>
0

>  <SCORE.SYSTEM.norm>
0

>  <SCORE.heavy>
10

>  <SCORE.norm>
-1.85082

>  <RMSD>
0.837

$$$$
ligand
 OpenBabel11021811423D
libRbt.so/2013.1/901 2013/11/27
 10 11  0  0  0  0  0  0  0  0999 V2000
   11.9159   11.4000    8.4804 N   0  0  0  0  0  0  0  0  0  0  0  0
   11.6701   12.7537    8.5930 C   0  0  0  0  0  0  0  0  0  0  0  0
   11.2960   13.4983    7.5452 N   0  0  0  0  0  0  0  0  0  0  0  0
   11.1921   12.7854    6.3884 C   0  0  0  0  0  0  0  0  0  0  0  0
   11.4253   11.4304    6.2080 C   0  0  0  0  0  0  0  0  0  0  0  0
   11.8205   10.6335    7.3167 C   0  0  0  0  0  0  0  0  0  0  0  0
   12.0745    9.4307    7.3825 O   0  0  0  0  0  0  0  0  0  0  0  0
   11.2057   11.1244    4.8865 N   0  0  0  0  0  0  0  0  0  0  0  0
   10.8446   12.2795    4.2800 C   0  0  0  0  0  0  0  0  0  0  0  0
   10.8278   13.3220    5.1771 N   0  0  0  0  0  0  0  0  0  0  0  0
  1  2  1  0  0  0  0
  1  6  1  0  0  0  0
  2  3  2  0  0  0  0
  3  4  1  0  0  0  0
  4  5  2  0  0  0  0
  4 10  1  0  0  0  0
  5  6  1  0  0  0  0
  5  8  1  0  0  0  0
  6  7  2  0  0  0  0
  8  9  1  0  0  0  0
  9 10  2  0  0  0  0
M  END
>  <CHROM.1>
11.43979682,11.82068730,6.64238333,0.22523665,-1.28659508,0.75340200

>  <Name>
ligand

>  <RI>
0

>  <Rbt.Current_Directory>
/home/itssahil/PROJECTS/Mol_Feturizer/New_Systems/rnas/2EEU

>  <Rbt.Executable>
rbdock ($Id: //depot/dev/client3/rdock/2013.1/src/exe/rbdock.cxx#4 $)

>  <Rbt.Library>
libRbt.so (2013.1, Build901 2013/11/27)

>  <Rbt.Parameter_File>
/export/apps/rDock/src/rDock_2013.1_src/data/scripts/dock_solv.prm

>  <Rbt.Receptor>
prm/pocket_docking_5.prm

>  <SCORE>
-18.5179

>  <SCORE.INTER>
-18.5179

>  <SCORE.INTER.CONST>
1

>  <SCORE.INTER.POLAR>
0

>  <SCORE.INTER.ROT>
0

>  <SCORE.INTER.SOLV>
3.49125

>  <SCORE.INTER.VDW>
-17.109

>  <SCORE.INTER.norm>
-1.85179

>  <SCORE.INTRA>
0

>  <SCORE.INTRA.DIHEDRAL>
0

>  <SCORE.INTRA.DIHEDRAL.0>
0

>  <SCORE.INTRA.POLAR>
0

>  <SCORE.INTRA.POLAR.0>
0

>  <SCORE.INTRA.REPUL>
0

>  <SCORE.INTRA.REPUL.0>
0

>  <SCORE.INTRA.SOLV>
0

>  <SCORE.INTRA.SOLV.lig_0>
-4.28148

>  <SCORE.INTRA.VDW>
0

>  <SCORE.INTRA.VDW.0>
0

>  <SCORE.INTRA.norm>
0

>  <SCORE.RESTR>
0

>  <SCORE.RESTR.CAVITY>
0

>  <SCORE.RESTR.norm>
0

>  <SCORE.SYSTEM>
0

>  <SCORE.SYSTEM.CONST>
0

>  <SCORE.SYSTEM.DIHEDRAL>
0

>  <SCORE.SYSTEM.SOLV>
0

>  <SCORE.SYSTEM.norm>
0

>  <SCORE.heavy>
10

>  <SCORE.norm>
-1.85179

>  <RMSD>
0.837

$$$$
ligand
 OpenBabel11021811423D
libRbt.so/2013.1/901 2013/11/27
 10 11  0  0  0  0  0  0  0  0999 V2000
   11.8297   10.7906    8.4685 N   0  0  0  0  0  0  0  0  0  0  0  0
   11.5046   12.0968    8.7747 C   0  0  0  0  0  0  0  0  0  0  0  0
   11.1281   12.9747    7.8367 N   0  0  0  0  0  0  0  0  0  0  0  0
   11.1068   12.4447    6.5813 C   0  0  0  0  0  0  0  0  0  0  0  0
   11.4220   11.1471    6.2075 C   0  0  0  0  0  0  0  0  0  0  0  0
   11.8202   10.2092    7.1985 C   0  0  0  0  0  0  0  0  0  0  0  0
   12.1386    9.0248    7.0919 O   0  0  0  0  0  0  0  0  0  0  0  0
   11.2685   11.0383    4.8463 N   0  0  0  0  0  0  0  0  0  0  0  0
   10.8658   12.2537    4.4071 C   0  0  0  0  0  0  0  0  0  0  0  0
   10.7577   13.1431    5.4507 N   0  0  0  0  0  0  0  0  0  0  0  0
  1  2  1  0  0  0  0
  1  6  1  0  0  0  0
  2  3  2  0  0  0  0
  3  4  1  0  0  0  0
  4  5  2  0  0  0  0
  4 10  1  0  0  0  0
  5  6  1  0  0  0  0
  5  8  1  0  0  0  0
  6  7  2  0  0  0  0
  8  9  1  0  0  0  0
  9 10  2  0  0  0  0
M  END
>  <CHROM.1>
11.39863419,11.46586346,6.69640946,0.44827596,-1.26796299,1.12106252

>  <Name>
ligand

>  <RI>
0

>  <Rbt.Current_Directory>
/home/itssahil/PROJECTS/Mol_Feturizer/New_Systems/rnas/2EEU

>  <Rbt.Executable>
rbdock ($Id: //depot/dev/client3/rdock/2013.1/src/exe/rbdock.cxx#4 $)

>  <Rbt.Library>
libRbt.so (2013.1, Build901 2013/11/27)

>  <Rbt.Parameter_File>
/export/apps/rDock/src/rDock_2013.1_src/data/scripts/dock_solv.prm

>  <Rbt.Receptor>
prm/blind_docking_20.prm

>  <SCORE>
-18.4623

>  <SCORE.INTER>
-18.4623

>  <SCORE.INTER.CONST>
1

>  <SCORE.INTER.POLAR>
0

>  <SCORE.INTER.ROT>
0

>  <SCORE.INTER.SOLV>
3.55926

>  <SCORE.INTER.VDW>
-17.0946

>  <SCORE.INTER.norm>
-1.84623

>  <SCORE.INTRA>
0

>  <SCORE.INTRA.DIHEDRAL>
0

>  <SCORE.INTRA.DIHEDRAL.0>
0

>  <SCORE.INTRA.POLAR>
0

>  <SCORE.INTRA.POLAR.0>
0

>  <SCORE.INTRA.REPUL>
0

>  <SCORE.INTRA.REPUL.0>
0

>  <SCORE.INTRA.SOLV>
0

>  <SCORE.INTRA.SOLV.lig_0>
-4.28148

>  <SCORE.INTRA.VDW>
0

>  <SCORE.INTRA.VDW.0>
0

>  <SCORE.INTRA.norm>
0

>  <SCORE.RESTR>
0

>  <SCORE.RESTR.CAVITY>
0

>  <SCORE.RESTR.norm>
0

>  <SCORE.SYSTEM>
0

>  <SCORE.SYSTEM.CONST>
0

>  <SCORE.SYSTEM.DIHEDRAL>
0

>  <SCORE.SYSTEM.SOLV>
0

>  <SCORE.SYSTEM.norm>
0

>  <SCORE.heavy>
10

>  <SCORE.norm>
-1.84623

>  <RMSD>
0.838

$$$$
ligand
 OpenBabel11021811423D
libRbt.so/2013.1/901 2013/11/27
 10 11  0  0  0  0  0  0  0  0999 V2000
   11.9231   11.3965    8.4742 N   0  0  0  0  0  0  0  0  0  0  0  0
   11.6713   12.7487    8.5915 C   0  0  0  0  0  0  0  0  0  0  0  0
   11.2916   13.4948    7.5468 N   0  0  0  0  0  0  0  0  0  0  0  0
   11.1886   12.7850    6.3879 C   0  0  0  0  0  0  0  0  0  0  0  0
   11.4277   11.4317    6.2029 C   0  0  0  0  0  0  0  0  0  0  0  0
   11.8289   10.6332    7.3082 C   0  0  0  0  0  0  0  0  0  0  0  0
   12.0887    9.4314    7.3698 O   0  0  0  0  0  0  0  0  0  0  0  0
   11.2069   11.1288    4.8808 N   0  0  0  0  0  0  0  0  0  0  0  0
   10.8392   12.2841    4.2787 C   0  0  0  0  0  0  0  0  0  0  0  0
   10.8193   13.3237    5.1791 N   0  0  0  0  0  0  0  0  0  0  0  0
  1  2  1  0  0  0  0
  1  6  1  0  0  0  0
  2  3  2  0  0  0  0
  3  4  1  0  0  0  0
  4  5  2  0  0  0  0
  4 10  1  0  0  0  0
  5  6  1  0  0  0  0
  5  8  1  0  0  0  0
  6  7  2  0  0  0  0
  8  9  1  0  0  0  0
  9 10  2  0  0  0  0
M  END
>  <CHROM.1>
11.44131397,11.82068738,6.63841336,0.23223893,-1.28191797,0.76323153

>  <Name>
ligand

>  <RI>
0

>  <Rbt.Current_Directory>
/home/itssahil/PROJECTS/Mol_Feturizer/New_Systems/rnas/2EEU

>  <Rbt.Executable>
rbdock ($Id: //depot/dev/client3/rdock/2013.1/src/exe/rbdock.cxx#4 $)

>  <Rbt.Library>
libRbt.so (2013.1, Build901 2013/11/27)

>  <Rbt.Parameter_File>
/export/apps/rDock/src/rDock_2013.1_src/data/scripts/dock_solv.prm

>  <Rbt.Receptor>
prm/pocket_docking_4.prm

>  <SCORE>
-18.514

>  <SCORE.INTER>
-18.514

>  <SCORE.INTER.CONST>
1

>  <SCORE.INTER.POLAR>
0

>  <SCORE.INTER.ROT>
0

>  <SCORE.INTER.SOLV>
3.47636

>  <SCORE.INTER.VDW>
-17.1015

>  <SCORE.INTER.norm>
-1.8514

>  <SCORE.INTRA>
0

>  <SCORE.INTRA.DIHEDRAL>
0

>  <SCORE.INTRA.DIHEDRAL.0>
0

>  <SCORE.INTRA.POLAR>
0

>  <SCORE.INTRA.POLAR.0>
0

>  <SCORE.INTRA.REPUL>
0

>  <SCORE.INTRA.REPUL.0>
0

>  <SCORE.INTRA.SOLV>
0

>  <SCORE.INTRA.SOLV.lig_0>
-4.28148

>  <SCORE.INTRA.VDW>
0

>  <SCORE.INTRA.VDW.0>
0

>  <SCORE.INTRA.norm>
0

>  <SCORE.RESTR>
0

>  <SCORE.RESTR.CAVITY>
0

>  <SCORE.RESTR.norm>
0

>  <SCORE.SYSTEM>
0

>  <SCORE.SYSTEM.CONST>
0

>  <SCORE.SYSTEM.DIHEDRAL>
0

>  <SCORE.SYSTEM.SOLV>
0

>  <SCORE.SYSTEM.norm>
0

>  <SCORE.heavy>
10

>  <SCORE.norm>
-1.8514

>  <RMSD>
0.838

$$$$
ligand
 OpenBabel11021811423D
libRbt.so/2013.1/901 2013/11/27
 10 11  0  0  0  0  0  0  0  0999 V2000
   11.9091   11.3968    8.4779 N   0  0  0  0  0  0  0  0  0  0  0  0
   11.6645   12.7506    8.5915 C   0  0  0  0  0  0  0  0  0  0  0  0
   11.2872   13.4956    7.5451 N   0  0  0  0  0  0  0  0  0  0  0  0
   11.1790   12.7829    6.3885 C   0  0  0  0  0  0  0  0  0  0  0  0
   11.4108   11.4278    6.2072 C   0  0  0  0  0  0  0  0  0  0  0  0
   11.8093   10.6305    7.3144 C   0  0  0  0  0  0  0  0  0  0  0  0
   12.0629    9.4276    7.3792 O   0  0  0  0  0  0  0  0  0  0  0  0
   11.1865   11.1221    4.8864 N   0  0  0  0  0  0  0  0  0  0  0  0
   10.8240   12.2774    4.2813 C   0  0  0  0  0  0  0  0  0  0  0  0
   10.8108   13.3198    5.1785 N   0  0  0  0  0  0  0  0  0  0  0  0
  1  2  1  0  0  0  0
  1  6  1  0  0  0  0
  2  3  2  0  0  0  0
  3  4  1  0  0  0  0
  4  5  2  0  0  0  0
  4 10  1  0  0  0  0
  5  6  1  0  0  0  0
  5  8  1  0  0  0  0
  6  7  2  0  0  0  0
  8  9  1  0  0  0  0
  9 10  2  0  0  0  0
M  END
>  <CHROM.1>
11.42698866,11.81799840,6.64154335,0.21554521,-1.28448481,0.74421878

>  <Name>
ligand

>  <RI>
0

>  <Rbt.Current_Directory>
/home/itssahil/PROJECTS/Mol_Feturizer/New_Systems/rnas/2EEU

>  <Rbt.Executable>
rbdock ($Id: //depot/dev/client3/rdock/2013.1/src/exe/rbdock.cxx#4 $)

>  <Rbt.Library>
libRbt.so (2013.1, Build901 2013/11/27)

>  <Rbt.Parameter_File>
/export/apps/rDock/src/rDock_2013.1_src/data/scripts/dock_solv.prm

>  <Rbt.Receptor>
prm/blind_docking_100.prm

>  <SCORE>
-18.5148

>  <SCORE.INTER>
-18.5148

>  <SCORE.INTER.CONST>
1

>  <SCORE.INTER.POLAR>
0

>  <SCORE.INTER.ROT>
0

>  <SCORE.INTER.SOLV>
3.49175

>  <SCORE.INTER.VDW>
-17.1071

>  <SCORE.INTER.norm>
-1.85148

>  <SCORE.INTRA>
0

>  <SCORE.INTRA.DIHEDRAL>
0

>  <SCORE.INTRA.DIHEDRAL.0>
0

>  <SCORE.INTRA.POLAR>
0

>  <SCORE.INTRA.POLAR.0>
0

>  <SCORE.INTRA.REPUL>
0

>  <SCORE.INTRA.REPUL.0>
0

>  <SCORE.INTRA.SOLV>
0

>  <SCORE.INTRA.SOLV.lig_0>
-4.28148

>  <SCORE.INTRA.VDW>
0

>  <SCORE.INTRA.VDW.0>
0

>  <SCORE.INTRA.norm>
0

>  <SCORE.RESTR>
0

>  <SCORE.RESTR.CAVITY>
0

>  <SCORE.RESTR.norm>
0

>  <SCORE.SYSTEM>
0

>  <SCORE.SYSTEM.CONST>
0

>  <SCORE.SYSTEM.DIHEDRAL>
0

>  <SCORE.SYSTEM.SOLV>
0

>  <SCORE.SYSTEM.norm>
0

>  <SCORE.heavy>
10

>  <SCORE.norm>
-1.85148

>  <RMSD>
0.839

$$$$
ligand
 OpenBabel11021811423D
libRbt.so/2013.1/901 2013/11/27
 10 11  0  0  0  0  0  0  0  0999 V2000
   11.8152   10.7758    8.4729 N   0  0  0  0  0  0  0  0  0  0  0  0
   11.4958   12.0828    8.7814 C   0  0  0  0  0  0  0  0  0  0  0  0
   11.1357   12.9675    7.8434 N   0  0  0  0  0  0  0  0  0  0  0  0
   11.1244   12.4432    6.5855 C   0  0  0  0  0  0  0  0  0  0  0  0
   11.4346   11.1451    6.2093 C   0  0  0  0  0  0  0  0  0  0  0  0
   11.8155   10.2000    7.2003 C   0  0  0  0  0  0  0  0  0  0  0  0
   12.1268    9.0139    7.0918 O   0  0  0  0  0  0  0  0  0  0  0  0
   11.2953   11.0433    4.8460 N   0  0  0  0  0  0  0  0  0  0  0  0
   10.9058   12.2635    4.4079 C   0  0  0  0  0  0  0  0  0  0  0  0
   10.7925   13.1489    5.4543 N   0  0  0  0  0  0  0  0  0  0  0  0
  1  2  1  0  0  0  0
  1  6  1  0  0  0  0
  2  3  2  0  0  0  0
  3  4  1  0  0  0  0
  4  5  2  0  0  0  0
  4 10  1  0  0  0  0
  5  6  1  0  0  0  0
  5  8  1  0  0  0  0
  6  7  2  0  0  0  0
  8  9  1  0  0  0  0
  9 10  2  0  0  0  0
M  END
>  <CHROM.1>
11.40814915,11.46181175,6.69930715,0.47188146,-1.27887858,1.14808840

>  <Name>
ligand

>  <RI>
0

>  <Rbt.Current_Directory>
/home/itssahil/PROJECTS/Mol_Feturizer/New_Systems/rnas/2EEU

>  <Rbt.Executable>
rbdock ($Id: //depot/dev/client3/rdock/2013.1/src/exe/rbdock.cxx#4 $)

>  <Rbt.Library>
libRbt.so (2013.1, Build901 2013/11/27)

>  <Rbt.Parameter_File>
/export/apps/rDock/src/rDock_2013.1_src/data/scripts/dock_solv.prm

>  <Rbt.Receptor>
prm/blind_docking_20.prm

>  <SCORE>
-18.4389

>  <SCORE.INTER>
-18.4389

>  <SCORE.INTER.CONST>
1

>  <SCORE.INTER.POLAR>
0

>  <SCORE.INTER.ROT>
0

>  <SCORE.INTER.SOLV>
3.59214

>  <SCORE.INTER.VDW>
-17.09

>  <SCORE.INTER.norm>
-1.84389

>  <SCORE.INTRA>
0

>  <SCORE.INTRA.DIHEDRAL>
0

>  <SCORE.INTRA.DIHEDRAL.0>
0

>  <SCORE.INTRA.POLAR>
0

>  <SCORE.INTRA.POLAR.0>
0

>  <SCORE.INTRA.REPUL>
0

>  <SCORE.INTRA.REPUL.0>
0

>  <SCORE.INTRA.SOLV>
0

>  <SCORE.INTRA.SOLV.lig_0>
-4.28148

>  <SCORE.INTRA.VDW>
0

>  <SCORE.INTRA.VDW.0>
0

>  <SCORE.INTRA.norm>
0

>  <SCORE.RESTR>
0

>  <SCORE.RESTR.CAVITY>
0

>  <SCORE.RESTR.norm>
0

>  <SCORE.SYSTEM>
0

>  <SCORE.SYSTEM.CONST>
0

>  <SCORE.SYSTEM.DIHEDRAL>
0

>  <SCORE.SYSTEM.SOLV>
0

>  <SCORE.SYSTEM.norm>
0

>  <SCORE.heavy>
10

>  <SCORE.norm>
-1.84389

>  <RMSD>
0.839

$$$$
ligand
 OpenBabel11021811423D
libRbt.so/2013.1/901 2013/11/27
 10 11  0  0  0  0  0  0  0  0999 V2000
   11.9185   11.3921    8.4742 N   0  0  0  0  0  0  0  0  0  0  0  0
   11.6794   12.7466    8.5914 C   0  0  0  0  0  0  0  0  0  0  0  0
   11.3021   13.4952    7.5476 N   0  0  0  0  0  0  0  0  0  0  0  0
   11.1878   12.7854    6.3898 C   0  0  0  0  0  0  0  0  0  0  0  0
   11.4139   11.4298    6.2050 C   0  0  0  0  0  0  0  0  0  0  0  0
   11.8125   10.6286    7.3094 C   0  0  0  0  0  0  0  0  0  0  0  0
   12.0617    9.4246    7.3710 O   0  0  0  0  0  0  0  0  0  0  0  0
   11.1847   11.1277    4.8842 N   0  0  0  0  0  0  0  0  0  0  0  0
   10.8249   12.2858    4.2826 C   0  0  0  0  0  0  0  0  0  0  0  0
   10.8182   13.3262    5.1821 N   0  0  0  0  0  0  0  0  0  0  0  0
  1  2  1  0  0  0  0
  1  6  1  0  0  0  0
  2  3  2  0  0  0  0
  3  4  1  0  0  0  0
  4  5  2  0  0  0  0
  4 10  1  0  0  0  0
  5  6  1  0  0  0  0
  5  8  1  0  0  0  0
  6  7  2  0  0  0  0
  8  9  1  0  0  0  0
  9 10  2  0  0  0  0
M  END
>  <CHROM.1>
11.43282290,11.81899384,6.64015057,0.19869644,-1.28493080,0.73017456

>  <Name>
ligand

>  <RI>
0

>  <Rbt.Current_Directory>
/home/itssahil/PROJECTS/Mol_Feturizer/New_Systems/rnas/2EEU

>  <Rbt.Executable>
rbdock ($Id: //depot/dev/client3/rdock/2013.1/src/exe/rbdock.cxx#4 $)

>  <Rbt.Library>
libRbt.so (2013.1, Build901 2013/11/27)

>  <Rbt.Parameter_File>
/export/apps/rDock/src/rDock_2013.1_src/data/scripts/dock_solv.prm

>  <Rbt.Receptor>
prm/pocket_docking_4.prm

>  <SCORE>
-18.5213

>  <SCORE.INTER>
-18.5213

>  <SCORE.INTER.CONST>
1

>  <SCORE.INTER.POLAR>
0

>  <SCORE.INTER.ROT>
0

>  <SCORE.INTER.SOLV>
3.49263

>  <SCORE.INTER.VDW>
-17.1117

>  <SCORE.INTER.norm>
-1.85213

>  <SCORE.INTRA>
0

>  <SCORE.INTRA.DIHEDRAL>
0

>  <SCORE.INTRA.DIHEDRAL.0>
0

>  <SCORE.INTRA.POLAR>
0

>  <SCORE.INTRA.POLAR.0>
0

>  <SCORE.INTRA.REPUL>
0

>  <SCORE.INTRA.REPUL.0>
0

>  <SCORE.INTRA.SOLV>
0

>  <SCORE.INTRA.SOLV.lig_0>
-4.28148

>  <SCORE.INTRA.VDW>
0

>  <SCORE.INTRA.VDW.0>
0

>  <SCORE.INTRA.norm>
0

>  <SCORE.RESTR>
0

>  <SCORE.RESTR.CAVITY>
0

>  <SCORE.RESTR.norm>
0

>  <SCORE.SYSTEM>
0

>  <SCORE.SYSTEM.CONST>
0

>  <SCORE.SYSTEM.DIHEDRAL>
0

>  <SCORE.SYSTEM.SOLV>
0

>  <SCORE.SYSTEM.norm>
0

>  <SCORE.heavy>
10

>  <SCORE.norm>
-1.85213

>  <RMSD>
0.839

$$$$
ligand
 OpenBabel11021811423D
libRbt.so/2013.1/901 2013/11/27
 10 11  0  0  0  0  0  0  0  0999 V2000
   11.9839   11.3983    8.4536 N   0  0  0  0  0  0  0  0  0  0  0  0
   11.7350   12.7504    8.5777 C   0  0  0  0  0  0  0  0  0  0  0  0
   11.3296   13.4970    7.5430 N   0  0  0  0  0  0  0  0  0  0  0  0
   11.1982   12.7877    6.3867 C   0  0  0  0  0  0  0  0  0  0  0  0
   11.4328   11.4345    6.1952 C   0  0  0  0  0  0  0  0  0  0  0  0
   11.8610   10.6355    7.2900 C   0  0  0  0  0  0  0  0  0  0  0  0
   12.1223    9.4337    7.3446 O   0  0  0  0  0  0  0  0  0  0  0  0
   11.1794   11.1322    4.8789 N   0  0  0  0  0  0  0  0  0  0  0  0
   10.7969   12.2877    4.2865 C   0  0  0  0  0  0  0  0  0  0  0  0
   10.7993   13.3269    5.1876 N   0  0  0  0  0  0  0  0  0  0  0  0
  1  2  1  0  0  0  0
  1  6  1  0  0  0  0
  2  3  2  0  0  0  0
  3  4  1  0  0  0  0
  4  5  2  0  0  0  0
  4 10  1  0  0  0  0
  5  6  1  0  0  0  0
  5  8  1  0  0  0  0
  6  7  2  0  0  0  0
  8  9  1  0  0  0  0
  9 10  2  0  0  0  0
M  END
>  <CHROM.1>
11.45703594,11.82326879,6.63045666,0.17599946,-1.26363467,0.70992989

>  <Name>
ligand

>  <RI>
0

>  <Rbt.Current_Directory>
/home/itssahil/PROJECTS/Mol_Feturizer/New_Systems/rnas/2EEU

>  <Rbt.Executable>
rbdock ($Id: //depot/dev/client3/rdock/2013.1/src/exe/rbdock.cxx#4 $)

>  <Rbt.Library>
libRbt.so (2013.1, Build901 2013/11/27)

>  <Rbt.Parameter_File>
/export/apps/rDock/src/rDock_2013.1_src/data/scripts/dock_solv.prm

>  <Rbt.Receptor>
prm/blind_docking_100.prm

>  <SCORE>
-18.5244

>  <SCORE.INTER>
-18.5244

>  <SCORE.INTER.CONST>
1

>  <SCORE.INTER.POLAR>
0

>  <SCORE.INTER.ROT>
0

>  <SCORE.INTER.SOLV>
3.42989

>  <SCORE.INTER.VDW>
-17.0929

>  <SCORE.INTER.norm>
-1.85244

>  <SCORE.INTRA>
0

>  <SCORE.INTRA.DIHEDRAL>
0

>  <SCORE.INTRA.DIHEDRAL.0>
0

>  <SCORE.INTRA.POLAR>
0

>  <SCORE.INTRA.POLAR.0>
0

>  <SCORE.INTRA.REPUL>
0

>  <SCORE.INTRA.REPUL.0>
0

>  <SCORE.INTRA.SOLV>
0

>  <SCORE.INTRA.SOLV.lig_0>
-4.28148

>  <SCORE.INTRA.VDW>
0

>  <SCORE.INTRA.VDW.0>
0

>  <SCORE.INTRA.norm>
0

>  <SCORE.RESTR>
0

>  <SCORE.RESTR.CAVITY>
0

>  <SCORE.RESTR.norm>
0

>  <SCORE.SYSTEM>
0

>  <SCORE.SYSTEM.CONST>
0

>  <SCORE.SYSTEM.DIHEDRAL>
0

>  <SCORE.SYSTEM.SOLV>
0

>  <SCORE.SYSTEM.norm>
0

>  <SCORE.heavy>
10

>  <SCORE.norm>
-1.85244

>  <RMSD>
0.840

$$$$
ligand
 OpenBabel11021811423D
libRbt.so/2013.1/901 2013/11/27
 10 11  0  0  0  0  0  0  0  0999 V2000
   11.8203   10.8043    8.4577 N   0  0  0  0  0  0  0  0  0  0  0  0
   11.4666   12.1003    8.7750 C   0  0  0  0  0  0  0  0  0  0  0  0
   11.0787   12.9802    7.8436 N   0  0  0  0  0  0  0  0  0  0  0  0
   11.0767   12.4630    6.5827 C   0  0  0  0  0  0  0  0  0  0  0  0
   11.4207   11.1760    6.1977 C   0  0  0  0  0  0  0  0  0  0  0  0
   11.8312   10.2361    7.1818 C   0  0  0  0  0  0  0  0  0  0  0  0
   12.1743    9.0595    7.0651 O   0  0  0  0  0  0  0  0  0  0  0  0
   11.2787   11.0783    4.8344 N   0  0  0  0  0  0  0  0  0  0  0  0
   10.8544   12.2899    4.4050 C   0  0  0  0  0  0  0  0  0  0  0  0
   10.7212   13.1659    5.4569 N   0  0  0  0  0  0  0  0  0  0  0  0
  1  2  1  0  0  0  0
  1  6  1  0  0  0  0
  2  3  2  0  0  0  0
  3  4  1  0  0  0  0
  4  5  2  0  0  0  0
  4 10  1  0  0  0  0
  5  6  1  0  0  0  0
  5  8  1  0  0  0  0
  6  7  2  0  0  0  0
  8  9  1  0  0  0  0
  9 10  2  0  0  0  0
M  END
>  <CHROM.1>
11.38757191,11.48911480,6.68968305,0.49596067,-1.25228010,1.17684379

>  <Name>
ligand

>  <RI>
0

>  <Rbt.Current_Directory>
/home/itssahil/PROJECTS/Mol_Feturizer/New_Systems/rnas/2EEU

>  <Rbt.Executable>
rbdock ($Id: //depot/dev/client3/rdock/2013.1/src/exe/rbdock.cxx#4 $)

>  <Rbt.Library>
libRbt.so (2013.1, Build901 2013/11/27)

>  <Rbt.Parameter_File>
/export/apps/rDock/src/rDock_2013.1_src/data/scripts/dock_solv.prm

>  <Rbt.Receptor>
prm/blind_docking_20.prm

>  <SCORE>
-18.4256

>  <SCORE.INTER>
-18.4256

>  <SCORE.INTER.CONST>
1

>  <SCORE.INTER.POLAR>
0

>  <SCORE.INTER.ROT>
0

>  <SCORE.INTER.SOLV>
3.51957

>  <SCORE.INTER.VDW>
-17.0569

>  <SCORE.INTER.norm>
-1.84256

>  <SCORE.INTRA>
0

>  <SCORE.INTRA.DIHEDRAL>
0

>  <SCORE.INTRA.DIHEDRAL.0>
0

>  <SCORE.INTRA.POLAR>
0

>  <SCORE.INTRA.POLAR.0>
0

>  <SCORE.INTRA.REPUL>
0

>  <SCORE.INTRA.REPUL.0>
0

>  <SCORE.INTRA.SOLV>
0

>  <SCORE.INTRA.SOLV.lig_0>
-4.28148

>  <SCORE.INTRA.VDW>
0

>  <SCORE.INTRA.VDW.0>
0

>  <SCORE.INTRA.norm>
0

>  <SCORE.RESTR>
0

>  <SCORE.RESTR.CAVITY>
0

>  <SCORE.RESTR.norm>
0

>  <SCORE.SYSTEM>
0

>  <SCORE.SYSTEM.CONST>
0

>  <SCORE.SYSTEM.DIHEDRAL>
0

>  <SCORE.SYSTEM.SOLV>
0

>  <SCORE.SYSTEM.norm>
0

>  <SCORE.heavy>
10

>  <SCORE.norm>
-1.84256

>  <RMSD>
0.840

$$$$
ligand
 OpenBabel11021811423D
libRbt.so/2013.1/901 2013/11/27
 10 11  0  0  0  0  0  0  0  0999 V2000
   11.9213   11.3902    8.4723 N   0  0  0  0  0  0  0  0  0  0  0  0
   11.6883   12.7457    8.5892 C   0  0  0  0  0  0  0  0  0  0  0  0
   11.3116   13.4954    7.5460 N   0  0  0  0  0  0  0  0  0  0  0  0
   11.1914   12.7854    6.3889 C   0  0  0  0  0  0  0  0  0  0  0  0
   11.4113   11.4288    6.2043 C   0  0  0  0  0  0  0  0  0  0  0  0
   11.8092   10.6265    7.3081 C   0  0  0  0  0  0  0  0  0  0  0  0
   12.0534    9.4215    7.3697 O   0  0  0  0  0  0  0  0  0  0  0  0
   11.1776   11.1270    4.8842 N   0  0  0  0  0  0  0  0  0  0  0  0
   10.8212   12.2862    4.2828 C   0  0  0  0  0  0  0  0  0  0  0  0
   10.8212   13.3272    5.1817 N   0  0  0  0  0  0  0  0  0  0  0  0
  1  2  1  0  0  0  0
  1  6  1  0  0  0  0
  2  3  2  0  0  0  0
  3  4  1  0  0  0  0
  4  5  2  0  0  0  0
  4 10  1  0  0  0  0
  5  6  1  0  0  0  0
  5  8  1  0  0  0  0
  6  7  2  0  0  0  0
  8  9  1  0  0  0  0
  9 10  2  0  0  0  0
M  END
>  <CHROM.1>
11.43293806,11.81815280,6.63914493,0.18154298,-1.28592000,0.71316417

>  <Name>
ligand

>  <RI>
0

>  <Rbt.Current_Directory>
/home/itssahil/PROJECTS/Mol_Feturizer/New_Systems/rnas/2EEU

>  <Rbt.Executable>
rbdock ($Id: //depot/dev/client3/rdock/2013.1/src/exe/rbdock.cxx#4 $)

>  <Rbt.Library>
libRbt.so (2013.1, Build901 2013/11/27)

>  <Rbt.Parameter_File>
/export/apps/rDock/src/rDock_2013.1_src/data/scripts/dock_solv.prm

>  <Rbt.Receptor>
prm/blind_docking_60.prm

>  <SCORE>
-18.522

>  <SCORE.INTER>
-18.522

>  <SCORE.INTER.CONST>
1

>  <SCORE.INTER.POLAR>
0

>  <SCORE.INTER.ROT>
0

>  <SCORE.INTER.SOLV>
3.49893

>  <SCORE.INTER.VDW>
-17.1143

>  <SCORE.INTER.norm>
-1.8522

>  <SCORE.INTRA>
0

>  <SCORE.INTRA.DIHEDRAL>
0

>  <SCORE.INTRA.DIHEDRAL.0>
0

>  <SCORE.INTRA.POLAR>
0

>  <SCORE.INTRA.POLAR.0>
0

>  <SCORE.INTRA.REPUL>
0

>  <SCORE.INTRA.REPUL.0>
0

>  <SCORE.INTRA.SOLV>
0

>  <SCORE.INTRA.SOLV.lig_0>
-4.28148

>  <SCORE.INTRA.VDW>
0

>  <SCORE.INTRA.VDW.0>
0

>  <SCORE.INTRA.norm>
0

>  <SCORE.RESTR>
0

>  <SCORE.RESTR.CAVITY>
0

>  <SCORE.RESTR.norm>
0

>  <SCORE.SYSTEM>
0

>  <SCORE.SYSTEM.CONST>
0

>  <SCORE.SYSTEM.DIHEDRAL>
0

>  <SCORE.SYSTEM.SOLV>
0

>  <SCORE.SYSTEM.norm>
0

>  <SCORE.heavy>
10

>  <SCORE.norm>
-1.8522

>  <RMSD>
0.840

$$$$
ligand
 OpenBabel11021811423D
libRbt.so/2013.1/901 2013/11/27
 10 11  0  0  0  0  0  0  0  0999 V2000
   11.9309   11.3958    8.4697 N   0  0  0  0  0  0  0  0  0  0  0  0
   11.7007   12.7520    8.5847 C   0  0  0  0  0  0  0  0  0  0  0  0
   11.3216   13.5002    7.5412 N   0  0  0  0  0  0  0  0  0  0  0  0
   11.1962   12.7881    6.3860 C   0  0  0  0  0  0  0  0  0  0  0  0
   11.4131   11.4307    6.2034 C   0  0  0  0  0  0  0  0  0  0  0  0
   11.8134   10.6300    7.3075 C   0  0  0  0  0  0  0  0  0  0  0  0
   12.0557    9.4246    7.3708 O   0  0  0  0  0  0  0  0  0  0  0  0
   11.1743   11.1266    4.8848 N   0  0  0  0  0  0  0  0  0  0  0  0
   10.8179   12.2852    4.2823 C   0  0  0  0  0  0  0  0  0  0  0  0
   10.8228   13.3280    5.1790 N   0  0  0  0  0  0  0  0  0  0  0  0
  1  2  1  0  0  0  0
  1  6  1  0  0  0  0
  2  3  2  0  0  0  0
  3  4  1  0  0  0  0
  4  5  2  0  0  0  0
  4 10  1  0  0  0  0
  5  6  1  0  0  0  0
  5  8  1  0  0  0  0
  6  7  2  0  0  0  0
  8  9  1  0  0  0  0
  9 10  2  0  0  0  0
M  END
>  <CHROM.1>
11.43693955,11.82087620,6.63740147,0.16889042,-1.28440960,0.69897662

>  <Name>
ligand

>  <RI>
0

>  <Rbt.Current_Directory>
/home/itssahil/PROJECTS/Mol_Feturizer/New_Systems/rnas/2EEU

>  <Rbt.Executable>
rbdock ($Id: //depot/dev/client3/rdock/2013.1/src/exe/rbdock.cxx#4 $)

>  <Rbt.Library>
libRbt.so (2013.1, Build901 2013/11/27)

>  <Rbt.Parameter_File>
/export/apps/rDock/src/rDock_2013.1_src/data/scripts/dock_solv.prm

>  <Rbt.Receptor>
prm/blind_docking_60.prm

>  <SCORE>
-18.5187

>  <SCORE.INTER>
-18.5187

>  <SCORE.INTER.CONST>
1

>  <SCORE.INTER.POLAR>
0

>  <SCORE.INTER.ROT>
0

>  <SCORE.INTER.SOLV>
3.49391

>  <SCORE.INTER.VDW>
-17.1104

>  <SCORE.INTER.norm>
-1.85187

>  <SCORE.INTRA>
0

>  <SCORE.INTRA.DIHEDRAL>
0

>  <SCORE.INTRA.DIHEDRAL.0>
0

>  <SCORE.INTRA.POLAR>
0

>  <SCORE.INTRA.POLAR.0>
0

>  <SCORE.INTRA.REPUL>
0

>  <SCORE.INTRA.REPUL.0>
0

>  <SCORE.INTRA.SOLV>
0

>  <SCORE.INTRA.SOLV.lig_0>
-4.28148

>  <SCORE.INTRA.VDW>
0

>  <SCORE.INTRA.VDW.0>
0

>  <SCORE.INTRA.norm>
0

>  <SCORE.RESTR>
0

>  <SCORE.RESTR.CAVITY>
0

>  <SCORE.RESTR.norm>
0

>  <SCORE.SYSTEM>
0

>  <SCORE.SYSTEM.CONST>
0

>  <SCORE.SYSTEM.DIHEDRAL>
0

>  <SCORE.SYSTEM.SOLV>
0

>  <SCORE.SYSTEM.norm>
0

>  <SCORE.heavy>
10

>  <SCORE.norm>
-1.85187

>  <RMSD>
0.841

$$$$
ligand
 OpenBabel11021811423D
libRbt.so/2013.1/901 2013/11/27
 10 11  0  0  0  0  0  0  0  0999 V2000
   11.9800   11.3913    8.4503 N   0  0  0  0  0  0  0  0  0  0  0  0
   11.7116   12.7388    8.5829 C   0  0  0  0  0  0  0  0  0  0  0  0
   11.3045   13.4880    7.5509 N   0  0  0  0  0  0  0  0  0  0  0  0
   11.1923   12.7863    6.3879 C   0  0  0  0  0  0  0  0  0  0  0  0
   11.4470   11.4380    6.1877 C   0  0  0  0  0  0  0  0  0  0  0  0
   11.8773   10.6362    7.2797 C   0  0  0  0  0  0  0  0  0  0  0  0
   12.1546    9.4377    7.3270 O   0  0  0  0  0  0  0  0  0  0  0  0
   11.2087   11.1428    4.8670 N   0  0  0  0  0  0  0  0  0  0  0  0
   10.8152   12.2977    4.2806 C   0  0  0  0  0  0  0  0  0  0  0  0
   10.7959   13.3296    5.1898 N   0  0  0  0  0  0  0  0  0  0  0  0
  1  2  1  0  0  0  0
  1  6  1  0  0  0  0
  2  3  2  0  0  0  0
  3  4  1  0  0  0  0
  4  5  2  0  0  0  0
  4 10  1  0  0  0  0
  5  6  1  0  0  0  0
  5  8  1  0  0  0  0
  6  7  2  0  0  0  0
  8  9  1  0  0  0  0
  9 10  2  0  0  0  0
M  END
>  <CHROM.1>
11.46238334,11.82358888,6.62623137,0.22770729,-1.26050768,0.76713829

>  <Name>
ligand

>  <RI>
0

>  <Rbt.Current_Directory>
/home/itssahil/PROJECTS/Mol_Feturizer/New_Systems/rnas/2EEU

>  <Rbt.Executable>
rbdock ($Id: //depot/dev/client3/rdock/2013.1/src/exe/rbdock.cxx#4 $)

>  <Rbt.Library>
libRbt.so (2013.1, Build901 2013/11/27)

>  <Rbt.Parameter_File>
/export/apps/rDock/src/rDock_2013.1_src/data/scripts/dock_solv.prm

>  <Rbt.Receptor>
prm/pocket_docking_3.prm

>  <SCORE>
-18.5138

>  <SCORE.INTER>
-18.5138

>  <SCORE.INTER.CONST>
1

>  <SCORE.INTER.POLAR>
0

>  <SCORE.INTER.ROT>
0

>  <SCORE.INTER.SOLV>
3.41396

>  <SCORE.INTER.VDW>
-17.0805

>  <SCORE.INTER.norm>
-1.85138

>  <SCORE.INTRA>
0

>  <SCORE.INTRA.DIHEDRAL>
0

>  <SCORE.INTRA.DIHEDRAL.0>
0

>  <SCORE.INTRA.POLAR>
0

>  <SCORE.INTRA.POLAR.0>
0

>  <SCORE.INTRA.REPUL>
0

>  <SCORE.INTRA.REPUL.0>
0

>  <SCORE.INTRA.SOLV>
0

>  <SCORE.INTRA.SOLV.lig_0>
-4.28148

>  <SCORE.INTRA.VDW>
0

>  <SCORE.INTRA.VDW.0>
0

>  <SCORE.INTRA.norm>
0

>  <SCORE.RESTR>
0

>  <SCORE.RESTR.CAVITY>
0

>  <SCORE.RESTR.norm>
0

>  <SCORE.SYSTEM>
0

>  <SCORE.SYSTEM.CONST>
0

>  <SCORE.SYSTEM.DIHEDRAL>
0

>  <SCORE.SYSTEM.SOLV>
0

>  <SCORE.SYSTEM.norm>
0

>  <SCORE.heavy>
10

>  <SCORE.norm>
-1.85138

>  <RMSD>
0.841

$$$$
ligand
 OpenBabel11021811423D
libRbt.so/2013.1/901 2013/11/27
 10 11  0  0  0  0  0  0  0  0999 V2000
   11.9405   11.3905    8.4652 N   0  0  0  0  0  0  0  0  0  0  0  0
   11.7185   12.7480    8.5823 C   0  0  0  0  0  0  0  0  0  0  0  0
   11.3362   13.4986    7.5418 N   0  0  0  0  0  0  0  0  0  0  0  0
   11.1988   12.7877    6.3872 C   0  0  0  0  0  0  0  0  0  0  0  0
   11.4069   11.4292    6.2026 C   0  0  0  0  0  0  0  0  0  0  0  0
   11.8106   10.6258    7.3036 C   0  0  0  0  0  0  0  0  0  0  0  0
   12.0466    9.4192    7.3647 O   0  0  0  0  0  0  0  0  0  0  0  0
   11.1571   11.1269    4.8856 N   0  0  0  0  0  0  0  0  0  0  0  0
   10.8028   12.2877    4.2860 C   0  0  0  0  0  0  0  0  0  0  0  0
   10.8199   13.3302    5.1831 N   0  0  0  0  0  0  0  0  0  0  0  0
  1  2  1  0  0  0  0
  1  6  1  0  0  0  0
  2  3  2  0  0  0  0
  3  4  1  0  0  0  0
  4  5  2  0  0  0  0
  4 10  1  0  0  0  0
  5  6  1  0  0  0  0
  5  8  1  0  0  0  0
  6  7  2  0  0  0  0
  8  9  1  0  0  0  0
  9 10  2  0  0  0  0
M  END
>  <CHROM.1>
11.43592235,11.81906587,6.63655497,0.13808118,-1.28243404,0.66980354

>  <Name>
ligand

>  <RI>
0

>  <Rbt.Current_Directory>
/home/itssahil/PROJECTS/Mol_Feturizer/New_Systems/rnas/2EEU

>  <Rbt.Executable>
rbdock ($Id: //depot/dev/client3/rdock/2013.1/src/exe/rbdock.cxx#4 $)

>  <Rbt.Library>
libRbt.so (2013.1, Build901 2013/11/27)

>  <Rbt.Parameter_File>
/export/apps/rDock/src/rDock_2013.1_src/data/scripts/dock_solv.prm

>  <Rbt.Receptor>
prm/blind_docking_60.prm

>  <SCORE>
-18.5107

>  <SCORE.INTER>
-18.5107

>  <SCORE.INTER.CONST>
1

>  <SCORE.INTER.POLAR>
0

>  <SCORE.INTER.ROT>
0

>  <SCORE.INTER.SOLV>
3.49772

>  <SCORE.INTER.VDW>
-17.1064

>  <SCORE.INTER.norm>
-1.85107

>  <SCORE.INTRA>
0

>  <SCORE.INTRA.DIHEDRAL>
0

>  <SCORE.INTRA.DIHEDRAL.0>
0

>  <SCORE.INTRA.POLAR>
0

>  <SCORE.INTRA.POLAR.0>
0

>  <SCORE.INTRA.REPUL>
0

>  <SCORE.INTRA.REPUL.0>
0

>  <SCORE.INTRA.SOLV>
0

>  <SCORE.INTRA.SOLV.lig_0>
-4.28148

>  <SCORE.INTRA.VDW>
0

>  <SCORE.INTRA.VDW.0>
0

>  <SCORE.INTRA.norm>
0

>  <SCORE.RESTR>
0

>  <SCORE.RESTR.CAVITY>
0

>  <SCORE.RESTR.norm>
0

>  <SCORE.SYSTEM>
0

>  <SCORE.SYSTEM.CONST>
0

>  <SCORE.SYSTEM.DIHEDRAL>
0

>  <SCORE.SYSTEM.SOLV>
0

>  <SCORE.SYSTEM.norm>
0

>  <SCORE.heavy>
10

>  <SCORE.norm>
-1.85107

>  <RMSD>
0.842

$$$$
ligand
 OpenBabel11021811423D
libRbt.so/2013.1/901 2013/11/27
 10 11  0  0  0  0  0  0  0  0999 V2000
   11.8210   10.7858    8.4637 N   0  0  0  0  0  0  0  0  0  0  0  0
   11.5046   12.0936    8.7723 C   0  0  0  0  0  0  0  0  0  0  0  0
   11.1341   12.9758    7.8360 N   0  0  0  0  0  0  0  0  0  0  0  0
   11.1094   12.4483    6.5796 C   0  0  0  0  0  0  0  0  0  0  0  0
   11.4159   11.1494    6.2034 C   0  0  0  0  0  0  0  0  0  0  0  0
   11.8077   10.2069    7.1927 C   0  0  0  0  0  0  0  0  0  0  0  0
   12.1182    9.0206    7.0838 O   0  0  0  0  0  0  0  0  0  0  0  0
   11.2619   11.0441    4.8419 N   0  0  0  0  0  0  0  0  0  0  0  0
   10.8674   12.2631    4.4050 C   0  0  0  0  0  0  0  0  0  0  0  0
   10.7652   13.1512    5.4503 N   0  0  0  0  0  0  0  0  0  0  0  0
  1  2  1  0  0  0  0
  1  6  1  0  0  0  0
  2  3  2  0  0  0  0
  3  4  1  0  0  0  0
  4  5  2  0  0  0  0
  4 10  1  0  0  0  0
  5  6  1  0  0  0  0
  5  8  1  0  0  0  0
  6  7  2  0  0  0  0
  8  9  1  0  0  0  0
  9 10  2  0  0  0  0
M  END
>  <CHROM.1>
11.39465591,11.46731677,6.69286480,0.43862467,-1.27405800,1.11374560

>  <Name>
ligand

>  <RI>
0

>  <Rbt.Current_Directory>
/home/itssahil/PROJECTS/Mol_Feturizer/New_Systems/rnas/2EEU

>  <Rbt.Executable>
rbdock ($Id: //depot/dev/client3/rdock/2013.1/src/exe/rbdock.cxx#4 $)

>  <Rbt.Library>
libRbt.so (2013.1, Build901 2013/11/27)

>  <Rbt.Parameter_File>
/export/apps/rDock/src/rDock_2013.1_src/data/scripts/dock_solv.prm

>  <Rbt.Receptor>
prm/blind_docking_20.prm

>  <SCORE>
-18.4598

>  <SCORE.INTER>
-18.4598

>  <SCORE.INTER.CONST>
1

>  <SCORE.INTER.POLAR>
0

>  <SCORE.INTER.ROT>
0

>  <SCORE.INTER.SOLV>
3.58788

>  <SCORE.INTER.VDW>
-17.1025

>  <SCORE.INTER.norm>
-1.84598

>  <SCORE.INTRA>
0

>  <SCORE.INTRA.DIHEDRAL>
0

>  <SCORE.INTRA.DIHEDRAL.0>
0

>  <SCORE.INTRA.POLAR>
0

>  <SCORE.INTRA.POLAR.0>
0

>  <SCORE.INTRA.REPUL>
0

>  <SCORE.INTRA.REPUL.0>
0

>  <SCORE.INTRA.SOLV>
0

>  <SCORE.INTRA.SOLV.lig_0>
-4.28148

>  <SCORE.INTRA.VDW>
0

>  <SCORE.INTRA.VDW.0>
0

>  <SCORE.INTRA.norm>
0

>  <SCORE.RESTR>
0

>  <SCORE.RESTR.CAVITY>
0

>  <SCORE.RESTR.norm>
0

>  <SCORE.SYSTEM>
0

>  <SCORE.SYSTEM.CONST>
0

>  <SCORE.SYSTEM.DIHEDRAL>
0

>  <SCORE.SYSTEM.SOLV>
0

>  <SCORE.SYSTEM.norm>
0

>  <SCORE.heavy>
10

>  <SCORE.norm>
-1.84598

>  <RMSD>
0.843

$$$$
ligand
 OpenBabel11021811423D
libRbt.so/2013.1/901 2013/11/27
 10 11  0  0  0  0  0  0  0  0999 V2000
   11.9205   11.3869    8.4687 N   0  0  0  0  0  0  0  0  0  0  0  0
   11.6926   12.7432    8.5879 C   0  0  0  0  0  0  0  0  0  0  0  0
   11.3187   13.4960    7.5460 N   0  0  0  0  0  0  0  0  0  0  0  0
   11.1959   12.7884    6.3877 C   0  0  0  0  0  0  0  0  0  0  0  0
   11.4106   11.4313    6.2008 C   0  0  0  0  0  0  0  0  0  0  0  0
   11.8055   10.6257    7.3033 C   0  0  0  0  0  0  0  0  0  0  0  0
   12.0452    9.4196    7.3629 O   0  0  0  0  0  0  0  0  0  0  0  0
   11.1758   11.1325    4.8802 N   0  0  0  0  0  0  0  0  0  0  0  0
   10.8238   12.2941    4.2808 C   0  0  0  0  0  0  0  0  0  0  0  0
   10.8277   13.3336    5.1814 N   0  0  0  0  0  0  0  0  0  0  0  0
  1  2  1  0  0  0  0
  1  6  1  0  0  0  0
  2  3  2  0  0  0  0
  3  4  1  0  0  0  0
  4  5  2  0  0  0  0
  4 10  1  0  0  0  0
  5  6  1  0  0  0  0
  5  8  1  0  0  0  0
  6  7  2  0  0  0  0
  8  9  1  0  0  0  0
  9 10  2  0  0  0  0
M  END
>  <CHROM.1>
11.43374552,11.81980147,6.63630343,0.17137484,-1.28836845,0.70507233

>  <Name>
ligand

>  <RI>
0

>  <Rbt.Current_Directory>
/home/itssahil/PROJECTS/Mol_Feturizer/New_Systems/rnas/2EEU

>  <Rbt.Executable>
rbdock ($Id: //depot/dev/client3/rdock/2013.1/src/exe/rbdock.cxx#4 $)

>  <Rbt.Library>
libRbt.so (2013.1, Build901 2013/11/27)

>  <Rbt.Parameter_File>
/export/apps/rDock/src/rDock_2013.1_src/data/scripts/dock_solv.prm

>  <Rbt.Receptor>
prm/pocket_docking_5.prm

>  <SCORE>
-18.5208

>  <SCORE.INTER>
-18.5208

>  <SCORE.INTER.CONST>
1

>  <SCORE.INTER.POLAR>
0

>  <SCORE.INTER.ROT>
0

>  <SCORE.INTER.SOLV>
3.51142

>  <SCORE.INTER.VDW>
-17.1177

>  <SCORE.INTER.norm>
-1.85208

>  <SCORE.INTRA>
0

>  <SCORE.INTRA.DIHEDRAL>
0

>  <SCORE.INTRA.DIHEDRAL.0>
0

>  <SCORE.INTRA.POLAR>
0

>  <SCORE.INTRA.POLAR.0>
0

>  <SCORE.INTRA.REPUL>
0

>  <SCORE.INTRA.REPUL.0>
0

>  <SCORE.INTRA.SOLV>
0

>  <SCORE.INTRA.SOLV.lig_0>
-4.28148

>  <SCORE.INTRA.VDW>
0

>  <SCORE.INTRA.VDW.0>
0

>  <SCORE.INTRA.norm>
0

>  <SCORE.RESTR>
0

>  <SCORE.RESTR.CAVITY>
0

>  <SCORE.RESTR.norm>
0

>  <SCORE.SYSTEM>
0

>  <SCORE.SYSTEM.CONST>
0

>  <SCORE.SYSTEM.DIHEDRAL>
0

>  <SCORE.SYSTEM.SOLV>
0

>  <SCORE.SYSTEM.norm>
0

>  <SCORE.heavy>
10

>  <SCORE.norm>
-1.85208

>  <RMSD>
0.843

$$$$
ligand
 OpenBabel11021811423D
libRbt.so/2013.1/901 2013/11/27
 10 11  0  0  0  0  0  0  0  0999 V2000
   11.9772   11.3923    8.4490 N   0  0  0  0  0  0  0  0  0  0  0  0
   11.7315   12.7447    8.5765 C   0  0  0  0  0  0  0  0  0  0  0  0
   11.3299   13.4952    7.5432 N   0  0  0  0  0  0  0  0  0  0  0  0
   11.1989   12.7896    6.3846 C   0  0  0  0  0  0  0  0  0  0  0  0
   11.4303   11.4363    6.1898 C   0  0  0  0  0  0  0  0  0  0  0  0
   11.8546   10.6331    7.2831 C   0  0  0  0  0  0  0  0  0  0  0  0
   12.1127    9.4305    7.3347 O   0  0  0  0  0  0  0  0  0  0  0  0
   11.1787   11.1384    4.8721 N   0  0  0  0  0  0  0  0  0  0  0  0
   10.8002   12.2966    4.2823 C   0  0  0  0  0  0  0  0  0  0  0  0
   10.8035   13.3332    5.1863 N   0  0  0  0  0  0  0  0  0  0  0  0
  1  2  1  0  0  0  0
  1  6  1  0  0  0  0
  2  3  2  0  0  0  0
  3  4  1  0  0  0  0
  4  5  2  0  0  0  0
  4 10  1  0  0  0  0
  5  6  1  0  0  0  0
  5  8  1  0  0  0  0
  6  7  2  0  0  0  0
  8  9  1  0  0  0  0
  9 10  2  0  0  0  0
M  END
>  <CHROM.1>
11.45478774,11.82380108,6.62615764,0.17368347,-1.26668158,0.71056224

>  <Name>
ligand

>  <RI>
0

>  <Rbt.Current_Directory>
/home/itssahil/PROJECTS/Mol_Feturizer/New_Systems/rnas/2EEU

>  <Rbt.Executable>
rbdock ($Id: //depot/dev/client3/rdock/2013.1/src/exe/rbdock.cxx#4 $)

>  <Rbt.Library>
libRbt.so (2013.1, Build901 2013/11/27)

>  <Rbt.Parameter_File>
/export/apps/rDock/src/rDock_2013.1_src/data/scripts/dock_solv.prm

>  <Rbt.Receptor>
prm/pocket_docking_5.prm

>  <SCORE>
-18.5277

>  <SCORE.INTER>
-18.5277

>  <SCORE.INTER.CONST>
1

>  <SCORE.INTER.POLAR>
0

>  <SCORE.INTER.ROT>
0

>  <SCORE.INTER.SOLV>
3.44263

>  <SCORE.INTER.VDW>
-17.0994

>  <SCORE.INTER.norm>
-1.85277

>  <SCORE.INTRA>
0

>  <SCORE.INTRA.DIHEDRAL>
0

>  <SCORE.INTRA.DIHEDRAL.0>
0

>  <SCORE.INTRA.POLAR>
0

>  <SCORE.INTRA.POLAR.0>
0

>  <SCORE.INTRA.REPUL>
0

>  <SCORE.INTRA.REPUL.0>
0

>  <SCORE.INTRA.SOLV>
0

>  <SCORE.INTRA.SOLV.lig_0>
-4.28148

>  <SCORE.INTRA.VDW>
0

>  <SCORE.INTRA.VDW.0>
0

>  <SCORE.INTRA.norm>
0

>  <SCORE.RESTR>
0

>  <SCORE.RESTR.CAVITY>
0

>  <SCORE.RESTR.norm>
0

>  <SCORE.SYSTEM>
0

>  <SCORE.SYSTEM.CONST>
0

>  <SCORE.SYSTEM.DIHEDRAL>
0

>  <SCORE.SYSTEM.SOLV>
0

>  <SCORE.SYSTEM.norm>
0

>  <SCORE.heavy>
10

>  <SCORE.norm>
-1.85277

>  <RMSD>
0.844

$$$$
ligand
 OpenBabel11021811423D
libRbt.so/2013.1/901 2013/11/27
 10 11  0  0  0  0  0  0  0  0999 V2000
   11.9212   11.3971    8.4729 N   0  0  0  0  0  0  0  0  0  0  0  0
   11.6836   12.7525    8.5833 C   0  0  0  0  0  0  0  0  0  0  0  0
   11.3114   13.4971    7.5349 N   0  0  0  0  0  0  0  0  0  0  0  0
   11.2006   12.7825    6.3797 C   0  0  0  0  0  0  0  0  0  0  0  0
   11.4255   11.4258    6.2016 C   0  0  0  0  0  0  0  0  0  0  0  0
   11.8187   10.6288    7.3110 C   0  0  0  0  0  0  0  0  0  0  0  0
   12.0659    9.4247    7.3787 O   0  0  0  0  0  0  0  0  0  0  0  0
   11.2010   11.1184    4.8812 N   0  0  0  0  0  0  0  0  0  0  0  0
   10.8452   12.2743    4.2732 C   0  0  0  0  0  0  0  0  0  0  0  0
   10.8366   13.3187    5.1682 N   0  0  0  0  0  0  0  0  0  0  0  0
  1  2  1  0  0  0  0
  1  6  1  0  0  0  0
  2  3  2  0  0  0  0
  3  4  1  0  0  0  0
  4  5  2  0  0  0  0
  4 10  1  0  0  0  0
  5  6  1  0  0  0  0
  5  8  1  0  0  0  0
  6  7  2  0  0  0  0
  8  9  1  0  0  0  0
  9 10  2  0  0  0  0
M  END
>  <CHROM.1>
11.44329803,11.81684486,6.63514219,0.20421630,-1.28879557,0.73117811

>  <Name>
ligand

>  <RI>
0

>  <Rbt.Current_Directory>
/home/itssahil/PROJECTS/Mol_Feturizer/New_Systems/rnas/2EEU

>  <Rbt.Executable>
rbdock ($Id: //depot/dev/client3/rdock/2013.1/src/exe/rbdock.cxx#4 $)

>  <Rbt.Library>
libRbt.so (2013.1, Build901 2013/11/27)

>  <Rbt.Parameter_File>
/export/apps/rDock/src/rDock_2013.1_src/data/scripts/dock_solv.prm

>  <Rbt.Receptor>
prm/pocket_docking_6.prm

>  <SCORE>
-18.4794

>  <SCORE.INTER>
-18.4794

>  <SCORE.INTER.CONST>
1

>  <SCORE.INTER.POLAR>
0

>  <SCORE.INTER.ROT>
0

>  <SCORE.INTER.SOLV>
3.49904

>  <SCORE.INTER.VDW>
-17.086

>  <SCORE.INTER.norm>
-1.84794

>  <SCORE.INTRA>
0

>  <SCORE.INTRA.DIHEDRAL>
0

>  <SCORE.INTRA.DIHEDRAL.0>
0

>  <SCORE.INTRA.POLAR>
0

>  <SCORE.INTRA.POLAR.0>
0

>  <SCORE.INTRA.REPUL>
0

>  <SCORE.INTRA.REPUL.0>
0

>  <SCORE.INTRA.SOLV>
0

>  <SCORE.INTRA.SOLV.lig_0>
-4.28148

>  <SCORE.INTRA.VDW>
0

>  <SCORE.INTRA.VDW.0>
0

>  <SCORE.INTRA.norm>
0

>  <SCORE.RESTR>
0

>  <SCORE.RESTR.CAVITY>
0

>  <SCORE.RESTR.norm>
0

>  <SCORE.SYSTEM>
0

>  <SCORE.SYSTEM.CONST>
0

>  <SCORE.SYSTEM.DIHEDRAL>
0

>  <SCORE.SYSTEM.SOLV>
0

>  <SCORE.SYSTEM.norm>
0

>  <SCORE.heavy>
10

>  <SCORE.norm>
-1.84794

>  <RMSD>
0.844

$$$$
ligand
 OpenBabel11021811423D
libRbt.so/2013.1/901 2013/11/27
 10 11  0  0  0  0  0  0  0  0999 V2000
   11.8743   10.7429    8.4498 N   0  0  0  0  0  0  0  0  0  0  0  0
   11.5243   12.0358    8.7836 C   0  0  0  0  0  0  0  0  0  0  0  0
   11.1245   12.9242    7.8654 N   0  0  0  0  0  0  0  0  0  0  0  0
   11.1067   12.4187    6.5998 C   0  0  0  0  0  0  0  0  0  0  0  0
   11.4461   11.1355    6.1986 C   0  0  0  0  0  0  0  0  0  0  0  0
   11.8692   10.1866    7.1686 C   0  0  0  0  0  0  0  0  0  0  0  0
   12.2112    9.0113    7.0367 O   0  0  0  0  0  0  0  0  0  0  0  0
   11.2870   11.0505    4.8363 N   0  0  0  0  0  0  0  0  0  0  0  0
   10.8570   12.2659    4.4236 C   0  0  0  0  0  0  0  0  0  0  0  0
   10.7369   13.1320    5.4853 N   0  0  0  0  0  0  0  0  0  0  0  0
  1  2  1  0  0  0  0
  1  6  1  0  0  0  0
  2  3  2  0  0  0  0
  3  4  1  0  0  0  0
  4  5  2  0  0  0  0
  4 10  1  0  0  0  0
  5  6  1  0  0  0  0
  5  8  1  0  0  0  0
  6  7  2  0  0  0  0
  8  9  1  0  0  0  0
  9 10  2  0  0  0  0
M  END
>  <CHROM.1>
11.41915114,11.44399805,6.69386026,0.45966761,-1.24701150,1.15172533

>  <Name>
ligand

>  <RI>
0

>  <Rbt.Current_Directory>
/home/itssahil/PROJECTS/Mol_Feturizer/New_Systems/rnas/2EEU

>  <Rbt.Executable>
rbdock ($Id: //depot/dev/client3/rdock/2013.1/src/exe/rbdock.cxx#4 $)

>  <Rbt.Library>
libRbt.so (2013.1, Build901 2013/11/27)

>  <Rbt.Parameter_File>
/export/apps/rDock/src/rDock_2013.1_src/data/scripts/dock_solv.prm

>  <Rbt.Receptor>
prm/blind_docking_20.prm

>  <SCORE>
-18.4624

>  <SCORE.INTER>
-18.4624

>  <SCORE.INTER.CONST>
1

>  <SCORE.INTER.POLAR>
0

>  <SCORE.INTER.ROT>
0

>  <SCORE.INTER.SOLV>
3.49171

>  <SCORE.INTER.VDW>
-17.0722

>  <SCORE.INTER.norm>
-1.84624

>  <SCORE.INTRA>
0

>  <SCORE.INTRA.DIHEDRAL>
0

>  <SCORE.INTRA.DIHEDRAL.0>
0

>  <SCORE.INTRA.POLAR>
0

>  <SCORE.INTRA.POLAR.0>
0

>  <SCORE.INTRA.REPUL>
0

>  <SCORE.INTRA.REPUL.0>
0

>  <SCORE.INTRA.SOLV>
0

>  <SCORE.INTRA.SOLV.lig_0>
-4.28148

>  <SCORE.INTRA.VDW>
0

>  <SCORE.INTRA.VDW.0>
0

>  <SCORE.INTRA.norm>
0

>  <SCORE.RESTR>
0

>  <SCORE.RESTR.CAVITY>
0

>  <SCORE.RESTR.norm>
0

>  <SCORE.SYSTEM>
0

>  <SCORE.SYSTEM.CONST>
0

>  <SCORE.SYSTEM.DIHEDRAL>
0

>  <SCORE.SYSTEM.SOLV>
0

>  <SCORE.SYSTEM.norm>
0

>  <SCORE.heavy>
10

>  <SCORE.norm>
-1.84624

>  <RMSD>
0.846

$$$$
ligand
 OpenBabel11021811423D
libRbt.so/2013.1/901 2013/11/27
 10 11  0  0  0  0  0  0  0  0999 V2000
   11.9742   11.3771    8.4435 N   0  0  0  0  0  0  0  0  0  0  0  0
   11.7330   12.7297    8.5774 C   0  0  0  0  0  0  0  0  0  0  0  0
   11.3316   13.4860    7.5482 N   0  0  0  0  0  0  0  0  0  0  0  0
   11.1958   12.7859    6.3869 C   0  0  0  0  0  0  0  0  0  0  0  0
   11.4226   11.4328    6.1856 C   0  0  0  0  0  0  0  0  0  0  0  0
   11.8467   10.6235    7.2744 C   0  0  0  0  0  0  0  0  0  0  0  0
   12.1011    9.4198    7.3203 O   0  0  0  0  0  0  0  0  0  0  0  0
   11.1672   11.1414    4.8672 N   0  0  0  0  0  0  0  0  0  0  0  0
   10.7912   12.3033    4.2833 C   0  0  0  0  0  0  0  0  0  0  0  0
   10.7996   13.3359    5.1918 N   0  0  0  0  0  0  0  0  0  0  0  0
  1  2  1  0  0  0  0
  1  6  1  0  0  0  0
  2  3  2  0  0  0  0
  3  4  1  0  0  0  0
  4  5  2  0  0  0  0
  4 10  1  0  0  0  0
  5  6  1  0  0  0  0
  5  8  1  0  0  0  0
  6  7  2  0  0  0  0
  8  9  1  0  0  0  0
  9 10  2  0  0  0  0
M  END
>  <CHROM.1>
11.44924830,11.81824573,6.62360880,0.16101415,-1.26709674,0.70284151

>  <Name>
ligand

>  <RI>
0

>  <Rbt.Current_Directory>
/home/itssahil/PROJECTS/Mol_Feturizer/New_Systems/rnas/2EEU

>  <Rbt.Executable>
rbdock ($Id: //depot/dev/client3/rdock/2013.1/src/exe/rbdock.cxx#4 $)

>  <Rbt.Library>
libRbt.so (2013.1, Build901 2013/11/27)

>  <Rbt.Parameter_File>
/export/apps/rDock/src/rDock_2013.1_src/data/scripts/dock_solv.prm

>  <Rbt.Receptor>
prm/pocket_docking_8.prm

>  <SCORE>
-18.5279

>  <SCORE.INTER>
-18.5279

>  <SCORE.INTER.CONST>
1

>  <SCORE.INTER.POLAR>
0

>  <SCORE.INTER.ROT>
0

>  <SCORE.INTER.SOLV>
3.45237

>  <SCORE.INTER.VDW>
-17.1028

>  <SCORE.INTER.norm>
-1.85279

>  <SCORE.INTRA>
0

>  <SCORE.INTRA.DIHEDRAL>
0

>  <SCORE.INTRA.DIHEDRAL.0>
0

>  <SCORE.INTRA.POLAR>
0

>  <SCORE.INTRA.POLAR.0>
0

>  <SCORE.INTRA.REPUL>
0

>  <SCORE.INTRA.REPUL.0>
0

>  <SCORE.INTRA.SOLV>
0

>  <SCORE.INTRA.SOLV.lig_0>
-4.28148

>  <SCORE.INTRA.VDW>
0

>  <SCORE.INTRA.VDW.0>
0

>  <SCORE.INTRA.norm>
0

>  <SCORE.RESTR>
0

>  <SCORE.RESTR.CAVITY>
0

>  <SCORE.RESTR.norm>
0

>  <SCORE.SYSTEM>
0

>  <SCORE.SYSTEM.CONST>
0

>  <SCORE.SYSTEM.DIHEDRAL>
0

>  <SCORE.SYSTEM.SOLV>
0

>  <SCORE.SYSTEM.norm>
0

>  <SCORE.heavy>
10

>  <SCORE.norm>
-1.85279

>  <RMSD>
0.846

$$$$
ligand
 OpenBabel11021811423D
libRbt.so/2013.1/901 2013/11/27
 10 11  0  0  0  0  0  0  0  0999 V2000
   11.8145   10.7889    8.4625 N   0  0  0  0  0  0  0  0  0  0  0  0
   11.4874   12.0945    8.7689 C   0  0  0  0  0  0  0  0  0  0  0  0
   11.1139   12.9733    7.8305 N   0  0  0  0  0  0  0  0  0  0  0  0
   11.0977   12.4447    6.5744 C   0  0  0  0  0  0  0  0  0  0  0  0
   11.4151   11.1477    6.2004 C   0  0  0  0  0  0  0  0  0  0  0  0
   11.8101   10.2089    7.1919 C   0  0  0  0  0  0  0  0  0  0  0  0
   12.1297    9.0248    7.0851 O   0  0  0  0  0  0  0  0  0  0  0  0
   11.2669   11.0402    4.8384 N   0  0  0  0  0  0  0  0  0  0  0  0
   10.8651   12.2559    4.3991 C   0  0  0  0  0  0  0  0  0  0  0  0
   10.7525   13.1440    5.4433 N   0  0  0  0  0  0  0  0  0  0  0  0
  1  2  1  0  0  0  0
  1  6  1  0  0  0  0
  2  3  2  0  0  0  0
  3  4  1  0  0  0  0
  4  5  2  0  0  0  0
  4 10  1  0  0  0  0
  5  6  1  0  0  0  0
  5  8  1  0  0  0  0
  6  7  2  0  0  0  0
  8  9  1  0  0  0  0
  9 10  2  0  0  0  0
M  END
>  <CHROM.1>
11.38971842,11.46583717,6.68952326,0.46063297,-1.26904327,1.13397181

>  <Name>
ligand

>  <RI>
0

>  <Rbt.Current_Directory>
/home/itssahil/PROJECTS/Mol_Feturizer/New_Systems/rnas/2EEU

>  <Rbt.Executable>
rbdock ($Id: //depot/dev/client3/rdock/2013.1/src/exe/rbdock.cxx#4 $)

>  <Rbt.Library>
libRbt.so (2013.1, Build901 2013/11/27)

>  <Rbt.Parameter_File>
/export/apps/rDock/src/rDock_2013.1_src/data/scripts/dock_solv.prm

>  <Rbt.Receptor>
prm/blind_docking_20.prm

>  <SCORE>
-18.4526

>  <SCORE.INTER>
-18.4526

>  <SCORE.INTER.CONST>
1

>  <SCORE.INTER.POLAR>
0

>  <SCORE.INTER.ROT>
0

>  <SCORE.INTER.SOLV>
3.57637

>  <SCORE.INTER.VDW>
-17.0938

>  <SCORE.INTER.norm>
-1.84526

>  <SCORE.INTRA>
0

>  <SCORE.INTRA.DIHEDRAL>
0

>  <SCORE.INTRA.DIHEDRAL.0>
0

>  <SCORE.INTRA.POLAR>
0

>  <SCORE.INTRA.POLAR.0>
0

>  <SCORE.INTRA.REPUL>
0

>  <SCORE.INTRA.REPUL.0>
0

>  <SCORE.INTRA.SOLV>
0

>  <SCORE.INTRA.SOLV.lig_0>
-4.28148

>  <SCORE.INTRA.VDW>
0

>  <SCORE.INTRA.VDW.0>
0

>  <SCORE.INTRA.norm>
0

>  <SCORE.RESTR>
0

>  <SCORE.RESTR.CAVITY>
0

>  <SCORE.RESTR.norm>
0

>  <SCORE.SYSTEM>
0

>  <SCORE.SYSTEM.CONST>
0

>  <SCORE.SYSTEM.DIHEDRAL>
0

>  <SCORE.SYSTEM.SOLV>
0

>  <SCORE.SYSTEM.norm>
0

>  <SCORE.heavy>
10

>  <SCORE.norm>
-1.84526

>  <RMSD>
0.847

$$$$
ligand
 OpenBabel11021811423D
libRbt.so/2013.1/901 2013/11/27
 10 11  0  0  0  0  0  0  0  0999 V2000
   11.8858   11.4028    8.4759 N   0  0  0  0  0  0  0  0  0  0  0  0
   11.6463   12.7576    8.5890 C   0  0  0  0  0  0  0  0  0  0  0  0
   11.2828   13.5057    7.5401 N   0  0  0  0  0  0  0  0  0  0  0  0
   11.1827   12.7951    6.3814 C   0  0  0  0  0  0  0  0  0  0  0  0
   11.4101   11.4393    6.2005 C   0  0  0  0  0  0  0  0  0  0  0  0
   11.7940   10.6386    7.3104 C   0  0  0  0  0  0  0  0  0  0  0  0
   12.0414    9.4344    7.3759 O   0  0  0  0  0  0  0  0  0  0  0  0
   11.1974   11.1364    4.8770 N   0  0  0  0  0  0  0  0  0  0  0  0
   10.8462   12.2943    4.2701 C   0  0  0  0  0  0  0  0  0  0  0  0
   10.8289   13.3354    5.1687 N   0  0  0  0  0  0  0  0  0  0  0  0
  1  2  1  0  0  0  0
  1  6  1  0  0  0  0
  2  3  2  0  0  0  0
  3  4  1  0  0  0  0
  4  5  2  0  0  0  0
  4 10  1  0  0  0  0
  5  6  1  0  0  0  0
  5  8  1  0  0  0  0
  6  7  2  0  0  0  0
  8  9  1  0  0  0  0
  9 10  2  0  0  0  0
M  END
>  <CHROM.1>
11.42377225,11.82875410,6.63551334,0.22760740,-1.29480886,0.75723901

>  <Name>
ligand

>  <RI>
0

>  <Rbt.Current_Directory>
/home/itssahil/PROJECTS/Mol_Feturizer/New_Systems/rnas/2EEU

>  <Rbt.Executable>
rbdock ($Id: //depot/dev/client3/rdock/2013.1/src/exe/rbdock.cxx#4 $)

>  <Rbt.Library>
libRbt.so (2013.1, Build901 2013/11/27)

>  <Rbt.Parameter_File>
/export/apps/rDock/src/rDock_2013.1_src/data/scripts/dock_solv.prm

>  <Rbt.Receptor>
prm/blind_docking_60.prm

>  <SCORE>
-18.5079

>  <SCORE.INTER>
-18.5079

>  <SCORE.INTER.CONST>
1

>  <SCORE.INTER.POLAR>
0

>  <SCORE.INTER.ROT>
0

>  <SCORE.INTER.SOLV>
3.52358

>  <SCORE.INTER.VDW>
-17.1131

>  <SCORE.INTER.norm>
-1.85079

>  <SCORE.INTRA>
0

>  <SCORE.INTRA.DIHEDRAL>
0

>  <SCORE.INTRA.DIHEDRAL.0>
0

>  <SCORE.INTRA.POLAR>
0

>  <SCORE.INTRA.POLAR.0>
0

>  <SCORE.INTRA.REPUL>
0

>  <SCORE.INTRA.REPUL.0>
0

>  <SCORE.INTRA.SOLV>
0

>  <SCORE.INTRA.SOLV.lig_0>
-4.28148

>  <SCORE.INTRA.VDW>
0

>  <SCORE.INTRA.VDW.0>
0

>  <SCORE.INTRA.norm>
0

>  <SCORE.RESTR>
0

>  <SCORE.RESTR.CAVITY>
0

>  <SCORE.RESTR.norm>
0

>  <SCORE.SYSTEM>
0

>  <SCORE.SYSTEM.CONST>
0

>  <SCORE.SYSTEM.DIHEDRAL>
0

>  <SCORE.SYSTEM.SOLV>
0

>  <SCORE.SYSTEM.norm>
0

>  <SCORE.heavy>
10

>  <SCORE.norm>
-1.85079

>  <RMSD>
0.848

$$$$
ligand
 OpenBabel11021811423D
libRbt.so/2013.1/901 2013/11/27
 10 11  0  0  0  0  0  0  0  0999 V2000
   11.8657   10.7425    8.4496 N   0  0  0  0  0  0  0  0  0  0  0  0
   11.5109   12.0345    8.7821 C   0  0  0  0  0  0  0  0  0  0  0  0
   11.1128   12.9220    7.8623 N   0  0  0  0  0  0  0  0  0  0  0  0
   11.1020   12.4167    6.5966 C   0  0  0  0  0  0  0  0  0  0  0  0
   11.4466   11.1345    6.1966 C   0  0  0  0  0  0  0  0  0  0  0  0
   11.8678   10.1865    7.1683 C   0  0  0  0  0  0  0  0  0  0  0  0
   12.2134    9.0121    7.0377 O   0  0  0  0  0  0  0  0  0  0  0  0
   11.2937   11.0493    4.8336 N   0  0  0  0  0  0  0  0  0  0  0  0
   10.8623   12.2636    4.4192 C   0  0  0  0  0  0  0  0  0  0  0  0
   10.7352   13.1292    5.4805 N   0  0  0  0  0  0  0  0  0  0  0  0
  1  2  1  0  0  0  0
  1  6  1  0  0  0  0
  2  3  2  0  0  0  0
  3  4  1  0  0  0  0
  4  5  2  0  0  0  0
  4 10  1  0  0  0  0
  5  6  1  0  0  0  0
  5  8  1  0  0  0  0
  6  7  2  0  0  0  0
  8  9  1  0  0  0  0
  9 10  2  0  0  0  0
M  END
>  <CHROM.1>
11.41656596,11.44279869,6.69178675,0.47572255,-1.24638243,1.16713093

>  <Name>
ligand

>  <RI>
0

>  <Rbt.Current_Directory>
/home/itssahil/PROJECTS/Mol_Feturizer/New_Systems/rnas/2EEU

>  <Rbt.Executable>
rbdock ($Id: //depot/dev/client3/rdock/2013.1/src/exe/rbdock.cxx#4 $)

>  <Rbt.Library>
libRbt.so (2013.1, Build901 2013/11/27)

>  <Rbt.Parameter_File>
/export/apps/rDock/src/rDock_2013.1_src/data/scripts/dock_solv.prm

>  <Rbt.Receptor>
prm/blind_docking_20.prm

>  <SCORE>
-18.4558

>  <SCORE.INTER>
-18.4558

>  <SCORE.INTER.CONST>
1

>  <SCORE.INTER.POLAR>
0

>  <SCORE.INTER.ROT>
0

>  <SCORE.INTER.SOLV>
3.49417

>  <SCORE.INTER.VDW>
-17.0686

>  <SCORE.INTER.norm>
-1.84558

>  <SCORE.INTRA>
0

>  <SCORE.INTRA.DIHEDRAL>
0

>  <SCORE.INTRA.DIHEDRAL.0>
0

>  <SCORE.INTRA.POLAR>
0

>  <SCORE.INTRA.POLAR.0>
0

>  <SCORE.INTRA.REPUL>
0

>  <SCORE.INTRA.REPUL.0>
0

>  <SCORE.INTRA.SOLV>
0

>  <SCORE.INTRA.SOLV.lig_0>
-4.28148

>  <SCORE.INTRA.VDW>
0

>  <SCORE.INTRA.VDW.0>
0

>  <SCORE.INTRA.norm>
0

>  <SCORE.RESTR>
0

>  <SCORE.RESTR.CAVITY>
0

>  <SCORE.RESTR.norm>
0

>  <SCORE.SYSTEM>
0

>  <SCORE.SYSTEM.CONST>
0

>  <SCORE.SYSTEM.DIHEDRAL>
0

>  <SCORE.SYSTEM.SOLV>
0

>  <SCORE.SYSTEM.norm>
0

>  <SCORE.heavy>
10

>  <SCORE.norm>
-1.84558

>  <RMSD>
0.849

$$$$
ligand
 OpenBabel11021811423D
libRbt.so/2013.1/901 2013/11/27
 10 11  0  0  0  0  0  0  0  0999 V2000
   11.8691   10.7389    8.4479 N   0  0  0  0  0  0  0  0  0  0  0  0
   11.5199   12.0316    8.7833 C   0  0  0  0  0  0  0  0  0  0  0  0
   11.1221   12.9218    7.8660 N   0  0  0  0  0  0  0  0  0  0  0  0
   11.1055   12.4184    6.5996 C   0  0  0  0  0  0  0  0  0  0  0  0
   11.4443   11.1356    6.1967 C   0  0  0  0  0  0  0  0  0  0  0  0
   11.8653   10.1847    7.1658 C   0  0  0  0  0  0  0  0  0  0  0  0
   12.2063    9.0093    7.0324 O   0  0  0  0  0  0  0  0  0  0  0  0
   11.2870   11.0529    4.8341 N   0  0  0  0  0  0  0  0  0  0  0  0
   10.8586   12.2693    4.4228 C   0  0  0  0  0  0  0  0  0  0  0  0
   10.7378   13.1338    5.4857 N   0  0  0  0  0  0  0  0  0  0  0  0
  1  2  1  0  0  0  0
  1  6  1  0  0  0  0
  2  3  2  0  0  0  0
  3  4  1  0  0  0  0
  4  5  2  0  0  0  0
  4 10  1  0  0  0  0
  5  6  1  0  0  0  0
  5  8  1  0  0  0  0
  6  7  2  0  0  0  0
  8  9  1  0  0  0  0
  9 10  2  0  0  0  0
M  END
>  <CHROM.1>
11.41696760,11.44326656,6.69245926,0.46234773,-1.24837287,1.15589379

>  <Name>
ligand

>  <RI>
0

>  <Rbt.Current_Directory>
/home/itssahil/PROJECTS/Mol_Feturizer/New_Systems/rnas/2EEU

>  <Rbt.Executable>
rbdock ($Id: //depot/dev/client3/rdock/2013.1/src/exe/rbdock.cxx#4 $)

>  <Rbt.Library>
libRbt.so (2013.1, Build901 2013/11/27)

>  <Rbt.Parameter_File>
/export/apps/rDock/src/rDock_2013.1_src/data/scripts/dock_solv.prm

>  <Rbt.Receptor>
prm/blind_docking_20.prm

>  <SCORE>
-18.4615

>  <SCORE.INTER>
-18.4615

>  <SCORE.INTER.CONST>
1

>  <SCORE.INTER.POLAR>
0

>  <SCORE.INTER.ROT>
0

>  <SCORE.INTER.SOLV>
3.50136

>  <SCORE.INTER.VDW>
-17.0748

>  <SCORE.INTER.norm>
-1.84615

>  <SCORE.INTRA>
0

>  <SCORE.INTRA.DIHEDRAL>
0

>  <SCORE.INTRA.DIHEDRAL.0>
0

>  <SCORE.INTRA.POLAR>
0

>  <SCORE.INTRA.POLAR.0>
0

>  <SCORE.INTRA.REPUL>
0

>  <SCORE.INTRA.REPUL.0>
0

>  <SCORE.INTRA.SOLV>
0

>  <SCORE.INTRA.SOLV.lig_0>
-4.28148

>  <SCORE.INTRA.VDW>
0

>  <SCORE.INTRA.VDW.0>
0

>  <SCORE.INTRA.norm>
0

>  <SCORE.RESTR>
0

>  <SCORE.RESTR.CAVITY>
0

>  <SCORE.RESTR.norm>
0

>  <SCORE.SYSTEM>
0

>  <SCORE.SYSTEM.CONST>
0

>  <SCORE.SYSTEM.DIHEDRAL>
0

>  <SCORE.SYSTEM.SOLV>
0

>  <SCORE.SYSTEM.norm>
0

>  <SCORE.heavy>
10

>  <SCORE.norm>
-1.84615

>  <RMSD>
0.849

$$$$
ligand
 OpenBabel11021811423D
libRbt.so/2013.1/901 2013/11/27
 10 11  0  0  0  0  0  0  0  0999 V2000
   11.9693   11.3807    8.4423 N   0  0  0  0  0  0  0  0  0  0  0  0
   11.7240   12.7325    8.5772 C   0  0  0  0  0  0  0  0  0  0  0  0
   11.3275   13.4898    7.5470 N   0  0  0  0  0  0  0  0  0  0  0  0
   11.2011   12.7917    6.3834 C   0  0  0  0  0  0  0  0  0  0  0  0
   11.4326   11.4395    6.1809 C   0  0  0  0  0  0  0  0  0  0  0  0
   11.8514   10.6291    7.2709 C   0  0  0  0  0  0  0  0  0  0  0  0
   12.1085    9.4260    7.3161 O   0  0  0  0  0  0  0  0  0  0  0  0
   11.1866   11.1501    4.8603 N   0  0  0  0  0  0  0  0  0  0  0  0
   10.8115   12.3123    4.2762 C   0  0  0  0  0  0  0  0  0  0  0  0
   10.8114   13.3431    5.1868 N   0  0  0  0  0  0  0  0  0  0  0  0
  1  2  1  0  0  0  0
  1  6  1  0  0  0  0
  2  3  2  0  0  0  0
  3  4  1  0  0  0  0
  4  5  2  0  0  0  0
  4 10  1  0  0  0  0
  5  6  1  0  0  0  0
  5  8  1  0  0  0  0
  6  7  2  0  0  0  0
  8  9  1  0  0  0  0
  9 10  2  0  0  0  0
M  END
>  <CHROM.1>
11.45532432,11.82419658,6.61985593,0.18175309,-1.27046419,0.72462042

>  <Name>
ligand

>  <RI>
0

>  <Rbt.Current_Directory>
/home/itssahil/PROJECTS/Mol_Feturizer/New_Systems/rnas/2EEU

>  <Rbt.Executable>
rbdock ($Id: //depot/dev/client3/rdock/2013.1/src/exe/rbdock.cxx#4 $)

>  <Rbt.Library>
libRbt.so (2013.1, Build901 2013/11/27)

>  <Rbt.Parameter_File>
/export/apps/rDock/src/rDock_2013.1_src/data/scripts/dock_solv.prm

>  <Rbt.Receptor>
prm/pocket_docking_4.prm

>  <SCORE>
-18.531

>  <SCORE.INTER>
-18.531

>  <SCORE.INTER.CONST>
1

>  <SCORE.INTER.POLAR>
0

>  <SCORE.INTER.ROT>
0

>  <SCORE.INTER.SOLV>
3.45649

>  <SCORE.INTER.VDW>
-17.1061

>  <SCORE.INTER.norm>
-1.8531

>  <SCORE.INTRA>
0

>  <SCORE.INTRA.DIHEDRAL>
0

>  <SCORE.INTRA.DIHEDRAL.0>
0

>  <SCORE.INTRA.POLAR>
0

>  <SCORE.INTRA.POLAR.0>
0

>  <SCORE.INTRA.REPUL>
0

>  <SCORE.INTRA.REPUL.0>
0

>  <SCORE.INTRA.SOLV>
0

>  <SCORE.INTRA.SOLV.lig_0>
-4.28148

>  <SCORE.INTRA.VDW>
0

>  <SCORE.INTRA.VDW.0>
0

>  <SCORE.INTRA.norm>
0

>  <SCORE.RESTR>
0

>  <SCORE.RESTR.CAVITY>
0

>  <SCORE.RESTR.norm>
0

>  <SCORE.SYSTEM>
0

>  <SCORE.SYSTEM.CONST>
0

>  <SCORE.SYSTEM.DIHEDRAL>
0

>  <SCORE.SYSTEM.SOLV>
0

>  <SCORE.SYSTEM.norm>
0

>  <SCORE.heavy>
10

>  <SCORE.norm>
-1.8531

>  <RMSD>
0.849

$$$$
ligand
 OpenBabel11021811423D
libRbt.so/2013.1/901 2013/11/27
 10 11  0  0  0  0  0  0  0  0999 V2000
   11.8048   10.7758    8.4619 N   0  0  0  0  0  0  0  0  0  0  0  0
   11.4682   12.0781    8.7724 C   0  0  0  0  0  0  0  0  0  0  0  0
   11.0978   12.9597    7.8355 N   0  0  0  0  0  0  0  0  0  0  0  0
   11.0949   12.4376    6.5766 C   0  0  0  0  0  0  0  0  0  0  0  0
   11.4223   11.1442    6.1985 C   0  0  0  0  0  0  0  0  0  0  0  0
   11.8141   10.2024    7.1884 C   0  0  0  0  0  0  0  0  0  0  0  0
   12.1409    9.0206    7.0781 O   0  0  0  0  0  0  0  0  0  0  0  0
   11.2860   11.0431    4.8348 N   0  0  0  0  0  0  0  0  0  0  0  0
   10.8814   12.2590    4.3985 C   0  0  0  0  0  0  0  0  0  0  0  0
   10.7554   13.1410    5.4463 N   0  0  0  0  0  0  0  0  0  0  0  0
  1  2  1  0  0  0  0
  1  6  1  0  0  0  0
  2  3  2  0  0  0  0
  3  4  1  0  0  0  0
  4  5  2  0  0  0  0
  4 10  1  0  0  0  0
  5  6  1  0  0  0  0
  5  8  1  0  0  0  0
  6  7  2  0  0  0  0
  8  9  1  0  0  0  0
  9 10  2  0  0  0  0
M  END
>  <CHROM.1>
11.39116238,11.45971681,6.68905083,0.49342578,-1.26756251,1.17048267

>  <Name>
ligand

>  <RI>
0

>  <Rbt.Current_Directory>
/home/itssahil/PROJECTS/Mol_Feturizer/New_Systems/rnas/2EEU

>  <Rbt.Executable>
rbdock ($Id: //depot/dev/client3/rdock/2013.1/src/exe/rbdock.cxx#4 $)

>  <Rbt.Library>
libRbt.so (2013.1, Build901 2013/11/27)

>  <Rbt.Parameter_File>
/export/apps/rDock/src/rDock_2013.1_src/data/scripts/dock_solv.prm

>  <Rbt.Receptor>
prm/blind_docking_20.prm

>  <SCORE>
-18.4369

>  <SCORE.INTER>
-18.4369

>  <SCORE.INTER.CONST>
1

>  <SCORE.INTER.POLAR>
0

>  <SCORE.INTER.ROT>
0

>  <SCORE.INTER.SOLV>
3.57883

>  <SCORE.INTER.VDW>
-17.0842

>  <SCORE.INTER.norm>
-1.84369

>  <SCORE.INTRA>
0

>  <SCORE.INTRA.DIHEDRAL>
0

>  <SCORE.INTRA.DIHEDRAL.0>
0

>  <SCORE.INTRA.POLAR>
0

>  <SCORE.INTRA.POLAR.0>
0

>  <SCORE.INTRA.REPUL>
0

>  <SCORE.INTRA.REPUL.0>
0

>  <SCORE.INTRA.SOLV>
0

>  <SCORE.INTRA.SOLV.lig_0>
-4.28148

>  <SCORE.INTRA.VDW>
0

>  <SCORE.INTRA.VDW.0>
0

>  <SCORE.INTRA.norm>
0

>  <SCORE.RESTR>
0

>  <SCORE.RESTR.CAVITY>
0

>  <SCORE.RESTR.norm>
0

>  <SCORE.SYSTEM>
0

>  <SCORE.SYSTEM.CONST>
0

>  <SCORE.SYSTEM.DIHEDRAL>
0

>  <SCORE.SYSTEM.SOLV>
0

>  <SCORE.SYSTEM.norm>
0

>  <SCORE.heavy>
10

>  <SCORE.norm>
-1.84369

>  <RMSD>
0.851

$$$$
ligand
 OpenBabel11021811423D
libRbt.so/2013.1/901 2013/11/27
 10 11  0  0  0  0  0  0  0  0999 V2000
   11.8092   10.7901    8.4591 N   0  0  0  0  0  0  0  0  0  0  0  0
   11.4827   12.0961    8.7647 C   0  0  0  0  0  0  0  0  0  0  0  0
   11.1099   12.9745    7.8258 N   0  0  0  0  0  0  0  0  0  0  0  0
   11.0939   12.4453    6.5700 C   0  0  0  0  0  0  0  0  0  0  0  0
   11.4107   11.1480    6.1967 C   0  0  0  0  0  0  0  0  0  0  0  0
   11.8050   10.2095    7.1888 C   0  0  0  0  0  0  0  0  0  0  0  0
   12.1240    9.0252    7.0827 O   0  0  0  0  0  0  0  0  0  0  0  0
   11.2629   11.0400    4.8348 N   0  0  0  0  0  0  0  0  0  0  0  0
   10.8618   12.2557    4.3947 C   0  0  0  0  0  0  0  0  0  0  0  0
   10.7494   13.1443    5.4385 N   0  0  0  0  0  0  0  0  0  0  0  0
  1  2  1  0  0  0  0
  1  6  1  0  0  0  0
  2  3  2  0  0  0  0
  3  4  1  0  0  0  0
  4  5  2  0  0  0  0
  4 10  1  0  0  0  0
  5  6  1  0  0  0  0
  5  8  1  0  0  0  0
  6  7  2  0  0  0  0
  8  9  1  0  0  0  0
  9 10  2  0  0  0  0
M  END
>  <CHROM.1>
11.38534889,11.46641321,6.68568706,0.46087587,-1.26962025,1.13371637

>  <Name>
ligand

>  <RI>
0

>  <Rbt.Current_Directory>
/home/itssahil/PROJECTS/Mol_Feturizer/New_Systems/rnas/2EEU

>  <Rbt.Executable>
rbdock ($Id: //depot/dev/client3/rdock/2013.1/src/exe/rbdock.cxx#4 $)

>  <Rbt.Library>
libRbt.so (2013.1, Build901 2013/11/27)

>  <Rbt.Parameter_File>
/export/apps/rDock/src/rDock_2013.1_src/data/scripts/dock_solv.prm

>  <Rbt.Receptor>
prm/blind_docking_20.prm

>  <SCORE>
-18.4472

>  <SCORE.INTER>
-18.4472

>  <SCORE.INTER.CONST>
1

>  <SCORE.INTER.POLAR>
0

>  <SCORE.INTER.ROT>
0

>  <SCORE.INTER.SOLV>
3.58449

>  <SCORE.INTER.VDW>
-17.093

>  <SCORE.INTER.norm>
-1.84472

>  <SCORE.INTRA>
0

>  <SCORE.INTRA.DIHEDRAL>
0

>  <SCORE.INTRA.DIHEDRAL.0>
0

>  <SCORE.INTRA.POLAR>
0

>  <SCORE.INTRA.POLAR.0>
0

>  <SCORE.INTRA.REPUL>
0

>  <SCORE.INTRA.REPUL.0>
0

>  <SCORE.INTRA.SOLV>
0

>  <SCORE.INTRA.SOLV.lig_0>
-4.28148

>  <SCORE.INTRA.VDW>
0

>  <SCORE.INTRA.VDW.0>
0

>  <SCORE.INTRA.norm>
0

>  <SCORE.RESTR>
0

>  <SCORE.RESTR.CAVITY>
0

>  <SCORE.RESTR.norm>
0

>  <SCORE.SYSTEM>
0

>  <SCORE.SYSTEM.CONST>
0

>  <SCORE.SYSTEM.DIHEDRAL>
0

>  <SCORE.SYSTEM.SOLV>
0

>  <SCORE.SYSTEM.norm>
0

>  <SCORE.heavy>
10

>  <SCORE.norm>
-1.84472

>  <RMSD>
0.851

$$$$
ligand
 OpenBabel11021811423D
libRbt.so/2013.1/901 2013/11/27
 10 11  0  0  0  0  0  0  0  0999 V2000
   11.8733   10.7429    8.4435 N   0  0  0  0  0  0  0  0  0  0  0  0
   11.5283   12.0369    8.7781 C   0  0  0  0  0  0  0  0  0  0  0  0
   11.1280   12.9262    7.8610 N   0  0  0  0  0  0  0  0  0  0  0  0
   11.1045   12.4205    6.5957 C   0  0  0  0  0  0  0  0  0  0  0  0
   11.4387   11.1362    6.1936 C   0  0  0  0  0  0  0  0  0  0  0  0
   11.8623   10.1863    7.1625 C   0  0  0  0  0  0  0  0  0  0  0  0
   12.2003    9.0100    7.0297 O   0  0  0  0  0  0  0  0  0  0  0  0
   11.2748   11.0513    4.8319 N   0  0  0  0  0  0  0  0  0  0  0  0
   10.8470   12.2678    4.4203 C   0  0  0  0  0  0  0  0  0  0  0  0
   10.7330   13.1346    5.4821 N   0  0  0  0  0  0  0  0  0  0  0  0
  1  2  1  0  0  0  0
  1  6  1  0  0  0  0
  2  3  2  0  0  0  0
  3  4  1  0  0  0  0
  4  5  2  0  0  0  0
  4 10  1  0  0  0  0
  5  6  1  0  0  0  0
  5  8  1  0  0  0  0
  6  7  2  0  0  0  0
  8  9  1  0  0  0  0
  9 10  2  0  0  0  0
M  END
>  <CHROM.1>
11.41433898,11.44488867,6.68888434,0.44616137,-1.24831012,1.13865012

>  <Name>
ligand

>  <RI>
0

>  <Rbt.Current_Directory>
/home/itssahil/PROJECTS/Mol_Feturizer/New_Systems/rnas/2EEU

>  <Rbt.Executable>
rbdock ($Id: //depot/dev/client3/rdock/2013.1/src/exe/rbdock.cxx#4 $)

>  <Rbt.Library>
libRbt.so (2013.1, Build901 2013/11/27)

>  <Rbt.Parameter_File>
/export/apps/rDock/src/rDock_2013.1_src/data/scripts/dock_solv.prm

>  <Rbt.Receptor>
prm/blind_docking_20.prm

>  <SCORE>
-18.4631

>  <SCORE.INTER>
-18.4631

>  <SCORE.INTER.CONST>
1

>  <SCORE.INTER.POLAR>
0

>  <SCORE.INTER.ROT>
0

>  <SCORE.INTER.SOLV>
3.50302

>  <SCORE.INTER.VDW>
-17.0764

>  <SCORE.INTER.norm>
-1.84631

>  <SCORE.INTRA>
0

>  <SCORE.INTRA.DIHEDRAL>
0

>  <SCORE.INTRA.DIHEDRAL.0>
0

>  <SCORE.INTRA.POLAR>
0

>  <SCORE.INTRA.POLAR.0>
0

>  <SCORE.INTRA.REPUL>
0

>  <SCORE.INTRA.REPUL.0>
0

>  <SCORE.INTRA.SOLV>
0

>  <SCORE.INTRA.SOLV.lig_0>
-4.28148

>  <SCORE.INTRA.VDW>
0

>  <SCORE.INTRA.VDW.0>
0

>  <SCORE.INTRA.norm>
0

>  <SCORE.RESTR>
0

>  <SCORE.RESTR.CAVITY>
0

>  <SCORE.RESTR.norm>
0

>  <SCORE.SYSTEM>
0

>  <SCORE.SYSTEM.CONST>
0

>  <SCORE.SYSTEM.DIHEDRAL>
0

>  <SCORE.SYSTEM.SOLV>
0

>  <SCORE.SYSTEM.norm>
0

>  <SCORE.heavy>
10

>  <SCORE.norm>
-1.84631

>  <RMSD>
0.851

$$$$
ligand
 OpenBabel11021811423D
libRbt.so/2013.1/901 2013/11/27
 10 11  0  0  0  0  0  0  0  0999 V2000
   11.9064   11.2560    8.4384 N   0  0  0  0  0  0  0  0  0  0  0  0
   11.6517   12.6029    8.6007 C   0  0  0  0  0  0  0  0  0  0  0  0
   11.2749   13.3836    7.5805 N   0  0  0  0  0  0  0  0  0  0  0  0
   11.1780   12.7136    6.3977 C   0  0  0  0  0  0  0  0  0  0  0  0
   11.4203   11.3678    6.1676 C   0  0  0  0  0  0  0  0  0  0  0  0
   11.8184   10.5327    7.2468 C   0  0  0  0  0  0  0  0  0  0  0  0
   12.0801    9.3300    7.2684 O   0  0  0  0  0  0  0  0  0  0  0  0
   11.2054   11.1098    4.8351 N   0  0  0  0  0  0  0  0  0  0  0  0
   10.8381   12.2843    4.2712 C   0  0  0  0  0  0  0  0  0  0  0  0
   10.8127   13.2925    5.2064 N   0  0  0  0  0  0  0  0  0  0  0  0
  1  2  1  0  0  0  0
  1  6  1  0  0  0  0
  2  3  2  0  0  0  0
  3  4  1  0  0  0  0
  4  5  2  0  0  0  0
  4 10  1  0  0  0  0
  5  6  1  0  0  0  0
  5  8  1  0  0  0  0
  6  7  2  0  0  0  0
  8  9  1  0  0  0  0
  9 10  2  0  0  0  0
M  END
>  <CHROM.1>
11.43141415,11.74171407,6.61623026,0.24685558,-1.28359753,0.81135464

>  <Name>
ligand

>  <RI>
0

>  <Rbt.Current_Directory>
/home/itssahil/PROJECTS/Mol_Feturizer/New_Systems/rnas/2EEU

>  <Rbt.Executable>
rbdock ($Id: //depot/dev/client3/rdock/2013.1/src/exe/rbdock.cxx#4 $)

>  <Rbt.Library>
libRbt.so (2013.1, Build901 2013/11/27)

>  <Rbt.Parameter_File>
/export/apps/rDock/src/rDock_2013.1_src/data/scripts/dock_solv.prm

>  <Rbt.Receptor>
prm/blind_docking_40.prm

>  <SCORE>
-18.4327

>  <SCORE.INTER>
-18.4327

>  <SCORE.INTER.CONST>
1

>  <SCORE.INTER.POLAR>
0

>  <SCORE.INTER.ROT>
0

>  <SCORE.INTER.SOLV>
3.53148

>  <SCORE.INTER.VDW>
-17.0656

>  <SCORE.INTER.norm>
-1.84327

>  <SCORE.INTRA>
0

>  <SCORE.INTRA.DIHEDRAL>
0

>  <SCORE.INTRA.DIHEDRAL.0>
0

>  <SCORE.INTRA.POLAR>
0

>  <SCORE.INTRA.POLAR.0>
0

>  <SCORE.INTRA.REPUL>
0

>  <SCORE.INTRA.REPUL.0>
0

>  <SCORE.INTRA.SOLV>
0

>  <SCORE.INTRA.SOLV.lig_0>
-4.28148

>  <SCORE.INTRA.VDW>
0

>  <SCORE.INTRA.VDW.0>
0

>  <SCORE.INTRA.norm>
0

>  <SCORE.RESTR>
0

>  <SCORE.RESTR.CAVITY>
0

>  <SCORE.RESTR.norm>
0

>  <SCORE.SYSTEM>
0

>  <SCORE.SYSTEM.CONST>
0

>  <SCORE.SYSTEM.DIHEDRAL>
0

>  <SCORE.SYSTEM.SOLV>
0

>  <SCORE.SYSTEM.norm>
0

>  <SCORE.heavy>
10

>  <SCORE.norm>
-1.84327

>  <RMSD>
0.851

$$$$
ligand
 OpenBabel11021811423D
libRbt.so/2013.1/901 2013/11/27
 10 11  0  0  0  0  0  0  0  0999 V2000
   11.9725   11.3848    8.4447 N   0  0  0  0  0  0  0  0  0  0  0  0
   11.7312   12.7383    8.5688 C   0  0  0  0  0  0  0  0  0  0  0  0
   11.3346   13.4881    7.5330 N   0  0  0  0  0  0  0  0  0  0  0  0
   11.2037   12.7805    6.3756 C   0  0  0  0  0  0  0  0  0  0  0  0
   11.4309   11.4261    6.1840 C   0  0  0  0  0  0  0  0  0  0  0  0
   11.8499   10.6236    7.2800 C   0  0  0  0  0  0  0  0  0  0  0  0
   12.1037    9.4203    7.3347 O   0  0  0  0  0  0  0  0  0  0  0  0
   11.1812   11.1263    4.8664 N   0  0  0  0  0  0  0  0  0  0  0  0
   10.8081   12.2845    4.2734 C   0  0  0  0  0  0  0  0  0  0  0  0
   10.8129   13.3230    5.1753 N   0  0  0  0  0  0  0  0  0  0  0  0
  1  2  1  0  0  0  0
  1  6  1  0  0  0  0
  2  3  2  0  0  0  0
  3  4  1  0  0  0  0
  4  5  2  0  0  0  0
  4 10  1  0  0  0  0
  5  6  1  0  0  0  0
  5  8  1  0  0  0  0
  6  7  2  0  0  0  0
  8  9  1  0  0  0  0
  9 10  2  0  0  0  0
M  END
>  <CHROM.1>
11.45571017,11.81433509,6.61969487,0.16974306,-1.27067357,0.70472902

>  <Name>
ligand

>  <RI>
0

>  <Rbt.Current_Directory>
/home/itssahil/PROJECTS/Mol_Feturizer/New_Systems/rnas/2EEU

>  <Rbt.Executable>
rbdock ($Id: //depot/dev/client3/rdock/2013.1/src/exe/rbdock.cxx#4 $)

>  <Rbt.Library>
libRbt.so (2013.1, Build901 2013/11/27)

>  <Rbt.Parameter_File>
/export/apps/rDock/src/rDock_2013.1_src/data/scripts/dock_solv.prm

>  <Rbt.Receptor>
prm/blind_docking_80.prm

>  <SCORE>
-18.4947

>  <SCORE.INTER>
-18.4947

>  <SCORE.INTER.CONST>
1

>  <SCORE.INTER.POLAR>
0

>  <SCORE.INTER.ROT>
0

>  <SCORE.INTER.SOLV>
3.45693

>  <SCORE.INTER.VDW>
-17.0821

>  <SCORE.INTER.norm>
-1.84947

>  <SCORE.INTRA>
0

>  <SCORE.INTRA.DIHEDRAL>
0

>  <SCORE.INTRA.DIHEDRAL.0>
0

>  <SCORE.INTRA.POLAR>
0

>  <SCORE.INTRA.POLAR.0>
0

>  <SCORE.INTRA.REPUL>
0

>  <SCORE.INTRA.REPUL.0>
0

>  <SCORE.INTRA.SOLV>
0

>  <SCORE.INTRA.SOLV.lig_0>
-4.28148

>  <SCORE.INTRA.VDW>
0

>  <SCORE.INTRA.VDW.0>
0

>  <SCORE.INTRA.norm>
0

>  <SCORE.RESTR>
0

>  <SCORE.RESTR.CAVITY>
0

>  <SCORE.RESTR.norm>
0

>  <SCORE.SYSTEM>
0

>  <SCORE.SYSTEM.CONST>
0

>  <SCORE.SYSTEM.DIHEDRAL>
0

>  <SCORE.SYSTEM.SOLV>
0

>  <SCORE.SYSTEM.norm>
0

>  <SCORE.heavy>
10

>  <SCORE.norm>
-1.84947

>  <RMSD>
0.851

$$$$
ligand
 OpenBabel11021811423D
libRbt.so/2013.1/901 2013/11/27
 10 11  0  0  0  0  0  0  0  0999 V2000
   11.8666   10.7429    8.4467 N   0  0  0  0  0  0  0  0  0  0  0  0
   11.5135   12.0356    8.7784 C   0  0  0  0  0  0  0  0  0  0  0  0
   11.1136   12.9221    7.8584 N   0  0  0  0  0  0  0  0  0  0  0  0
   11.0991   12.4151    6.5934 C   0  0  0  0  0  0  0  0  0  0  0  0
   11.4417   11.1321    6.1943 C   0  0  0  0  0  0  0  0  0  0  0  0
   11.8649   10.1851    7.1662 C   0  0  0  0  0  0  0  0  0  0  0  0
   12.2094    9.0104    7.0362 O   0  0  0  0  0  0  0  0  0  0  0  0
   11.2852   11.0451    4.8318 N   0  0  0  0  0  0  0  0  0  0  0  0
   10.8535   12.2592    4.4169 C   0  0  0  0  0  0  0  0  0  0  0  0
   10.7298   13.1263    5.4774 N   0  0  0  0  0  0  0  0  0  0  0  0
  1  2  1  0  0  0  0
  1  6  1  0  0  0  0
  2  3  2  0  0  0  0
  3  4  1  0  0  0  0
  4  5  2  0  0  0  0
  4 10  1  0  0  0  0
  5  6  1  0  0  0  0
  5  8  1  0  0  0  0
  6  7  2  0  0  0  0
  8  9  1  0  0  0  0
  9 10  2  0  0  0  0
M  END
>  <CHROM.1>
11.41323690,11.44110999,6.68914873,0.46726383,-1.24593251,1.15775608

>  <Name>
ligand

>  <RI>
0

>  <Rbt.Current_Directory>
/home/itssahil/PROJECTS/Mol_Feturizer/New_Systems/rnas/2EEU

>  <Rbt.Executable>
rbdock ($Id: //depot/dev/client3/rdock/2013.1/src/exe/rbdock.cxx#4 $)

>  <Rbt.Library>
libRbt.so (2013.1, Build901 2013/11/27)

>  <Rbt.Parameter_File>
/export/apps/rDock/src/rDock_2013.1_src/data/scripts/dock_solv.prm

>  <Rbt.Receptor>
prm/blind_docking_20.prm

>  <SCORE>
-18.4536

>  <SCORE.INTER>
-18.4536

>  <SCORE.INTER.CONST>
1

>  <SCORE.INTER.POLAR>
0

>  <SCORE.INTER.ROT>
0

>  <SCORE.INTER.SOLV>
3.49729

>  <SCORE.INTER.VDW>
-17.0682

>  <SCORE.INTER.norm>
-1.84536

>  <SCORE.INTRA>
0

>  <SCORE.INTRA.DIHEDRAL>
0

>  <SCORE.INTRA.DIHEDRAL.0>
0

>  <SCORE.INTRA.POLAR>
0

>  <SCORE.INTRA.POLAR.0>
0

>  <SCORE.INTRA.REPUL>
0

>  <SCORE.INTRA.REPUL.0>
0

>  <SCORE.INTRA.SOLV>
0

>  <SCORE.INTRA.SOLV.lig_0>
-4.28148

>  <SCORE.INTRA.VDW>
0

>  <SCORE.INTRA.VDW.0>
0

>  <SCORE.INTRA.norm>
0

>  <SCORE.RESTR>
0

>  <SCORE.RESTR.CAVITY>
0

>  <SCORE.RESTR.norm>
0

>  <SCORE.SYSTEM>
0

>  <SCORE.SYSTEM.CONST>
0

>  <SCORE.SYSTEM.DIHEDRAL>
0

>  <SCORE.SYSTEM.SOLV>
0

>  <SCORE.SYSTEM.norm>
0

>  <SCORE.heavy>
10

>  <SCORE.norm>
-1.84536

>  <RMSD>
0.852

$$$$
ligand
 OpenBabel11021811423D
libRbt.so/2013.1/901 2013/11/27
 10 11  0  0  0  0  0  0  0  0999 V2000
   11.8014   10.7872    8.4632 N   0  0  0  0  0  0  0  0  0  0  0  0
   11.4563   12.0887    8.7672 C   0  0  0  0  0  0  0  0  0  0  0  0
   11.0831   12.9641    7.8255 N   0  0  0  0  0  0  0  0  0  0  0  0
   11.0865   12.4366    6.5689 C   0  0  0  0  0  0  0  0  0  0  0  0
   11.4226   11.1436    6.1972 C   0  0  0  0  0  0  0  0  0  0  0  0
   11.8174   10.2084    7.1921 C   0  0  0  0  0  0  0  0  0  0  0  0
   12.1514    9.0281    7.0878 O   0  0  0  0  0  0  0  0  0  0  0  0
   11.2904   11.0359    4.8337 N   0  0  0  0  0  0  0  0  0  0  0  0
   10.8797   12.2474    4.3910 C   0  0  0  0  0  0  0  0  0  0  0  0
   10.7458   13.1332    5.4347 N   0  0  0  0  0  0  0  0  0  0  0  0
  1  2  1  0  0  0  0
  1  6  1  0  0  0  0
  2  3  2  0  0  0  0
  3  4  1  0  0  0  0
  4  5  2  0  0  0  0
  4 10  1  0  0  0  0
  5  6  1  0  0  0  0
  5  8  1  0  0  0  0
  6  7  2  0  0  0  0
  8  9  1  0  0  0  0
  9 10  2  0  0  0  0
M  END
>  <CHROM.1>
11.38829112,11.46102267,6.68634820,0.50894752,-1.26307084,1.18098628

>  <Name>
ligand

>  <RI>
0

>  <Rbt.Current_Directory>
/home/itssahil/PROJECTS/Mol_Feturizer/New_Systems/rnas/2EEU

>  <Rbt.Executable>
rbdock ($Id: //depot/dev/client3/rdock/2013.1/src/exe/rbdock.cxx#4 $)

>  <Rbt.Library>
libRbt.so (2013.1, Build901 2013/11/27)

>  <Rbt.Parameter_File>
/export/apps/rDock/src/rDock_2013.1_src/data/scripts/dock_solv.prm

>  <Rbt.Receptor>
prm/blind_docking_20.prm

>  <SCORE>
-18.4273

>  <SCORE.INTER>
-18.4273

>  <SCORE.INTER.CONST>
1

>  <SCORE.INTER.POLAR>
0

>  <SCORE.INTER.ROT>
0

>  <SCORE.INTER.SOLV>
3.56467

>  <SCORE.INTER.VDW>
-17.0731

>  <SCORE.INTER.norm>
-1.84273

>  <SCORE.INTRA>
0

>  <SCORE.INTRA.DIHEDRAL>
0

>  <SCORE.INTRA.DIHEDRAL.0>
0

>  <SCORE.INTRA.POLAR>
0

>  <SCORE.INTRA.POLAR.0>
0

>  <SCORE.INTRA.REPUL>
0

>  <SCORE.INTRA.REPUL.0>
0

>  <SCORE.INTRA.SOLV>
0

>  <SCORE.INTRA.SOLV.lig_0>
-4.28148

>  <SCORE.INTRA.VDW>
0

>  <SCORE.INTRA.VDW.0>
0

>  <SCORE.INTRA.norm>
0

>  <SCORE.RESTR>
0

>  <SCORE.RESTR.CAVITY>
0

>  <SCORE.RESTR.norm>
0

>  <SCORE.SYSTEM>
0

>  <SCORE.SYSTEM.CONST>
0

>  <SCORE.SYSTEM.DIHEDRAL>
0

>  <SCORE.SYSTEM.SOLV>
0

>  <SCORE.SYSTEM.norm>
0

>  <SCORE.heavy>
10

>  <SCORE.norm>
-1.84273

>  <RMSD>
0.852

$$$$
ligand
 OpenBabel11021811423D
libRbt.so/2013.1/901 2013/11/27
 10 11  0  0  0  0  0  0  0  0999 V2000
   11.8659   10.7325    8.4465 N   0  0  0  0  0  0  0  0  0  0  0  0
   11.5166   12.0247    8.7838 C   0  0  0  0  0  0  0  0  0  0  0  0
   11.1213   12.9169    7.8674 N   0  0  0  0  0  0  0  0  0  0  0  0
   11.1074   12.4161    6.5999 C   0  0  0  0  0  0  0  0  0  0  0  0
   11.4464   11.1339    6.1953 C   0  0  0  0  0  0  0  0  0  0  0  0
   11.8647   10.1808    7.1633 C   0  0  0  0  0  0  0  0  0  0  0  0
   12.2054    9.0056    7.0284 O   0  0  0  0  0  0  0  0  0  0  0  0
   11.2921   11.0540    4.8321 N   0  0  0  0  0  0  0  0  0  0  0  0
   10.8652   12.2715    4.4223 C   0  0  0  0  0  0  0  0  0  0  0  0
   10.7425   13.1339    5.4866 N   0  0  0  0  0  0  0  0  0  0  0  0
  1  2  1  0  0  0  0
  1  6  1  0  0  0  0
  2  3  2  0  0  0  0
  3  4  1  0  0  0  0
  4  5  2  0  0  0  0
  4 10  1  0  0  0  0
  5  6  1  0  0  0  0
  5  8  1  0  0  0  0
  6  7  2  0  0  0  0
  8  9  1  0  0  0  0
  9 10  2  0  0  0  0
M  END
>  <CHROM.1>
11.41810458,11.44058765,6.69153283,0.46818503,-1.24975388,1.16342463

>  <Name>
ligand

>  <RI>
0

>  <Rbt.Current_Directory>
/home/itssahil/PROJECTS/Mol_Feturizer/New_Systems/rnas/2EEU

>  <Rbt.Executable>
rbdock ($Id: //depot/dev/client3/rdock/2013.1/src/exe/rbdock.cxx#4 $)

>  <Rbt.Library>
libRbt.so (2013.1, Build901 2013/11/27)

>  <Rbt.Parameter_File>
/export/apps/rDock/src/rDock_2013.1_src/data/scripts/dock_solv.prm

>  <Rbt.Receptor>
prm/blind_docking_20.prm

>  <SCORE>
-18.4554

>  <SCORE.INTER>
-18.4554

>  <SCORE.INTER.CONST>
1

>  <SCORE.INTER.POLAR>
0

>  <SCORE.INTER.ROT>
0

>  <SCORE.INTER.SOLV>
3.50833

>  <SCORE.INTER.VDW>
-17.0731

>  <SCORE.INTER.norm>
-1.84554

>  <SCORE.INTRA>
0

>  <SCORE.INTRA.DIHEDRAL>
0

>  <SCORE.INTRA.DIHEDRAL.0>
0

>  <SCORE.INTRA.POLAR>
0

>  <SCORE.INTRA.POLAR.0>
0

>  <SCORE.INTRA.REPUL>
0

>  <SCORE.INTRA.REPUL.0>
0

>  <SCORE.INTRA.SOLV>
0

>  <SCORE.INTRA.SOLV.lig_0>
-4.28148

>  <SCORE.INTRA.VDW>
0

>  <SCORE.INTRA.VDW.0>
0

>  <SCORE.INTRA.norm>
0

>  <SCORE.RESTR>
0

>  <SCORE.RESTR.CAVITY>
0

>  <SCORE.RESTR.norm>
0

>  <SCORE.SYSTEM>
0

>  <SCORE.SYSTEM.CONST>
0

>  <SCORE.SYSTEM.DIHEDRAL>
0

>  <SCORE.SYSTEM.SOLV>
0

>  <SCORE.SYSTEM.norm>
0

>  <SCORE.heavy>
10

>  <SCORE.norm>
-1.84554

>  <RMSD>
0.852

$$$$
ligand
 OpenBabel11021811423D
libRbt.so/2013.1/901 2013/11/27
 10 11  0  0  0  0  0  0  0  0999 V2000
   11.8660   10.7424    8.4457 N   0  0  0  0  0  0  0  0  0  0  0  0
   11.5133   12.0349    8.7785 C   0  0  0  0  0  0  0  0  0  0  0  0
   11.1131   12.9221    7.8593 N   0  0  0  0  0  0  0  0  0  0  0  0
   11.0978   12.4160    6.5940 C   0  0  0  0  0  0  0  0  0  0  0  0
   11.4400   11.1332    6.1938 C   0  0  0  0  0  0  0  0  0  0  0  0
   11.8635   10.1855    7.1648 C   0  0  0  0  0  0  0  0  0  0  0  0
   12.2077    9.0108    7.0339 O   0  0  0  0  0  0  0  0  0  0  0  0
   11.2828   11.0472    4.8313 N   0  0  0  0  0  0  0  0  0  0  0  0
   10.8511   12.2616    4.4175 C   0  0  0  0  0  0  0  0  0  0  0  0
   10.7281   13.1280    5.4786 N   0  0  0  0  0  0  0  0  0  0  0  0
  1  2  1  0  0  0  0
  1  6  1  0  0  0  0
  2  3  2  0  0  0  0
  3  4  1  0  0  0  0
  4  5  2  0  0  0  0
  4 10  1  0  0  0  0
  5  6  1  0  0  0  0
  5  8  1  0  0  0  0
  6  7  2  0  0  0  0
  8  9  1  0  0  0  0
  9 10  2  0  0  0  0
M  END
>  <CHROM.1>
11.41183790,11.44185582,6.68886032,0.46555011,-1.24590399,1.15681434

>  <Name>
ligand

>  <RI>
0

>  <Rbt.Current_Directory>
/home/itssahil/PROJECTS/Mol_Feturizer/New_Systems/rnas/2EEU

>  <Rbt.Executable>
rbdock ($Id: //depot/dev/client3/rdock/2013.1/src/exe/rbdock.cxx#4 $)

>  <Rbt.Library>
libRbt.so (2013.1, Build901 2013/11/27)

>  <Rbt.Parameter_File>
/export/apps/rDock/src/rDock_2013.1_src/data/scripts/dock_solv.prm

>  <Rbt.Receptor>
prm/blind_docking_20.prm

>  <SCORE>
-18.4549

>  <SCORE.INTER>
-18.4549

>  <SCORE.INTER.CONST>
1

>  <SCORE.INTER.POLAR>
0

>  <SCORE.INTER.ROT>
0

>  <SCORE.INTER.SOLV>
3.49912

>  <SCORE.INTER.VDW>
-17.0697

>  <SCORE.INTER.norm>
-1.84549

>  <SCORE.INTRA>
0

>  <SCORE.INTRA.DIHEDRAL>
0

>  <SCORE.INTRA.DIHEDRAL.0>
0

>  <SCORE.INTRA.POLAR>
0

>  <SCORE.INTRA.POLAR.0>
0

>  <SCORE.INTRA.REPUL>
0

>  <SCORE.INTRA.REPUL.0>
0

>  <SCORE.INTRA.SOLV>
0

>  <SCORE.INTRA.SOLV.lig_0>
-4.28148

>  <SCORE.INTRA.VDW>
0

>  <SCORE.INTRA.VDW.0>
0

>  <SCORE.INTRA.norm>
0

>  <SCORE.RESTR>
0

>  <SCORE.RESTR.CAVITY>
0

>  <SCORE.RESTR.norm>
0

>  <SCORE.SYSTEM>
0

>  <SCORE.SYSTEM.CONST>
0

>  <SCORE.SYSTEM.DIHEDRAL>
0

>  <SCORE.SYSTEM.SOLV>
0

>  <SCORE.SYSTEM.norm>
0

>  <SCORE.heavy>
10

>  <SCORE.norm>
-1.84549

>  <RMSD>
0.853

$$$$
ligand
 OpenBabel11021811423D
libRbt.so/2013.1/901 2013/11/27
 10 11  0  0  0  0  0  0  0  0999 V2000
   11.8087   10.7678    8.4589 N   0  0  0  0  0  0  0  0  0  0  0  0
   11.4719   12.0691    8.7736 C   0  0  0  0  0  0  0  0  0  0  0  0
   11.1007   12.9535    7.8397 N   0  0  0  0  0  0  0  0  0  0  0  0
   11.0970   12.4353    6.5793 C   0  0  0  0  0  0  0  0  0  0  0  0
   11.4245   11.1433    6.1969 C   0  0  0  0  0  0  0  0  0  0  0  0
   11.8172   10.1984    7.1835 C   0  0  0  0  0  0  0  0  0  0  0  0
   12.1442    9.0171    7.0694 O   0  0  0  0  0  0  0  0  0  0  0  0
   11.2872   11.0464    4.8330 N   0  0  0  0  0  0  0  0  0  0  0  0
   10.8820   12.2635    4.4007 C   0  0  0  0  0  0  0  0  0  0  0  0
   10.7565   13.1422    5.4514 N   0  0  0  0  0  0  0  0  0  0  0  0
  1  2  1  0  0  0  0
  1  6  1  0  0  0  0
  2  3  2  0  0  0  0
  3  4  1  0  0  0  0
  4  5  2  0  0  0  0
  4 10  1  0  0  0  0
  5  6  1  0  0  0  0
  5  8  1  0  0  0  0
  6  7  2  0  0  0  0
  8  9  1  0  0  0  0
  9 10  2  0  0  0  0
M  END
>  <CHROM.1>
11.39357859,11.45719595,6.68845575,0.49159085,-1.26704868,1.17184844

>  <Name>
ligand

>  <RI>
0

>  <Rbt.Current_Directory>
/home/itssahil/PROJECTS/Mol_Feturizer/New_Systems/rnas/2EEU

>  <Rbt.Executable>
rbdock ($Id: //depot/dev/client3/rdock/2013.1/src/exe/rbdock.cxx#4 $)

>  <Rbt.Library>
libRbt.so (2013.1, Build901 2013/11/27)

>  <Rbt.Parameter_File>
/export/apps/rDock/src/rDock_2013.1_src/data/scripts/dock_solv.prm

>  <Rbt.Receptor>
prm/blind_docking_20.prm

>  <SCORE>
-18.4351

>  <SCORE.INTER>
-18.4351

>  <SCORE.INTER.CONST>
1

>  <SCORE.INTER.POLAR>
0

>  <SCORE.INTER.ROT>
0

>  <SCORE.INTER.SOLV>
3.57869

>  <SCORE.INTER.VDW>
-17.083

>  <SCORE.INTER.norm>
-1.84351

>  <SCORE.INTRA>
0

>  <SCORE.INTRA.DIHEDRAL>
0

>  <SCORE.INTRA.DIHEDRAL.0>
0

>  <SCORE.INTRA.POLAR>
0

>  <SCORE.INTRA.POLAR.0>
0

>  <SCORE.INTRA.REPUL>
0

>  <SCORE.INTRA.REPUL.0>
0

>  <SCORE.INTRA.SOLV>
0

>  <SCORE.INTRA.SOLV.lig_0>
-4.28148

>  <SCORE.INTRA.VDW>
0

>  <SCORE.INTRA.VDW.0>
0

>  <SCORE.INTRA.norm>
0

>  <SCORE.RESTR>
0

>  <SCORE.RESTR.CAVITY>
0

>  <SCORE.RESTR.norm>
0

>  <SCORE.SYSTEM>
0

>  <SCORE.SYSTEM.CONST>
0

>  <SCORE.SYSTEM.DIHEDRAL>
0

>  <SCORE.SYSTEM.SOLV>
0

>  <SCORE.SYSTEM.norm>
0

>  <SCORE.heavy>
10

>  <SCORE.norm>
-1.84351

>  <RMSD>
0.853

$$$$
ligand
 OpenBabel11021811423D
libRbt.so/2013.1/901 2013/11/27
 10 11  0  0  0  0  0  0  0  0999 V2000
   11.8601   10.7437    8.4475 N   0  0  0  0  0  0  0  0  0  0  0  0
   11.5000   12.0345    8.7786 C   0  0  0  0  0  0  0  0  0  0  0  0
   11.1010   12.9202    7.8575 N   0  0  0  0  0  0  0  0  0  0  0  0
   11.0950   12.4145    6.5920 C   0  0  0  0  0  0  0  0  0  0  0  0
   11.4450   11.1333    6.1933 C   0  0  0  0  0  0  0  0  0  0  0  0
   11.8672   10.1871    7.1664 C   0  0  0  0  0  0  0  0  0  0  0  0
   12.2172    9.0140    7.0370 O   0  0  0  0  0  0  0  0  0  0  0  0
   11.2957   11.0471    4.8300 N   0  0  0  0  0  0  0  0  0  0  0  0
   10.8610   12.2597    4.4141 C   0  0  0  0  0  0  0  0  0  0  0  0
   10.7284   13.1253    5.4748 N   0  0  0  0  0  0  0  0  0  0  0  0
  1  2  1  0  0  0  0
  1  6  1  0  0  0  0
  2  3  2  0  0  0  0
  3  4  1  0  0  0  0
  4  5  2  0  0  0  0
  4 10  1  0  0  0  0
  5  6  1  0  0  0  0
  5  8  1  0  0  0  0
  6  7  2  0  0  0  0
  8  9  1  0  0  0  0
  9 10  2  0  0  0  0
M  END
>  <CHROM.1>
11.41270988,11.44170096,6.68831602,0.48685444,-1.24408814,1.17730384

>  <Name>
ligand

>  <RI>
0

>  <Rbt.Current_Directory>
/home/itssahil/PROJECTS/Mol_Feturizer/New_Systems/rnas/2EEU

>  <Rbt.Executable>
rbdock ($Id: //depot/dev/client3/rdock/2013.1/src/exe/rbdock.cxx#4 $)

>  <Rbt.Library>
libRbt.so (2013.1, Build901 2013/11/27)

>  <Rbt.Parameter_File>
/export/apps/rDock/src/rDock_2013.1_src/data/scripts/dock_solv.prm

>  <Rbt.Receptor>
prm/blind_docking_20.prm

>  <SCORE>
-18.4468

>  <SCORE.INTER>
-18.4468

>  <SCORE.INTER.CONST>
1

>  <SCORE.INTER.POLAR>
0

>  <SCORE.INTER.ROT>
0

>  <SCORE.INTER.SOLV>
3.49265

>  <SCORE.INTER.VDW>
-17.0621

>  <SCORE.INTER.norm>
-1.84468

>  <SCORE.INTRA>
0

>  <SCORE.INTRA.DIHEDRAL>
0

>  <SCORE.INTRA.DIHEDRAL.0>
0

>  <SCORE.INTRA.POLAR>
0

>  <SCORE.INTRA.POLAR.0>
0

>  <SCORE.INTRA.REPUL>
0

>  <SCORE.INTRA.REPUL.0>
0

>  <SCORE.INTRA.SOLV>
0

>  <SCORE.INTRA.SOLV.lig_0>
-4.28148

>  <SCORE.INTRA.VDW>
0

>  <SCORE.INTRA.VDW.0>
0

>  <SCORE.INTRA.norm>
0

>  <SCORE.RESTR>
0

>  <SCORE.RESTR.CAVITY>
0

>  <SCORE.RESTR.norm>
0

>  <SCORE.SYSTEM>
0

>  <SCORE.SYSTEM.CONST>
0

>  <SCORE.SYSTEM.DIHEDRAL>
0

>  <SCORE.SYSTEM.SOLV>
0

>  <SCORE.SYSTEM.norm>
0

>  <SCORE.heavy>
10

>  <SCORE.norm>
-1.84468

>  <RMSD>
0.853

$$$$
ligand
 OpenBabel11021811423D
libRbt.so/2013.1/901 2013/11/27
 10 11  0  0  0  0  0  0  0  0999 V2000
   11.8674   11.5822    8.5485 N   0  0  0  0  0  0  0  0  0  0  0  0
   11.6605   12.9470    8.5573 C   0  0  0  0  0  0  0  0  0  0  0  0
   11.3243   13.6226    7.4516 N   0  0  0  0  0  0  0  0  0  0  0  0
   11.2162   12.8296    6.3485 C   0  0  0  0  0  0  0  0  0  0  0  0
   11.4115   11.4589    6.2720 C   0  0  0  0  0  0  0  0  0  0  0  0
   11.7664   10.7349    7.4427 C   0  0  0  0  0  0  0  0  0  0  0  0
   11.9835    9.5335    7.6008 O   0  0  0  0  0  0  0  0  0  0  0  0
   11.2024   11.0626    4.9730 N   0  0  0  0  0  0  0  0  0  0  0  0
   10.8848   12.1796    4.2774 C   0  0  0  0  0  0  0  0  0  0  0  0
   10.8859   13.2855    5.0952 N   0  0  0  0  0  0  0  0  0  0  0  0
  1  2  1  0  0  0  0
  1  6  1  0  0  0  0
  2  3  2  0  0  0  0
  3  4  1  0  0  0  0
  4  5  2  0  0  0  0
  4 10  1  0  0  0  0
  5  6  1  0  0  0  0
  5  8  1  0  0  0  0
  6  7  2  0  0  0  0
  8  9  1  0  0  0  0
  9 10  2  0  0  0  0
M  END
>  <CHROM.1>
11.43123868,11.87954305,6.67677928,0.17861549,-1.31747978,0.63478868

>  <Name>
ligand

>  <RI>
0

>  <Rbt.Current_Directory>
/home/itssahil/PROJECTS/Mol_Feturizer/New_Systems/rnas/2EEU

>  <Rbt.Executable>
rbdock ($Id: //depot/dev/client3/rdock/2013.1/src/exe/rbdock.cxx#4 $)

>  <Rbt.Library>
libRbt.so (2013.1, Build901 2013/11/27)

>  <Rbt.Parameter_File>
/export/apps/rDock/src/rDock_2013.1_src/data/scripts/dock_solv.prm

>  <Rbt.Receptor>
prm/pocket_docking_5.prm

>  <SCORE>
-18.4066

>  <SCORE.INTER>
-18.4066

>  <SCORE.INTER.CONST>
1

>  <SCORE.INTER.POLAR>
0

>  <SCORE.INTER.ROT>
0

>  <SCORE.INTER.SOLV>
3.61411

>  <SCORE.INTER.VDW>
-17.0758

>  <SCORE.INTER.norm>
-1.84066

>  <SCORE.INTRA>
0

>  <SCORE.INTRA.DIHEDRAL>
0

>  <SCORE.INTRA.DIHEDRAL.0>
0

>  <SCORE.INTRA.POLAR>
0

>  <SCORE.INTRA.POLAR.0>
0

>  <SCORE.INTRA.REPUL>
0

>  <SCORE.INTRA.REPUL.0>
0

>  <SCORE.INTRA.SOLV>
0

>  <SCORE.INTRA.SOLV.lig_0>
-4.28148

>  <SCORE.INTRA.VDW>
0

>  <SCORE.INTRA.VDW.0>
0

>  <SCORE.INTRA.norm>
0

>  <SCORE.RESTR>
0

>  <SCORE.RESTR.CAVITY>
0

>  <SCORE.RESTR.norm>
0

>  <SCORE.SYSTEM>
0

>  <SCORE.SYSTEM.CONST>
0

>  <SCORE.SYSTEM.DIHEDRAL>
0

>  <SCORE.SYSTEM.SOLV>
0

>  <SCORE.SYSTEM.norm>
0

>  <SCORE.heavy>
10

>  <SCORE.norm>
-1.84066

>  <RMSD>
0.853

$$$$
ligand
 OpenBabel11021811423D
libRbt.so/2013.1/901 2013/11/27
 10 11  0  0  0  0  0  0  0  0999 V2000
   11.8621   10.7411    8.4436 N   0  0  0  0  0  0  0  0  0  0  0  0
   11.5120   12.0340    8.7775 C   0  0  0  0  0  0  0  0  0  0  0  0
   11.1145   12.9231    7.8589 N   0  0  0  0  0  0  0  0  0  0  0  0
   11.0992   12.4185    6.5931 C   0  0  0  0  0  0  0  0  0  0  0  0
   11.4389   11.1353    6.1917 C   0  0  0  0  0  0  0  0  0  0  0  0
   11.8595   10.1856    7.1621 C   0  0  0  0  0  0  0  0  0  0  0  0
   12.2012    9.0103    7.0302 O   0  0  0  0  0  0  0  0  0  0  0  0
   11.2827   11.0512    4.8291 N   0  0  0  0  0  0  0  0  0  0  0  0
   10.8540   12.2670    4.4162 C   0  0  0  0  0  0  0  0  0  0  0  0
   10.7320   13.1325    5.4781 N   0  0  0  0  0  0  0  0  0  0  0  0
  1  2  1  0  0  0  0
  1  6  1  0  0  0  0
  2  3  2  0  0  0  0
  3  4  1  0  0  0  0
  4  5  2  0  0  0  0
  4 10  1  0  0  0  0
  5  6  1  0  0  0  0
  5  8  1  0  0  0  0
  6  7  2  0  0  0  0
  8  9  1  0  0  0  0
  9 10  2  0  0  0  0
M  END
>  <CHROM.1>
11.41100718,11.44352392,6.68713903,0.46524209,-1.24826704,1.15762005

>  <Name>
ligand

>  <RI>
0

>  <Rbt.Current_Directory>
/home/itssahil/PROJECTS/Mol_Feturizer/New_Systems/rnas/2EEU

>  <Rbt.Executable>
rbdock ($Id: //depot/dev/client3/rdock/2013.1/src/exe/rbdock.cxx#4 $)

>  <Rbt.Library>
libRbt.so (2013.1, Build901 2013/11/27)

>  <Rbt.Parameter_File>
/export/apps/rDock/src/rDock_2013.1_src/data/scripts/dock_solv.prm

>  <Rbt.Receptor>
prm/blind_docking_20.prm

>  <SCORE>
-18.4581

>  <SCORE.INTER>
-18.4581

>  <SCORE.INTER.CONST>
1

>  <SCORE.INTER.POLAR>
0

>  <SCORE.INTER.ROT>
0

>  <SCORE.INTER.SOLV>
3.5091

>  <SCORE.INTER.VDW>
-17.0751

>  <SCORE.INTER.norm>
-1.84581

>  <SCORE.INTRA>
0

>  <SCORE.INTRA.DIHEDRAL>
0

>  <SCORE.INTRA.DIHEDRAL.0>
0

>  <SCORE.INTRA.POLAR>
0

>  <SCORE.INTRA.POLAR.0>
0

>  <SCORE.INTRA.REPUL>
0

>  <SCORE.INTRA.REPUL.0>
0

>  <SCORE.INTRA.SOLV>
0

>  <SCORE.INTRA.SOLV.lig_0>
-4.28148

>  <SCORE.INTRA.VDW>
0

>  <SCORE.INTRA.VDW.0>
0

>  <SCORE.INTRA.norm>
0

>  <SCORE.RESTR>
0

>  <SCORE.RESTR.CAVITY>
0

>  <SCORE.RESTR.norm>
0

>  <SCORE.SYSTEM>
0

>  <SCORE.SYSTEM.CONST>
0

>  <SCORE.SYSTEM.DIHEDRAL>
0

>  <SCORE.SYSTEM.SOLV>
0

>  <SCORE.SYSTEM.norm>
0

>  <SCORE.heavy>
10

>  <SCORE.norm>
-1.84581

>  <RMSD>
0.854

$$$$
ligand
 OpenBabel11021811423D
libRbt.so/2013.1/901 2013/11/27
 10 11  0  0  0  0  0  0  0  0999 V2000
   11.8608   10.7397    8.4459 N   0  0  0  0  0  0  0  0  0  0  0  0
   11.5028   12.0306    8.7794 C   0  0  0  0  0  0  0  0  0  0  0  0
   11.1045   12.9184    7.8599 N   0  0  0  0  0  0  0  0  0  0  0  0
   11.0968   12.4146    6.5936 C   0  0  0  0  0  0  0  0  0  0  0  0
   11.4445   11.1335    6.1927 C   0  0  0  0  0  0  0  0  0  0  0  0
   11.8661   10.1852    7.1640 C   0  0  0  0  0  0  0  0  0  0  0  0
   12.2142    9.0117    7.0325 O   0  0  0  0  0  0  0  0  0  0  0  0
   11.2941   11.0496    4.8293 N   0  0  0  0  0  0  0  0  0  0  0  0
   10.8610   12.2636    4.4157 C   0  0  0  0  0  0  0  0  0  0  0  0
   10.7304   13.1277    5.4778 N   0  0  0  0  0  0  0  0  0  0  0  0
  1  2  1  0  0  0  0
  1  6  1  0  0  0  0
  2  3  2  0  0  0  0
  3  4  1  0  0  0  0
  4  5  2  0  0  0  0
  4 10  1  0  0  0  0
  5  6  1  0  0  0  0
  5  8  1  0  0  0  0
  6  7  2  0  0  0  0
  8  9  1  0  0  0  0
  9 10  2  0  0  0  0
M  END
>  <CHROM.1>
11.41310341,11.44119643,6.68818181,0.48289514,-1.24520103,1.17511104

>  <Name>
ligand

>  <RI>
0

>  <Rbt.Current_Directory>
/home/itssahil/PROJECTS/Mol_Feturizer/New_Systems/rnas/2EEU

>  <Rbt.Executable>
rbdock ($Id: //depot/dev/client3/rdock/2013.1/src/exe/rbdock.cxx#4 $)

>  <Rbt.Library>
libRbt.so (2013.1, Build901 2013/11/27)

>  <Rbt.Parameter_File>
/export/apps/rDock/src/rDock_2013.1_src/data/scripts/dock_solv.prm

>  <Rbt.Receptor>
prm/blind_docking_20.prm

>  <SCORE>
-18.4479

>  <SCORE.INTER>
-18.4479

>  <SCORE.INTER.CONST>
1

>  <SCORE.INTER.POLAR>
0

>  <SCORE.INTER.ROT>
0

>  <SCORE.INTER.SOLV>
3.49759

>  <SCORE.INTER.VDW>
-17.0645

>  <SCORE.INTER.norm>
-1.84479

>  <SCORE.INTRA>
0

>  <SCORE.INTRA.DIHEDRAL>
0

>  <SCORE.INTRA.DIHEDRAL.0>
0

>  <SCORE.INTRA.POLAR>
0

>  <SCORE.INTRA.POLAR.0>
0

>  <SCORE.INTRA.REPUL>
0

>  <SCORE.INTRA.REPUL.0>
0

>  <SCORE.INTRA.SOLV>
0

>  <SCORE.INTRA.SOLV.lig_0>
-4.28148

>  <SCORE.INTRA.VDW>
0

>  <SCORE.INTRA.VDW.0>
0

>  <SCORE.INTRA.norm>
0

>  <SCORE.RESTR>
0

>  <SCORE.RESTR.CAVITY>
0

>  <SCORE.RESTR.norm>
0

>  <SCORE.SYSTEM>
0

>  <SCORE.SYSTEM.CONST>
0

>  <SCORE.SYSTEM.DIHEDRAL>
0

>  <SCORE.SYSTEM.SOLV>
0

>  <SCORE.SYSTEM.norm>
0

>  <SCORE.heavy>
10

>  <SCORE.norm>
-1.84479

>  <RMSD>
0.854

$$$$
ligand
 OpenBabel11021811423D
libRbt.so/2013.1/901 2013/11/27
 10 11  0  0  0  0  0  0  0  0999 V2000
   11.8246   10.8020    8.4442 N   0  0  0  0  0  0  0  0  0  0  0  0
   11.4797   12.1015    8.7569 C   0  0  0  0  0  0  0  0  0  0  0  0
   11.1000   12.9813    7.8220 N   0  0  0  0  0  0  0  0  0  0  0  0
   11.0968   12.4603    6.5627 C   0  0  0  0  0  0  0  0  0  0  0  0
   11.4323   11.1697    6.1823 C   0  0  0  0  0  0  0  0  0  0  0  0
   11.8340   10.2298    7.1701 C   0  0  0  0  0  0  0  0  0  0  0  0
   12.1689    9.0505    7.0577 O   0  0  0  0  0  0  0  0  0  0  0  0
   11.2924   11.0688    4.8190 N   0  0  0  0  0  0  0  0  0  0  0  0
   10.8776   12.2821    4.3851 C   0  0  0  0  0  0  0  0  0  0  0  0
   10.7486   13.1623    5.4341 N   0  0  0  0  0  0  0  0  0  0  0  0
  1  2  1  0  0  0  0
  1  6  1  0  0  0  0
  2  3  2  0  0  0  0
  3  4  1  0  0  0  0
  4  5  2  0  0  0  0
  4 10  1  0  0  0  0
  5  6  1  0  0  0  0
  5  8  1  0  0  0  0
  6  7  2  0  0  0  0
  8  9  1  0  0  0  0
  9 10  2  0  0  0  0
M  END
>  <CHROM.1>
11.40043876,11.48448602,6.67328095,0.49301036,-1.25970436,1.17099154

>  <Name>
ligand

>  <RI>
0

>  <Rbt.Current_Directory>
/home/itssahil/PROJECTS/Mol_Feturizer/New_Systems/rnas/2EEU

>  <Rbt.Executable>
rbdock ($Id: //depot/dev/client3/rdock/2013.1/src/exe/rbdock.cxx#4 $)

>  <Rbt.Library>
libRbt.so (2013.1, Build901 2013/11/27)

>  <Rbt.Parameter_File>
/export/apps/rDock/src/rDock_2013.1_src/data/scripts/dock_solv.prm

>  <Rbt.Receptor>
prm/blind_docking_20.prm

>  <SCORE>
-18.4498

>  <SCORE.INTER>
-18.4498

>  <SCORE.INTER.CONST>
1

>  <SCORE.INTER.POLAR>
0

>  <SCORE.INTER.ROT>
0

>  <SCORE.INTER.SOLV>
3.5364

>  <SCORE.INTER.VDW>
-17.0787

>  <SCORE.INTER.norm>
-1.84498

>  <SCORE.INTRA>
0

>  <SCORE.INTRA.DIHEDRAL>
0

>  <SCORE.INTRA.DIHEDRAL.0>
0

>  <SCORE.INTRA.POLAR>
0

>  <SCORE.INTRA.POLAR.0>
0

>  <SCORE.INTRA.REPUL>
0

>  <SCORE.INTRA.REPUL.0>
0

>  <SCORE.INTRA.SOLV>
0

>  <SCORE.INTRA.SOLV.lig_0>
-4.28148

>  <SCORE.INTRA.VDW>
0

>  <SCORE.INTRA.VDW.0>
0

>  <SCORE.INTRA.norm>
0

>  <SCORE.RESTR>
0

>  <SCORE.RESTR.CAVITY>
0

>  <SCORE.RESTR.norm>
0

>  <SCORE.SYSTEM>
0

>  <SCORE.SYSTEM.CONST>
0

>  <SCORE.SYSTEM.DIHEDRAL>
0

>  <SCORE.SYSTEM.SOLV>
0

>  <SCORE.SYSTEM.norm>
0

>  <SCORE.heavy>
10

>  <SCORE.norm>
-1.84498

>  <RMSD>
0.854

$$$$
ligand
 OpenBabel11021811423D
libRbt.so/2013.1/901 2013/11/27
 10 11  0  0  0  0  0  0  0  0999 V2000
   11.8632   10.7394    8.4440 N   0  0  0  0  0  0  0  0  0  0  0  0
   11.5132   12.0322    8.7782 C   0  0  0  0  0  0  0  0  0  0  0  0
   11.1162   12.9217    7.8598 N   0  0  0  0  0  0  0  0  0  0  0  0
   11.1012   12.4175    6.5937 C   0  0  0  0  0  0  0  0  0  0  0  0
   11.4409   11.1345    6.1921 C   0  0  0  0  0  0  0  0  0  0  0  0
   11.8610   10.1843    7.1623 C   0  0  0  0  0  0  0  0  0  0  0  0
   12.2025    9.0090    7.0300 O   0  0  0  0  0  0  0  0  0  0  0  0
   11.2851   11.0508    4.8294 N   0  0  0  0  0  0  0  0  0  0  0  0
   10.8568   12.2669    4.4168 C   0  0  0  0  0  0  0  0  0  0  0  0
   10.7345   13.1320    5.4790 N   0  0  0  0  0  0  0  0  0  0  0  0
  1  2  1  0  0  0  0
  1  6  1  0  0  0  0
  2  3  2  0  0  0  0
  3  4  1  0  0  0  0
  4  5  2  0  0  0  0
  4 10  1  0  0  0  0
  5  6  1  0  0  0  0
  5  8  1  0  0  0  0
  6  7  2  0  0  0  0
  8  9  1  0  0  0  0
  9 10  2  0  0  0  0
M  END
>  <CHROM.1>
11.41282616,11.44246875,6.68759855,0.46602627,-1.24856634,1.15871764

>  <Name>
ligand

>  <RI>
0

>  <Rbt.Current_Directory>
/home/itssahil/PROJECTS/Mol_Feturizer/New_Systems/rnas/2EEU

>  <Rbt.Executable>
rbdock ($Id: //depot/dev/client3/rdock/2013.1/src/exe/rbdock.cxx#4 $)

>  <Rbt.Library>
libRbt.so (2013.1, Build901 2013/11/27)

>  <Rbt.Parameter_File>
/export/apps/rDock/src/rDock_2013.1_src/data/scripts/dock_solv.prm

>  <Rbt.Receptor>
prm/blind_docking_20.prm

>  <SCORE>
-18.4567

>  <SCORE.INTER>
-18.4567

>  <SCORE.INTER.CONST>
1

>  <SCORE.INTER.POLAR>
0

>  <SCORE.INTER.ROT>
0

>  <SCORE.INTER.SOLV>
3.50867

>  <SCORE.INTER.VDW>
-17.074

>  <SCORE.INTER.norm>
-1.84567

>  <SCORE.INTRA>
0

>  <SCORE.INTRA.DIHEDRAL>
0

>  <SCORE.INTRA.DIHEDRAL.0>
0

>  <SCORE.INTRA.POLAR>
0

>  <SCORE.INTRA.POLAR.0>
0

>  <SCORE.INTRA.REPUL>
0

>  <SCORE.INTRA.REPUL.0>
0

>  <SCORE.INTRA.SOLV>
0

>  <SCORE.INTRA.SOLV.lig_0>
-4.28148

>  <SCORE.INTRA.VDW>
0

>  <SCORE.INTRA.VDW.0>
0

>  <SCORE.INTRA.norm>
0

>  <SCORE.RESTR>
0

>  <SCORE.RESTR.CAVITY>
0

>  <SCORE.RESTR.norm>
0

>  <SCORE.SYSTEM>
0

>  <SCORE.SYSTEM.CONST>
0

>  <SCORE.SYSTEM.DIHEDRAL>
0

>  <SCORE.SYSTEM.SOLV>
0

>  <SCORE.SYSTEM.norm>
0

>  <SCORE.heavy>
10

>  <SCORE.norm>
-1.84567

>  <RMSD>
0.854

$$$$
ligand
 OpenBabel11021811423D
libRbt.so/2013.1/901 2013/11/27
 10 11  0  0  0  0  0  0  0  0999 V2000
   11.8551   10.7294    8.4449 N   0  0  0  0  0  0  0  0  0  0  0  0
   11.5144   12.0236    8.7833 C   0  0  0  0  0  0  0  0  0  0  0  0
   11.1248   12.9192    7.8677 N   0  0  0  0  0  0  0  0  0  0  0  0
   11.1073   12.4195    6.5998 C   0  0  0  0  0  0  0  0  0  0  0  0
   11.4378   11.1354    6.1941 C   0  0  0  0  0  0  0  0  0  0  0  0
   11.8500   10.1788    7.1613 C   0  0  0  0  0  0  0  0  0  0  0  0
   12.1830    9.0014    7.0253 O   0  0  0  0  0  0  0  0  0  0  0  0
   11.2826   11.0576    4.8309 N   0  0  0  0  0  0  0  0  0  0  0  0
   10.8637   12.2782    4.4221 C   0  0  0  0  0  0  0  0  0  0  0  0
   10.7469   13.1405    5.4872 N   0  0  0  0  0  0  0  0  0  0  0  0
  1  2  1  0  0  0  0
  1  6  1  0  0  0  0
  2  3  2  0  0  0  0
  3  4  1  0  0  0  0
  4  5  2  0  0  0  0
  4 10  1  0  0  0  0
  5  6  1  0  0  0  0
  5  8  1  0  0  0  0
  6  7  2  0  0  0  0
  8  9  1  0  0  0  0
  9 10  2  0  0  0  0
M  END
>  <CHROM.1>
11.41159325,11.44185113,6.69059485,0.45920106,-1.25569567,1.15569720

>  <Name>
ligand

>  <RI>
0

>  <Rbt.Current_Directory>
/home/itssahil/PROJECTS/Mol_Feturizer/New_Systems/rnas/2EEU

>  <Rbt.Executable>
rbdock ($Id: //depot/dev/client3/rdock/2013.1/src/exe/rbdock.cxx#4 $)

>  <Rbt.Library>
libRbt.so (2013.1, Build901 2013/11/27)

>  <Rbt.Parameter_File>
/export/apps/rDock/src/rDock_2013.1_src/data/scripts/dock_solv.prm

>  <Rbt.Receptor>
prm/blind_docking_20.prm

>  <SCORE>
-18.4363

>  <SCORE.INTER>
-18.4363

>  <SCORE.INTER.CONST>
1

>  <SCORE.INTER.POLAR>
0

>  <SCORE.INTER.ROT>
0

>  <SCORE.INTER.SOLV>
3.53715

>  <SCORE.INTER.VDW>
-17.0699

>  <SCORE.INTER.norm>
-1.84363

>  <SCORE.INTRA>
0

>  <SCORE.INTRA.DIHEDRAL>
0

>  <SCORE.INTRA.DIHEDRAL.0>
0

>  <SCORE.INTRA.POLAR>
0

>  <SCORE.INTRA.POLAR.0>
0

>  <SCORE.INTRA.REPUL>
0

>  <SCORE.INTRA.REPUL.0>
0

>  <SCORE.INTRA.SOLV>
0

>  <SCORE.INTRA.SOLV.lig_0>
-4.28148

>  <SCORE.INTRA.VDW>
0

>  <SCORE.INTRA.VDW.0>
0

>  <SCORE.INTRA.norm>
0

>  <SCORE.RESTR>
0

>  <SCORE.RESTR.CAVITY>
0

>  <SCORE.RESTR.norm>
0

>  <SCORE.SYSTEM>
0

>  <SCORE.SYSTEM.CONST>
0

>  <SCORE.SYSTEM.DIHEDRAL>
0

>  <SCORE.SYSTEM.SOLV>
0

>  <SCORE.SYSTEM.norm>
0

>  <SCORE.heavy>
10

>  <SCORE.norm>
-1.84363

>  <RMSD>
0.854

$$$$
ligand
 OpenBabel11021811423D
libRbt.so/2013.1/901 2013/11/27
 10 11  0  0  0  0  0  0  0  0999 V2000
   11.8720   10.7424    8.4373 N   0  0  0  0  0  0  0  0  0  0  0  0
   11.5312   12.0372    8.7733 C   0  0  0  0  0  0  0  0  0  0  0  0
   11.1300   12.9276    7.8577 N   0  0  0  0  0  0  0  0  0  0  0  0
   11.1010   12.4222    6.5924 C   0  0  0  0  0  0  0  0  0  0  0  0
   11.4309   11.1371    6.1890 C   0  0  0  0  0  0  0  0  0  0  0  0
   11.8554   10.1860    7.1563 C   0  0  0  0  0  0  0  0  0  0  0  0
   12.1901    9.0089    7.0222 O   0  0  0  0  0  0  0  0  0  0  0  0
   11.2622   11.0528    4.8278 N   0  0  0  0  0  0  0  0  0  0  0  0
   10.8359   12.2705    4.4179 C   0  0  0  0  0  0  0  0  0  0  0  0
   10.7275   13.1373    5.4802 N   0  0  0  0  0  0  0  0  0  0  0  0
  1  2  1  0  0  0  0
  1  6  1  0  0  0  0
  2  3  2  0  0  0  0
  3  4  1  0  0  0  0
  4  5  2  0  0  0  0
  4 10  1  0  0  0  0
  5  6  1  0  0  0  0
  5  8  1  0  0  0  0
  6  7  2  0  0  0  0
  8  9  1  0  0  0  0
  9 10  2  0  0  0  0
M  END
>  <CHROM.1>
11.40885231,11.44578880,6.68438695,0.43342021,-1.24906395,1.12674774

>  <Name>
ligand

>  <RI>
0

>  <Rbt.Current_Directory>
/home/itssahil/PROJECTS/Mol_Feturizer/New_Systems/rnas/2EEU

>  <Rbt.Executable>
rbdock ($Id: //depot/dev/client3/rdock/2013.1/src/exe/rbdock.cxx#4 $)

>  <Rbt.Library>
libRbt.so (2013.1, Build901 2013/11/27)

>  <Rbt.Parameter_File>
/export/apps/rDock/src/rDock_2013.1_src/data/scripts/dock_solv.prm

>  <Rbt.Receptor>
prm/blind_docking_20.prm

>  <SCORE>
-18.4597

>  <SCORE.INTER>
-18.4597

>  <SCORE.INTER.CONST>
1

>  <SCORE.INTER.POLAR>
0

>  <SCORE.INTER.ROT>
0

>  <SCORE.INTER.SOLV>
3.5137

>  <SCORE.INTER.VDW>
-17.0777

>  <SCORE.INTER.norm>
-1.84597

>  <SCORE.INTRA>
0

>  <SCORE.INTRA.DIHEDRAL>
0

>  <SCORE.INTRA.DIHEDRAL.0>
0

>  <SCORE.INTRA.POLAR>
0

>  <SCORE.INTRA.POLAR.0>
0

>  <SCORE.INTRA.REPUL>
0

>  <SCORE.INTRA.REPUL.0>
0

>  <SCORE.INTRA.SOLV>
0

>  <SCORE.INTRA.SOLV.lig_0>
-4.28148

>  <SCORE.INTRA.VDW>
0

>  <SCORE.INTRA.VDW.0>
0

>  <SCORE.INTRA.norm>
0

>  <SCORE.RESTR>
0

>  <SCORE.RESTR.CAVITY>
0

>  <SCORE.RESTR.norm>
0

>  <SCORE.SYSTEM>
0

>  <SCORE.SYSTEM.CONST>
0

>  <SCORE.SYSTEM.DIHEDRAL>
0

>  <SCORE.SYSTEM.SOLV>
0

>  <SCORE.SYSTEM.norm>
0

>  <SCORE.heavy>
10

>  <SCORE.norm>
-1.84597

>  <RMSD>
0.855

$$$$
ligand
 OpenBabel11021811423D
libRbt.so/2013.1/901 2013/11/27
 10 11  0  0  0  0  0  0  0  0999 V2000
   11.9674   11.3766    8.4397 N   0  0  0  0  0  0  0  0  0  0  0  0
   11.7241   12.7294    8.5678 C   0  0  0  0  0  0  0  0  0  0  0  0
   11.3311   13.4826    7.5331 N   0  0  0  0  0  0  0  0  0  0  0  0
   11.2060   12.7791    6.3725 C   0  0  0  0  0  0  0  0  0  0  0  0
   11.4355   11.4256    6.1770 C   0  0  0  0  0  0  0  0  0  0  0  0
   11.8506   10.6196    7.2717 C   0  0  0  0  0  0  0  0  0  0  0  0
   12.1055    9.4163    7.3231 O   0  0  0  0  0  0  0  0  0  0  0  0
   11.1918   11.1304    4.8572 N   0  0  0  0  0  0  0  0  0  0  0  0
   10.8200   12.2904    4.2668 C   0  0  0  0  0  0  0  0  0  0  0  0
   10.8198   13.3255    5.1725 N   0  0  0  0  0  0  0  0  0  0  0  0
  1  2  1  0  0  0  0
  1  6  1  0  0  0  0
  2  3  2  0  0  0  0
  3  4  1  0  0  0  0
  4  5  2  0  0  0  0
  4 10  1  0  0  0  0
  5  6  1  0  0  0  0
  5  8  1  0  0  0  0
  6  7  2  0  0  0  0
  8  9  1  0  0  0  0
  9 10  2  0  0  0  0
M  END
>  <CHROM.1>
11.45803353,11.81232527,6.61413352,0.18211053,-1.27322546,0.72021792

>  <Name>
ligand

>  <RI>
0

>  <Rbt.Current_Directory>
/home/itssahil/PROJECTS/Mol_Feturizer/New_Systems/rnas/2EEU

>  <Rbt.Executable>
rbdock ($Id: //depot/dev/client3/rdock/2013.1/src/exe/rbdock.cxx#4 $)

>  <Rbt.Library>
libRbt.so (2013.1, Build901 2013/11/27)

>  <Rbt.Parameter_File>
/export/apps/rDock/src/rDock_2013.1_src/data/scripts/dock_solv.prm

>  <Rbt.Receptor>
prm/pocket_docking_7.prm

>  <SCORE>
-18.4966

>  <SCORE.INTER>
-18.4966

>  <SCORE.INTER.CONST>
1

>  <SCORE.INTER.POLAR>
0

>  <SCORE.INTER.ROT>
0

>  <SCORE.INTER.SOLV>
3.46445

>  <SCORE.INTER.VDW>
-17.0859

>  <SCORE.INTER.norm>
-1.84966

>  <SCORE.INTRA>
0

>  <SCORE.INTRA.DIHEDRAL>
0

>  <SCORE.INTRA.DIHEDRAL.0>
0

>  <SCORE.INTRA.POLAR>
0

>  <SCORE.INTRA.POLAR.0>
0

>  <SCORE.INTRA.REPUL>
0

>  <SCORE.INTRA.REPUL.0>
0

>  <SCORE.INTRA.SOLV>
0

>  <SCORE.INTRA.SOLV.lig_0>
-4.28148

>  <SCORE.INTRA.VDW>
0

>  <SCORE.INTRA.VDW.0>
0

>  <SCORE.INTRA.norm>
0

>  <SCORE.RESTR>
0

>  <SCORE.RESTR.CAVITY>
0

>  <SCORE.RESTR.norm>
0

>  <SCORE.SYSTEM>
0

>  <SCORE.SYSTEM.CONST>
0

>  <SCORE.SYSTEM.DIHEDRAL>
0

>  <SCORE.SYSTEM.SOLV>
0

>  <SCORE.SYSTEM.norm>
0

>  <SCORE.heavy>
10

>  <SCORE.norm>
-1.84966

>  <RMSD>
0.855

$$$$
ligand
 OpenBabel11021811423D
libRbt.so/2013.1/901 2013/11/27
 10 11  0  0  0  0  0  0  0  0999 V2000
   11.8047   10.8020    8.4482 N   0  0  0  0  0  0  0  0  0  0  0  0
   11.4614   12.1028    8.7576 C   0  0  0  0  0  0  0  0  0  0  0  0
   11.0911   12.9831    7.8194 N   0  0  0  0  0  0  0  0  0  0  0  0
   11.0955   12.4614    6.5604 C   0  0  0  0  0  0  0  0  0  0  0  0
   11.4298   11.1695    6.1833 C   0  0  0  0  0  0  0  0  0  0  0  0
   11.8215   10.2290    7.1745 C   0  0  0  0  0  0  0  0  0  0  0  0
   12.1536    9.0486    7.0653 O   0  0  0  0  0  0  0  0  0  0  0  0
   11.2994   11.0682    4.8191 N   0  0  0  0  0  0  0  0  0  0  0  0
   10.8914   12.2825    4.3814 C   0  0  0  0  0  0  0  0  0  0  0  0
   10.7576   13.1637    5.4289 N   0  0  0  0  0  0  0  0  0  0  0  0
  1  2  1  0  0  0  0
  1  6  1  0  0  0  0
  2  3  2  0  0  0  0
  3  4  1  0  0  0  0
  4  5  2  0  0  0  0
  4 10  1  0  0  0  0
  5  6  1  0  0  0  0
  5  8  1  0  0  0  0
  6  7  2  0  0  0  0
  8  9  1  0  0  0  0
  9 10  2  0  0  0  0
M  END
>  <CHROM.1>
11.39531854,11.48471745,6.67383600,0.51115116,-1.26525765,1.18765742

>  <Name>
ligand

>  <RI>
0

>  <Rbt.Current_Directory>
/home/itssahil/PROJECTS/Mol_Feturizer/New_Systems/rnas/2EEU

>  <Rbt.Executable>
rbdock ($Id: //depot/dev/client3/rdock/2013.1/src/exe/rbdock.cxx#4 $)

>  <Rbt.Library>
libRbt.so (2013.1, Build901 2013/11/27)

>  <Rbt.Parameter_File>
/export/apps/rDock/src/rDock_2013.1_src/data/scripts/dock_solv.prm

>  <Rbt.Receptor>
prm/blind_docking_20.prm

>  <SCORE>
-18.4141

>  <SCORE.INTER>
-18.4141

>  <SCORE.INTER.CONST>
1

>  <SCORE.INTER.POLAR>
0

>  <SCORE.INTER.ROT>
0

>  <SCORE.INTER.SOLV>
3.56138

>  <SCORE.INTER.VDW>
-17.0632

>  <SCORE.INTER.norm>
-1.84141

>  <SCORE.INTRA>
0

>  <SCORE.INTRA.DIHEDRAL>
0

>  <SCORE.INTRA.DIHEDRAL.0>
0

>  <SCORE.INTRA.POLAR>
0

>  <SCORE.INTRA.POLAR.0>
0

>  <SCORE.INTRA.REPUL>
0

>  <SCORE.INTRA.REPUL.0>
0

>  <SCORE.INTRA.SOLV>
0

>  <SCORE.INTRA.SOLV.lig_0>
-4.28148

>  <SCORE.INTRA.VDW>
0

>  <SCORE.INTRA.VDW.0>
0

>  <SCORE.INTRA.norm>
0

>  <SCORE.RESTR>
0

>  <SCORE.RESTR.CAVITY>
0

>  <SCORE.RESTR.norm>
0

>  <SCORE.SYSTEM>
0

>  <SCORE.SYSTEM.CONST>
0

>  <SCORE.SYSTEM.DIHEDRAL>
0

>  <SCORE.SYSTEM.SOLV>
0

>  <SCORE.SYSTEM.norm>
0

>  <SCORE.heavy>
10

>  <SCORE.norm>
-1.84141

>  <RMSD>
0.856

$$$$
ligand
 OpenBabel11021811423D
libRbt.so/2013.1/901 2013/11/27
 10 11  0  0  0  0  0  0  0  0999 V2000
   11.8302   10.8025    8.4417 N   0  0  0  0  0  0  0  0  0  0  0  0
   11.4827   12.1015    8.7540 C   0  0  0  0  0  0  0  0  0  0  0  0
   11.0979   12.9792    7.8192 N   0  0  0  0  0  0  0  0  0  0  0  0
   11.0925   12.4568    6.5605 C   0  0  0  0  0  0  0  0  0  0  0  0
   11.4303   11.1667    6.1806 C   0  0  0  0  0  0  0  0  0  0  0  0
   11.8374   10.2290    7.1682 C   0  0  0  0  0  0  0  0  0  0  0  0
   12.1751    9.0505    7.0561 O   0  0  0  0  0  0  0  0  0  0  0  0
   11.2867   11.0640    4.8178 N   0  0  0  0  0  0  0  0  0  0  0  0
   10.8674   12.2757    4.3837 C   0  0  0  0  0  0  0  0  0  0  0  0
   10.7391   13.1567    5.4321 N   0  0  0  0  0  0  0  0  0  0  0  0
  1  2  1  0  0  0  0
  1  6  1  0  0  0  0
  2  3  2  0  0  0  0
  3  4  1  0  0  0  0
  4  5  2  0  0  0  0
  4 10  1  0  0  0  0
  5  6  1  0  0  0  0
  5  8  1  0  0  0  0
  6  7  2  0  0  0  0
  8  9  1  0  0  0  0
  9 10  2  0  0  0  0
M  END
>  <CHROM.1>
11.39901813,11.48198909,6.67126431,0.48768456,-1.25610638,1.16483865

>  <Name>
ligand

>  <RI>
0

>  <Rbt.Current_Directory>
/home/itssahil/PROJECTS/Mol_Feturizer/New_Systems/rnas/2EEU

>  <Rbt.Executable>
rbdock ($Id: //depot/dev/client3/rdock/2013.1/src/exe/rbdock.cxx#4 $)

>  <Rbt.Library>
libRbt.so (2013.1, Build901 2013/11/27)

>  <Rbt.Parameter_File>
/export/apps/rDock/src/rDock_2013.1_src/data/scripts/dock_solv.prm

>  <Rbt.Receptor>
prm/blind_docking_20.prm

>  <SCORE>
-18.446

>  <SCORE.INTER>
-18.446

>  <SCORE.INTER.CONST>
1

>  <SCORE.INTER.POLAR>
0

>  <SCORE.INTER.ROT>
0

>  <SCORE.INTER.SOLV>
3.52653

>  <SCORE.INTER.VDW>
-17.0729

>  <SCORE.INTER.norm>
-1.8446

>  <SCORE.INTRA>
0

>  <SCORE.INTRA.DIHEDRAL>
0

>  <SCORE.INTRA.DIHEDRAL.0>
0

>  <SCORE.INTRA.POLAR>
0

>  <SCORE.INTRA.POLAR.0>
0

>  <SCORE.INTRA.REPUL>
0

>  <SCORE.INTRA.REPUL.0>
0

>  <SCORE.INTRA.SOLV>
0

>  <SCORE.INTRA.SOLV.lig_0>
-4.28148

>  <SCORE.INTRA.VDW>
0

>  <SCORE.INTRA.VDW.0>
0

>  <SCORE.INTRA.norm>
0

>  <SCORE.RESTR>
0

>  <SCORE.RESTR.CAVITY>
0

>  <SCORE.RESTR.norm>
0

>  <SCORE.SYSTEM>
0

>  <SCORE.SYSTEM.CONST>
0

>  <SCORE.SYSTEM.DIHEDRAL>
0

>  <SCORE.SYSTEM.SOLV>
0

>  <SCORE.SYSTEM.norm>
0

>  <SCORE.heavy>
10

>  <SCORE.norm>
-1.8446

>  <RMSD>
0.856

$$$$
ligand
 OpenBabel11021811423D
libRbt.so/2013.1/901 2013/11/27
 10 11  0  0  0  0  0  0  0  0999 V2000
   11.8414   11.0403    8.4378 N   0  0  0  0  0  0  0  0  0  0  0  0
   11.4662   12.3489    8.6667 C   0  0  0  0  0  0  0  0  0  0  0  0
   11.0648   13.1572    7.6780 N   0  0  0  0  0  0  0  0  0  0  0  0
   11.0725   12.5560    6.4549 C   0  0  0  0  0  0  0  0  0  0  0  0
   11.4379   11.2517    6.1579 C   0  0  0  0  0  0  0  0  0  0  0  0
   11.8628   10.3873    7.2032 C   0  0  0  0  0  0  0  0  0  0  0  0
   12.2253    9.2114    7.1664 O   0  0  0  0  0  0  0  0  0  0  0  0
   11.2988   11.0597    4.8043 N   0  0  0  0  0  0  0  0  0  0  0  0
   10.8551   12.2323    4.2940 C   0  0  0  0  0  0  0  0  0  0  0  0
   10.7065   13.1752    5.2843 N   0  0  0  0  0  0  0  0  0  0  0  0
  1  2  1  0  0  0  0
  1  6  1  0  0  0  0
  2  3  2  0  0  0  0
  3  4  1  0  0  0  0
  4  5  2  0  0  0  0
  4 10  1  0  0  0  0
  5  6  1  0  0  0  0
  5  8  1  0  0  0  0
  6  7  2  0  0  0  0
  8  9  1  0  0  0  0
  9 10  2  0  0  0  0
M  END
>  <CHROM.1>
11.39918783,11.59677211,6.62756154,0.51783725,-1.23741999,1.12985061

>  <Name>
ligand

>  <RI>
0

>  <Rbt.Current_Directory>
/home/itssahil/PROJECTS/Mol_Feturizer/New_Systems/rnas/2EEU

>  <Rbt.Executable>
rbdock ($Id: //depot/dev/client3/rdock/2013.1/src/exe/rbdock.cxx#4 $)

>  <Rbt.Library>
libRbt.so (2013.1, Build901 2013/11/27)

>  <Rbt.Parameter_File>
/export/apps/rDock/src/rDock_2013.1_src/data/scripts/dock_solv.prm

>  <Rbt.Receptor>
prm/pocket_docking_6.prm

>  <SCORE>
-18.5012

>  <SCORE.INTER>
-18.5012

>  <SCORE.INTER.CONST>
1

>  <SCORE.INTER.POLAR>
0

>  <SCORE.INTER.ROT>
0

>  <SCORE.INTER.SOLV>
3.42238

>  <SCORE.INTER.VDW>
-17.0749

>  <SCORE.INTER.norm>
-1.85012

>  <SCORE.INTRA>
0

>  <SCORE.INTRA.DIHEDRAL>
0

>  <SCORE.INTRA.DIHEDRAL.0>
0

>  <SCORE.INTRA.POLAR>
0

>  <SCORE.INTRA.POLAR.0>
0

>  <SCORE.INTRA.REPUL>
0

>  <SCORE.INTRA.REPUL.0>
0

>  <SCORE.INTRA.SOLV>
0

>  <SCORE.INTRA.SOLV.lig_0>
-4.28148

>  <SCORE.INTRA.VDW>
0

>  <SCORE.INTRA.VDW.0>
0

>  <SCORE.INTRA.norm>
0

>  <SCORE.RESTR>
0

>  <SCORE.RESTR.CAVITY>
0

>  <SCORE.RESTR.norm>
0

>  <SCORE.SYSTEM>
0

>  <SCORE.SYSTEM.CONST>
0

>  <SCORE.SYSTEM.DIHEDRAL>
0

>  <SCORE.SYSTEM.SOLV>
0

>  <SCORE.SYSTEM.norm>
0

>  <SCORE.heavy>
10

>  <SCORE.norm>
-1.85012

>  <RMSD>
0.856

$$$$
ligand
 OpenBabel11021811423D
libRbt.so/2013.1/901 2013/11/27
 10 11  0  0  0  0  0  0  0  0999 V2000
   11.9664   11.3761    8.4396 N   0  0  0  0  0  0  0  0  0  0  0  0
   11.7263   12.7295    8.5673 C   0  0  0  0  0  0  0  0  0  0  0  0
   11.3341   13.4831    7.5326 N   0  0  0  0  0  0  0  0  0  0  0  0
   11.2062   12.7794    6.3725 C   0  0  0  0  0  0  0  0  0  0  0  0
   11.4325   11.4253    6.1773 C   0  0  0  0  0  0  0  0  0  0  0  0
   11.8468   10.6188    7.2720 C   0  0  0  0  0  0  0  0  0  0  0  0
   12.0990    9.4150    7.3237 O   0  0  0  0  0  0  0  0  0  0  0  0
   11.1868   11.1301    4.8579 N   0  0  0  0  0  0  0  0  0  0  0  0
   10.8171   12.2907    4.2674 C   0  0  0  0  0  0  0  0  0  0  0  0
   10.8202   13.3262    5.1726 N   0  0  0  0  0  0  0  0  0  0  0  0
  1  2  1  0  0  0  0
  1  6  1  0  0  0  0
  2  3  2  0  0  0  0
  3  4  1  0  0  0  0
  4  5  2  0  0  0  0
  4 10  1  0  0  0  0
  5  6  1  0  0  0  0
  5  8  1  0  0  0  0
  6  7  2  0  0  0  0
  8  9  1  0  0  0  0
  9 10  2  0  0  0  0
M  END
>  <CHROM.1>
11.45626516,11.81214154,6.61431932,0.17408573,-1.27401122,0.71211419

>  <Name>
ligand

>  <RI>
0

>  <Rbt.Current_Directory>
/home/itssahil/PROJECTS/Mol_Feturizer/New_Systems/rnas/2EEU

>  <Rbt.Executable>
rbdock ($Id: //depot/dev/client3/rdock/2013.1/src/exe/rbdock.cxx#4 $)

>  <Rbt.Library>
libRbt.so (2013.1, Build901 2013/11/27)

>  <Rbt.Parameter_File>
/export/apps/rDock/src/rDock_2013.1_src/data/scripts/dock_solv.prm

>  <Rbt.Receptor>
prm/pocket_docking_7.prm

>  <SCORE>
-18.4973

>  <SCORE.INTER>
-18.4973

>  <SCORE.INTER.CONST>
1

>  <SCORE.INTER.POLAR>
0

>  <SCORE.INTER.ROT>
0

>  <SCORE.INTER.SOLV>
3.47021

>  <SCORE.INTER.VDW>
-17.0882

>  <SCORE.INTER.norm>
-1.84973

>  <SCORE.INTRA>
0

>  <SCORE.INTRA.DIHEDRAL>
0

>  <SCORE.INTRA.DIHEDRAL.0>
0

>  <SCORE.INTRA.POLAR>
0

>  <SCORE.INTRA.POLAR.0>
0

>  <SCORE.INTRA.REPUL>
0

>  <SCORE.INTRA.REPUL.0>
0

>  <SCORE.INTRA.SOLV>
0

>  <SCORE.INTRA.SOLV.lig_0>
-4.28148

>  <SCORE.INTRA.VDW>
0

>  <SCORE.INTRA.VDW.0>
0

>  <SCORE.INTRA.norm>
0

>  <SCORE.RESTR>
0

>  <SCORE.RESTR.CAVITY>
0

>  <SCORE.RESTR.norm>
0

>  <SCORE.SYSTEM>
0

>  <SCORE.SYSTEM.CONST>
0

>  <SCORE.SYSTEM.DIHEDRAL>
0

>  <SCORE.SYSTEM.SOLV>
0

>  <SCORE.SYSTEM.norm>
0

>  <SCORE.heavy>
10

>  <SCORE.norm>
-1.84973

>  <RMSD>
0.856

$$$$
ligand
 OpenBabel11021811423D
libRbt.so/2013.1/901 2013/11/27
 10 11  0  0  0  0  0  0  0  0999 V2000
   11.7862   10.9910    8.4445 N   0  0  0  0  0  0  0  0  0  0  0  0
   11.4366   12.3035    8.6910 C   0  0  0  0  0  0  0  0  0  0  0  0
   11.0686   13.1378    7.7108 N   0  0  0  0  0  0  0  0  0  0  0  0
   11.0819   12.5579    6.4775 C   0  0  0  0  0  0  0  0  0  0  0  0
   11.4229   11.2512    6.1629 C   0  0  0  0  0  0  0  0  0  0  0  0
   11.8123   10.3594    7.1990 C   0  0  0  0  0  0  0  0  0  0  0  0
   12.1491    9.1765    7.1468 O   0  0  0  0  0  0  0  0  0  0  0  0
   11.3006   11.0859    4.8042 N   0  0  0  0  0  0  0  0  0  0  0  0
   10.8909   12.2770    4.3081 C   0  0  0  0  0  0  0  0  0  0  0  0
   10.7480   13.2055    5.3127 N   0  0  0  0  0  0  0  0  0  0  0  0
  1  2  1  0  0  0  0
  1  6  1  0  0  0  0
  2  3  2  0  0  0  0
  3  4  1  0  0  0  0
  4  5  2  0  0  0  0
  4 10  1  0  0  0  0
  5  6  1  0  0  0  0
  5  8  1  0  0  0  0
  6  7  2  0  0  0  0
  8  9  1  0  0  0  0
  9 10  2  0  0  0  0
M  END
>  <CHROM.1>
11.38453811,11.58877260,6.63799295,0.53298305,-1.26405614,1.16184787

>  <Name>
ligand

>  <RI>
0

>  <Rbt.Current_Directory>
/home/itssahil/PROJECTS/Mol_Feturizer/New_Systems/rnas/2EEU

>  <Rbt.Executable>
rbdock ($Id: //depot/dev/client3/rdock/2013.1/src/exe/rbdock.cxx#4 $)

>  <Rbt.Library>
libRbt.so (2013.1, Build901 2013/11/27)

>  <Rbt.Parameter_File>
/export/apps/rDock/src/rDock_2013.1_src/data/scripts/dock_solv.prm

>  <Rbt.Receptor>
prm/blind_docking_40.prm

>  <SCORE>
-18.5773

>  <SCORE.INTER>
-18.5773

>  <SCORE.INTER.CONST>
1

>  <SCORE.INTER.POLAR>
0

>  <SCORE.INTER.ROT>
0

>  <SCORE.INTER.SOLV>
3.52249

>  <SCORE.INTER.VDW>
-17.159

>  <SCORE.INTER.norm>
-1.85773

>  <SCORE.INTRA>
0

>  <SCORE.INTRA.DIHEDRAL>
0

>  <SCORE.INTRA.DIHEDRAL.0>
0

>  <SCORE.INTRA.POLAR>
0

>  <SCORE.INTRA.POLAR.0>
0

>  <SCORE.INTRA.REPUL>
0

>  <SCORE.INTRA.REPUL.0>
0

>  <SCORE.INTRA.SOLV>
0

>  <SCORE.INTRA.SOLV.lig_0>
-4.28148

>  <SCORE.INTRA.VDW>
0

>  <SCORE.INTRA.VDW.0>
0

>  <SCORE.INTRA.norm>
0

>  <SCORE.RESTR>
0

>  <SCORE.RESTR.CAVITY>
0

>  <SCORE.RESTR.norm>
0

>  <SCORE.SYSTEM>
0

>  <SCORE.SYSTEM.CONST>
0

>  <SCORE.SYSTEM.DIHEDRAL>
0

>  <SCORE.SYSTEM.SOLV>
0

>  <SCORE.SYSTEM.norm>
0

>  <SCORE.heavy>
10

>  <SCORE.norm>
-1.85773

>  <RMSD>
0.857

$$$$
ligand
 OpenBabel11021811423D
libRbt.so/2013.1/901 2013/11/27
 10 11  0  0  0  0  0  0  0  0999 V2000
   11.8572   10.7387    8.4415 N   0  0  0  0  0  0  0  0  0  0  0  0
   11.5054   12.0310    8.7760 C   0  0  0  0  0  0  0  0  0  0  0  0
   11.1085   12.9205    7.8577 N   0  0  0  0  0  0  0  0  0  0  0  0
   11.0957   12.4171    6.5913 C   0  0  0  0  0  0  0  0  0  0  0  0
   11.4372   11.1347    6.1893 C   0  0  0  0  0  0  0  0  0  0  0  0
   11.8572   10.1844    7.1594 C   0  0  0  0  0  0  0  0  0  0  0  0
   12.2002    9.0095    7.0269 O   0  0  0  0  0  0  0  0  0  0  0  0
   11.2832   11.0516    4.8263 N   0  0  0  0  0  0  0  0  0  0  0  0
   10.8540   12.2675    4.4139 C   0  0  0  0  0  0  0  0  0  0  0  0
   10.7296   13.1319    5.4765 N   0  0  0  0  0  0  0  0  0  0  0  0
  1  2  1  0  0  0  0
  1  6  1  0  0  0  0
  2  3  2  0  0  0  0
  3  4  1  0  0  0  0
  4  5  2  0  0  0  0
  4 10  1  0  0  0  0
  5  6  1  0  0  0  0
  5  8  1  0  0  0  0
  6  7  2  0  0  0  0
  8  9  1  0  0  0  0
  9 10  2  0  0  0  0
M  END
>  <CHROM.1>
11.40822967,11.44235166,6.68495076,0.47095347,-1.24803864,1.16398202

>  <Name>
ligand

>  <RI>
0

>  <Rbt.Current_Directory>
/home/itssahil/PROJECTS/Mol_Feturizer/New_Systems/rnas/2EEU

>  <Rbt.Executable>
rbdock ($Id: //depot/dev/client3/rdock/2013.1/src/exe/rbdock.cxx#4 $)

>  <Rbt.Library>
libRbt.so (2013.1, Build901 2013/11/27)

>  <Rbt.Parameter_File>
/export/apps/rDock/src/rDock_2013.1_src/data/scripts/dock_solv.prm

>  <Rbt.Receptor>
prm/blind_docking_20.prm

>  <SCORE>
-18.4533

>  <SCORE.INTER>
-18.4533

>  <SCORE.INTER.CONST>
1

>  <SCORE.INTER.POLAR>
0

>  <SCORE.INTER.ROT>
0

>  <SCORE.INTER.SOLV>
3.51395

>  <SCORE.INTER.VDW>
-17.0735

>  <SCORE.INTER.norm>
-1.84533

>  <SCORE.INTRA>
0

>  <SCORE.INTRA.DIHEDRAL>
0

>  <SCORE.INTRA.DIHEDRAL.0>
0

>  <SCORE.INTRA.POLAR>
0

>  <SCORE.INTRA.POLAR.0>
0

>  <SCORE.INTRA.REPUL>
0

>  <SCORE.INTRA.REPUL.0>
0

>  <SCORE.INTRA.SOLV>
0

>  <SCORE.INTRA.SOLV.lig_0>
-4.28148

>  <SCORE.INTRA.VDW>
0

>  <SCORE.INTRA.VDW.0>
0

>  <SCORE.INTRA.norm>
0

>  <SCORE.RESTR>
0

>  <SCORE.RESTR.CAVITY>
0

>  <SCORE.RESTR.norm>
0

>  <SCORE.SYSTEM>
0

>  <SCORE.SYSTEM.CONST>
0

>  <SCORE.SYSTEM.DIHEDRAL>
0

>  <SCORE.SYSTEM.SOLV>
0

>  <SCORE.SYSTEM.norm>
0

>  <SCORE.heavy>
10

>  <SCORE.norm>
-1.84533

>  <RMSD>
0.858

$$$$
ligand
 OpenBabel11021811423D
libRbt.so/2013.1/901 2013/11/27
 10 11  0  0  0  0  0  0  0  0999 V2000
   11.8537   11.4195    8.4793 N   0  0  0  0  0  0  0  0  0  0  0  0
   11.5939   12.7713    8.5833 C   0  0  0  0  0  0  0  0  0  0  0  0
   11.2360   13.5103    7.5259 N   0  0  0  0  0  0  0  0  0  0  0  0
   11.1633   12.7940    6.3688 C   0  0  0  0  0  0  0  0  0  0  0  0
   11.4120   11.4407    6.1968 C   0  0  0  0  0  0  0  0  0  0  0  0
   11.7900   10.6496    7.3157 C   0  0  0  0  0  0  0  0  0  0  0  0
   12.0530    9.4493    7.3899 O   0  0  0  0  0  0  0  0  0  0  0  0
   11.2236   11.1298    4.8716 N   0  0  0  0  0  0  0  0  0  0  0  0
   10.8657   12.2804    4.2547 C   0  0  0  0  0  0  0  0  0  0  0  0
   10.8205   13.3246    5.1487 N   0  0  0  0  0  0  0  0  0  0  0  0
  1  2  1  0  0  0  0
  1  6  1  0  0  0  0
  2  3  2  0  0  0  0
  3  4  1  0  0  0  0
  4  5  2  0  0  0  0
  4 10  1  0  0  0  0
  5  6  1  0  0  0  0
  5  8  1  0  0  0  0
  6  7  2  0  0  0  0
  8  9  1  0  0  0  0
  9 10  2  0  0  0  0
M  END
>  <CHROM.1>
11.41373076,11.83198080,6.63046764,0.30278926,-1.29563568,0.82561690

>  <Name>
ligand

>  <RI>
0

>  <Rbt.Current_Directory>
/home/itssahil/PROJECTS/Mol_Feturizer/New_Systems/rnas/2EEU

>  <Rbt.Executable>
rbdock ($Id: //depot/dev/client3/rdock/2013.1/src/exe/rbdock.cxx#4 $)

>  <Rbt.Library>
libRbt.so (2013.1, Build901 2013/11/27)

>  <Rbt.Parameter_File>
/export/apps/rDock/src/rDock_2013.1_src/data/scripts/dock_solv.prm

>  <Rbt.Receptor>
prm/blind_docking_60.prm

>  <SCORE>
-18.5027

>  <SCORE.INTER>
-18.5027

>  <SCORE.INTER.CONST>
1

>  <SCORE.INTER.POLAR>
0

>  <SCORE.INTER.ROT>
0

>  <SCORE.INTER.SOLV>
3.5259

>  <SCORE.INTER.VDW>
-17.1105

>  <SCORE.INTER.norm>
-1.85027

>  <SCORE.INTRA>
0

>  <SCORE.INTRA.DIHEDRAL>
0

>  <SCORE.INTRA.DIHEDRAL.0>
0

>  <SCORE.INTRA.POLAR>
0

>  <SCORE.INTRA.POLAR.0>
0

>  <SCORE.INTRA.REPUL>
0

>  <SCORE.INTRA.REPUL.0>
0

>  <SCORE.INTRA.SOLV>
0

>  <SCORE.INTRA.SOLV.lig_0>
-4.28148

>  <SCORE.INTRA.VDW>
0

>  <SCORE.INTRA.VDW.0>
0

>  <SCORE.INTRA.norm>
0

>  <SCORE.RESTR>
0

>  <SCORE.RESTR.CAVITY>
0

>  <SCORE.RESTR.norm>
0

>  <SCORE.SYSTEM>
0

>  <SCORE.SYSTEM.CONST>
0

>  <SCORE.SYSTEM.DIHEDRAL>
0

>  <SCORE.SYSTEM.SOLV>
0

>  <SCORE.SYSTEM.norm>
0

>  <SCORE.heavy>
10

>  <SCORE.norm>
-1.85027

>  <RMSD>
0.858

$$$$
ligand
 OpenBabel11021811423D
libRbt.so/2013.1/901 2013/11/27
 10 11  0  0  0  0  0  0  0  0999 V2000
   11.7913   10.9922    8.4422 N   0  0  0  0  0  0  0  0  0  0  0  0
   11.4455   12.3056    8.6889 C   0  0  0  0  0  0  0  0  0  0  0  0
   11.0748   13.1396    7.7094 N   0  0  0  0  0  0  0  0  0  0  0  0
   11.0816   12.5584    6.4767 C   0  0  0  0  0  0  0  0  0  0  0  0
   11.4185   11.2506    6.1619 C   0  0  0  0  0  0  0  0  0  0  0  0
   11.8107   10.3592    7.1973 C   0  0  0  0  0  0  0  0  0  0  0  0
   12.1450    9.1755    7.1448 O   0  0  0  0  0  0  0  0  0  0  0  0
   11.2900   11.0842    4.8040 N   0  0  0  0  0  0  0  0  0  0  0  0
   10.8805   12.2756    4.3085 C   0  0  0  0  0  0  0  0  0  0  0  0
   10.7438   13.2054    5.3127 N   0  0  0  0  0  0  0  0  0  0  0  0
  1  2  1  0  0  0  0
  1  6  1  0  0  0  0
  2  3  2  0  0  0  0
  3  4  1  0  0  0  0
  4  5  2  0  0  0  0
  4 10  1  0  0  0  0
  5  6  1  0  0  0  0
  5  8  1  0  0  0  0
  6  7  2  0  0  0  0
  8  9  1  0  0  0  0
  9 10  2  0  0  0  0
M  END
>  <CHROM.1>
11.38297640,11.58881288,6.63685619,0.51699560,-1.26410851,1.14556745

>  <Name>
ligand

>  <RI>
0

>  <Rbt.Current_Directory>
/home/itssahil/PROJECTS/Mol_Feturizer/New_Systems/rnas/2EEU

>  <Rbt.Executable>
rbdock ($Id: //depot/dev/client3/rdock/2013.1/src/exe/rbdock.cxx#4 $)

>  <Rbt.Library>
libRbt.so (2013.1, Build901 2013/11/27)

>  <Rbt.Parameter_File>
/export/apps/rDock/src/rDock_2013.1_src/data/scripts/dock_solv.prm

>  <Rbt.Receptor>
prm/blind_docking_80.prm

>  <SCORE>
-18.5868

>  <SCORE.INTER>
-18.5868

>  <SCORE.INTER.CONST>
1

>  <SCORE.INTER.POLAR>
0

>  <SCORE.INTER.ROT>
0

>  <SCORE.INTER.SOLV>
3.52361

>  <SCORE.INTER.VDW>
-17.1658

>  <SCORE.INTER.norm>
-1.85868

>  <SCORE.INTRA>
0

>  <SCORE.INTRA.DIHEDRAL>
0

>  <SCORE.INTRA.DIHEDRAL.0>
0

>  <SCORE.INTRA.POLAR>
0

>  <SCORE.INTRA.POLAR.0>
0

>  <SCORE.INTRA.REPUL>
0

>  <SCORE.INTRA.REPUL.0>
0

>  <SCORE.INTRA.SOLV>
0

>  <SCORE.INTRA.SOLV.lig_0>
-4.28148

>  <SCORE.INTRA.VDW>
0

>  <SCORE.INTRA.VDW.0>
0

>  <SCORE.INTRA.norm>
0

>  <SCORE.RESTR>
0

>  <SCORE.RESTR.CAVITY>
0

>  <SCORE.RESTR.norm>
0

>  <SCORE.SYSTEM>
0

>  <SCORE.SYSTEM.CONST>
0

>  <SCORE.SYSTEM.DIHEDRAL>
0

>  <SCORE.SYSTEM.SOLV>
0

>  <SCORE.SYSTEM.norm>
0

>  <SCORE.heavy>
10

>  <SCORE.norm>
-1.85868

>  <RMSD>
0.858

$$$$
ligand
 OpenBabel11021811423D
libRbt.so/2013.1/901 2013/11/27
 10 11  0  0  0  0  0  0  0  0999 V2000
   11.7957   10.9935    8.4360 N   0  0  0  0  0  0  0  0  0  0  0  0
   11.4747   12.3124    8.6870 C   0  0  0  0  0  0  0  0  0  0  0  0
   11.1092   13.1535    7.7117 N   0  0  0  0  0  0  0  0  0  0  0  0
   11.0945   12.5735    6.4785 C   0  0  0  0  0  0  0  0  0  0  0  0
   11.4061   11.2605    6.1596 C   0  0  0  0  0  0  0  0  0  0  0  0
   11.7926   10.3614    7.1905 C   0  0  0  0  0  0  0  0  0  0  0  0
   12.1061    9.1723    7.1339 O   0  0  0  0  0  0  0  0  0  0  0  0
   11.2620   11.0976    4.8027 N   0  0  0  0  0  0  0  0  0  0  0  0
   10.8683   12.2962    4.3120 C   0  0  0  0  0  0  0  0  0  0  0  0
   10.7569   13.2273    5.3182 N   0  0  0  0  0  0  0  0  0  0  0  0
  1  2  1  0  0  0  0
  1  6  1  0  0  0  0
  2  3  2  0  0  0  0
  3  4  1  0  0  0  0
  4  5  2  0  0  0  0
  4 10  1  0  0  0  0
  5  6  1  0  0  0  0
  5  8  1  0  0  0  0
  6  7  2  0  0  0  0
  8  9  1  0  0  0  0
  9 10  2  0  0  0  0
M  END
>  <CHROM.1>
11.38073776,11.59873108,6.63505224,0.46342662,-1.27542010,1.09527940

>  <Name>
ligand

>  <RI>
0

>  <Rbt.Current_Directory>
/home/itssahil/PROJECTS/Mol_Feturizer/New_Systems/rnas/2EEU

>  <Rbt.Executable>
rbdock ($Id: //depot/dev/client3/rdock/2013.1/src/exe/rbdock.cxx#4 $)

>  <Rbt.Library>
libRbt.so (2013.1, Build901 2013/11/27)

>  <Rbt.Parameter_File>
/export/apps/rDock/src/rDock_2013.1_src/data/scripts/dock_solv.prm

>  <Rbt.Receptor>
prm/pocket_docking_5.prm

>  <SCORE>
-18.6089

>  <SCORE.INTER>
-18.6089

>  <SCORE.INTER.CONST>
1

>  <SCORE.INTER.POLAR>
0

>  <SCORE.INTER.ROT>
0

>  <SCORE.INTER.SOLV>
3.5636

>  <SCORE.INTER.VDW>
-17.1938

>  <SCORE.INTER.norm>
-1.86089

>  <SCORE.INTRA>
0

>  <SCORE.INTRA.DIHEDRAL>
0

>  <SCORE.INTRA.DIHEDRAL.0>
0

>  <SCORE.INTRA.POLAR>
0

>  <SCORE.INTRA.POLAR.0>
0

>  <SCORE.INTRA.REPUL>
0

>  <SCORE.INTRA.REPUL.0>
0

>  <SCORE.INTRA.SOLV>
0

>  <SCORE.INTRA.SOLV.lig_0>
-4.28148

>  <SCORE.INTRA.VDW>
0

>  <SCORE.INTRA.VDW.0>
0

>  <SCORE.INTRA.norm>
0

>  <SCORE.RESTR>
0

>  <SCORE.RESTR.CAVITY>
0

>  <SCORE.RESTR.norm>
0

>  <SCORE.SYSTEM>
0

>  <SCORE.SYSTEM.CONST>
0

>  <SCORE.SYSTEM.DIHEDRAL>
0

>  <SCORE.SYSTEM.SOLV>
0

>  <SCORE.SYSTEM.norm>
0

>  <SCORE.heavy>
10

>  <SCORE.norm>
-1.86089

>  <RMSD>
0.858

$$$$
ligand
 OpenBabel11021811423D
libRbt.so/2013.1/901 2013/11/27
 10 11  0  0  0  0  0  0  0  0999 V2000
   11.8000   10.9936    8.4340 N   0  0  0  0  0  0  0  0  0  0  0  0
   11.4789   12.3124    8.6858 C   0  0  0  0  0  0  0  0  0  0  0  0
   11.1117   13.1536    7.7113 N   0  0  0  0  0  0  0  0  0  0  0  0
   11.0953   12.5739    6.4780 C   0  0  0  0  0  0  0  0  0  0  0  0
   11.4068   11.2611    6.1583 C   0  0  0  0  0  0  0  0  0  0  0  0
   11.7951   10.3619    7.1883 C   0  0  0  0  0  0  0  0  0  0  0  0
   12.1089    9.1728    7.1310 O   0  0  0  0  0  0  0  0  0  0  0  0
   11.2606   11.0985    4.8016 N   0  0  0  0  0  0  0  0  0  0  0  0
   10.8658   12.2971    4.3118 C   0  0  0  0  0  0  0  0  0  0  0  0
   10.7558   13.2280    5.3184 N   0  0  0  0  0  0  0  0  0  0  0  0
  1  2  1  0  0  0  0
  1  6  1  0  0  0  0
  2  3  2  0  0  0  0
  3  4  1  0  0  0  0
  4  5  2  0  0  0  0
  4 10  1  0  0  0  0
  5  6  1  0  0  0  0
  5  8  1  0  0  0  0
  6  7  2  0  0  0  0
  8  9  1  0  0  0  0
  9 10  2  0  0  0  0
M  END
>  <CHROM.1>
11.38204704,11.59922477,6.63387249,0.45925362,-1.27445659,1.09154556

>  <Name>
ligand

>  <RI>
0

>  <Rbt.Current_Directory>
/home/itssahil/PROJECTS/Mol_Feturizer/New_Systems/rnas/2EEU

>  <Rbt.Executable>
rbdock ($Id: //depot/dev/client3/rdock/2013.1/src/exe/rbdock.cxx#4 $)

>  <Rbt.Library>
libRbt.so (2013.1, Build901 2013/11/27)

>  <Rbt.Parameter_File>
/export/apps/rDock/src/rDock_2013.1_src/data/scripts/dock_solv.prm

>  <Rbt.Receptor>
prm/pocket_docking_7.prm

>  <SCORE>
-18.6102

>  <SCORE.INTER>
-18.6102

>  <SCORE.INTER.CONST>
1

>  <SCORE.INTER.POLAR>
0

>  <SCORE.INTER.ROT>
0

>  <SCORE.INTER.SOLV>
3.55974

>  <SCORE.INTER.VDW>
-17.1934

>  <SCORE.INTER.norm>
-1.86102

>  <SCORE.INTRA>
0

>  <SCORE.INTRA.DIHEDRAL>
0

>  <SCORE.INTRA.DIHEDRAL.0>
0

>  <SCORE.INTRA.POLAR>
0

>  <SCORE.INTRA.POLAR.0>
0

>  <SCORE.INTRA.REPUL>
0

>  <SCORE.INTRA.REPUL.0>
0

>  <SCORE.INTRA.SOLV>
0

>  <SCORE.INTRA.SOLV.lig_0>
-4.28148

>  <SCORE.INTRA.VDW>
0

>  <SCORE.INTRA.VDW.0>
0

>  <SCORE.INTRA.norm>
0

>  <SCORE.RESTR>
0

>  <SCORE.RESTR.CAVITY>
0

>  <SCORE.RESTR.norm>
0

>  <SCORE.SYSTEM>
0

>  <SCORE.SYSTEM.CONST>
0

>  <SCORE.SYSTEM.DIHEDRAL>
0

>  <SCORE.SYSTEM.SOLV>
0

>  <SCORE.SYSTEM.norm>
0

>  <SCORE.heavy>
10

>  <SCORE.norm>
-1.86102

>  <RMSD>
0.858

$$$$
ligand
 OpenBabel11021811423D
libRbt.so/2013.1/901 2013/11/27
 10 11  0  0  0  0  0  0  0  0999 V2000
   11.7802   10.9889    8.4449 N   0  0  0  0  0  0  0  0  0  0  0  0
   11.4232   12.2992    8.6921 C   0  0  0  0  0  0  0  0  0  0  0  0
   11.0574   13.1340    7.7116 N   0  0  0  0  0  0  0  0  0  0  0  0
   11.0809   12.5570    6.4771 C   0  0  0  0  0  0  0  0  0  0  0  0
   11.4296   11.2525    6.1617 C   0  0  0  0  0  0  0  0  0  0  0  0
   11.8167   10.3601    7.1982 C   0  0  0  0  0  0  0  0  0  0  0  0
   12.1592    9.1788    7.1453 O   0  0  0  0  0  0  0  0  0  0  0  0
   11.3164   11.0897    4.8019 N   0  0  0  0  0  0  0  0  0  0  0  0
   10.9043   12.2800    4.3060 C   0  0  0  0  0  0  0  0  0  0  0  0
   10.7511   13.2056    5.3117 N   0  0  0  0  0  0  0  0  0  0  0  0
  1  2  1  0  0  0  0
  1  6  1  0  0  0  0
  2  3  2  0  0  0  0
  3  4  1  0  0  0  0
  4  5  2  0  0  0  0
  4 10  1  0  0  0  0
  5  6  1  0  0  0  0
  5  8  1  0  0  0  0
  6  7  2  0  0  0  0
  8  9  1  0  0  0  0
  9 10  2  0  0  0  0
M  END
>  <CHROM.1>
11.38689062,11.58882764,6.63727721,0.55726037,-1.26224783,1.18721256

>  <Name>
ligand

>  <RI>
0

>  <Rbt.Current_Directory>
/home/itssahil/PROJECTS/Mol_Feturizer/New_Systems/rnas/2EEU

>  <Rbt.Executable>
rbdock ($Id: //depot/dev/client3/rdock/2013.1/src/exe/rbdock.cxx#4 $)

>  <Rbt.Library>
libRbt.so (2013.1, Build901 2013/11/27)

>  <Rbt.Parameter_File>
/export/apps/rDock/src/rDock_2013.1_src/data/scripts/dock_solv.prm

>  <Rbt.Receptor>
prm/blind_docking_100.prm

>  <SCORE>
-18.5552

>  <SCORE.INTER>
-18.5552

>  <SCORE.INTER.CONST>
1

>  <SCORE.INTER.POLAR>
0

>  <SCORE.INTER.ROT>
0

>  <SCORE.INTER.SOLV>
3.51739

>  <SCORE.INTER.VDW>
-17.1426

>  <SCORE.INTER.norm>
-1.85552

>  <SCORE.INTRA>
0

>  <SCORE.INTRA.DIHEDRAL>
0

>  <SCORE.INTRA.DIHEDRAL.0>
0

>  <SCORE.INTRA.POLAR>
0

>  <SCORE.INTRA.POLAR.0>
0

>  <SCORE.INTRA.REPUL>
0

>  <SCORE.INTRA.REPUL.0>
0

>  <SCORE.INTRA.SOLV>
0

>  <SCORE.INTRA.SOLV.lig_0>
-4.28148

>  <SCORE.INTRA.VDW>
0

>  <SCORE.INTRA.VDW.0>
0

>  <SCORE.INTRA.norm>
0

>  <SCORE.RESTR>
0

>  <SCORE.RESTR.CAVITY>
0

>  <SCORE.RESTR.norm>
0

>  <SCORE.SYSTEM>
0

>  <SCORE.SYSTEM.CONST>
0

>  <SCORE.SYSTEM.DIHEDRAL>
0

>  <SCORE.SYSTEM.SOLV>
0

>  <SCORE.SYSTEM.norm>
0

>  <SCORE.heavy>
10

>  <SCORE.norm>
-1.85552

>  <RMSD>
0.859

$$$$
ligand
 OpenBabel11021811423D
libRbt.so/2013.1/901 2013/11/27
 10 11  0  0  0  0  0  0  0  0999 V2000
   11.8011   10.9942    8.4325 N   0  0  0  0  0  0  0  0  0  0  0  0
   11.4817   12.3133    8.6846 C   0  0  0  0  0  0  0  0  0  0  0  0
   11.1142   13.1549    7.7104 N   0  0  0  0  0  0  0  0  0  0  0  0
   11.0958   12.5751    6.4772 C   0  0  0  0  0  0  0  0  0  0  0  0
   11.4055   11.2619    6.1572 C   0  0  0  0  0  0  0  0  0  0  0  0
   11.7942   10.3624    7.1869 C   0  0  0  0  0  0  0  0  0  0  0  0
   12.1066    9.1730    7.1293 O   0  0  0  0  0  0  0  0  0  0  0  0
   11.2577   11.0993    4.8007 N   0  0  0  0  0  0  0  0  0  0  0  0
   10.8635   12.2983    4.3113 C   0  0  0  0  0  0  0  0  0  0  0  0
   10.7556   13.2293    5.3179 N   0  0  0  0  0  0  0  0  0  0  0  0
  1  2  1  0  0  0  0
  1  6  1  0  0  0  0
  2  3  2  0  0  0  0
  3  4  1  0  0  0  0
  4  5  2  0  0  0  0
  4 10  1  0  0  0  0
  5  6  1  0  0  0  0
  5  8  1  0  0  0  0
  6  7  2  0  0  0  0
  8  9  1  0  0  0  0
  9 10  2  0  0  0  0
M  END
>  <CHROM.1>
11.38172867,11.60008453,6.63281302,0.45409012,-1.27482050,1.08651840

>  <Name>
ligand

>  <RI>
0

>  <Rbt.Current_Directory>
/home/itssahil/PROJECTS/Mol_Feturizer/New_Systems/rnas/2EEU

>  <Rbt.Executable>
rbdock ($Id: //depot/dev/client3/rdock/2013.1/src/exe/rbdock.cxx#4 $)

>  <Rbt.Library>
libRbt.so (2013.1, Build901 2013/11/27)

>  <Rbt.Parameter_File>
/export/apps/rDock/src/rDock_2013.1_src/data/scripts/dock_solv.prm

>  <Rbt.Receptor>
prm/pocket_docking_3.prm

>  <SCORE>
-18.6112

>  <SCORE.INTER>
-18.6112

>  <SCORE.INTER.CONST>
1

>  <SCORE.INTER.POLAR>
0

>  <SCORE.INTER.ROT>
0

>  <SCORE.INTER.SOLV>
3.56168

>  <SCORE.INTER.VDW>
-17.1947

>  <SCORE.INTER.norm>
-1.86112

>  <SCORE.INTRA>
0

>  <SCORE.INTRA.DIHEDRAL>
0

>  <SCORE.INTRA.DIHEDRAL.0>
0

>  <SCORE.INTRA.POLAR>
0

>  <SCORE.INTRA.POLAR.0>
0

>  <SCORE.INTRA.REPUL>
0

>  <SCORE.INTRA.REPUL.0>
0

>  <SCORE.INTRA.SOLV>
0

>  <SCORE.INTRA.SOLV.lig_0>
-4.28148

>  <SCORE.INTRA.VDW>
0

>  <SCORE.INTRA.VDW.0>
0

>  <SCORE.INTRA.norm>
0

>  <SCORE.RESTR>
0

>  <SCORE.RESTR.CAVITY>
0

>  <SCORE.RESTR.norm>
0

>  <SCORE.SYSTEM>
0

>  <SCORE.SYSTEM.CONST>
0

>  <SCORE.SYSTEM.DIHEDRAL>
0

>  <SCORE.SYSTEM.SOLV>
0

>  <SCORE.SYSTEM.norm>
0

>  <SCORE.heavy>
10

>  <SCORE.norm>
-1.86112

>  <RMSD>
0.859

$$$$
ligand
 OpenBabel11021811423D
libRbt.so/2013.1/901 2013/11/27
 10 11  0  0  0  0  0  0  0  0999 V2000
   11.7981   10.9951    8.4340 N   0  0  0  0  0  0  0  0  0  0  0  0
   11.4762   12.3140    8.6843 C   0  0  0  0  0  0  0  0  0  0  0  0
   11.1111   13.1546    7.7085 N   0  0  0  0  0  0  0  0  0  0  0  0
   11.0976   12.5741    6.4755 C   0  0  0  0  0  0  0  0  0  0  0  0
   11.4100   11.2612    6.1572 C   0  0  0  0  0  0  0  0  0  0  0  0
   11.7962   10.3627    7.1887 C   0  0  0  0  0  0  0  0  0  0  0  0
   12.1103    9.1736    7.1328 O   0  0  0  0  0  0  0  0  0  0  0  0
   11.2670   11.0977    4.8003 N   0  0  0  0  0  0  0  0  0  0  0  0
   10.8731   12.2960    4.3089 C   0  0  0  0  0  0  0  0  0  0  0  0
   10.7606   13.2274    5.3147 N   0  0  0  0  0  0  0  0  0  0  0  0
  1  2  1  0  0  0  0
  1  6  1  0  0  0  0
  2  3  2  0  0  0  0
  3  4  1  0  0  0  0
  4  5  2  0  0  0  0
  4 10  1  0  0  0  0
  5  6  1  0  0  0  0
  5  8  1  0  0  0  0
  6  7  2  0  0  0  0
  8  9  1  0  0  0  0
  9 10  2  0  0  0  0
M  END
>  <CHROM.1>
11.38417851,11.59958784,6.63258028,0.46650229,-1.27532602,1.09788428

>  <Name>
ligand

>  <RI>
0

>  <Rbt.Current_Directory>
/home/itssahil/PROJECTS/Mol_Feturizer/New_Systems/rnas/2EEU

>  <Rbt.Executable>
rbdock ($Id: //depot/dev/client3/rdock/2013.1/src/exe/rbdock.cxx#4 $)

>  <Rbt.Library>
libRbt.so (2013.1, Build901 2013/11/27)

>  <Rbt.Parameter_File>
/export/apps/rDock/src/rDock_2013.1_src/data/scripts/dock_solv.prm

>  <Rbt.Receptor>
prm/pocket_docking_3.prm

>  <SCORE>
-18.6075

>  <SCORE.INTER>
-18.6075

>  <SCORE.INTER.CONST>
1

>  <SCORE.INTER.POLAR>
0

>  <SCORE.INTER.ROT>
0

>  <SCORE.INTER.SOLV>
3.5605

>  <SCORE.INTER.VDW>
-17.1918

>  <SCORE.INTER.norm>
-1.86075

>  <SCORE.INTRA>
0

>  <SCORE.INTRA.DIHEDRAL>
0

>  <SCORE.INTRA.DIHEDRAL.0>
0

>  <SCORE.INTRA.POLAR>
0

>  <SCORE.INTRA.POLAR.0>
0

>  <SCORE.INTRA.REPUL>
0

>  <SCORE.INTRA.REPUL.0>
0

>  <SCORE.INTRA.SOLV>
0

>  <SCORE.INTRA.SOLV.lig_0>
-4.28148

>  <SCORE.INTRA.VDW>
0

>  <SCORE.INTRA.VDW.0>
0

>  <SCORE.INTRA.norm>
0

>  <SCORE.RESTR>
0

>  <SCORE.RESTR.CAVITY>
0

>  <SCORE.RESTR.norm>
0

>  <SCORE.SYSTEM>
0

>  <SCORE.SYSTEM.CONST>
0

>  <SCORE.SYSTEM.DIHEDRAL>
0

>  <SCORE.SYSTEM.SOLV>
0

>  <SCORE.SYSTEM.norm>
0

>  <SCORE.heavy>
10

>  <SCORE.norm>
-1.86075

>  <RMSD>
0.859

$$$$
ligand
 OpenBabel11021811423D
libRbt.so/2013.1/901 2013/11/27
 10 11  0  0  0  0  0  0  0  0999 V2000
   11.7996   10.9945    8.4338 N   0  0  0  0  0  0  0  0  0  0  0  0
   11.4761   12.3127    8.6855 C   0  0  0  0  0  0  0  0  0  0  0  0
   11.1085   13.1535    7.7107 N   0  0  0  0  0  0  0  0  0  0  0  0
   11.0943   12.5739    6.4773 C   0  0  0  0  0  0  0  0  0  0  0  0
   11.4083   11.2617    6.1577 C   0  0  0  0  0  0  0  0  0  0  0  0
   11.7971   10.3629    7.1880 C   0  0  0  0  0  0  0  0  0  0  0  0
   12.1129    9.1744    7.1308 O   0  0  0  0  0  0  0  0  0  0  0  0
   11.2639   11.0991    4.8008 N   0  0  0  0  0  0  0  0  0  0  0  0
   10.8676   12.2971    4.3108 C   0  0  0  0  0  0  0  0  0  0  0  0
   10.7549   13.2276    5.3174 N   0  0  0  0  0  0  0  0  0  0  0  0
  1  2  1  0  0  0  0
  1  6  1  0  0  0  0
  2  3  2  0  0  0  0
  3  4  1  0  0  0  0
  4  5  2  0  0  0  0
  4 10  1  0  0  0  0
  5  6  1  0  0  0  0
  5  8  1  0  0  0  0
  6  7  2  0  0  0  0
  8  9  1  0  0  0  0
  9 10  2  0  0  0  0
M  END
>  <CHROM.1>
11.38255953,11.59968450,6.63331811,0.46507444,-1.27345604,1.09727415

>  <Name>
ligand

>  <RI>
0

>  <Rbt.Current_Directory>
/home/itssahil/PROJECTS/Mol_Feturizer/New_Systems/rnas/2EEU

>  <Rbt.Executable>
rbdock ($Id: //depot/dev/client3/rdock/2013.1/src/exe/rbdock.cxx#4 $)

>  <Rbt.Library>
libRbt.so (2013.1, Build901 2013/11/27)

>  <Rbt.Parameter_File>
/export/apps/rDock/src/rDock_2013.1_src/data/scripts/dock_solv.prm

>  <Rbt.Receptor>
prm/pocket_docking_6.prm

>  <SCORE>
-18.6084

>  <SCORE.INTER>
-18.6084

>  <SCORE.INTER.CONST>
1

>  <SCORE.INTER.POLAR>
0

>  <SCORE.INTER.ROT>
0

>  <SCORE.INTER.SOLV>
3.55614

>  <SCORE.INTER.VDW>
-17.191

>  <SCORE.INTER.norm>
-1.86084

>  <SCORE.INTRA>
0

>  <SCORE.INTRA.DIHEDRAL>
0

>  <SCORE.INTRA.DIHEDRAL.0>
0

>  <SCORE.INTRA.POLAR>
0

>  <SCORE.INTRA.POLAR.0>
0

>  <SCORE.INTRA.REPUL>
0

>  <SCORE.INTRA.REPUL.0>
0

>  <SCORE.INTRA.SOLV>
0

>  <SCORE.INTRA.SOLV.lig_0>
-4.28148

>  <SCORE.INTRA.VDW>
0

>  <SCORE.INTRA.VDW.0>
0

>  <SCORE.INTRA.norm>
0

>  <SCORE.RESTR>
0

>  <SCORE.RESTR.CAVITY>
0

>  <SCORE.RESTR.norm>
0

>  <SCORE.SYSTEM>
0

>  <SCORE.SYSTEM.CONST>
0

>  <SCORE.SYSTEM.DIHEDRAL>
0

>  <SCORE.SYSTEM.SOLV>
0

>  <SCORE.SYSTEM.norm>
0

>  <SCORE.heavy>
10

>  <SCORE.norm>
-1.86084

>  <RMSD>
0.859

$$$$
ligand
 OpenBabel11021811423D
libRbt.so/2013.1/901 2013/11/27
 10 11  0  0  0  0  0  0  0  0999 V2000
   11.7974   10.9946    8.4353 N   0  0  0  0  0  0  0  0  0  0  0  0
   11.4766   12.3138    8.6850 C   0  0  0  0  0  0  0  0  0  0  0  0
   11.1122   13.1543    7.7088 N   0  0  0  0  0  0  0  0  0  0  0  0
   11.0984   12.5734    6.4760 C   0  0  0  0  0  0  0  0  0  0  0  0
   11.4099   11.2601    6.1583 C   0  0  0  0  0  0  0  0  0  0  0  0
   11.7952   10.3617    7.1902 C   0  0  0  0  0  0  0  0  0  0  0  0
   12.1084    9.1724    7.1348 O   0  0  0  0  0  0  0  0  0  0  0  0
   11.2670   11.0962    4.8014 N   0  0  0  0  0  0  0  0  0  0  0  0
   10.8741   12.2946    4.3095 C   0  0  0  0  0  0  0  0  0  0  0  0
   10.7622   13.2265    5.3149 N   0  0  0  0  0  0  0  0  0  0  0  0
  1  2  1  0  0  0  0
  1  6  1  0  0  0  0
  2  3  2  0  0  0  0
  3  4  1  0  0  0  0
  4  5  2  0  0  0  0
  4 10  1  0  0  0  0
  5  6  1  0  0  0  0
  5  8  1  0  0  0  0
  6  7  2  0  0  0  0
  8  9  1  0  0  0  0
  9 10  2  0  0  0  0
M  END
>  <CHROM.1>
11.38424818,11.59868947,6.63352842,0.46572574,-1.27611434,1.09674032

>  <Name>
ligand

>  <RI>
0

>  <Rbt.Current_Directory>
/home/itssahil/PROJECTS/Mol_Feturizer/New_Systems/rnas/2EEU

>  <Rbt.Executable>
rbdock ($Id: //depot/dev/client3/rdock/2013.1/src/exe/rbdock.cxx#4 $)

>  <Rbt.Library>
libRbt.so (2013.1, Build901 2013/11/27)

>  <Rbt.Parameter_File>
/export/apps/rDock/src/rDock_2013.1_src/data/scripts/dock_solv.prm

>  <Rbt.Receptor>
prm/pocket_docking_7.prm

>  <SCORE>
-18.6077

>  <SCORE.INTER>
-18.6077

>  <SCORE.INTER.CONST>
1

>  <SCORE.INTER.POLAR>
0

>  <SCORE.INTER.ROT>
0

>  <SCORE.INTER.SOLV>
3.56238

>  <SCORE.INTER.VDW>
-17.1926

>  <SCORE.INTER.norm>
-1.86077

>  <SCORE.INTRA>
0

>  <SCORE.INTRA.DIHEDRAL>
0

>  <SCORE.INTRA.DIHEDRAL.0>
0

>  <SCORE.INTRA.POLAR>
0

>  <SCORE.INTRA.POLAR.0>
0

>  <SCORE.INTRA.REPUL>
0

>  <SCORE.INTRA.REPUL.0>
0

>  <SCORE.INTRA.SOLV>
0

>  <SCORE.INTRA.SOLV.lig_0>
-4.28148

>  <SCORE.INTRA.VDW>
0

>  <SCORE.INTRA.VDW.0>
0

>  <SCORE.INTRA.norm>
0

>  <SCORE.RESTR>
0

>  <SCORE.RESTR.CAVITY>
0

>  <SCORE.RESTR.norm>
0

>  <SCORE.SYSTEM>
0

>  <SCORE.SYSTEM.CONST>
0

>  <SCORE.SYSTEM.DIHEDRAL>
0

>  <SCORE.SYSTEM.SOLV>
0

>  <SCORE.SYSTEM.norm>
0

>  <SCORE.heavy>
10

>  <SCORE.norm>
-1.86077

>  <RMSD>
0.859

$$$$
ligand
 OpenBabel11021811423D
libRbt.so/2013.1/901 2013/11/27
 10 11  0  0  0  0  0  0  0  0999 V2000
   11.8604   11.4124    8.4744 N   0  0  0  0  0  0  0  0  0  0  0  0
   11.6075   12.7654    8.5798 C   0  0  0  0  0  0  0  0  0  0  0  0
   11.2499   13.5066    7.5239 N   0  0  0  0  0  0  0  0  0  0  0  0
   11.1699   12.7911    6.3667 C   0  0  0  0  0  0  0  0  0  0  0  0
   11.4115   11.4367    6.1934 C   0  0  0  0  0  0  0  0  0  0  0  0
   11.7893   10.6434    7.3107 C   0  0  0  0  0  0  0  0  0  0  0  0
   12.0466    9.4417    7.3835 O   0  0  0  0  0  0  0  0  0  0  0  0
   11.2174   11.1273    4.8686 N   0  0  0  0  0  0  0  0  0  0  0  0
   10.8631   12.2798    4.2533 C   0  0  0  0  0  0  0  0  0  0  0  0
   10.8259   13.3239    5.1479 N   0  0  0  0  0  0  0  0  0  0  0  0
  1  2  1  0  0  0  0
  1  6  1  0  0  0  0
  2  3  2  0  0  0  0
  3  4  1  0  0  0  0
  4  5  2  0  0  0  0
  4 10  1  0  0  0  0
  5  6  1  0  0  0  0
  5  8  1  0  0  0  0
  6  7  2  0  0  0  0
  8  9  1  0  0  0  0
  9 10  2  0  0  0  0
M  END
>  <CHROM.1>
11.41653326,11.82780002,6.62713882,0.28188369,-1.29698249,0.80590539

>  <Name>
ligand

>  <RI>
0

>  <Rbt.Current_Directory>
/home/itssahil/PROJECTS/Mol_Feturizer/New_Systems/rnas/2EEU

>  <Rbt.Executable>
rbdock ($Id: //depot/dev/client3/rdock/2013.1/src/exe/rbdock.cxx#4 $)

>  <Rbt.Library>
libRbt.so (2013.1, Build901 2013/11/27)

>  <Rbt.Parameter_File>
/export/apps/rDock/src/rDock_2013.1_src/data/scripts/dock_solv.prm

>  <Rbt.Receptor>
prm/pocket_docking_3.prm

>  <SCORE>
-18.4757

>  <SCORE.INTER>
-18.4757

>  <SCORE.INTER.CONST>
1

>  <SCORE.INTER.POLAR>
0

>  <SCORE.INTER.ROT>
0

>  <SCORE.INTER.SOLV>
3.52988

>  <SCORE.INTER.VDW>
-17.0938

>  <SCORE.INTER.norm>
-1.84757

>  <SCORE.INTRA>
0

>  <SCORE.INTRA.DIHEDRAL>
0

>  <SCORE.INTRA.DIHEDRAL.0>
0

>  <SCORE.INTRA.POLAR>
0

>  <SCORE.INTRA.POLAR.0>
0

>  <SCORE.INTRA.REPUL>
0

>  <SCORE.INTRA.REPUL.0>
0

>  <SCORE.INTRA.SOLV>
0

>  <SCORE.INTRA.SOLV.lig_0>
-4.28148

>  <SCORE.INTRA.VDW>
0

>  <SCORE.INTRA.VDW.0>
0

>  <SCORE.INTRA.norm>
0

>  <SCORE.RESTR>
0

>  <SCORE.RESTR.CAVITY>
0

>  <SCORE.RESTR.norm>
0

>  <SCORE.SYSTEM>
0

>  <SCORE.SYSTEM.CONST>
0

>  <SCORE.SYSTEM.DIHEDRAL>
0

>  <SCORE.SYSTEM.SOLV>
0

>  <SCORE.SYSTEM.norm>
0

>  <SCORE.heavy>
10

>  <SCORE.norm>
-1.84757

>  <RMSD>
0.860

$$$$
ligand
 OpenBabel11021811423D
libRbt.so/2013.1/901 2013/11/27
 10 11  0  0  0  0  0  0  0  0999 V2000
   11.7980   10.9978    8.4326 N   0  0  0  0  0  0  0  0  0  0  0  0
   11.4768   12.3168    8.6831 C   0  0  0  0  0  0  0  0  0  0  0  0
   11.1102   13.1573    7.7077 N   0  0  0  0  0  0  0  0  0  0  0  0
   11.0945   12.5765    6.4748 C   0  0  0  0  0  0  0  0  0  0  0  0
   11.4062   11.2635    6.1563 C   0  0  0  0  0  0  0  0  0  0  0  0
   11.7940   10.3651    7.1874 C   0  0  0  0  0  0  0  0  0  0  0  0
   12.1078    9.1760    7.1311 O   0  0  0  0  0  0  0  0  0  0  0  0
   11.2610   11.0998    4.7997 N   0  0  0  0  0  0  0  0  0  0  0  0
   10.8664   12.2980    4.3087 C   0  0  0  0  0  0  0  0  0  0  0  0
   10.7557   13.2296    5.3145 N   0  0  0  0  0  0  0  0  0  0  0  0
  1  2  1  0  0  0  0
  1  6  1  0  0  0  0
  2  3  2  0  0  0  0
  3  4  1  0  0  0  0
  4  5  2  0  0  0  0
  4 10  1  0  0  0  0
  5  6  1  0  0  0  0
  5  8  1  0  0  0  0
  6  7  2  0  0  0  0
  8  9  1  0  0  0  0
  9 10  2  0  0  0  0
M  END
>  <CHROM.1>
11.38121964,11.60197593,6.63164033,0.46121497,-1.27471538,1.09261604

>  <Name>
ligand

>  <RI>
0

>  <Rbt.Current_Directory>
/home/itssahil/PROJECTS/Mol_Feturizer/New_Systems/rnas/2EEU

>  <Rbt.Executable>
rbdock ($Id: //depot/dev/client3/rdock/2013.1/src/exe/rbdock.cxx#4 $)

>  <Rbt.Library>
libRbt.so (2013.1, Build901 2013/11/27)

>  <Rbt.Parameter_File>
/export/apps/rDock/src/rDock_2013.1_src/data/scripts/dock_solv.prm

>  <Rbt.Receptor>
prm/pocket_docking_5.prm

>  <SCORE>
-18.6087

>  <SCORE.INTER>
-18.6087

>  <SCORE.INTER.CONST>
1

>  <SCORE.INTER.POLAR>
0

>  <SCORE.INTER.ROT>
0

>  <SCORE.INTER.SOLV>
3.56171

>  <SCORE.INTER.VDW>
-17.1931

>  <SCORE.INTER.norm>
-1.86087

>  <SCORE.INTRA>
0

>  <SCORE.INTRA.DIHEDRAL>
0

>  <SCORE.INTRA.DIHEDRAL.0>
0

>  <SCORE.INTRA.POLAR>
0

>  <SCORE.INTRA.POLAR.0>
0

>  <SCORE.INTRA.REPUL>
0

>  <SCORE.INTRA.REPUL.0>
0

>  <SCORE.INTRA.SOLV>
0

>  <SCORE.INTRA.SOLV.lig_0>
-4.28148

>  <SCORE.INTRA.VDW>
0

>  <SCORE.INTRA.VDW.0>
0

>  <SCORE.INTRA.norm>
0

>  <SCORE.RESTR>
0

>  <SCORE.RESTR.CAVITY>
0

>  <SCORE.RESTR.norm>
0

>  <SCORE.SYSTEM>
0

>  <SCORE.SYSTEM.CONST>
0

>  <SCORE.SYSTEM.DIHEDRAL>
0

>  <SCORE.SYSTEM.SOLV>
0

>  <SCORE.SYSTEM.norm>
0

>  <SCORE.heavy>
10

>  <SCORE.norm>
-1.86087

>  <RMSD>
0.860

$$$$
ligand
 OpenBabel11021811423D
libRbt.so/2013.1/901 2013/11/27
 10 11  0  0  0  0  0  0  0  0999 V2000
   11.7797   10.9868    8.4430 N   0  0  0  0  0  0  0  0  0  0  0  0
   11.4304   12.2991    8.6912 C   0  0  0  0  0  0  0  0  0  0  0  0
   11.0665   13.1358    7.7116 N   0  0  0  0  0  0  0  0  0  0  0  0
   11.0835   12.5586    6.4771 C   0  0  0  0  0  0  0  0  0  0  0  0
   11.4243   11.2522    6.1608 C   0  0  0  0  0  0  0  0  0  0  0  0
   11.8094   10.3578    7.1963 C   0  0  0  0  0  0  0  0  0  0  0  0
   12.1453    9.1747    7.1426 O   0  0  0  0  0  0  0  0  0  0  0  0
   11.3065   11.0901    4.8013 N   0  0  0  0  0  0  0  0  0  0  0  0
   10.8996   12.2825    4.3065 C   0  0  0  0  0  0  0  0  0  0  0  0
   10.7541   13.2090    5.3126 N   0  0  0  0  0  0  0  0  0  0  0  0
  1  2  1  0  0  0  0
  1  6  1  0  0  0  0
  2  3  2  0  0  0  0
  3  4  1  0  0  0  0
  4  5  2  0  0  0  0
  4 10  1  0  0  0  0
  5  6  1  0  0  0  0
  5  8  1  0  0  0  0
  6  7  2  0  0  0  0
  8  9  1  0  0  0  0
  9 10  2  0  0  0  0
M  END
>  <CHROM.1>
11.38468124,11.58882478,6.63650294,0.54212850,-1.26622714,1.17275111

>  <Name>
ligand

>  <RI>
0

>  <Rbt.Current_Directory>
/home/itssahil/PROJECTS/Mol_Feturizer/New_Systems/rnas/2EEU

>  <Rbt.Executable>
rbdock ($Id: //depot/dev/client3/rdock/2013.1/src/exe/rbdock.cxx#4 $)

>  <Rbt.Library>
libRbt.so (2013.1, Build901 2013/11/27)

>  <Rbt.Parameter_File>
/export/apps/rDock/src/rDock_2013.1_src/data/scripts/dock_solv.prm

>  <Rbt.Receptor>
prm/pocket_docking_5.prm

>  <SCORE>
-18.57

>  <SCORE.INTER>
-18.57

>  <SCORE.INTER.CONST>
1

>  <SCORE.INTER.POLAR>
0

>  <SCORE.INTER.ROT>
0

>  <SCORE.INTER.SOLV>
3.53307

>  <SCORE.INTER.VDW>
-17.1577

>  <SCORE.INTER.norm>
-1.857

>  <SCORE.INTRA>
0

>  <SCORE.INTRA.DIHEDRAL>
0

>  <SCORE.INTRA.DIHEDRAL.0>
0

>  <SCORE.INTRA.POLAR>
0

>  <SCORE.INTRA.POLAR.0>
0

>  <SCORE.INTRA.REPUL>
0

>  <SCORE.INTRA.REPUL.0>
0

>  <SCORE.INTRA.SOLV>
0

>  <SCORE.INTRA.SOLV.lig_0>
-4.28148

>  <SCORE.INTRA.VDW>
0

>  <SCORE.INTRA.VDW.0>
0

>  <SCORE.INTRA.norm>
0

>  <SCORE.RESTR>
0

>  <SCORE.RESTR.CAVITY>
0

>  <SCORE.RESTR.norm>
0

>  <SCORE.SYSTEM>
0

>  <SCORE.SYSTEM.CONST>
0

>  <SCORE.SYSTEM.DIHEDRAL>
0

>  <SCORE.SYSTEM.SOLV>
0

>  <SCORE.SYSTEM.norm>
0

>  <SCORE.heavy>
10

>  <SCORE.norm>
-1.857

>  <RMSD>
0.860

$$$$
ligand
 OpenBabel11021811423D
libRbt.so/2013.1/901 2013/11/27
 10 11  0  0  0  0  0  0  0  0999 V2000
   11.7991   10.9967    8.4328 N   0  0  0  0  0  0  0  0  0  0  0  0
   11.4788   12.3160    8.6827 C   0  0  0  0  0  0  0  0  0  0  0  0
   11.1124   13.1562    7.7070 N   0  0  0  0  0  0  0  0  0  0  0  0
   11.0959   12.5748    6.4745 C   0  0  0  0  0  0  0  0  0  0  0  0
   11.4066   11.2613    6.1566 C   0  0  0  0  0  0  0  0  0  0  0  0
   11.7942   10.3633    7.1880 C   0  0  0  0  0  0  0  0  0  0  0  0
   12.1072    9.1739    7.1323 O   0  0  0  0  0  0  0  0  0  0  0  0
   11.2608   11.0970    4.8001 N   0  0  0  0  0  0  0  0  0  0  0  0
   10.8669   12.2952    4.3086 C   0  0  0  0  0  0  0  0  0  0  0  0
   10.7571   13.2274    5.3139 N   0  0  0  0  0  0  0  0  0  0  0  0
  1  2  1  0  0  0  0
  1  6  1  0  0  0  0
  2  3  2  0  0  0  0
  3  4  1  0  0  0  0
  4  5  2  0  0  0  0
  4 10  1  0  0  0  0
  5  6  1  0  0  0  0
  5  8  1  0  0  0  0
  6  7  2  0  0  0  0
  8  9  1  0  0  0  0
  9 10  2  0  0  0  0
M  END
>  <CHROM.1>
11.38202074,11.60010768,6.63173184,0.45904734,-1.27513360,1.08999163

>  <Name>
ligand

>  <RI>
0

>  <Rbt.Current_Directory>
/home/itssahil/PROJECTS/Mol_Feturizer/New_Systems/rnas/2EEU

>  <Rbt.Executable>
rbdock ($Id: //depot/dev/client3/rdock/2013.1/src/exe/rbdock.cxx#4 $)

>  <Rbt.Library>
libRbt.so (2013.1, Build901 2013/11/27)

>  <Rbt.Parameter_File>
/export/apps/rDock/src/rDock_2013.1_src/data/scripts/dock_solv.prm

>  <Rbt.Receptor>
prm/pocket_docking_8.prm

>  <SCORE>
-18.6084

>  <SCORE.INTER>
-18.6084

>  <SCORE.INTER.CONST>
1

>  <SCORE.INTER.POLAR>
0

>  <SCORE.INTER.ROT>
0

>  <SCORE.INTER.SOLV>
3.56199

>  <SCORE.INTER.VDW>
-17.1929

>  <SCORE.INTER.norm>
-1.86084

>  <SCORE.INTRA>
0

>  <SCORE.INTRA.DIHEDRAL>
0

>  <SCORE.INTRA.DIHEDRAL.0>
0

>  <SCORE.INTRA.POLAR>
0

>  <SCORE.INTRA.POLAR.0>
0

>  <SCORE.INTRA.REPUL>
0

>  <SCORE.INTRA.REPUL.0>
0

>  <SCORE.INTRA.SOLV>
0

>  <SCORE.INTRA.SOLV.lig_0>
-4.28148

>  <SCORE.INTRA.VDW>
0

>  <SCORE.INTRA.VDW.0>
0

>  <SCORE.INTRA.norm>
0

>  <SCORE.RESTR>
0

>  <SCORE.RESTR.CAVITY>
0

>  <SCORE.RESTR.norm>
0

>  <SCORE.SYSTEM>
0

>  <SCORE.SYSTEM.CONST>
0

>  <SCORE.SYSTEM.DIHEDRAL>
0

>  <SCORE.SYSTEM.SOLV>
0

>  <SCORE.SYSTEM.norm>
0

>  <SCORE.heavy>
10

>  <SCORE.norm>
-1.86084

>  <RMSD>
0.860

$$$$
ligand
 OpenBabel11021811423D
libRbt.so/2013.1/901 2013/11/27
 10 11  0  0  0  0  0  0  0  0999 V2000
   11.7809   10.9856    8.4412 N   0  0  0  0  0  0  0  0  0  0  0  0
   11.4281   12.2966    8.6912 C   0  0  0  0  0  0  0  0  0  0  0  0
   11.0630   13.1340    7.7126 N   0  0  0  0  0  0  0  0  0  0  0  0
   11.0827   12.5589    6.4772 C   0  0  0  0  0  0  0  0  0  0  0  0
   11.4272   11.2539    6.1590 C   0  0  0  0  0  0  0  0  0  0  0  0
   11.8135   10.3588    7.1934 C   0  0  0  0  0  0  0  0  0  0  0  0
   12.1525    9.1766    7.1380 O   0  0  0  0  0  0  0  0  0  0  0  0
   11.3112   11.0937    4.7991 N   0  0  0  0  0  0  0  0  0  0  0  0
   10.9017   12.2860    4.3059 C   0  0  0  0  0  0  0  0  0  0  0  0
   10.7528   13.2104    5.3134 N   0  0  0  0  0  0  0  0  0  0  0  0
  1  2  1  0  0  0  0
  1  6  1  0  0  0  0
  2  3  2  0  0  0  0
  3  4  1  0  0  0  0
  4  5  2  0  0  0  0
  4 10  1  0  0  0  0
  5  6  1  0  0  0  0
  5  8  1  0  0  0  0
  6  7  2  0  0  0  0
  8  9  1  0  0  0  0
  9 10  2  0  0  0  0
M  END
>  <CHROM.1>
11.38621719,11.58963372,6.63522012,0.54850911,-1.26425422,1.18050430

>  <Name>
ligand

>  <RI>
0

>  <Rbt.Current_Directory>
/home/itssahil/PROJECTS/Mol_Feturizer/New_Systems/rnas/2EEU

>  <Rbt.Executable>
rbdock ($Id: //depot/dev/client3/rdock/2013.1/src/exe/rbdock.cxx#4 $)

>  <Rbt.Library>
libRbt.so (2013.1, Build901 2013/11/27)

>  <Rbt.Parameter_File>
/export/apps/rDock/src/rDock_2013.1_src/data/scripts/dock_solv.prm

>  <Rbt.Receptor>
prm/blind_docking_100.prm

>  <SCORE>
-18.5642

>  <SCORE.INTER>
-18.5642

>  <SCORE.INTER.CONST>
1

>  <SCORE.INTER.POLAR>
0

>  <SCORE.INTER.ROT>
0

>  <SCORE.INTER.SOLV>
3.52709

>  <SCORE.INTER.VDW>
-17.1518

>  <SCORE.INTER.norm>
-1.85642

>  <SCORE.INTRA>
0

>  <SCORE.INTRA.DIHEDRAL>
0

>  <SCORE.INTRA.DIHEDRAL.0>
0

>  <SCORE.INTRA.POLAR>
0

>  <SCORE.INTRA.POLAR.0>
0

>  <SCORE.INTRA.REPUL>
0

>  <SCORE.INTRA.REPUL.0>
0

>  <SCORE.INTRA.SOLV>
0

>  <SCORE.INTRA.SOLV.lig_0>
-4.28148

>  <SCORE.INTRA.VDW>
0

>  <SCORE.INTRA.VDW.0>
0

>  <SCORE.INTRA.norm>
0

>  <SCORE.RESTR>
0

>  <SCORE.RESTR.CAVITY>
0

>  <SCORE.RESTR.norm>
0

>  <SCORE.SYSTEM>
0

>  <SCORE.SYSTEM.CONST>
0

>  <SCORE.SYSTEM.DIHEDRAL>
0

>  <SCORE.SYSTEM.SOLV>
0

>  <SCORE.SYSTEM.norm>
0

>  <SCORE.heavy>
10

>  <SCORE.norm>
-1.85642

>  <RMSD>
0.861

$$$$
ligand
 OpenBabel11021811423D
libRbt.so/2013.1/901 2013/11/27
 10 11  0  0  0  0  0  0  0  0999 V2000
   11.7972   10.9978    8.4327 N   0  0  0  0  0  0  0  0  0  0  0  0
   11.4765   12.3171    8.6823 C   0  0  0  0  0  0  0  0  0  0  0  0
   11.1110   13.1572    7.7062 N   0  0  0  0  0  0  0  0  0  0  0  0
   11.0958   12.5758    6.4736 C   0  0  0  0  0  0  0  0  0  0  0  0
   11.4069   11.2624    6.1561 C   0  0  0  0  0  0  0  0  0  0  0  0
   11.7935   10.3644    7.1879 C   0  0  0  0  0  0  0  0  0  0  0  0
   12.1067    9.1751    7.1325 O   0  0  0  0  0  0  0  0  0  0  0  0
   11.2624   11.0980    4.7994 N   0  0  0  0  0  0  0  0  0  0  0  0
   10.8689   12.2962    4.3075 C   0  0  0  0  0  0  0  0  0  0  0  0
   10.7581   13.2284    5.3127 N   0  0  0  0  0  0  0  0  0  0  0  0
  1  2  1  0  0  0  0
  1  6  1  0  0  0  0
  2  3  2  0  0  0  0
  3  4  1  0  0  0  0
  4  5  2  0  0  0  0
  4 10  1  0  0  0  0
  5  6  1  0  0  0  0
  5  8  1  0  0  0  0
  6  7  2  0  0  0  0
  8  9  1  0  0  0  0
  9 10  2  0  0  0  0
M  END
>  <CHROM.1>
11.38181427,11.60117881,6.63117935,0.46214113,-1.27551314,1.09292771

>  <Name>
ligand

>  <RI>
0

>  <Rbt.Current_Directory>
/home/itssahil/PROJECTS/Mol_Feturizer/New_Systems/rnas/2EEU

>  <Rbt.Executable>
rbdock ($Id: //depot/dev/client3/rdock/2013.1/src/exe/rbdock.cxx#4 $)

>  <Rbt.Library>
libRbt.so (2013.1, Build901 2013/11/27)

>  <Rbt.Parameter_File>
/export/apps/rDock/src/rDock_2013.1_src/data/scripts/dock_solv.prm

>  <Rbt.Receptor>
prm/blind_docking_60.prm

>  <SCORE>
-18.6076

>  <SCORE.INTER>
-18.6076

>  <SCORE.INTER.CONST>
1

>  <SCORE.INTER.POLAR>
0

>  <SCORE.INTER.ROT>
0

>  <SCORE.INTER.SOLV>
3.56373

>  <SCORE.INTER.VDW>
-17.193

>  <SCORE.INTER.norm>
-1.86076

>  <SCORE.INTRA>
0

>  <SCORE.INTRA.DIHEDRAL>
0

>  <SCORE.INTRA.DIHEDRAL.0>
0

>  <SCORE.INTRA.POLAR>
0

>  <SCORE.INTRA.POLAR.0>
0

>  <SCORE.INTRA.REPUL>
0

>  <SCORE.INTRA.REPUL.0>
0

>  <SCORE.INTRA.SOLV>
0

>  <SCORE.INTRA.SOLV.lig_0>
-4.28148

>  <SCORE.INTRA.VDW>
0

>  <SCORE.INTRA.VDW.0>
0

>  <SCORE.INTRA.norm>
0

>  <SCORE.RESTR>
0

>  <SCORE.RESTR.CAVITY>
0

>  <SCORE.RESTR.norm>
0

>  <SCORE.SYSTEM>
0

>  <SCORE.SYSTEM.CONST>
0

>  <SCORE.SYSTEM.DIHEDRAL>
0

>  <SCORE.SYSTEM.SOLV>
0

>  <SCORE.SYSTEM.norm>
0

>  <SCORE.heavy>
10

>  <SCORE.norm>
-1.86076

>  <RMSD>
0.861

$$$$
ligand
 OpenBabel11021811423D
libRbt.so/2013.1/901 2013/11/27
 10 11  0  0  0  0  0  0  0  0999 V2000
   11.8012   10.9964    8.4310 N   0  0  0  0  0  0  0  0  0  0  0  0
   11.4872   12.3172    8.6807 C   0  0  0  0  0  0  0  0  0  0  0  0
   11.1227   13.1585    7.7052 N   0  0  0  0  0  0  0  0  0  0  0  0
   11.1014   12.5765    6.4730 C   0  0  0  0  0  0  0  0  0  0  0  0
   11.4057   11.2615    6.1553 C   0  0  0  0  0  0  0  0  0  0  0  0
   11.7912   10.3623    7.1865 C   0  0  0  0  0  0  0  0  0  0  0  0
   12.0988    9.1716    7.1309 O   0  0  0  0  0  0  0  0  0  0  0  0
   11.2566   11.0971    4.7992 N   0  0  0  0  0  0  0  0  0  0  0  0
   10.8671   12.2967    4.3077 C   0  0  0  0  0  0  0  0  0  0  0  0
   10.7633   13.2300    5.3127 N   0  0  0  0  0  0  0  0  0  0  0  0
  1  2  1  0  0  0  0
  1  6  1  0  0  0  0
  2  3  2  0  0  0  0
  3  4  1  0  0  0  0
  4  5  2  0  0  0  0
  4 10  1  0  0  0  0
  5  6  1  0  0  0  0
  5  8  1  0  0  0  0
  6  7  2  0  0  0  0
  8  9  1  0  0  0  0
  9 10  2  0  0  0  0
M  END
>  <CHROM.1>
11.38348537,11.60064457,6.63030177,0.44624366,-1.27818605,1.07718729

>  <Name>
ligand

>  <RI>
0

>  <Rbt.Current_Directory>
/home/itssahil/PROJECTS/Mol_Feturizer/New_Systems/rnas/2EEU

>  <Rbt.Executable>
rbdock ($Id: //depot/dev/client3/rdock/2013.1/src/exe/rbdock.cxx#4 $)

>  <Rbt.Library>
libRbt.so (2013.1, Build901 2013/11/27)

>  <Rbt.Parameter_File>
/export/apps/rDock/src/rDock_2013.1_src/data/scripts/dock_solv.prm

>  <Rbt.Receptor>
prm/blind_docking_80.prm

>  <SCORE>
-18.6118

>  <SCORE.INTER>
-18.6118

>  <SCORE.INTER.CONST>
1

>  <SCORE.INTER.POLAR>
0

>  <SCORE.INTER.ROT>
0

>  <SCORE.INTER.SOLV>
3.57111

>  <SCORE.INTER.VDW>
-17.1982

>  <SCORE.INTER.norm>
-1.86118

>  <SCORE.INTRA>
0

>  <SCORE.INTRA.DIHEDRAL>
0

>  <SCORE.INTRA.DIHEDRAL.0>
0

>  <SCORE.INTRA.POLAR>
0

>  <SCORE.INTRA.POLAR.0>
0

>  <SCORE.INTRA.REPUL>
0

>  <SCORE.INTRA.REPUL.0>
0

>  <SCORE.INTRA.SOLV>
0

>  <SCORE.INTRA.SOLV.lig_0>
-4.28148

>  <SCORE.INTRA.VDW>
0

>  <SCORE.INTRA.VDW.0>
0

>  <SCORE.INTRA.norm>
0

>  <SCORE.RESTR>
0

>  <SCORE.RESTR.CAVITY>
0

>  <SCORE.RESTR.norm>
0

>  <SCORE.SYSTEM>
0

>  <SCORE.SYSTEM.CONST>
0

>  <SCORE.SYSTEM.DIHEDRAL>
0

>  <SCORE.SYSTEM.SOLV>
0

>  <SCORE.SYSTEM.norm>
0

>  <SCORE.heavy>
10

>  <SCORE.norm>
-1.86118

>  <RMSD>
0.861

$$$$
ligand
 OpenBabel11021811423D
libRbt.so/2013.1/901 2013/11/27
 10 11  0  0  0  0  0  0  0  0999 V2000
   11.8019   10.9950    8.4310 N   0  0  0  0  0  0  0  0  0  0  0  0
   11.4778   12.3130    8.6830 C   0  0  0  0  0  0  0  0  0  0  0  0
   11.1085   13.1535    7.7086 N   0  0  0  0  0  0  0  0  0  0  0  0
   11.0932   12.5739    6.4753 C   0  0  0  0  0  0  0  0  0  0  0  0
   11.4077   11.2618    6.1553 C   0  0  0  0  0  0  0  0  0  0  0  0
   11.7984   10.3634    7.1852 C   0  0  0  0  0  0  0  0  0  0  0  0
   12.1149    9.1751    7.1277 O   0  0  0  0  0  0  0  0  0  0  0  0
   11.2617   11.0990    4.7986 N   0  0  0  0  0  0  0  0  0  0  0  0
   10.8641   12.2967    4.3090 C   0  0  0  0  0  0  0  0  0  0  0  0
   10.7520   13.2272    5.3157 N   0  0  0  0  0  0  0  0  0  0  0  0
  1  2  1  0  0  0  0
  1  6  1  0  0  0  0
  2  3  2  0  0  0  0
  3  4  1  0  0  0  0
  4  5  2  0  0  0  0
  4 10  1  0  0  0  0
  5  6  1  0  0  0  0
  5  8  1  0  0  0  0
  6  7  2  0  0  0  0
  8  9  1  0  0  0  0
  9 10  2  0  0  0  0
M  END
>  <CHROM.1>
11.38227832,11.59981782,6.63096615,0.46244721,-1.27229503,1.09468908

>  <Name>
ligand

>  <RI>
0

>  <Rbt.Current_Directory>
/home/itssahil/PROJECTS/Mol_Feturizer/New_Systems/rnas/2EEU

>  <Rbt.Executable>
rbdock ($Id: //depot/dev/client3/rdock/2013.1/src/exe/rbdock.cxx#4 $)

>  <Rbt.Library>
libRbt.so (2013.1, Build901 2013/11/27)

>  <Rbt.Parameter_File>
/export/apps/rDock/src/rDock_2013.1_src/data/scripts/dock_solv.prm

>  <Rbt.Receptor>
prm/pocket_docking_5.prm

>  <SCORE>
-18.6068

>  <SCORE.INTER>
-18.6068

>  <SCORE.INTER.CONST>
1

>  <SCORE.INTER.POLAR>
0

>  <SCORE.INTER.ROT>
0

>  <SCORE.INTER.SOLV>
3.55365

>  <SCORE.INTER.VDW>
-17.1891

>  <SCORE.INTER.norm>
-1.86068

>  <SCORE.INTRA>
0

>  <SCORE.INTRA.DIHEDRAL>
0

>  <SCORE.INTRA.DIHEDRAL.0>
0

>  <SCORE.INTRA.POLAR>
0

>  <SCORE.INTRA.POLAR.0>
0

>  <SCORE.INTRA.REPUL>
0

>  <SCORE.INTRA.REPUL.0>
0

>  <SCORE.INTRA.SOLV>
0

>  <SCORE.INTRA.SOLV.lig_0>
-4.28148

>  <SCORE.INTRA.VDW>
0

>  <SCORE.INTRA.VDW.0>
0

>  <SCORE.INTRA.norm>
0

>  <SCORE.RESTR>
0

>  <SCORE.RESTR.CAVITY>
0

>  <SCORE.RESTR.norm>
0

>  <SCORE.SYSTEM>
0

>  <SCORE.SYSTEM.CONST>
0

>  <SCORE.SYSTEM.DIHEDRAL>
0

>  <SCORE.SYSTEM.SOLV>
0

>  <SCORE.SYSTEM.norm>
0

>  <SCORE.heavy>
10

>  <SCORE.norm>
-1.86068

>  <RMSD>
0.861

$$$$
ligand
 OpenBabel11021811423D
libRbt.so/2013.1/901 2013/11/27
 10 11  0  0  0  0  0  0  0  0999 V2000
   11.7752   10.9891    8.4433 N   0  0  0  0  0  0  0  0  0  0  0  0
   11.4305   12.3029    8.6895 C   0  0  0  0  0  0  0  0  0  0  0  0
   11.0679   13.1389    7.7088 N   0  0  0  0  0  0  0  0  0  0  0  0
   11.0815   12.5594    6.4754 C   0  0  0  0  0  0  0  0  0  0  0  0
   11.4178   11.2514    6.1610 C   0  0  0  0  0  0  0  0  0  0  0  0
   11.8014   10.3577    7.1977 C   0  0  0  0  0  0  0  0  0  0  0  0
   12.1335    9.1734    7.1457 O   0  0  0  0  0  0  0  0  0  0  0  0
   11.2977   11.0871    4.8020 N   0  0  0  0  0  0  0  0  0  0  0  0
   10.8939   12.2799    4.3055 C   0  0  0  0  0  0  0  0  0  0  0  0
   10.7526   13.2087    5.3101 N   0  0  0  0  0  0  0  0  0  0  0  0
  1  2  1  0  0  0  0
  1  6  1  0  0  0  0
  2  3  2  0  0  0  0
  3  4  1  0  0  0  0
  4  5  2  0  0  0  0
  4 10  1  0  0  0  0
  5  6  1  0  0  0  0
  5  8  1  0  0  0  0
  6  7  2  0  0  0  0
  8  9  1  0  0  0  0
  9 10  2  0  0  0  0
M  END
>  <CHROM.1>
11.37982072,11.58899284,6.63617553,0.53403638,-1.26862540,1.16318162

>  <Name>
ligand

>  <RI>
0

>  <Rbt.Current_Directory>
/home/itssahil/PROJECTS/Mol_Feturizer/New_Systems/rnas/2EEU

>  <Rbt.Executable>
rbdock ($Id: //depot/dev/client3/rdock/2013.1/src/exe/rbdock.cxx#4 $)

>  <Rbt.Library>
libRbt.so (2013.1, Build901 2013/11/27)

>  <Rbt.Parameter_File>
/export/apps/rDock/src/rDock_2013.1_src/data/scripts/dock_solv.prm

>  <Rbt.Receptor>
prm/pocket_docking_5.prm

>  <SCORE>
-18.5765

>  <SCORE.INTER>
-18.5765

>  <SCORE.INTER.CONST>
1

>  <SCORE.INTER.POLAR>
0

>  <SCORE.INTER.ROT>
0

>  <SCORE.INTER.SOLV>
3.54449

>  <SCORE.INTER.VDW>
-17.1658

>  <SCORE.INTER.norm>
-1.85765

>  <SCORE.INTRA>
0

>  <SCORE.INTRA.DIHEDRAL>
0

>  <SCORE.INTRA.DIHEDRAL.0>
0

>  <SCORE.INTRA.POLAR>
0

>  <SCORE.INTRA.POLAR.0>
0

>  <SCORE.INTRA.REPUL>
0

>  <SCORE.INTRA.REPUL.0>
0

>  <SCORE.INTRA.SOLV>
0

>  <SCORE.INTRA.SOLV.lig_0>
-4.28148

>  <SCORE.INTRA.VDW>
0

>  <SCORE.INTRA.VDW.0>
0

>  <SCORE.INTRA.norm>
0

>  <SCORE.RESTR>
0

>  <SCORE.RESTR.CAVITY>
0

>  <SCORE.RESTR.norm>
0

>  <SCORE.SYSTEM>
0

>  <SCORE.SYSTEM.CONST>
0

>  <SCORE.SYSTEM.DIHEDRAL>
0

>  <SCORE.SYSTEM.SOLV>
0

>  <SCORE.SYSTEM.norm>
0

>  <SCORE.heavy>
10

>  <SCORE.norm>
-1.85765

>  <RMSD>
0.861

$$$$
ligand
 OpenBabel11021811423D
libRbt.so/2013.1/901 2013/11/27
 10 11  0  0  0  0  0  0  0  0999 V2000
   11.8019   10.9962    8.4305 N   0  0  0  0  0  0  0  0  0  0  0  0
   11.4849   12.3162    8.6808 C   0  0  0  0  0  0  0  0  0  0  0  0
   11.1188   13.1571    7.7056 N   0  0  0  0  0  0  0  0  0  0  0  0
   11.0990   12.5756    6.4732 C   0  0  0  0  0  0  0  0  0  0  0  0
   11.4064   11.2614    6.1549 C   0  0  0  0  0  0  0  0  0  0  0  0
   11.7936   10.3626    7.1858 C   0  0  0  0  0  0  0  0  0  0  0  0
   12.1039    9.1726    7.1298 O   0  0  0  0  0  0  0  0  0  0  0  0
   11.2579   11.0972    4.7987 N   0  0  0  0  0  0  0  0  0  0  0  0
   10.8659   12.2962    4.3077 C   0  0  0  0  0  0  0  0  0  0  0  0
   10.7598   13.2288    5.3130 N   0  0  0  0  0  0  0  0  0  0  0  0
  1  2  1  0  0  0  0
  1  6  1  0  0  0  0
  2  3  2  0  0  0  0
  3  4  1  0  0  0  0
  4  5  2  0  0  0  0
  4 10  1  0  0  0  0
  5  6  1  0  0  0  0
  5  8  1  0  0  0  0
  6  7  2  0  0  0  0
  8  9  1  0  0  0  0
  9 10  2  0  0  0  0
M  END
>  <CHROM.1>
11.38325736,11.60029133,6.63005485,0.45061134,-1.27633705,1.08179783

>  <Name>
ligand

>  <RI>
0

>  <Rbt.Current_Directory>
/home/itssahil/PROJECTS/Mol_Feturizer/New_Systems/rnas/2EEU

>  <Rbt.Executable>
rbdock ($Id: //depot/dev/client3/rdock/2013.1/src/exe/rbdock.cxx#4 $)

>  <Rbt.Library>
libRbt.so (2013.1, Build901 2013/11/27)

>  <Rbt.Parameter_File>
/export/apps/rDock/src/rDock_2013.1_src/data/scripts/dock_solv.prm

>  <Rbt.Receptor>
prm/pocket_docking_5.prm

>  <SCORE>
-18.6102

>  <SCORE.INTER>
-18.6102

>  <SCORE.INTER.CONST>
1

>  <SCORE.INTER.POLAR>
0

>  <SCORE.INTER.ROT>
0

>  <SCORE.INTER.SOLV>
3.5656

>  <SCORE.INTER.VDW>
-17.1954

>  <SCORE.INTER.norm>
-1.86102

>  <SCORE.INTRA>
0

>  <SCORE.INTRA.DIHEDRAL>
0

>  <SCORE.INTRA.DIHEDRAL.0>
0

>  <SCORE.INTRA.POLAR>
0

>  <SCORE.INTRA.POLAR.0>
0

>  <SCORE.INTRA.REPUL>
0

>  <SCORE.INTRA.REPUL.0>
0

>  <SCORE.INTRA.SOLV>
0

>  <SCORE.INTRA.SOLV.lig_0>
-4.28148

>  <SCORE.INTRA.VDW>
0

>  <SCORE.INTRA.VDW.0>
0

>  <SCORE.INTRA.norm>
0

>  <SCORE.RESTR>
0

>  <SCORE.RESTR.CAVITY>
0

>  <SCORE.RESTR.norm>
0

>  <SCORE.SYSTEM>
0

>  <SCORE.SYSTEM.CONST>
0

>  <SCORE.SYSTEM.DIHEDRAL>
0

>  <SCORE.SYSTEM.SOLV>
0

>  <SCORE.SYSTEM.norm>
0

>  <SCORE.heavy>
10

>  <SCORE.norm>
-1.86102

>  <RMSD>
0.861

$$$$
ligand
 OpenBabel11021811423D
libRbt.so/2013.1/901 2013/11/27
 10 11  0  0  0  0  0  0  0  0999 V2000
   11.7975   10.9920    8.4362 N   0  0  0  0  0  0  0  0  0  0  0  0
   11.4461   12.3035    8.6854 C   0  0  0  0  0  0  0  0  0  0  0  0
   11.0723   13.1380    7.7076 N   0  0  0  0  0  0  0  0  0  0  0  0
   11.0818   12.5594    6.4737 C   0  0  0  0  0  0  0  0  0  0  0  0
   11.4243   11.2537    6.1563 C   0  0  0  0  0  0  0  0  0  0  0  0
   11.8198   10.3617    7.1900 C   0  0  0  0  0  0  0  0  0  0  0  0
   12.1590    9.1795    7.1351 O   0  0  0  0  0  0  0  0  0  0  0  0
   11.2968   11.0895    4.7980 N   0  0  0  0  0  0  0  0  0  0  0  0
   10.8825   12.2802    4.3048 C   0  0  0  0  0  0  0  0  0  0  0  0
   10.7417   13.2074    5.3109 N   0  0  0  0  0  0  0  0  0  0  0  0
  1  2  1  0  0  0  0
  1  6  1  0  0  0  0
  2  3  2  0  0  0  0
  3  4  1  0  0  0  0
  4  5  2  0  0  0  0
  4 10  1  0  0  0  0
  5  6  1  0  0  0  0
  5  8  1  0  0  0  0
  6  7  2  0  0  0  0
  8  9  1  0  0  0  0
  9 10  2  0  0  0  0
M  END
>  <CHROM.1>
11.38717788,11.59072065,6.63193171,0.52343162,-1.26045986,1.15375289

>  <Name>
ligand

>  <RI>
0

>  <Rbt.Current_Directory>
/home/itssahil/PROJECTS/Mol_Feturizer/New_Systems/rnas/2EEU

>  <Rbt.Executable>
rbdock ($Id: //depot/dev/client3/rdock/2013.1/src/exe/rbdock.cxx#4 $)

>  <Rbt.Library>
libRbt.so (2013.1, Build901 2013/11/27)

>  <Rbt.Parameter_File>
/export/apps/rDock/src/rDock_2013.1_src/data/scripts/dock_solv.prm

>  <Rbt.Receptor>
prm/pocket_docking_7.prm

>  <SCORE>
-18.5789

>  <SCORE.INTER>
-18.5789

>  <SCORE.INTER.CONST>
1

>  <SCORE.INTER.POLAR>
0

>  <SCORE.INTER.ROT>
0

>  <SCORE.INTER.SOLV>
3.51099

>  <SCORE.INTER.VDW>
-17.1563

>  <SCORE.INTER.norm>
-1.85789

>  <SCORE.INTRA>
0

>  <SCORE.INTRA.DIHEDRAL>
0

>  <SCORE.INTRA.DIHEDRAL.0>
0

>  <SCORE.INTRA.POLAR>
0

>  <SCORE.INTRA.POLAR.0>
0

>  <SCORE.INTRA.REPUL>
0

>  <SCORE.INTRA.REPUL.0>
0

>  <SCORE.INTRA.SOLV>
0

>  <SCORE.INTRA.SOLV.lig_0>
-4.28148

>  <SCORE.INTRA.VDW>
0

>  <SCORE.INTRA.VDW.0>
0

>  <SCORE.INTRA.norm>
0

>  <SCORE.RESTR>
0

>  <SCORE.RESTR.CAVITY>
0

>  <SCORE.RESTR.norm>
0

>  <SCORE.SYSTEM>
0

>  <SCORE.SYSTEM.CONST>
0

>  <SCORE.SYSTEM.DIHEDRAL>
0

>  <SCORE.SYSTEM.SOLV>
0

>  <SCORE.SYSTEM.norm>
0

>  <SCORE.heavy>
10

>  <SCORE.norm>
-1.85789

>  <RMSD>
0.861

$$$$
ligand
 OpenBabel11021811423D
libRbt.so/2013.1/901 2013/11/27
 10 11  0  0  0  0  0  0  0  0999 V2000
   11.8049   10.9965    8.4269 N   0  0  0  0  0  0  0  0  0  0  0  0
   11.4924   12.3170    8.6798 C   0  0  0  0  0  0  0  0  0  0  0  0
   11.1226   13.1594    7.7072 N   0  0  0  0  0  0  0  0  0  0  0  0
   11.0945   12.5788    6.4746 C   0  0  0  0  0  0  0  0  0  0  0  0
   11.3970   11.2641    6.1537 C   0  0  0  0  0  0  0  0  0  0  0  0
   11.7880   10.3638    7.1818 C   0  0  0  0  0  0  0  0  0  0  0  0
   12.0953    9.1731    7.1232 O   0  0  0  0  0  0  0  0  0  0  0  0
   11.2405   11.1012    4.7982 N   0  0  0  0  0  0  0  0  0  0  0  0
   10.8484   12.3015    4.3103 C   0  0  0  0  0  0  0  0  0  0  0  0
   10.7502   13.2336    5.3168 N   0  0  0  0  0  0  0  0  0  0  0  0
  1  2  1  0  0  0  0
  1  6  1  0  0  0  0
  2  3  2  0  0  0  0
  3  4  1  0  0  0  0
  4  5  2  0  0  0  0
  4 10  1  0  0  0  0
  5  6  1  0  0  0  0
  5  8  1  0  0  0  0
  6  7  2  0  0  0  0
  8  9  1  0  0  0  0
  9 10  2  0  0  0  0
M  END
>  <CHROM.1>
11.37737749,11.60276678,6.62921098,0.42961341,-1.27562203,1.06237491

>  <Name>
ligand

>  <RI>
0

>  <Rbt.Current_Directory>
/home/itssahil/PROJECTS/Mol_Feturizer/New_Systems/rnas/2EEU

>  <Rbt.Executable>
rbdock ($Id: //depot/dev/client3/rdock/2013.1/src/exe/rbdock.cxx#4 $)

>  <Rbt.Library>
libRbt.so (2013.1, Build901 2013/11/27)

>  <Rbt.Parameter_File>
/export/apps/rDock/src/rDock_2013.1_src/data/scripts/dock_solv.prm

>  <Rbt.Receptor>
prm/blind_docking_80.prm

>  <SCORE>
-18.6101

>  <SCORE.INTER>
-18.6101

>  <SCORE.INTER.CONST>
1

>  <SCORE.INTER.POLAR>
0

>  <SCORE.INTER.ROT>
0

>  <SCORE.INTER.SOLV>
3.57031

>  <SCORE.INTER.VDW>
-17.1968

>  <SCORE.INTER.norm>
-1.86101

>  <SCORE.INTRA>
0

>  <SCORE.INTRA.DIHEDRAL>
0

>  <SCORE.INTRA.DIHEDRAL.0>
0

>  <SCORE.INTRA.POLAR>
0

>  <SCORE.INTRA.POLAR.0>
0

>  <SCORE.INTRA.REPUL>
0

>  <SCORE.INTRA.REPUL.0>
0

>  <SCORE.INTRA.SOLV>
0

>  <SCORE.INTRA.SOLV.lig_0>
-4.28148

>  <SCORE.INTRA.VDW>
0

>  <SCORE.INTRA.VDW.0>
0

>  <SCORE.INTRA.norm>
0

>  <SCORE.RESTR>
0

>  <SCORE.RESTR.CAVITY>
0

>  <SCORE.RESTR.norm>
0

>  <SCORE.SYSTEM>
0

>  <SCORE.SYSTEM.CONST>
0

>  <SCORE.SYSTEM.DIHEDRAL>
0

>  <SCORE.SYSTEM.SOLV>
0

>  <SCORE.SYSTEM.norm>
0

>  <SCORE.heavy>
10

>  <SCORE.norm>
-1.86101

>  <RMSD>
0.862

$$$$
ligand
 OpenBabel11021811423D
libRbt.so/2013.1/901 2013/11/27
 10 11  0  0  0  0  0  0  0  0999 V2000
   11.8051   10.9998    8.4244 N   0  0  0  0  0  0  0  0  0  0  0  0
   11.4912   12.3192    8.6814 C   0  0  0  0  0  0  0  0  0  0  0  0
   11.1281   13.1663    7.7104 N   0  0  0  0  0  0  0  0  0  0  0  0
   11.1080   12.5914    6.4749 C   0  0  0  0  0  0  0  0  0  0  0  0
   11.4123   11.2782    6.1498 C   0  0  0  0  0  0  0  0  0  0  0  0
   11.7963   10.3729    7.1762 C   0  0  0  0  0  0  0  0  0  0  0  0
   12.1036    9.1825    7.1141 O   0  0  0  0  0  0  0  0  0  0  0  0
   11.2647   11.1217    4.7926 N   0  0  0  0  0  0  0  0  0  0  0  0
   10.8761   12.3243    4.3077 C   0  0  0  0  0  0  0  0  0  0  0  0
   10.7715   13.2518    5.3179 N   0  0  0  0  0  0  0  0  0  0  0  0
  1  2  1  0  0  0  0
  1  6  1  0  0  0  0
  2  3  2  0  0  0  0
  3  4  1  0  0  0  0
  4  5  2  0  0  0  0
  4 10  1  0  0  0  0
  5  6  1  0  0  0  0
  5  8  1  0  0  0  0
  6  7  2  0  0  0  0
  8  9  1  0  0  0  0
  9 10  2  0  0  0  0
M  END
>  <CHROM.1>
11.38961275,11.61462122,6.62677445,0.44932958,-1.27899220,1.08594673

>  <Name>
ligand

>  <RI>
0

>  <Rbt.Current_Directory>
/home/itssahil/PROJECTS/Mol_Feturizer/New_Systems/rnas/2EEU

>  <Rbt.Executable>
rbdock ($Id: //depot/dev/client3/rdock/2013.1/src/exe/rbdock.cxx#4 $)

>  <Rbt.Library>
libRbt.so (2013.1, Build901 2013/11/27)

>  <Rbt.Parameter_File>
/export/apps/rDock/src/rDock_2013.1_src/data/scripts/dock_solv.prm

>  <Rbt.Receptor>
prm/pocket_docking_5.prm

>  <SCORE>
-18.5772

>  <SCORE.INTER>
-18.5772

>  <SCORE.INTER.CONST>
1

>  <SCORE.INTER.POLAR>
0

>  <SCORE.INTER.ROT>
0

>  <SCORE.INTER.SOLV>
3.5724

>  <SCORE.INTER.VDW>
-17.1756

>  <SCORE.INTER.norm>
-1.85772

>  <SCORE.INTRA>
0

>  <SCORE.INTRA.DIHEDRAL>
0

>  <SCORE.INTRA.DIHEDRAL.0>
0

>  <SCORE.INTRA.POLAR>
0

>  <SCORE.INTRA.POLAR.0>
0

>  <SCORE.INTRA.REPUL>
0

>  <SCORE.INTRA.REPUL.0>
0

>  <SCORE.INTRA.SOLV>
0

>  <SCORE.INTRA.SOLV.lig_0>
-4.28148

>  <SCORE.INTRA.VDW>
0

>  <SCORE.INTRA.VDW.0>
0

>  <SCORE.INTRA.norm>
0

>  <SCORE.RESTR>
0

>  <SCORE.RESTR.CAVITY>
0

>  <SCORE.RESTR.norm>
0

>  <SCORE.SYSTEM>
0

>  <SCORE.SYSTEM.CONST>
0

>  <SCORE.SYSTEM.DIHEDRAL>
0

>  <SCORE.SYSTEM.SOLV>
0

>  <SCORE.SYSTEM.norm>
0

>  <SCORE.heavy>
10

>  <SCORE.norm>
-1.85772

>  <RMSD>
0.862

$$$$
ligand
 OpenBabel11021811423D
libRbt.so/2013.1/901 2013/11/27
 10 11  0  0  0  0  0  0  0  0999 V2000
   11.7976   10.9956    8.4311 N   0  0  0  0  0  0  0  0  0  0  0  0
   11.4806   12.3157    8.6810 C   0  0  0  0  0  0  0  0  0  0  0  0
   11.1145   13.1563    7.7055 N   0  0  0  0  0  0  0  0  0  0  0  0
   11.0948   12.5745    6.4733 C   0  0  0  0  0  0  0  0  0  0  0  0
   11.4022   11.2602    6.1554 C   0  0  0  0  0  0  0  0  0  0  0  0
   11.7894   10.3617    7.1866 C   0  0  0  0  0  0  0  0  0  0  0  0
   12.0998    9.1717    7.1309 O   0  0  0  0  0  0  0  0  0  0  0  0
   11.2539   11.0957    4.7992 N   0  0  0  0  0  0  0  0  0  0  0  0
   10.8619   12.2945    4.3078 C   0  0  0  0  0  0  0  0  0  0  0  0
   10.7557   13.2274    5.3129 N   0  0  0  0  0  0  0  0  0  0  0  0
  1  2  1  0  0  0  0
  1  6  1  0  0  0  0
  2  3  2  0  0  0  0
  3  4  1  0  0  0  0
  4  5  2  0  0  0  0
  4 10  1  0  0  0  0
  5  6  1  0  0  0  0
  5  8  1  0  0  0  0
  6  7  2  0  0  0  0
  8  9  1  0  0  0  0
  9 10  2  0  0  0  0
M  END
>  <CHROM.1>
11.37909865,11.59923735,6.63046247,0.45088602,-1.27633959,1.08179540

>  <Name>
ligand

>  <RI>
0

>  <Rbt.Current_Directory>
/home/itssahil/PROJECTS/Mol_Feturizer/New_Systems/rnas/2EEU

>  <Rbt.Executable>
rbdock ($Id: //depot/dev/client3/rdock/2013.1/src/exe/rbdock.cxx#4 $)

>  <Rbt.Library>
libRbt.so (2013.1, Build901 2013/11/27)

>  <Rbt.Parameter_File>
/export/apps/rDock/src/rDock_2013.1_src/data/scripts/dock_solv.prm

>  <Rbt.Receptor>
prm/pocket_docking_6.prm

>  <SCORE>
-18.6072

>  <SCORE.INTER>
-18.6072

>  <SCORE.INTER.CONST>
1

>  <SCORE.INTER.POLAR>
0

>  <SCORE.INTER.ROT>
0

>  <SCORE.INTER.SOLV>
3.56976

>  <SCORE.INTER.VDW>
-17.1947

>  <SCORE.INTER.norm>
-1.86072

>  <SCORE.INTRA>
0

>  <SCORE.INTRA.DIHEDRAL>
0

>  <SCORE.INTRA.DIHEDRAL.0>
0

>  <SCORE.INTRA.POLAR>
0

>  <SCORE.INTRA.POLAR.0>
0

>  <SCORE.INTRA.REPUL>
0

>  <SCORE.INTRA.REPUL.0>
0

>  <SCORE.INTRA.SOLV>
0

>  <SCORE.INTRA.SOLV.lig_0>
-4.28148

>  <SCORE.INTRA.VDW>
0

>  <SCORE.INTRA.VDW.0>
0

>  <SCORE.INTRA.norm>
0

>  <SCORE.RESTR>
0

>  <SCORE.RESTR.CAVITY>
0

>  <SCORE.RESTR.norm>
0

>  <SCORE.SYSTEM>
0

>  <SCORE.SYSTEM.CONST>
0

>  <SCORE.SYSTEM.DIHEDRAL>
0

>  <SCORE.SYSTEM.SOLV>
0

>  <SCORE.SYSTEM.norm>
0

>  <SCORE.heavy>
10

>  <SCORE.norm>
-1.86072

>  <RMSD>
0.862

$$$$
ligand
 OpenBabel11021811423D
libRbt.so/2013.1/901 2013/11/27
 10 11  0  0  0  0  0  0  0  0999 V2000
   11.8632   11.4112    8.4723 N   0  0  0  0  0  0  0  0  0  0  0  0
   11.6098   12.7641    8.5778 C   0  0  0  0  0  0  0  0  0  0  0  0
   11.2541   13.5057    7.5215 N   0  0  0  0  0  0  0  0  0  0  0  0
   11.1764   12.7907    6.3639 C   0  0  0  0  0  0  0  0  0  0  0  0
   11.4185   11.4364    6.1904 C   0  0  0  0  0  0  0  0  0  0  0  0
   11.7944   10.6427    7.3080 C   0  0  0  0  0  0  0  0  0  0  0  0
   12.0518    9.4410    7.3808 O   0  0  0  0  0  0  0  0  0  0  0  0
   11.2269   11.1276    4.8651 N   0  0  0  0  0  0  0  0  0  0  0  0
   10.8736   12.2804    4.2497 C   0  0  0  0  0  0  0  0  0  0  0  0
   10.8345   13.3241    5.1447 N   0  0  0  0  0  0  0  0  0  0  0  0
  1  2  1  0  0  0  0
  1  6  1  0  0  0  0
  2  3  2  0  0  0  0
  3  4  1  0  0  0  0
  4  5  2  0  0  0  0
  4 10  1  0  0  0  0
  5  6  1  0  0  0  0
  5  8  1  0  0  0  0
  6  7  2  0  0  0  0
  8  9  1  0  0  0  0
  9 10  2  0  0  0  0
M  END
>  <CHROM.1>
11.42270646,11.82737727,6.62432707,0.28736849,-1.29814795,0.81165177

>  <Name>
ligand

>  <RI>
0

>  <Rbt.Current_Directory>
/home/itssahil/PROJECTS/Mol_Feturizer/New_Systems/rnas/2EEU

>  <Rbt.Executable>
rbdock ($Id: //depot/dev/client3/rdock/2013.1/src/exe/rbdock.cxx#4 $)

>  <Rbt.Library>
libRbt.so (2013.1, Build901 2013/11/27)

>  <Rbt.Parameter_File>
/export/apps/rDock/src/rDock_2013.1_src/data/scripts/dock_solv.prm

>  <Rbt.Receptor>
prm/pocket_docking_6.prm

>  <SCORE>
-18.472

>  <SCORE.INTER>
-18.472

>  <SCORE.INTER.CONST>
1

>  <SCORE.INTER.POLAR>
0

>  <SCORE.INTER.ROT>
0

>  <SCORE.INTER.SOLV>
3.53046

>  <SCORE.INTER.VDW>
-17.0915

>  <SCORE.INTER.norm>
-1.8472

>  <SCORE.INTRA>
0

>  <SCORE.INTRA.DIHEDRAL>
0

>  <SCORE.INTRA.DIHEDRAL.0>
0

>  <SCORE.INTRA.POLAR>
0

>  <SCORE.INTRA.POLAR.0>
0

>  <SCORE.INTRA.REPUL>
0

>  <SCORE.INTRA.REPUL.0>
0

>  <SCORE.INTRA.SOLV>
0

>  <SCORE.INTRA.SOLV.lig_0>
-4.28148

>  <SCORE.INTRA.VDW>
0

>  <SCORE.INTRA.VDW.0>
0

>  <SCORE.INTRA.norm>
0

>  <SCORE.RESTR>
0

>  <SCORE.RESTR.CAVITY>
0

>  <SCORE.RESTR.norm>
0

>  <SCORE.SYSTEM>
0

>  <SCORE.SYSTEM.CONST>
0

>  <SCORE.SYSTEM.DIHEDRAL>
0

>  <SCORE.SYSTEM.SOLV>
0

>  <SCORE.SYSTEM.norm>
0

>  <SCORE.heavy>
10

>  <SCORE.norm>
-1.8472

>  <RMSD>
0.862

$$$$
ligand
 OpenBabel11021811423D
libRbt.so/2013.1/901 2013/11/27
 10 11  0  0  0  0  0  0  0  0999 V2000
   11.8048   10.9969    8.4261 N   0  0  0  0  0  0  0  0  0  0  0  0
   11.4940   12.3181    8.6778 C   0  0  0  0  0  0  0  0  0  0  0  0
   11.1270   13.1604    7.7042 N   0  0  0  0  0  0  0  0  0  0  0  0
   11.0998   12.5792    6.4719 C   0  0  0  0  0  0  0  0  0  0  0  0
   11.4007   11.2638    6.1522 C   0  0  0  0  0  0  0  0  0  0  0  0
   11.7888   10.3635    7.1814 C   0  0  0  0  0  0  0  0  0  0  0  0
   12.0943    9.1723    7.1239 O   0  0  0  0  0  0  0  0  0  0  0  0
   11.2460   11.1004    4.7966 N   0  0  0  0  0  0  0  0  0  0  0  0
   10.8565   12.3010    4.3073 C   0  0  0  0  0  0  0  0  0  0  0  0
   10.7582   13.2339    5.3132 N   0  0  0  0  0  0  0  0  0  0  0  0
  1  2  1  0  0  0  0
  1  6  1  0  0  0  0
  2  3  2  0  0  0  0
  3  4  1  0  0  0  0
  4  5  2  0  0  0  0
  4 10  1  0  0  0  0
  5  6  1  0  0  0  0
  5  8  1  0  0  0  0
  6  7  2  0  0  0  0
  8  9  1  0  0  0  0
  9 10  2  0  0  0  0
M  END
>  <CHROM.1>
11.38093677,11.60278428,6.62747072,0.43150955,-1.27769451,1.06361594

>  <Name>
ligand

>  <RI>
0

>  <Rbt.Current_Directory>
/home/itssahil/PROJECTS/Mol_Feturizer/New_Systems/rnas/2EEU

>  <Rbt.Executable>
rbdock ($Id: //depot/dev/client3/rdock/2013.1/src/exe/rbdock.cxx#4 $)

>  <Rbt.Library>
libRbt.so (2013.1, Build901 2013/11/27)

>  <Rbt.Parameter_File>
/export/apps/rDock/src/rDock_2013.1_src/data/scripts/dock_solv.prm

>  <Rbt.Receptor>
prm/blind_docking_100.prm

>  <SCORE>
-18.6122

>  <SCORE.INTER>
-18.6122

>  <SCORE.INTER.CONST>
1

>  <SCORE.INTER.POLAR>
0

>  <SCORE.INTER.ROT>
0

>  <SCORE.INTER.SOLV>
3.57427

>  <SCORE.INTER.VDW>
-17.1995

>  <SCORE.INTER.norm>
-1.86122

>  <SCORE.INTRA>
0

>  <SCORE.INTRA.DIHEDRAL>
0

>  <SCORE.INTRA.DIHEDRAL.0>
0

>  <SCORE.INTRA.POLAR>
0

>  <SCORE.INTRA.POLAR.0>
0

>  <SCORE.INTRA.REPUL>
0

>  <SCORE.INTRA.REPUL.0>
0

>  <SCORE.INTRA.SOLV>
0

>  <SCORE.INTRA.SOLV.lig_0>
-4.28148

>  <SCORE.INTRA.VDW>
0

>  <SCORE.INTRA.VDW.0>
0

>  <SCORE.INTRA.norm>
0

>  <SCORE.RESTR>
0

>  <SCORE.RESTR.CAVITY>
0

>  <SCORE.RESTR.norm>
0

>  <SCORE.SYSTEM>
0

>  <SCORE.SYSTEM.CONST>
0

>  <SCORE.SYSTEM.DIHEDRAL>
0

>  <SCORE.SYSTEM.SOLV>
0

>  <SCORE.SYSTEM.norm>
0

>  <SCORE.heavy>
10

>  <SCORE.norm>
-1.86122

>  <RMSD>
0.863

$$$$
ligand
 OpenBabel11021811423D
libRbt.so/2013.1/901 2013/11/27
 10 11  0  0  0  0  0  0  0  0999 V2000
   11.8708   10.9265    8.4071 N   0  0  0  0  0  0  0  0  0  0  0  0
   11.5498   12.2388    8.6906 C   0  0  0  0  0  0  0  0  0  0  0  0
   11.1566   13.0962    7.7405 N   0  0  0  0  0  0  0  0  0  0  0  0
   11.1145   12.5392    6.4974 C   0  0  0  0  0  0  0  0  0  0  0  0
   11.4244   11.2341    6.1462 C   0  0  0  0  0  0  0  0  0  0  0  0
   11.8403   10.3179    7.1503 C   0  0  0  0  0  0  0  0  0  0  0  0
   12.1579    9.1316    7.0638 O   0  0  0  0  0  0  0  0  0  0  0  0
   11.2480   11.0958    4.7905 N   0  0  0  0  0  0  0  0  0  0  0  0
   10.8368   12.3014    4.3322 C   0  0  0  0  0  0  0  0  0  0  0  0
   10.7457   13.2129    5.3581 N   0  0  0  0  0  0  0  0  0  0  0  0
  1  2  1  0  0  0  0
  1  6  1  0  0  0  0
  2  3  2  0  0  0  0
  3  4  1  0  0  0  0
  4  5  2  0  0  0  0
  4 10  1  0  0  0  0
  5  6  1  0  0  0  0
  5  8  1  0  0  0  0
  6  7  2  0  0  0  0
  8  9  1  0  0  0  0
  9 10  2  0  0  0  0
M  END
>  <CHROM.1>
11.40913528,11.56323060,6.62850238,0.39960286,-1.25945652,1.05314364

>  <Name>
ligand

>  <RI>
0

>  <Rbt.Current_Directory>
/home/itssahil/PROJECTS/Mol_Feturizer/New_Systems/rnas/2EEU

>  <Rbt.Executable>
rbdock ($Id: //depot/dev/client3/rdock/2013.1/src/exe/rbdock.cxx#4 $)

>  <Rbt.Library>
libRbt.so (2013.1, Build901 2013/11/27)

>  <Rbt.Parameter_File>
/export/apps/rDock/src/rDock_2013.1_src/data/scripts/dock_solv.prm

>  <Rbt.Receptor>
prm/blind_docking_40.prm

>  <SCORE>
-18.6172

>  <SCORE.INTER>
-18.6172

>  <SCORE.INTER.CONST>
1

>  <SCORE.INTER.POLAR>
0

>  <SCORE.INTER.ROT>
0

>  <SCORE.INTER.SOLV>
3.50534

>  <SCORE.INTER.VDW>
-17.1799

>  <SCORE.INTER.norm>
-1.86172

>  <SCORE.INTRA>
0

>  <SCORE.INTRA.DIHEDRAL>
0

>  <SCORE.INTRA.DIHEDRAL.0>
0

>  <SCORE.INTRA.POLAR>
0

>  <SCORE.INTRA.POLAR.0>
0

>  <SCORE.INTRA.REPUL>
0

>  <SCORE.INTRA.REPUL.0>
0

>  <SCORE.INTRA.SOLV>
0

>  <SCORE.INTRA.SOLV.lig_0>
-4.28148

>  <SCORE.INTRA.VDW>
0

>  <SCORE.INTRA.VDW.0>
0

>  <SCORE.INTRA.norm>
0

>  <SCORE.RESTR>
0

>  <SCORE.RESTR.CAVITY>
0

>  <SCORE.RESTR.norm>
0

>  <SCORE.SYSTEM>
0

>  <SCORE.SYSTEM.CONST>
0

>  <SCORE.SYSTEM.DIHEDRAL>
0

>  <SCORE.SYSTEM.SOLV>
0

>  <SCORE.SYSTEM.norm>
0

>  <SCORE.heavy>
10

>  <SCORE.norm>
-1.86172

>  <RMSD>
0.863

$$$$
ligand
 OpenBabel11021811423D
libRbt.so/2013.1/901 2013/11/27
 10 11  0  0  0  0  0  0  0  0999 V2000
   11.8008   10.9986    8.4290 N   0  0  0  0  0  0  0  0  0  0  0  0
   11.4873   12.3197    8.6779 C   0  0  0  0  0  0  0  0  0  0  0  0
   11.1237   13.1606    7.7017 N   0  0  0  0  0  0  0  0  0  0  0  0
   11.1027   12.5779    6.4698 C   0  0  0  0  0  0  0  0  0  0  0  0
   11.4065   11.2626    6.1530 C   0  0  0  0  0  0  0  0  0  0  0  0
   11.7910   10.3638    7.1848 C   0  0  0  0  0  0  0  0  0  0  0  0
   12.0981    9.1729    7.1301 O   0  0  0  0  0  0  0  0  0  0  0  0
   11.2580   11.0975    4.7969 N   0  0  0  0  0  0  0  0  0  0  0  0
   10.8693   12.2971    4.3046 C   0  0  0  0  0  0  0  0  0  0  0  0
   10.7655   13.2310    5.3090 N   0  0  0  0  0  0  0  0  0  0  0  0
  1  2  1  0  0  0  0
  1  6  1  0  0  0  0
  2  3  2  0  0  0  0
  3  4  1  0  0  0  0
  4  5  2  0  0  0  0
  4 10  1  0  0  0  0
  5  6  1  0  0  0  0
  5  8  1  0  0  0  0
  6  7  2  0  0  0  0
  8  9  1  0  0  0  0
  9 10  2  0  0  0  0
M  END
>  <CHROM.1>
11.38421512,11.60204342,6.62777840,0.44698983,-1.27884670,1.07734233

>  <Name>
ligand

>  <RI>
0

>  <Rbt.Current_Directory>
/home/itssahil/PROJECTS/Mol_Feturizer/New_Systems/rnas/2EEU

>  <Rbt.Executable>
rbdock ($Id: //depot/dev/client3/rdock/2013.1/src/exe/rbdock.cxx#4 $)

>  <Rbt.Library>
libRbt.so (2013.1, Build901 2013/11/27)

>  <Rbt.Parameter_File>
/export/apps/rDock/src/rDock_2013.1_src/data/scripts/dock_solv.prm

>  <Rbt.Receptor>
prm/blind_docking_40.prm

>  <SCORE>
-18.6102

>  <SCORE.INTER>
-18.6102

>  <SCORE.INTER.CONST>
1

>  <SCORE.INTER.POLAR>
0

>  <SCORE.INTER.ROT>
0

>  <SCORE.INTER.SOLV>
3.57352

>  <SCORE.INTER.VDW>
-17.198

>  <SCORE.INTER.norm>
-1.86102

>  <SCORE.INTRA>
0

>  <SCORE.INTRA.DIHEDRAL>
0

>  <SCORE.INTRA.DIHEDRAL.0>
0

>  <SCORE.INTRA.POLAR>
0

>  <SCORE.INTRA.POLAR.0>
0

>  <SCORE.INTRA.REPUL>
0

>  <SCORE.INTRA.REPUL.0>
0

>  <SCORE.INTRA.SOLV>
0

>  <SCORE.INTRA.SOLV.lig_0>
-4.28148

>  <SCORE.INTRA.VDW>
0

>  <SCORE.INTRA.VDW.0>
0

>  <SCORE.INTRA.norm>
0

>  <SCORE.RESTR>
0

>  <SCORE.RESTR.CAVITY>
0

>  <SCORE.RESTR.norm>
0

>  <SCORE.SYSTEM>
0

>  <SCORE.SYSTEM.CONST>
0

>  <SCORE.SYSTEM.DIHEDRAL>
0

>  <SCORE.SYSTEM.SOLV>
0

>  <SCORE.SYSTEM.norm>
0

>  <SCORE.heavy>
10

>  <SCORE.norm>
-1.86102

>  <RMSD>
0.863

$$$$
ligand
 OpenBabel11021811423D
libRbt.so/2013.1/901 2013/11/27
 10 11  0  0  0  0  0  0  0  0999 V2000
   11.8032   10.9966    8.4290 N   0  0  0  0  0  0  0  0  0  0  0  0
   11.4809   12.3154    8.6792 C   0  0  0  0  0  0  0  0  0  0  0  0
   11.1125   13.1550    7.7037 N   0  0  0  0  0  0  0  0  0  0  0  0
   11.0961   12.5737    6.4712 C   0  0  0  0  0  0  0  0  0  0  0  0
   11.4088   11.2607    6.1531 C   0  0  0  0  0  0  0  0  0  0  0  0
   11.7985   10.3633    7.1842 C   0  0  0  0  0  0  0  0  0  0  0  0
   12.1134    9.1745    7.1282 O   0  0  0  0  0  0  0  0  0  0  0  0
   11.2623   11.0962    4.7967 N   0  0  0  0  0  0  0  0  0  0  0  0
   10.8661   12.2938    4.3055 C   0  0  0  0  0  0  0  0  0  0  0  0
   10.7555   13.2258    5.3109 N   0  0  0  0  0  0  0  0  0  0  0  0
  1  2  1  0  0  0  0
  1  6  1  0  0  0  0
  2  3  2  0  0  0  0
  3  4  1  0  0  0  0
  4  5  2  0  0  0  0
  4 10  1  0  0  0  0
  5  6  1  0  0  0  0
  5  8  1  0  0  0  0
  6  7  2  0  0  0  0
  8  9  1  0  0  0  0
  9 10  2  0  0  0  0
M  END
>  <CHROM.1>
11.38395962,11.59945776,6.62823912,0.45961258,-1.27338456,1.09056710

>  <Name>
ligand

>  <RI>
0

>  <Rbt.Current_Directory>
/home/itssahil/PROJECTS/Mol_Feturizer/New_Systems/rnas/2EEU

>  <Rbt.Executable>
rbdock ($Id: //depot/dev/client3/rdock/2013.1/src/exe/rbdock.cxx#4 $)

>  <Rbt.Library>
libRbt.so (2013.1, Build901 2013/11/27)

>  <Rbt.Parameter_File>
/export/apps/rDock/src/rDock_2013.1_src/data/scripts/dock_solv.prm

>  <Rbt.Receptor>
prm/blind_docking_60.prm

>  <SCORE>
-18.6052

>  <SCORE.INTER>
-18.6052

>  <SCORE.INTER.CONST>
1

>  <SCORE.INTER.POLAR>
0

>  <SCORE.INTER.ROT>
0

>  <SCORE.INTER.SOLV>
3.55616

>  <SCORE.INTER.VDW>
-17.1888

>  <SCORE.INTER.norm>
-1.86052

>  <SCORE.INTRA>
0

>  <SCORE.INTRA.DIHEDRAL>
0

>  <SCORE.INTRA.DIHEDRAL.0>
0

>  <SCORE.INTRA.POLAR>
0

>  <SCORE.INTRA.POLAR.0>
0

>  <SCORE.INTRA.REPUL>
0

>  <SCORE.INTRA.REPUL.0>
0

>  <SCORE.INTRA.SOLV>
0

>  <SCORE.INTRA.SOLV.lig_0>
-4.28148

>  <SCORE.INTRA.VDW>
0

>  <SCORE.INTRA.VDW.0>
0

>  <SCORE.INTRA.norm>
0

>  <SCORE.RESTR>
0

>  <SCORE.RESTR.CAVITY>
0

>  <SCORE.RESTR.norm>
0

>  <SCORE.SYSTEM>
0

>  <SCORE.SYSTEM.CONST>
0

>  <SCORE.SYSTEM.DIHEDRAL>
0

>  <SCORE.SYSTEM.SOLV>
0

>  <SCORE.SYSTEM.norm>
0

>  <SCORE.heavy>
10

>  <SCORE.norm>
-1.86052

>  <RMSD>
0.863

$$$$
ligand
 OpenBabel11021811423D
libRbt.so/2013.1/901 2013/11/27
 10 11  0  0  0  0  0  0  0  0999 V2000
   11.7989   10.9973    8.4324 N   0  0  0  0  0  0  0  0  0  0  0  0
   11.4814   12.3181    8.6778 C   0  0  0  0  0  0  0  0  0  0  0  0
   11.1155   13.1554    7.6993 N   0  0  0  0  0  0  0  0  0  0  0  0
   11.0965   12.5695    6.4690 C   0  0  0  0  0  0  0  0  0  0  0  0
   11.4044   11.2543    6.1556 C   0  0  0  0  0  0  0  0  0  0  0  0
   11.7914   10.3593    7.1899 C   0  0  0  0  0  0  0  0  0  0  0  0
   12.1021    9.1692    7.1382 O   0  0  0  0  0  0  0  0  0  0  0  0
   11.2567   11.0852    4.7999 N   0  0  0  0  0  0  0  0  0  0  0  0
   10.8646   12.2824    4.3044 C   0  0  0  0  0  0  0  0  0  0  0  0
   10.7577   13.2185    5.3063 N   0  0  0  0  0  0  0  0  0  0  0  0
  1  2  1  0  0  0  0
  1  6  1  0  0  0  0
  2  3  2  0  0  0  0
  3  4  1  0  0  0  0
  4  5  2  0  0  0  0
  4 10  1  0  0  0  0
  5  6  1  0  0  0  0
  5  8  1  0  0  0  0
  6  7  2  0  0  0  0
  8  9  1  0  0  0  0
  9 10  2  0  0  0  0
M  END
>  <CHROM.1>
11.38099685,11.59488947,6.62951273,0.45262925,-1.27629635,1.08015916

>  <Name>
ligand

>  <RI>
0

>  <Rbt.Current_Directory>
/home/itssahil/PROJECTS/Mol_Feturizer/New_Systems/rnas/2EEU

>  <Rbt.Executable>
rbdock ($Id: //depot/dev/client3/rdock/2013.1/src/exe/rbdock.cxx#4 $)

>  <Rbt.Library>
libRbt.so (2013.1, Build901 2013/11/27)

>  <Rbt.Parameter_File>
/export/apps/rDock/src/rDock_2013.1_src/data/scripts/dock_solv.prm

>  <Rbt.Receptor>
prm/blind_docking_60.prm

>  <SCORE>
-18.6008

>  <SCORE.INTER>
-18.6008

>  <SCORE.INTER.CONST>
1

>  <SCORE.INTER.POLAR>
0

>  <SCORE.INTER.ROT>
0

>  <SCORE.INTER.SOLV>
3.56611

>  <SCORE.INTER.VDW>
-17.1892

>  <SCORE.INTER.norm>
-1.86008

>  <SCORE.INTRA>
0

>  <SCORE.INTRA.DIHEDRAL>
0

>  <SCORE.INTRA.DIHEDRAL.0>
0

>  <SCORE.INTRA.POLAR>
0

>  <SCORE.INTRA.POLAR.0>
0

>  <SCORE.INTRA.REPUL>
0

>  <SCORE.INTRA.REPUL.0>
0

>  <SCORE.INTRA.SOLV>
0

>  <SCORE.INTRA.SOLV.lig_0>
-4.28148

>  <SCORE.INTRA.VDW>
0

>  <SCORE.INTRA.VDW.0>
0

>  <SCORE.INTRA.norm>
0

>  <SCORE.RESTR>
0

>  <SCORE.RESTR.CAVITY>
0

>  <SCORE.RESTR.norm>
0

>  <SCORE.SYSTEM>
0

>  <SCORE.SYSTEM.CONST>
0

>  <SCORE.SYSTEM.DIHEDRAL>
0

>  <SCORE.SYSTEM.SOLV>
0

>  <SCORE.SYSTEM.norm>
0

>  <SCORE.heavy>
10

>  <SCORE.norm>
-1.86008

>  <RMSD>
0.863

$$$$
ligand
 OpenBabel11021811423D
libRbt.so/2013.1/901 2013/11/27
 10 11  0  0  0  0  0  0  0  0999 V2000
   11.8057   10.9957    8.4253 N   0  0  0  0  0  0  0  0  0  0  0  0
   11.4899   12.3153    8.6790 C   0  0  0  0  0  0  0  0  0  0  0  0
   11.1190   13.1576    7.7068 N   0  0  0  0  0  0  0  0  0  0  0  0
   11.0934   12.5779    6.4736 C   0  0  0  0  0  0  0  0  0  0  0  0
   11.3993   11.2642    6.1520 C   0  0  0  0  0  0  0  0  0  0  0  0
   11.7915   10.3639    7.1797 C   0  0  0  0  0  0  0  0  0  0  0  0
   12.1016    9.1740    7.1204 O   0  0  0  0  0  0  0  0  0  0  0  0
   11.2444   11.1020    4.7962 N   0  0  0  0  0  0  0  0  0  0  0  0
   10.8499   12.3017    4.3088 C   0  0  0  0  0  0  0  0  0  0  0  0
   10.7486   13.2328    5.3161 N   0  0  0  0  0  0  0  0  0  0  0  0
  1  2  1  0  0  0  0
  1  6  1  0  0  0  0
  2  3  2  0  0  0  0
  3  4  1  0  0  0  0
  4  5  2  0  0  0  0
  4 10  1  0  0  0  0
  5  6  1  0  0  0  0
  5  8  1  0  0  0  0
  6  7  2  0  0  0  0
  8  9  1  0  0  0  0
  9 10  2  0  0  0  0
M  END
>  <CHROM.1>
11.37843718,11.60241153,6.62771544,0.43628231,-1.27399026,1.06956184

>  <Name>
ligand

>  <RI>
0

>  <Rbt.Current_Directory>
/home/itssahil/PROJECTS/Mol_Feturizer/New_Systems/rnas/2EEU

>  <Rbt.Executable>
rbdock ($Id: //depot/dev/client3/rdock/2013.1/src/exe/rbdock.cxx#4 $)

>  <Rbt.Library>
libRbt.so (2013.1, Build901 2013/11/27)

>  <Rbt.Parameter_File>
/export/apps/rDock/src/rDock_2013.1_src/data/scripts/dock_solv.prm

>  <Rbt.Receptor>
prm/blind_docking_60.prm

>  <SCORE>
-18.6086

>  <SCORE.INTER>
-18.6086

>  <SCORE.INTER.CONST>
1

>  <SCORE.INTER.POLAR>
0

>  <SCORE.INTER.ROT>
0

>  <SCORE.INTER.SOLV>
3.5651

>  <SCORE.INTER.VDW>
-17.1941

>  <SCORE.INTER.norm>
-1.86086

>  <SCORE.INTRA>
0

>  <SCORE.INTRA.DIHEDRAL>
0

>  <SCORE.INTRA.DIHEDRAL.0>
0

>  <SCORE.INTRA.POLAR>
0

>  <SCORE.INTRA.POLAR.0>
0

>  <SCORE.INTRA.REPUL>
0

>  <SCORE.INTRA.REPUL.0>
0

>  <SCORE.INTRA.SOLV>
0

>  <SCORE.INTRA.SOLV.lig_0>
-4.28148

>  <SCORE.INTRA.VDW>
0

>  <SCORE.INTRA.VDW.0>
0

>  <SCORE.INTRA.norm>
0

>  <SCORE.RESTR>
0

>  <SCORE.RESTR.CAVITY>
0

>  <SCORE.RESTR.norm>
0

>  <SCORE.SYSTEM>
0

>  <SCORE.SYSTEM.CONST>
0

>  <SCORE.SYSTEM.DIHEDRAL>
0

>  <SCORE.SYSTEM.SOLV>
0

>  <SCORE.SYSTEM.norm>
0

>  <SCORE.heavy>
10

>  <SCORE.norm>
-1.86086

>  <RMSD>
0.863

$$$$
ligand
 OpenBabel11021811423D
libRbt.so/2013.1/901 2013/11/27
 10 11  0  0  0  0  0  0  0  0999 V2000
   11.7978   10.9964    8.4318 N   0  0  0  0  0  0  0  0  0  0  0  0
   11.4813   12.3170    8.6794 C   0  0  0  0  0  0  0  0  0  0  0  0
   11.1203   13.1574    7.7018 N   0  0  0  0  0  0  0  0  0  0  0  0
   11.1052   12.5748    6.4699 C   0  0  0  0  0  0  0  0  0  0  0  0
   11.4124   11.2599    6.1542 C   0  0  0  0  0  0  0  0  0  0  0  0
   11.7942   10.3617    7.1876 C   0  0  0  0  0  0  0  0  0  0  0  0
   12.1033    9.1713    7.1341 O   0  0  0  0  0  0  0  0  0  0  0  0
   11.2697   11.0946    4.7975 N   0  0  0  0  0  0  0  0  0  0  0  0
   10.8812   12.2936    4.3036 C   0  0  0  0  0  0  0  0  0  0  0  0
   10.7718   13.2273    5.3076 N   0  0  0  0  0  0  0  0  0  0  0  0
  1  2  1  0  0  0  0
  1  6  1  0  0  0  0
  2  3  2  0  0  0  0
  3  4  1  0  0  0  0
  4  5  2  0  0  0  0
  4 10  1  0  0  0  0
  5  6  1  0  0  0  0
  5  8  1  0  0  0  0
  6  7  2  0  0  0  0
  8  9  1  0  0  0  0
  9 10  2  0  0  0  0
M  END
>  <CHROM.1>
11.38767272,11.59930176,6.62892331,0.46204660,-1.27936221,1.09179318

>  <Name>
ligand

>  <RI>
0

>  <Rbt.Current_Directory>
/home/itssahil/PROJECTS/Mol_Feturizer/New_Systems/rnas/2EEU

>  <Rbt.Executable>
rbdock ($Id: //depot/dev/client3/rdock/2013.1/src/exe/rbdock.cxx#4 $)

>  <Rbt.Library>
libRbt.so (2013.1, Build901 2013/11/27)

>  <Rbt.Parameter_File>
/export/apps/rDock/src/rDock_2013.1_src/data/scripts/dock_solv.prm

>  <Rbt.Receptor>
prm/pocket_docking_6.prm

>  <SCORE>
-18.6044

>  <SCORE.INTER>
-18.6044

>  <SCORE.INTER.CONST>
1

>  <SCORE.INTER.POLAR>
0

>  <SCORE.INTER.ROT>
0

>  <SCORE.INTER.SOLV>
3.57124

>  <SCORE.INTER.VDW>
-17.1933

>  <SCORE.INTER.norm>
-1.86044

>  <SCORE.INTRA>
0

>  <SCORE.INTRA.DIHEDRAL>
0

>  <SCORE.INTRA.DIHEDRAL.0>
0

>  <SCORE.INTRA.POLAR>
0

>  <SCORE.INTRA.POLAR.0>
0

>  <SCORE.INTRA.REPUL>
0

>  <SCORE.INTRA.REPUL.0>
0

>  <SCORE.INTRA.SOLV>
0

>  <SCORE.INTRA.SOLV.lig_0>
-4.28148

>  <SCORE.INTRA.VDW>
0

>  <SCORE.INTRA.VDW.0>
0

>  <SCORE.INTRA.norm>
0

>  <SCORE.RESTR>
0

>  <SCORE.RESTR.CAVITY>
0

>  <SCORE.RESTR.norm>
0

>  <SCORE.SYSTEM>
0

>  <SCORE.SYSTEM.CONST>
0

>  <SCORE.SYSTEM.DIHEDRAL>
0

>  <SCORE.SYSTEM.SOLV>
0

>  <SCORE.SYSTEM.norm>
0

>  <SCORE.heavy>
10

>  <SCORE.norm>
-1.86044

>  <RMSD>
0.863

$$$$
ligand
 OpenBabel11021811423D
libRbt.so/2013.1/901 2013/11/27
 10 11  0  0  0  0  0  0  0  0999 V2000
   11.8141   10.9759    8.4273 N   0  0  0  0  0  0  0  0  0  0  0  0
   11.4883   12.2930    8.6817 C   0  0  0  0  0  0  0  0  0  0  0  0
   11.1130   13.1334    7.7095 N   0  0  0  0  0  0  0  0  0  0  0  0
   11.0937   12.5547    6.4758 C   0  0  0  0  0  0  0  0  0  0  0  0
   11.4097   11.2435    6.1535 C   0  0  0  0  0  0  0  0  0  0  0  0
   11.8066   10.3452    7.1811 C   0  0  0  0  0  0  0  0  0  0  0  0
   12.1255    9.1577    7.1213 O   0  0  0  0  0  0  0  0  0  0  0  0
   11.2583   11.0815    4.7974 N   0  0  0  0  0  0  0  0  0  0  0  0
   10.8559   12.2787    4.3104 C   0  0  0  0  0  0  0  0  0  0  0  0
   10.7461   13.2082    5.3183 N   0  0  0  0  0  0  0  0  0  0  0  0
  1  2  1  0  0  0  0
  1  6  1  0  0  0  0
  2  3  2  0  0  0  0
  3  4  1  0  0  0  0
  4  5  2  0  0  0  0
  4 10  1  0  0  0  0
  5  6  1  0  0  0  0
  5  8  1  0  0  0  0
  6  7  2  0  0  0  0
  8  9  1  0  0  0  0
  9 10  2  0  0  0  0
M  END
>  <CHROM.1>
11.38553570,11.58116255,6.62953551,0.45304227,-1.26841342,1.08648449

>  <Name>
ligand

>  <RI>
0

>  <Rbt.Current_Directory>
/home/itssahil/PROJECTS/Mol_Feturizer/New_Systems/rnas/2EEU

>  <Rbt.Executable>
rbdock ($Id: //depot/dev/client3/rdock/2013.1/src/exe/rbdock.cxx#4 $)

>  <Rbt.Library>
libRbt.so (2013.1, Build901 2013/11/27)

>  <Rbt.Parameter_File>
/export/apps/rDock/src/rDock_2013.1_src/data/scripts/dock_solv.prm

>  <Rbt.Receptor>
prm/pocket_docking_6.prm

>  <SCORE>
-18.5978

>  <SCORE.INTER>
-18.5978

>  <SCORE.INTER.CONST>
1

>  <SCORE.INTER.POLAR>
0

>  <SCORE.INTER.ROT>
0

>  <SCORE.INTER.SOLV>
3.54152

>  <SCORE.INTER.VDW>
-17.179

>  <SCORE.INTER.norm>
-1.85978

>  <SCORE.INTRA>
0

>  <SCORE.INTRA.DIHEDRAL>
0

>  <SCORE.INTRA.DIHEDRAL.0>
0

>  <SCORE.INTRA.POLAR>
0

>  <SCORE.INTRA.POLAR.0>
0

>  <SCORE.INTRA.REPUL>
0

>  <SCORE.INTRA.REPUL.0>
0

>  <SCORE.INTRA.SOLV>
0

>  <SCORE.INTRA.SOLV.lig_0>
-4.28148

>  <SCORE.INTRA.VDW>
0

>  <SCORE.INTRA.VDW.0>
0

>  <SCORE.INTRA.norm>
0

>  <SCORE.RESTR>
0

>  <SCORE.RESTR.CAVITY>
0

>  <SCORE.RESTR.norm>
0

>  <SCORE.SYSTEM>
0

>  <SCORE.SYSTEM.CONST>
0

>  <SCORE.SYSTEM.DIHEDRAL>
0

>  <SCORE.SYSTEM.SOLV>
0

>  <SCORE.SYSTEM.norm>
0

>  <SCORE.heavy>
10

>  <SCORE.norm>
-1.85978

>  <RMSD>
0.863

$$$$
ligand
 OpenBabel11021811423D
libRbt.so/2013.1/901 2013/11/27
 10 11  0  0  0  0  0  0  0  0999 V2000
   11.8001   10.9935    8.4261 N   0  0  0  0  0  0  0  0  0  0  0  0
   11.4862   12.3137    8.6794 C   0  0  0  0  0  0  0  0  0  0  0  0
   11.1184   13.1567    7.7066 N   0  0  0  0  0  0  0  0  0  0  0  0
   11.0936   12.5771    6.4734 C   0  0  0  0  0  0  0  0  0  0  0  0
   11.3977   11.2629    6.1521 C   0  0  0  0  0  0  0  0  0  0  0  0
   11.7867   10.3619    7.1804 C   0  0  0  0  0  0  0  0  0  0  0  0
   12.0948    9.1714    7.1215 O   0  0  0  0  0  0  0  0  0  0  0  0
   11.2446   11.1010    4.7961 N   0  0  0  0  0  0  0  0  0  0  0  0
   10.8530   12.3015    4.3082 C   0  0  0  0  0  0  0  0  0  0  0  0
   10.7518   13.2327    5.3153 N   0  0  0  0  0  0  0  0  0  0  0  0
  1  2  1  0  0  0  0
  1  6  1  0  0  0  0
  2  3  2  0  0  0  0
  3  4  1  0  0  0  0
  4  5  2  0  0  0  0
  4 10  1  0  0  0  0
  5  6  1  0  0  0  0
  5  8  1  0  0  0  0
  6  7  2  0  0  0  0
  8  9  1  0  0  0  0
  9 10  2  0  0  0  0
M  END
>  <CHROM.1>
11.37668181,11.60109716,6.62785189,0.43799285,-1.27629954,1.07125615

>  <Name>
ligand

>  <RI>
0

>  <Rbt.Current_Directory>
/home/itssahil/PROJECTS/Mol_Feturizer/New_Systems/rnas/2EEU

>  <Rbt.Executable>
rbdock ($Id: //depot/dev/client3/rdock/2013.1/src/exe/rbdock.cxx#4 $)

>  <Rbt.Library>
libRbt.so (2013.1, Build901 2013/11/27)

>  <Rbt.Parameter_File>
/export/apps/rDock/src/rDock_2013.1_src/data/scripts/dock_solv.prm

>  <Rbt.Receptor>
prm/blind_docking_100.prm

>  <SCORE>
-18.6074

>  <SCORE.INTER>
-18.6074

>  <SCORE.INTER.CONST>
1

>  <SCORE.INTER.POLAR>
0

>  <SCORE.INTER.ROT>
0

>  <SCORE.INTER.SOLV>
3.5749

>  <SCORE.INTER.VDW>
-17.1965

>  <SCORE.INTER.norm>
-1.86074

>  <SCORE.INTRA>
0

>  <SCORE.INTRA.DIHEDRAL>
0

>  <SCORE.INTRA.DIHEDRAL.0>
0

>  <SCORE.INTRA.POLAR>
0

>  <SCORE.INTRA.POLAR.0>
0

>  <SCORE.INTRA.REPUL>
0

>  <SCORE.INTRA.REPUL.0>
0

>  <SCORE.INTRA.SOLV>
0

>  <SCORE.INTRA.SOLV.lig_0>
-4.28148

>  <SCORE.INTRA.VDW>
0

>  <SCORE.INTRA.VDW.0>
0

>  <SCORE.INTRA.norm>
0

>  <SCORE.RESTR>
0

>  <SCORE.RESTR.CAVITY>
0

>  <SCORE.RESTR.norm>
0

>  <SCORE.SYSTEM>
0

>  <SCORE.SYSTEM.CONST>
0

>  <SCORE.SYSTEM.DIHEDRAL>
0

>  <SCORE.SYSTEM.SOLV>
0

>  <SCORE.SYSTEM.norm>
0

>  <SCORE.heavy>
10

>  <SCORE.norm>
-1.86074

>  <RMSD>
0.864

$$$$
ligand
 OpenBabel11021811423D
libRbt.so/2013.1/901 2013/11/27
 10 11  0  0  0  0  0  0  0  0999 V2000
   11.9534   11.3966    8.4387 N   0  0  0  0  0  0  0  0  0  0  0  0
   11.7050   12.7493    8.5573 C   0  0  0  0  0  0  0  0  0  0  0  0
   11.3118   13.4943    7.5168 N   0  0  0  0  0  0  0  0  0  0  0  0
   11.1918   12.7828    6.3606 C   0  0  0  0  0  0  0  0  0  0  0  0
   11.4266   11.4289    6.1745 C   0  0  0  0  0  0  0  0  0  0  0  0
   11.8421   10.6316    7.2754 C   0  0  0  0  0  0  0  0  0  0  0  0
   12.1011    9.4296    7.3353 O   0  0  0  0  0  0  0  0  0  0  0  0
   11.1870   11.1242    4.8561 N   0  0  0  0  0  0  0  0  0  0  0  0
   10.8124   12.2790    4.2573 C   0  0  0  0  0  0  0  0  0  0  0  0
   10.8064   13.3200    5.1562 N   0  0  0  0  0  0  0  0  0  0  0  0
  1  2  1  0  0  0  0
  1  6  1  0  0  0  0
  2  3  2  0  0  0  0
  3  4  1  0  0  0  0
  4  5  2  0  0  0  0
  4 10  1  0  0  0  0
  5  6  1  0  0  0  0
  5  8  1  0  0  0  0
  6  7  2  0  0  0  0
  8  9  1  0  0  0  0
  9 10  2  0  0  0  0
M  END
>  <CHROM.1>
11.44670813,11.81853958,6.60916675,0.19635546,-1.27255798,0.72728880

>  <Name>
ligand

>  <RI>
0

>  <Rbt.Current_Directory>
/home/itssahil/PROJECTS/Mol_Feturizer/New_Systems/rnas/2EEU

>  <Rbt.Executable>
rbdock ($Id: //depot/dev/client3/rdock/2013.1/src/exe/rbdock.cxx#4 $)

>  <Rbt.Library>
libRbt.so (2013.1, Build901 2013/11/27)

>  <Rbt.Parameter_File>
/export/apps/rDock/src/rDock_2013.1_src/data/scripts/dock_solv.prm

>  <Rbt.Receptor>
prm/blind_docking_40.prm

>  <SCORE>
-18.479

>  <SCORE.INTER>
-18.479

>  <SCORE.INTER.CONST>
1

>  <SCORE.INTER.POLAR>
0

>  <SCORE.INTER.ROT>
0

>  <SCORE.INTER.SOLV>
3.46279

>  <SCORE.INTER.VDW>
-17.0736

>  <SCORE.INTER.norm>
-1.8479

>  <SCORE.INTRA>
0

>  <SCORE.INTRA.DIHEDRAL>
0

>  <SCORE.INTRA.DIHEDRAL.0>
0

>  <SCORE.INTRA.POLAR>
0

>  <SCORE.INTRA.POLAR.0>
0

>  <SCORE.INTRA.REPUL>
0

>  <SCORE.INTRA.REPUL.0>
0

>  <SCORE.INTRA.SOLV>
0

>  <SCORE.INTRA.SOLV.lig_0>
-4.28148

>  <SCORE.INTRA.VDW>
0

>  <SCORE.INTRA.VDW.0>
0

>  <SCORE.INTRA.norm>
0

>  <SCORE.RESTR>
0

>  <SCORE.RESTR.CAVITY>
0

>  <SCORE.RESTR.norm>
0

>  <SCORE.SYSTEM>
0

>  <SCORE.SYSTEM.CONST>
0

>  <SCORE.SYSTEM.DIHEDRAL>
0

>  <SCORE.SYSTEM.SOLV>
0

>  <SCORE.SYSTEM.norm>
0

>  <SCORE.heavy>
10

>  <SCORE.norm>
-1.8479

>  <RMSD>
0.864

$$$$
ligand
 OpenBabel11021811423D
libRbt.so/2013.1/901 2013/11/27
 10 11  0  0  0  0  0  0  0  0999 V2000
   11.7902   10.9960    8.4316 N   0  0  0  0  0  0  0  0  0  0  0  0
   11.4664   12.3145    8.6815 C   0  0  0  0  0  0  0  0  0  0  0  0
   11.1022   13.1549    7.7051 N   0  0  0  0  0  0  0  0  0  0  0  0
   11.0918   12.5747    6.4720 C   0  0  0  0  0  0  0  0  0  0  0  0
   11.4063   11.2621    6.1540 C   0  0  0  0  0  0  0  0  0  0  0  0
   11.7915   10.3638    7.1861 C   0  0  0  0  0  0  0  0  0  0  0  0
   12.1070    9.1752    7.1306 O   0  0  0  0  0  0  0  0  0  0  0  0
   11.2662   11.0988    4.7968 N   0  0  0  0  0  0  0  0  0  0  0  0
   10.8720   12.2967    4.3049 C   0  0  0  0  0  0  0  0  0  0  0  0
   10.7564   13.2278    5.3106 N   0  0  0  0  0  0  0  0  0  0  0  0
  1  2  1  0  0  0  0
  1  6  1  0  0  0  0
  2  3  2  0  0  0  0
  3  4  1  0  0  0  0
  4  5  2  0  0  0  0
  4 10  1  0  0  0  0
  5  6  1  0  0  0  0
  5  8  1  0  0  0  0
  6  7  2  0  0  0  0
  8  9  1  0  0  0  0
  9 10  2  0  0  0  0
M  END
>  <CHROM.1>
11.37916454,11.60039448,6.62941810,0.47430061,-1.27523814,1.10553578

>  <Name>
ligand

>  <RI>
0

>  <Rbt.Current_Directory>
/home/itssahil/PROJECTS/Mol_Feturizer/New_Systems/rnas/2EEU

>  <Rbt.Executable>
rbdock ($Id: //depot/dev/client3/rdock/2013.1/src/exe/rbdock.cxx#4 $)

>  <Rbt.Library>
libRbt.so (2013.1, Build901 2013/11/27)

>  <Rbt.Parameter_File>
/export/apps/rDock/src/rDock_2013.1_src/data/scripts/dock_solv.prm

>  <Rbt.Receptor>
prm/blind_docking_60.prm

>  <SCORE>
-18.6007

>  <SCORE.INTER>
-18.6007

>  <SCORE.INTER.CONST>
1

>  <SCORE.INTER.POLAR>
0

>  <SCORE.INTER.ROT>
0

>  <SCORE.INTER.SOLV>
3.56773

>  <SCORE.INTER.VDW>
-17.1897

>  <SCORE.INTER.norm>
-1.86007

>  <SCORE.INTRA>
0

>  <SCORE.INTRA.DIHEDRAL>
0

>  <SCORE.INTRA.DIHEDRAL.0>
0

>  <SCORE.INTRA.POLAR>
0

>  <SCORE.INTRA.POLAR.0>
0

>  <SCORE.INTRA.REPUL>
0

>  <SCORE.INTRA.REPUL.0>
0

>  <SCORE.INTRA.SOLV>
0

>  <SCORE.INTRA.SOLV.lig_0>
-4.28148

>  <SCORE.INTRA.VDW>
0

>  <SCORE.INTRA.VDW.0>
0

>  <SCORE.INTRA.norm>
0

>  <SCORE.RESTR>
0

>  <SCORE.RESTR.CAVITY>
0

>  <SCORE.RESTR.norm>
0

>  <SCORE.SYSTEM>
0

>  <SCORE.SYSTEM.CONST>
0

>  <SCORE.SYSTEM.DIHEDRAL>
0

>  <SCORE.SYSTEM.SOLV>
0

>  <SCORE.SYSTEM.norm>
0

>  <SCORE.heavy>
10

>  <SCORE.norm>
-1.86007

>  <RMSD>
0.864

$$$$
ligand
 OpenBabel11021811423D
libRbt.so/2013.1/901 2013/11/27
 10 11  0  0  0  0  0  0  0  0999 V2000
   11.8142   10.9752    8.4258 N   0  0  0  0  0  0  0  0  0  0  0  0
   11.4859   12.2913    8.6820 C   0  0  0  0  0  0  0  0  0  0  0  0
   11.1092   13.1325    7.7111 N   0  0  0  0  0  0  0  0  0  0  0  0
   11.0913   12.5556    6.4765 C   0  0  0  0  0  0  0  0  0  0  0  0
   11.4098   11.2455    6.1523 C   0  0  0  0  0  0  0  0  0  0  0  0
   11.8082   10.3464    7.1786 C   0  0  0  0  0  0  0  0  0  0  0  0
   12.1292    9.1595    7.1172 O   0  0  0  0  0  0  0  0  0  0  0  0
   11.2590   11.0851    4.7959 N   0  0  0  0  0  0  0  0  0  0  0  0
   10.8545   12.2823    4.3106 C   0  0  0  0  0  0  0  0  0  0  0  0
   10.7428   13.2101    5.3198 N   0  0  0  0  0  0  0  0  0  0  0  0
  1  2  1  0  0  0  0
  1  6  1  0  0  0  0
  2  3  2  0  0  0  0
  3  4  1  0  0  0  0
  4  5  2  0  0  0  0
  4 10  1  0  0  0  0
  5  6  1  0  0  0  0
  5  8  1  0  0  0  0
  6  7  2  0  0  0  0
  8  9  1  0  0  0  0
  9 10  2  0  0  0  0
M  END
>  <CHROM.1>
11.38491360,11.58232800,6.62883359,0.45656283,-1.26688051,1.09131651

>  <Name>
ligand

>  <RI>
0

>  <Rbt.Current_Directory>
/home/itssahil/PROJECTS/Mol_Feturizer/New_Systems/rnas/2EEU

>  <Rbt.Executable>
rbdock ($Id: //depot/dev/client3/rdock/2013.1/src/exe/rbdock.cxx#4 $)

>  <Rbt.Library>
libRbt.so (2013.1, Build901 2013/11/27)

>  <Rbt.Parameter_File>
/export/apps/rDock/src/rDock_2013.1_src/data/scripts/dock_solv.prm

>  <Rbt.Receptor>
prm/pocket_docking_3.prm

>  <SCORE>
-18.597

>  <SCORE.INTER>
-18.597

>  <SCORE.INTER.CONST>
1

>  <SCORE.INTER.POLAR>
0

>  <SCORE.INTER.ROT>
0

>  <SCORE.INTER.SOLV>
3.53849

>  <SCORE.INTER.VDW>
-17.1775

>  <SCORE.INTER.norm>
-1.8597

>  <SCORE.INTRA>
0

>  <SCORE.INTRA.DIHEDRAL>
0

>  <SCORE.INTRA.DIHEDRAL.0>
0

>  <SCORE.INTRA.POLAR>
0

>  <SCORE.INTRA.POLAR.0>
0

>  <SCORE.INTRA.REPUL>
0

>  <SCORE.INTRA.REPUL.0>
0

>  <SCORE.INTRA.SOLV>
0

>  <SCORE.INTRA.SOLV.lig_0>
-4.28148

>  <SCORE.INTRA.VDW>
0

>  <SCORE.INTRA.VDW.0>
0

>  <SCORE.INTRA.norm>
0

>  <SCORE.RESTR>
0

>  <SCORE.RESTR.CAVITY>
0

>  <SCORE.RESTR.norm>
0

>  <SCORE.SYSTEM>
0

>  <SCORE.SYSTEM.CONST>
0

>  <SCORE.SYSTEM.DIHEDRAL>
0

>  <SCORE.SYSTEM.SOLV>
0

>  <SCORE.SYSTEM.norm>
0

>  <SCORE.heavy>
10

>  <SCORE.norm>
-1.8597

>  <RMSD>
0.864

$$$$
ligand
 OpenBabel11021811423D
libRbt.so/2013.1/901 2013/11/27
 10 11  0  0  0  0  0  0  0  0999 V2000
   11.8086   10.9748    8.4262 N   0  0  0  0  0  0  0  0  0  0  0  0
   11.4807   12.2909    8.6831 C   0  0  0  0  0  0  0  0  0  0  0  0
   11.1049   13.1329    7.7125 N   0  0  0  0  0  0  0  0  0  0  0  0
   11.0872   12.5568    6.4776 C   0  0  0  0  0  0  0  0  0  0  0  0
   11.4053   11.2467    6.1527 C   0  0  0  0  0  0  0  0  0  0  0  0
   11.8028   10.3468    7.1787 C   0  0  0  0  0  0  0  0  0  0  0  0
   12.1233    9.1598    7.1166 O   0  0  0  0  0  0  0  0  0  0  0  0
   11.2550   11.0873    4.7961 N   0  0  0  0  0  0  0  0  0  0  0  0
   10.8513   12.2850    4.3114 C   0  0  0  0  0  0  0  0  0  0  0  0
   10.7395   13.2122    5.3212 N   0  0  0  0  0  0  0  0  0  0  0  0
  1  2  1  0  0  0  0
  1  6  1  0  0  0  0
  2  3  2  0  0  0  0
  3  4  1  0  0  0  0
  4  5  2  0  0  0  0
  4 10  1  0  0  0  0
  5  6  1  0  0  0  0
  5  8  1  0  0  0  0
  6  7  2  0  0  0  0
  8  9  1  0  0  0  0
  9 10  2  0  0  0  0
M  END
>  <CHROM.1>
11.38034924,11.58330664,6.62945072,0.45719599,-1.26748994,1.09254970

>  <Name>
ligand

>  <RI>
0

>  <Rbt.Current_Directory>
/home/itssahil/PROJECTS/Mol_Feturizer/New_Systems/rnas/2EEU

>  <Rbt.Executable>
rbdock ($Id: //depot/dev/client3/rdock/2013.1/src/exe/rbdock.cxx#4 $)

>  <Rbt.Library>
libRbt.so (2013.1, Build901 2013/11/27)

>  <Rbt.Parameter_File>
/export/apps/rDock/src/rDock_2013.1_src/data/scripts/dock_solv.prm

>  <Rbt.Receptor>
prm/pocket_docking_4.prm

>  <SCORE>
-18.5965

>  <SCORE.INTER>
-18.5965

>  <SCORE.INTER.CONST>
1

>  <SCORE.INTER.POLAR>
0

>  <SCORE.INTER.ROT>
0

>  <SCORE.INTER.SOLV>
3.54555

>  <SCORE.INTER.VDW>
-17.1795

>  <SCORE.INTER.norm>
-1.85965

>  <SCORE.INTRA>
0

>  <SCORE.INTRA.DIHEDRAL>
0

>  <SCORE.INTRA.DIHEDRAL.0>
0

>  <SCORE.INTRA.POLAR>
0

>  <SCORE.INTRA.POLAR.0>
0

>  <SCORE.INTRA.REPUL>
0

>  <SCORE.INTRA.REPUL.0>
0

>  <SCORE.INTRA.SOLV>
0

>  <SCORE.INTRA.SOLV.lig_0>
-4.28148

>  <SCORE.INTRA.VDW>
0

>  <SCORE.INTRA.VDW.0>
0

>  <SCORE.INTRA.norm>
0

>  <SCORE.RESTR>
0

>  <SCORE.RESTR.CAVITY>
0

>  <SCORE.RESTR.norm>
0

>  <SCORE.SYSTEM>
0

>  <SCORE.SYSTEM.CONST>
0

>  <SCORE.SYSTEM.DIHEDRAL>
0

>  <SCORE.SYSTEM.SOLV>
0

>  <SCORE.SYSTEM.norm>
0

>  <SCORE.heavy>
10

>  <SCORE.norm>
-1.85965

>  <RMSD>
0.864

$$$$
ligand
 OpenBabel11021811423D
libRbt.so/2013.1/901 2013/11/27
 10 11  0  0  0  0  0  0  0  0999 V2000
   11.8037   10.9972    8.4270 N   0  0  0  0  0  0  0  0  0  0  0  0
   11.4882   12.3175    8.6780 C   0  0  0  0  0  0  0  0  0  0  0  0
   11.1213   13.1589    7.7036 N   0  0  0  0  0  0  0  0  0  0  0  0
   11.0992   12.5777    6.4710 C   0  0  0  0  0  0  0  0  0  0  0  0
   11.4049   11.2634    6.1520 C   0  0  0  0  0  0  0  0  0  0  0  0
   11.7929   10.3640    7.1821 C   0  0  0  0  0  0  0  0  0  0  0  0
   12.1021    9.1737    7.1253 O   0  0  0  0  0  0  0  0  0  0  0  0
   11.2543   11.0996    4.7959 N   0  0  0  0  0  0  0  0  0  0  0  0
   10.8625   12.2991    4.3058 C   0  0  0  0  0  0  0  0  0  0  0  0
   10.7588   13.2316    5.3116 N   0  0  0  0  0  0  0  0  0  0  0  0
  1  2  1  0  0  0  0
  1  6  1  0  0  0  0
  2  3  2  0  0  0  0
  3  4  1  0  0  0  0
  4  5  2  0  0  0  0
  4 10  1  0  0  0  0
  5  6  1  0  0  0  0
  5  8  1  0  0  0  0
  6  7  2  0  0  0  0
  8  9  1  0  0  0  0
  9 10  2  0  0  0  0
M  END
>  <CHROM.1>
11.38283884,11.60217513,6.62726008,0.44458547,-1.27637623,1.07627607

>  <Name>
ligand

>  <RI>
0

>  <Rbt.Current_Directory>
/home/itssahil/PROJECTS/Mol_Feturizer/New_Systems/rnas/2EEU

>  <Rbt.Executable>
rbdock ($Id: //depot/dev/client3/rdock/2013.1/src/exe/rbdock.cxx#4 $)

>  <Rbt.Library>
libRbt.so (2013.1, Build901 2013/11/27)

>  <Rbt.Parameter_File>
/export/apps/rDock/src/rDock_2013.1_src/data/scripts/dock_solv.prm

>  <Rbt.Receptor>
prm/pocket_docking_6.prm

>  <SCORE>
-18.6104

>  <SCORE.INTER>
-18.6104

>  <SCORE.INTER.CONST>
1

>  <SCORE.INTER.POLAR>
0

>  <SCORE.INTER.ROT>
0

>  <SCORE.INTER.SOLV>
3.56784

>  <SCORE.INTER.VDW>
-17.1962

>  <SCORE.INTER.norm>
-1.86104

>  <SCORE.INTRA>
0

>  <SCORE.INTRA.DIHEDRAL>
0

>  <SCORE.INTRA.DIHEDRAL.0>
0

>  <SCORE.INTRA.POLAR>
0

>  <SCORE.INTRA.POLAR.0>
0

>  <SCORE.INTRA.REPUL>
0

>  <SCORE.INTRA.REPUL.0>
0

>  <SCORE.INTRA.SOLV>
0

>  <SCORE.INTRA.SOLV.lig_0>
-4.28148

>  <SCORE.INTRA.VDW>
0

>  <SCORE.INTRA.VDW.0>
0

>  <SCORE.INTRA.norm>
0

>  <SCORE.RESTR>
0

>  <SCORE.RESTR.CAVITY>
0

>  <SCORE.RESTR.norm>
0

>  <SCORE.SYSTEM>
0

>  <SCORE.SYSTEM.CONST>
0

>  <SCORE.SYSTEM.DIHEDRAL>
0

>  <SCORE.SYSTEM.SOLV>
0

>  <SCORE.SYSTEM.norm>
0

>  <SCORE.heavy>
10

>  <SCORE.norm>
-1.86104

>  <RMSD>
0.864

$$$$
ligand
 OpenBabel11021811423D
libRbt.so/2013.1/901 2013/11/27
 10 11  0  0  0  0  0  0  0  0999 V2000
   11.8003   10.9966    8.4277 N   0  0  0  0  0  0  0  0  0  0  0  0
   11.4909   12.3186    8.6770 C   0  0  0  0  0  0  0  0  0  0  0  0
   11.1284   13.1606    7.7013 N   0  0  0  0  0  0  0  0  0  0  0  0
   11.1041   12.5780    6.4695 C   0  0  0  0  0  0  0  0  0  0  0  0
   11.4038   11.2618    6.1522 C   0  0  0  0  0  0  0  0  0  0  0  0
   11.7872   10.3619    7.1835 C   0  0  0  0  0  0  0  0  0  0  0  0
   12.0908    9.1701    7.1284 O   0  0  0  0  0  0  0  0  0  0  0  0
   11.2530   11.0972    4.7963 N   0  0  0  0  0  0  0  0  0  0  0  0
   10.8671   12.2979    4.3045 C   0  0  0  0  0  0  0  0  0  0  0  0
   10.7673   13.2320    5.3091 N   0  0  0  0  0  0  0  0  0  0  0  0
  1  2  1  0  0  0  0
  1  6  1  0  0  0  0
  2  3  2  0  0  0  0
  3  4  1  0  0  0  0
  4  5  2  0  0  0  0
  4 10  1  0  0  0  0
  5  6  1  0  0  0  0
  5  8  1  0  0  0  0
  6  7  2  0  0  0  0
  8  9  1  0  0  0  0
  9 10  2  0  0  0  0
M  END
>  <CHROM.1>
11.38311386,11.60131494,6.62704318,0.43820269,-1.28071446,1.06893999

>  <Name>
ligand

>  <RI>
0

>  <Rbt.Current_Directory>
/home/itssahil/PROJECTS/Mol_Feturizer/New_Systems/rnas/2EEU

>  <Rbt.Executable>
rbdock ($Id: //depot/dev/client3/rdock/2013.1/src/exe/rbdock.cxx#4 $)

>  <Rbt.Library>
libRbt.so (2013.1, Build901 2013/11/27)

>  <Rbt.Parameter_File>
/export/apps/rDock/src/rDock_2013.1_src/data/scripts/dock_solv.prm

>  <Rbt.Receptor>
prm/pocket_docking_7.prm

>  <SCORE>
-18.6106

>  <SCORE.INTER>
-18.6106

>  <SCORE.INTER.CONST>
1

>  <SCORE.INTER.POLAR>
0

>  <SCORE.INTER.ROT>
0

>  <SCORE.INTER.SOLV>
3.58173

>  <SCORE.INTER.VDW>
-17.201

>  <SCORE.INTER.norm>
-1.86106

>  <SCORE.INTRA>
0

>  <SCORE.INTRA.DIHEDRAL>
0

>  <SCORE.INTRA.DIHEDRAL.0>
0

>  <SCORE.INTRA.POLAR>
0

>  <SCORE.INTRA.POLAR.0>
0

>  <SCORE.INTRA.REPUL>
0

>  <SCORE.INTRA.REPUL.0>
0

>  <SCORE.INTRA.SOLV>
0

>  <SCORE.INTRA.SOLV.lig_0>
-4.28148

>  <SCORE.INTRA.VDW>
0

>  <SCORE.INTRA.VDW.0>
0

>  <SCORE.INTRA.norm>
0

>  <SCORE.RESTR>
0

>  <SCORE.RESTR.CAVITY>
0

>  <SCORE.RESTR.norm>
0

>  <SCORE.SYSTEM>
0

>  <SCORE.SYSTEM.CONST>
0

>  <SCORE.SYSTEM.DIHEDRAL>
0

>  <SCORE.SYSTEM.SOLV>
0

>  <SCORE.SYSTEM.norm>
0

>  <SCORE.heavy>
10

>  <SCORE.norm>
-1.86106

>  <RMSD>
0.864

$$$$
ligand
 OpenBabel11021811423D
libRbt.so/2013.1/901 2013/11/27
 10 11  0  0  0  0  0  0  0  0999 V2000
   11.8137   10.9889    8.4232 N   0  0  0  0  0  0  0  0  0  0  0  0
   11.5128   12.3122    8.6760 C   0  0  0  0  0  0  0  0  0  0  0  0
   11.1481   13.1570    7.7037 N   0  0  0  0  0  0  0  0  0  0  0  0
   11.1126   12.5760    6.4714 C   0  0  0  0  0  0  0  0  0  0  0  0
   11.4034   11.2586    6.1507 C   0  0  0  0  0  0  0  0  0  0  0  0
   11.7890   10.3556    7.1785 C   0  0  0  0  0  0  0  0  0  0  0  0
   12.0862    9.1624    7.1200 O   0  0  0  0  0  0  0  0  0  0  0  0
   11.2427   11.0962    4.7957 N   0  0  0  0  0  0  0  0  0  0  0  0
   10.8597   12.2994    4.3078 C   0  0  0  0  0  0  0  0  0  0  0  0
   10.7713   13.2329    5.3140 N   0  0  0  0  0  0  0  0  0  0  0  0
  1  2  1  0  0  0  0
  1  6  1  0  0  0  0
  2  3  2  0  0  0  0
  3  4  1  0  0  0  0
  4  5  2  0  0  0  0
  4 10  1  0  0  0  0
  5  6  1  0  0  0  0
  5  8  1  0  0  0  0
  6  7  2  0  0  0  0
  8  9  1  0  0  0  0
  9 10  2  0  0  0  0
M  END
>  <CHROM.1>
11.38760507,11.59767624,6.62604458,0.40902436,-1.28185910,1.04205848

>  <Name>
ligand

>  <RI>
0

>  <Rbt.Current_Directory>
/home/itssahil/PROJECTS/Mol_Feturizer/New_Systems/rnas/2EEU

>  <Rbt.Executable>
rbdock ($Id: //depot/dev/client3/rdock/2013.1/src/exe/rbdock.cxx#4 $)

>  <Rbt.Library>
libRbt.so (2013.1, Build901 2013/11/27)

>  <Rbt.Parameter_File>
/export/apps/rDock/src/rDock_2013.1_src/data/scripts/dock_solv.prm

>  <Rbt.Receptor>
prm/pocket_docking_7.prm

>  <SCORE>
-18.5788

>  <SCORE.INTER>
-18.5788

>  <SCORE.INTER.CONST>
1

>  <SCORE.INTER.POLAR>
0

>  <SCORE.INTER.ROT>
0

>  <SCORE.INTER.SOLV>
3.58456

>  <SCORE.INTER.VDW>
-17.1807

>  <SCORE.INTER.norm>
-1.85788

>  <SCORE.INTRA>
0

>  <SCORE.INTRA.DIHEDRAL>
0

>  <SCORE.INTRA.DIHEDRAL.0>
0

>  <SCORE.INTRA.POLAR>
0

>  <SCORE.INTRA.POLAR.0>
0

>  <SCORE.INTRA.REPUL>
0

>  <SCORE.INTRA.REPUL.0>
0

>  <SCORE.INTRA.SOLV>
0

>  <SCORE.INTRA.SOLV.lig_0>
-4.28148

>  <SCORE.INTRA.VDW>
0

>  <SCORE.INTRA.VDW.0>
0

>  <SCORE.INTRA.norm>
0

>  <SCORE.RESTR>
0

>  <SCORE.RESTR.CAVITY>
0

>  <SCORE.RESTR.norm>
0

>  <SCORE.SYSTEM>
0

>  <SCORE.SYSTEM.CONST>
0

>  <SCORE.SYSTEM.DIHEDRAL>
0

>  <SCORE.SYSTEM.SOLV>
0

>  <SCORE.SYSTEM.norm>
0

>  <SCORE.heavy>
10

>  <SCORE.norm>
-1.85788

>  <RMSD>
0.864

$$$$
ligand
 OpenBabel11021811423D
libRbt.so/2013.1/901 2013/11/27
 10 11  0  0  0  0  0  0  0  0999 V2000
   11.8014   10.9992    8.4274 N   0  0  0  0  0  0  0  0  0  0  0  0
   11.4881   12.3202    8.6772 C   0  0  0  0  0  0  0  0  0  0  0  0
   11.1225   13.1613    7.7020 N   0  0  0  0  0  0  0  0  0  0  0  0
   11.0994   12.5791    6.4700 C   0  0  0  0  0  0  0  0  0  0  0  0
   11.4030   11.2639    6.1522 C   0  0  0  0  0  0  0  0  0  0  0  0
   11.7896   10.3649    7.1830 C   0  0  0  0  0  0  0  0  0  0  0  0
   12.0968    9.1740    7.1273 O   0  0  0  0  0  0  0  0  0  0  0  0
   11.2520   11.0992    4.7963 N   0  0  0  0  0  0  0  0  0  0  0  0
   10.8622   12.2989    4.3051 C   0  0  0  0  0  0  0  0  0  0  0  0
   10.7600   13.2324    5.3099 N   0  0  0  0  0  0  0  0  0  0  0  0
  1  2  1  0  0  0  0
  1  6  1  0  0  0  0
  2  3  2  0  0  0  0
  3  4  1  0  0  0  0
  4  5  2  0  0  0  0
  4 10  1  0  0  0  0
  5  6  1  0  0  0  0
  5  8  1  0  0  0  0
  6  7  2  0  0  0  0
  8  9  1  0  0  0  0
  9 10  2  0  0  0  0
M  END
>  <CHROM.1>
11.38147453,11.60319213,6.62711750,0.44180112,-1.27777740,1.07269518

>  <Name>
ligand

>  <RI>
0

>  <Rbt.Current_Directory>
/home/itssahil/PROJECTS/Mol_Feturizer/New_Systems/rnas/2EEU

>  <Rbt.Executable>
rbdock ($Id: //depot/dev/client3/rdock/2013.1/src/exe/rbdock.cxx#4 $)

>  <Rbt.Library>
libRbt.so (2013.1, Build901 2013/11/27)

>  <Rbt.Parameter_File>
/export/apps/rDock/src/rDock_2013.1_src/data/scripts/dock_solv.prm

>  <Rbt.Receptor>
prm/pocket_docking_8.prm

>  <SCORE>
-18.6104

>  <SCORE.INTER>
-18.6104

>  <SCORE.INTER.CONST>
1

>  <SCORE.INTER.POLAR>
0

>  <SCORE.INTER.ROT>
0

>  <SCORE.INTER.SOLV>
3.57336

>  <SCORE.INTER.VDW>
-17.1981

>  <SCORE.INTER.norm>
-1.86104

>  <SCORE.INTRA>
0

>  <SCORE.INTRA.DIHEDRAL>
0

>  <SCORE.INTRA.DIHEDRAL.0>
0

>  <SCORE.INTRA.POLAR>
0

>  <SCORE.INTRA.POLAR.0>
0

>  <SCORE.INTRA.REPUL>
0

>  <SCORE.INTRA.REPUL.0>
0

>  <SCORE.INTRA.SOLV>
0

>  <SCORE.INTRA.SOLV.lig_0>
-4.28148

>  <SCORE.INTRA.VDW>
0

>  <SCORE.INTRA.VDW.0>
0

>  <SCORE.INTRA.norm>
0

>  <SCORE.RESTR>
0

>  <SCORE.RESTR.CAVITY>
0

>  <SCORE.RESTR.norm>
0

>  <SCORE.SYSTEM>
0

>  <SCORE.SYSTEM.CONST>
0

>  <SCORE.SYSTEM.DIHEDRAL>
0

>  <SCORE.SYSTEM.SOLV>
0

>  <SCORE.SYSTEM.norm>
0

>  <SCORE.heavy>
10

>  <SCORE.norm>
-1.86104

>  <RMSD>
0.864

$$$$
ligand
 OpenBabel11021811423D
libRbt.so/2013.1/901 2013/11/27
 10 11  0  0  0  0  0  0  0  0999 V2000
   11.8033   10.9968    8.4277 N   0  0  0  0  0  0  0  0  0  0  0  0
   11.4845   12.3165    8.6776 C   0  0  0  0  0  0  0  0  0  0  0  0
   11.1188   13.1570    7.7020 N   0  0  0  0  0  0  0  0  0  0  0  0
   11.1014   12.5757    6.4695 C   0  0  0  0  0  0  0  0  0  0  0  0
   11.4107   11.2619    6.1515 C   0  0  0  0  0  0  0  0  0  0  0  0
   11.7975   10.3634    7.1828 C   0  0  0  0  0  0  0  0  0  0  0  0
   12.1092    9.1738    7.1271 O   0  0  0  0  0  0  0  0  0  0  0  0
   11.2643   11.0977    4.7950 N   0  0  0  0  0  0  0  0  0  0  0  0
   10.8716   12.2963    4.3036 C   0  0  0  0  0  0  0  0  0  0  0  0
   10.7631   13.2287    5.3089 N   0  0  0  0  0  0  0  0  0  0  0  0
  1  2  1  0  0  0  0
  1  6  1  0  0  0  0
  2  3  2  0  0  0  0
  3  4  1  0  0  0  0
  4  5  2  0  0  0  0
  4 10  1  0  0  0  0
  5  6  1  0  0  0  0
  5  8  1  0  0  0  0
  6  7  2  0  0  0  0
  8  9  1  0  0  0  0
  9 10  2  0  0  0  0
M  END
>  <CHROM.1>
11.38652973,11.60069521,6.62665425,0.45669641,-1.27598727,1.08773046

>  <Name>
ligand

>  <RI>
0

>  <Rbt.Current_Directory>
/home/itssahil/PROJECTS/Mol_Feturizer/New_Systems/rnas/2EEU

>  <Rbt.Executable>
rbdock ($Id: //depot/dev/client3/rdock/2013.1/src/exe/rbdock.cxx#4 $)

>  <Rbt.Library>
libRbt.so (2013.1, Build901 2013/11/27)

>  <Rbt.Parameter_File>
/export/apps/rDock/src/rDock_2013.1_src/data/scripts/dock_solv.prm

>  <Rbt.Receptor>
prm/pocket_docking_8.prm

>  <SCORE>
-18.6067

>  <SCORE.INTER>
-18.6067

>  <SCORE.INTER.CONST>
1

>  <SCORE.INTER.POLAR>
0

>  <SCORE.INTER.ROT>
0

>  <SCORE.INTER.SOLV>
3.56299

>  <SCORE.INTER.VDW>
-17.1921

>  <SCORE.INTER.norm>
-1.86067

>  <SCORE.INTRA>
0

>  <SCORE.INTRA.DIHEDRAL>
0

>  <SCORE.INTRA.DIHEDRAL.0>
0

>  <SCORE.INTRA.POLAR>
0

>  <SCORE.INTRA.POLAR.0>
0

>  <SCORE.INTRA.REPUL>
0

>  <SCORE.INTRA.REPUL.0>
0

>  <SCORE.INTRA.SOLV>
0

>  <SCORE.INTRA.SOLV.lig_0>
-4.28148

>  <SCORE.INTRA.VDW>
0

>  <SCORE.INTRA.VDW.0>
0

>  <SCORE.INTRA.norm>
0

>  <SCORE.RESTR>
0

>  <SCORE.RESTR.CAVITY>
0

>  <SCORE.RESTR.norm>
0

>  <SCORE.SYSTEM>
0

>  <SCORE.SYSTEM.CONST>
0

>  <SCORE.SYSTEM.DIHEDRAL>
0

>  <SCORE.SYSTEM.SOLV>
0

>  <SCORE.SYSTEM.norm>
0

>  <SCORE.heavy>
10

>  <SCORE.norm>
-1.86067

>  <RMSD>
0.864

$$$$
ligand
 OpenBabel11021811423D
libRbt.so/2013.1/901 2013/11/27
 10 11  0  0  0  0  0  0  0  0999 V2000
   11.8032   10.9737    8.4265 N   0  0  0  0  0  0  0  0  0  0  0  0
   11.4697   12.2880    8.6854 C   0  0  0  0  0  0  0  0  0  0  0  0
   11.0949   13.1311    7.7155 N   0  0  0  0  0  0  0  0  0  0  0  0
   11.0841   12.5581    6.4790 C   0  0  0  0  0  0  0  0  0  0  0  0
   11.4080   11.2500    6.1521 C   0  0  0  0  0  0  0  0  0  0  0  0
   11.8046   10.3488    7.1774 C   0  0  0  0  0  0  0  0  0  0  0  0
   12.1295    9.1631    7.1136 O   0  0  0  0  0  0  0  0  0  0  0  0
   11.2637   11.0935    4.7945 N   0  0  0  0  0  0  0  0  0  0  0  0
   10.8578   12.2910    4.3112 C   0  0  0  0  0  0  0  0  0  0  0  0
   10.7388   13.2152    5.3229 N   0  0  0  0  0  0  0  0  0  0  0  0
  1  2  1  0  0  0  0
  1  6  1  0  0  0  0
  2  3  2  0  0  0  0
  3  4  1  0  0  0  0
  4  5  2  0  0  0  0
  4 10  1  0  0  0  0
  5  6  1  0  0  0  0
  5  8  1  0  0  0  0
  6  7  2  0  0  0  0
  8  9  1  0  0  0  0
  9 10  2  0  0  0  0
M  END
>  <CHROM.1>
11.38004195,11.58525665,6.62958267,0.47437653,-1.26618889,1.11147421

>  <Name>
ligand

>  <RI>
0

>  <Rbt.Current_Directory>
/home/itssahil/PROJECTS/Mol_Feturizer/New_Systems/rnas/2EEU

>  <Rbt.Executable>
rbdock ($Id: //depot/dev/client3/rdock/2013.1/src/exe/rbdock.cxx#4 $)

>  <Rbt.Library>
libRbt.so (2013.1, Build901 2013/11/27)

>  <Rbt.Parameter_File>
/export/apps/rDock/src/rDock_2013.1_src/data/scripts/dock_solv.prm

>  <Rbt.Receptor>
prm/blind_docking_100.prm

>  <SCORE>
-18.5949

>  <SCORE.INTER>
-18.5949

>  <SCORE.INTER.CONST>
1

>  <SCORE.INTER.POLAR>
0

>  <SCORE.INTER.ROT>
0

>  <SCORE.INTER.SOLV>
3.54317

>  <SCORE.INTER.VDW>
-17.1776

>  <SCORE.INTER.norm>
-1.85949

>  <SCORE.INTRA>
0

>  <SCORE.INTRA.DIHEDRAL>
0

>  <SCORE.INTRA.DIHEDRAL.0>
0

>  <SCORE.INTRA.POLAR>
0

>  <SCORE.INTRA.POLAR.0>
0

>  <SCORE.INTRA.REPUL>
0

>  <SCORE.INTRA.REPUL.0>
0

>  <SCORE.INTRA.SOLV>
0

>  <SCORE.INTRA.SOLV.lig_0>
-4.28148

>  <SCORE.INTRA.VDW>
0

>  <SCORE.INTRA.VDW.0>
0

>  <SCORE.INTRA.norm>
0

>  <SCORE.RESTR>
0

>  <SCORE.RESTR.CAVITY>
0

>  <SCORE.RESTR.norm>
0

>  <SCORE.SYSTEM>
0

>  <SCORE.SYSTEM.CONST>
0

>  <SCORE.SYSTEM.DIHEDRAL>
0

>  <SCORE.SYSTEM.SOLV>
0

>  <SCORE.SYSTEM.norm>
0

>  <SCORE.heavy>
10

>  <SCORE.norm>
-1.85949

>  <RMSD>
0.865

$$$$
ligand
 OpenBabel11021811423D
libRbt.so/2013.1/901 2013/11/27
 10 11  0  0  0  0  0  0  0  0999 V2000
   11.8227   10.9728    8.4215 N   0  0  0  0  0  0  0  0  0  0  0  0
   11.5027   12.2908    8.6785 C   0  0  0  0  0  0  0  0  0  0  0  0
   11.1237   13.1328    7.7092 N   0  0  0  0  0  0  0  0  0  0  0  0
   11.0944   12.5546    6.4754 C   0  0  0  0  0  0  0  0  0  0  0  0
   11.4041   11.2426    6.1506 C   0  0  0  0  0  0  0  0  0  0  0  0
   11.8050   10.3426    7.1752 C   0  0  0  0  0  0  0  0  0  0  0  0
   12.1197    9.1541    7.1128 O   0  0  0  0  0  0  0  0  0  0  0  0
   11.2433   11.0815    4.7954 N   0  0  0  0  0  0  0  0  0  0  0  0
   10.8416   12.2802    4.3115 C   0  0  0  0  0  0  0  0  0  0  0  0
   10.7413   13.2096    5.3204 N   0  0  0  0  0  0  0  0  0  0  0  0
  1  2  1  0  0  0  0
  1  6  1  0  0  0  0
  2  3  2  0  0  0  0
  3  4  1  0  0  0  0
  4  5  2  0  0  0  0
  4 10  1  0  0  0  0
  5  6  1  0  0  0  0
  5  8  1  0  0  0  0
  6  7  2  0  0  0  0
  8  9  1  0  0  0  0
  9 10  2  0  0  0  0
M  END
>  <CHROM.1>
11.38422116,11.58010036,6.62686105,0.42857439,-1.26807192,1.06349635

>  <Name>
ligand

>  <RI>
0

>  <Rbt.Current_Directory>
/home/itssahil/PROJECTS/Mol_Feturizer/New_Systems/rnas/2EEU

>  <Rbt.Executable>
rbdock ($Id: //depot/dev/client3/rdock/2013.1/src/exe/rbdock.cxx#4 $)

>  <Rbt.Library>
libRbt.so (2013.1, Build901 2013/11/27)

>  <Rbt.Parameter_File>
/export/apps/rDock/src/rDock_2013.1_src/data/scripts/dock_solv.prm

>  <Rbt.Receptor>
prm/blind_docking_100.prm

>  <SCORE>
-18.5963

>  <SCORE.INTER>
-18.5963

>  <SCORE.INTER.CONST>
1

>  <SCORE.INTER.POLAR>
0

>  <SCORE.INTER.ROT>
0

>  <SCORE.INTER.SOLV>
3.54434

>  <SCORE.INTER.VDW>
-17.179

>  <SCORE.INTER.norm>
-1.85963

>  <SCORE.INTRA>
0

>  <SCORE.INTRA.DIHEDRAL>
0

>  <SCORE.INTRA.DIHEDRAL.0>
0

>  <SCORE.INTRA.POLAR>
0

>  <SCORE.INTRA.POLAR.0>
0

>  <SCORE.INTRA.REPUL>
0

>  <SCORE.INTRA.REPUL.0>
0

>  <SCORE.INTRA.SOLV>
0

>  <SCORE.INTRA.SOLV.lig_0>
-4.28148

>  <SCORE.INTRA.VDW>
0

>  <SCORE.INTRA.VDW.0>
0

>  <SCORE.INTRA.norm>
0

>  <SCORE.RESTR>
0

>  <SCORE.RESTR.CAVITY>
0

>  <SCORE.RESTR.norm>
0

>  <SCORE.SYSTEM>
0

>  <SCORE.SYSTEM.CONST>
0

>  <SCORE.SYSTEM.DIHEDRAL>
0

>  <SCORE.SYSTEM.SOLV>
0

>  <SCORE.SYSTEM.norm>
0

>  <SCORE.heavy>
10

>  <SCORE.norm>
-1.85963

>  <RMSD>
0.865

$$$$
ligand
 OpenBabel11021811423D
libRbt.so/2013.1/901 2013/11/27
 10 11  0  0  0  0  0  0  0  0999 V2000
   11.8036   10.9743    8.4275 N   0  0  0  0  0  0  0  0  0  0  0  0
   11.4738   12.2901    8.6837 C   0  0  0  0  0  0  0  0  0  0  0  0
   11.1011   13.1321    7.7120 N   0  0  0  0  0  0  0  0  0  0  0  0
   11.0886   12.5564    6.4767 C   0  0  0  0  0  0  0  0  0  0  0  0
   11.4088   11.2468    6.1526 C   0  0  0  0  0  0  0  0  0  0  0  0
   11.8030   10.3467    7.1797 C   0  0  0  0  0  0  0  0  0  0  0  0
   12.1246    9.1600    7.1184 O   0  0  0  0  0  0  0  0  0  0  0  0
   11.2638   11.0877    4.7954 N   0  0  0  0  0  0  0  0  0  0  0  0
   10.8611   12.2854    4.3096 C   0  0  0  0  0  0  0  0  0  0  0  0
   10.7448   13.2121    5.3193 N   0  0  0  0  0  0  0  0  0  0  0  0
  1  2  1  0  0  0  0
  1  6  1  0  0  0  0
  2  3  2  0  0  0  0
  3  4  1  0  0  0  0
  4  5  2  0  0  0  0
  4 10  1  0  0  0  0
  5  6  1  0  0  0  0
  5  8  1  0  0  0  0
  6  7  2  0  0  0  0
  8  9  1  0  0  0  0
  9 10  2  0  0  0  0
M  END
>  <CHROM.1>
11.38177688,11.58313580,6.62936312,0.46975408,-1.26860194,1.10491902

>  <Name>
ligand

>  <RI>
0

>  <Rbt.Current_Directory>
/home/itssahil/PROJECTS/Mol_Feturizer/New_Systems/rnas/2EEU

>  <Rbt.Executable>
rbdock ($Id: //depot/dev/client3/rdock/2013.1/src/exe/rbdock.cxx#4 $)

>  <Rbt.Library>
libRbt.so (2013.1, Build901 2013/11/27)

>  <Rbt.Parameter_File>
/export/apps/rDock/src/rDock_2013.1_src/data/scripts/dock_solv.prm

>  <Rbt.Receptor>
prm/blind_docking_60.prm

>  <SCORE>
-18.5954

>  <SCORE.INTER>
-18.5954

>  <SCORE.INTER.CONST>
1

>  <SCORE.INTER.POLAR>
0

>  <SCORE.INTER.ROT>
0

>  <SCORE.INTER.SOLV>
3.54811

>  <SCORE.INTER.VDW>
-17.1796

>  <SCORE.INTER.norm>
-1.85954

>  <SCORE.INTRA>
0

>  <SCORE.INTRA.DIHEDRAL>
0

>  <SCORE.INTRA.DIHEDRAL.0>
0

>  <SCORE.INTRA.POLAR>
0

>  <SCORE.INTRA.POLAR.0>
0

>  <SCORE.INTRA.REPUL>
0

>  <SCORE.INTRA.REPUL.0>
0

>  <SCORE.INTRA.SOLV>
0

>  <SCORE.INTRA.SOLV.lig_0>
-4.28148

>  <SCORE.INTRA.VDW>
0

>  <SCORE.INTRA.VDW.0>
0

>  <SCORE.INTRA.norm>
0

>  <SCORE.RESTR>
0

>  <SCORE.RESTR.CAVITY>
0

>  <SCORE.RESTR.norm>
0

>  <SCORE.SYSTEM>
0

>  <SCORE.SYSTEM.CONST>
0

>  <SCORE.SYSTEM.DIHEDRAL>
0

>  <SCORE.SYSTEM.SOLV>
0

>  <SCORE.SYSTEM.norm>
0

>  <SCORE.heavy>
10

>  <SCORE.norm>
-1.85954

>  <RMSD>
0.865

$$$$
ligand
 OpenBabel11021811423D
libRbt.so/2013.1/901 2013/11/27
 10 11  0  0  0  0  0  0  0  0999 V2000
   11.8174   10.9737    8.4220 N   0  0  0  0  0  0  0  0  0  0  0  0
   11.4826   12.2872    8.6833 C   0  0  0  0  0  0  0  0  0  0  0  0
   11.1006   13.1299    7.7157 N   0  0  0  0  0  0  0  0  0  0  0  0
   11.0843   12.5573    6.4791 C   0  0  0  0  0  0  0  0  0  0  0  0
   11.4092   11.2500    6.1499 C   0  0  0  0  0  0  0  0  0  0  0  0
   11.8132   10.3493    7.1726 C   0  0  0  0  0  0  0  0  0  0  0  0
   12.1402    9.1643    7.1066 O   0  0  0  0  0  0  0  0  0  0  0  0
   11.2578   11.0937    4.7931 N   0  0  0  0  0  0  0  0  0  0  0  0
   10.8467   12.2906    4.3125 C   0  0  0  0  0  0  0  0  0  0  0  0
   10.7313   13.2141    5.3251 N   0  0  0  0  0  0  0  0  0  0  0  0
  1  2  1  0  0  0  0
  1  6  1  0  0  0  0
  2  3  2  0  0  0  0
  3  4  1  0  0  0  0
  4  5  2  0  0  0  0
  4 10  1  0  0  0  0
  5  6  1  0  0  0  0
  5  8  1  0  0  0  0
  6  7  2  0  0  0  0
  8  9  1  0  0  0  0
  9 10  2  0  0  0  0
M  END
>  <CHROM.1>
11.38307639,11.58502974,6.62765148,0.46128255,-1.26186559,1.09938182

>  <Name>
ligand

>  <RI>
0

>  <Rbt.Current_Directory>
/home/itssahil/PROJECTS/Mol_Feturizer/New_Systems/rnas/2EEU

>  <Rbt.Executable>
rbdock ($Id: //depot/dev/client3/rdock/2013.1/src/exe/rbdock.cxx#4 $)

>  <Rbt.Library>
libRbt.so (2013.1, Build901 2013/11/27)

>  <Rbt.Parameter_File>
/export/apps/rDock/src/rDock_2013.1_src/data/scripts/dock_solv.prm

>  <Rbt.Receptor>
prm/blind_docking_60.prm

>  <SCORE>
-18.5927

>  <SCORE.INTER>
-18.5927

>  <SCORE.INTER.CONST>
1

>  <SCORE.INTER.POLAR>
0

>  <SCORE.INTER.ROT>
0

>  <SCORE.INTER.SOLV>
3.527

>  <SCORE.INTER.VDW>
-17.1708

>  <SCORE.INTER.norm>
-1.85927

>  <SCORE.INTRA>
0

>  <SCORE.INTRA.DIHEDRAL>
0

>  <SCORE.INTRA.DIHEDRAL.0>
0

>  <SCORE.INTRA.POLAR>
0

>  <SCORE.INTRA.POLAR.0>
0

>  <SCORE.INTRA.REPUL>
0

>  <SCORE.INTRA.REPUL.0>
0

>  <SCORE.INTRA.SOLV>
0

>  <SCORE.INTRA.SOLV.lig_0>
-4.28148

>  <SCORE.INTRA.VDW>
0

>  <SCORE.INTRA.VDW.0>
0

>  <SCORE.INTRA.norm>
0

>  <SCORE.RESTR>
0

>  <SCORE.RESTR.CAVITY>
0

>  <SCORE.RESTR.norm>
0

>  <SCORE.SYSTEM>
0

>  <SCORE.SYSTEM.CONST>
0

>  <SCORE.SYSTEM.DIHEDRAL>
0

>  <SCORE.SYSTEM.SOLV>
0

>  <SCORE.SYSTEM.norm>
0

>  <SCORE.heavy>
10

>  <SCORE.norm>
-1.85927

>  <RMSD>
0.865

$$$$
ligand
 OpenBabel11021811423D
libRbt.so/2013.1/901 2013/11/27
 10 11  0  0  0  0  0  0  0  0999 V2000
   11.8625   10.9204    8.4087 N   0  0  0  0  0  0  0  0  0  0  0  0
   11.5354   12.2314    8.6913 C   0  0  0  0  0  0  0  0  0  0  0  0
   11.1474   13.0888    7.7392 N   0  0  0  0  0  0  0  0  0  0  0  0
   11.1169   12.5334    6.4951 C   0  0  0  0  0  0  0  0  0  0  0  0
   11.4334   11.2296    6.1448 C   0  0  0  0  0  0  0  0  0  0  0  0
   11.8438   10.3133    7.1509 C   0  0  0  0  0  0  0  0  0  0  0  0
   12.1655    9.1281    7.0654 O   0  0  0  0  0  0  0  0  0  0  0  0
   11.2682   11.0927    4.7874 N   0  0  0  0  0  0  0  0  0  0  0  0
   10.8572   12.2977    4.3274 C   0  0  0  0  0  0  0  0  0  0  0  0
   10.7552   13.2076    5.3538 N   0  0  0  0  0  0  0  0  0  0  0  0
  1  2  1  0  0  0  0
  1  6  1  0  0  0  0
  2  3  2  0  0  0  0
  3  4  1  0  0  0  0
  4  5  2  0  0  0  0
  4 10  1  0  0  0  0
  5  6  1  0  0  0  0
  5  8  1  0  0  0  0
  6  7  2  0  0  0  0
  8  9  1  0  0  0  0
  9 10  2  0  0  0  0
M  END
>  <CHROM.1>
11.41322271,11.55811106,6.62730018,0.42716974,-1.26080140,1.08070730

>  <Name>
ligand

>  <RI>
0

>  <Rbt.Current_Directory>
/home/itssahil/PROJECTS/Mol_Feturizer/New_Systems/rnas/2EEU

>  <Rbt.Executable>
rbdock ($Id: //depot/dev/client3/rdock/2013.1/src/exe/rbdock.cxx#4 $)

>  <Rbt.Library>
libRbt.so (2013.1, Build901 2013/11/27)

>  <Rbt.Parameter_File>
/export/apps/rDock/src/rDock_2013.1_src/data/scripts/dock_solv.prm

>  <Rbt.Receptor>
prm/blind_docking_80.prm

>  <SCORE>
-18.6107

>  <SCORE.INTER>
-18.6107

>  <SCORE.INTER.CONST>
1

>  <SCORE.INTER.POLAR>
0

>  <SCORE.INTER.ROT>
0

>  <SCORE.INTER.SOLV>
3.50578

>  <SCORE.INTER.VDW>
-17.1757

>  <SCORE.INTER.norm>
-1.86107

>  <SCORE.INTRA>
0

>  <SCORE.INTRA.DIHEDRAL>
0

>  <SCORE.INTRA.DIHEDRAL.0>
0

>  <SCORE.INTRA.POLAR>
0

>  <SCORE.INTRA.POLAR.0>
0

>  <SCORE.INTRA.REPUL>
0

>  <SCORE.INTRA.REPUL.0>
0

>  <SCORE.INTRA.SOLV>
0

>  <SCORE.INTRA.SOLV.lig_0>
-4.28148

>  <SCORE.INTRA.VDW>
0

>  <SCORE.INTRA.VDW.0>
0

>  <SCORE.INTRA.norm>
0

>  <SCORE.RESTR>
0

>  <SCORE.RESTR.CAVITY>
0

>  <SCORE.RESTR.norm>
0

>  <SCORE.SYSTEM>
0

>  <SCORE.SYSTEM.CONST>
0

>  <SCORE.SYSTEM.DIHEDRAL>
0

>  <SCORE.SYSTEM.SOLV>
0

>  <SCORE.SYSTEM.norm>
0

>  <SCORE.heavy>
10

>  <SCORE.norm>
-1.86107

>  <RMSD>
0.865

$$$$
ligand
 OpenBabel11021811423D
libRbt.so/2013.1/901 2013/11/27
 10 11  0  0  0  0  0  0  0  0999 V2000
   11.7841   10.9912    8.4358 N   0  0  0  0  0  0  0  0  0  0  0  0
   11.4357   12.3037    8.6840 C   0  0  0  0  0  0  0  0  0  0  0  0
   11.0677   13.1393    7.7049 N   0  0  0  0  0  0  0  0  0  0  0  0
   11.0797   12.5607    6.4710 C   0  0  0  0  0  0  0  0  0  0  0  0
   11.4195   11.2540    6.1548 C   0  0  0  0  0  0  0  0  0  0  0  0
   11.8089   10.3609    7.1897 C   0  0  0  0  0  0  0  0  0  0  0  0
   12.1448    9.1777    7.1359 O   0  0  0  0  0  0  0  0  0  0  0  0
   11.2962   11.0904    4.7960 N   0  0  0  0  0  0  0  0  0  0  0  0
   10.8871   12.2822    4.3015 C   0  0  0  0  0  0  0  0  0  0  0  0
   10.7455   13.2098    5.3071 N   0  0  0  0  0  0  0  0  0  0  0  0
  1  2  1  0  0  0  0
  1  6  1  0  0  0  0
  2  3  2  0  0  0  0
  3  4  1  0  0  0  0
  4  5  2  0  0  0  0
  4 10  1  0  0  0  0
  5  6  1  0  0  0  0
  5  8  1  0  0  0  0
  6  7  2  0  0  0  0
  8  9  1  0  0  0  0
  9 10  2  0  0  0  0
M  END
>  <CHROM.1>
11.38173779,11.59116363,6.63024902,0.52995097,-1.26447888,1.16003131

>  <Name>
ligand

>  <RI>
0

>  <Rbt.Current_Directory>
/home/itssahil/PROJECTS/Mol_Feturizer/New_Systems/rnas/2EEU

>  <Rbt.Executable>
rbdock ($Id: //depot/dev/client3/rdock/2013.1/src/exe/rbdock.cxx#4 $)

>  <Rbt.Library>
libRbt.so (2013.1, Build901 2013/11/27)

>  <Rbt.Parameter_File>
/export/apps/rDock/src/rDock_2013.1_src/data/scripts/dock_solv.prm

>  <Rbt.Receptor>
prm/pocket_docking_3.prm

>  <SCORE>
-18.5759

>  <SCORE.INTER>
-18.5759

>  <SCORE.INTER.CONST>
1

>  <SCORE.INTER.POLAR>
0

>  <SCORE.INTER.ROT>
0

>  <SCORE.INTER.SOLV>
3.53188

>  <SCORE.INTER.VDW>
-17.1612

>  <SCORE.INTER.norm>
-1.85759

>  <SCORE.INTRA>
0

>  <SCORE.INTRA.DIHEDRAL>
0

>  <SCORE.INTRA.DIHEDRAL.0>
0

>  <SCORE.INTRA.POLAR>
0

>  <SCORE.INTRA.POLAR.0>
0

>  <SCORE.INTRA.REPUL>
0

>  <SCORE.INTRA.REPUL.0>
0

>  <SCORE.INTRA.SOLV>
0

>  <SCORE.INTRA.SOLV.lig_0>
-4.28148

>  <SCORE.INTRA.VDW>
0

>  <SCORE.INTRA.VDW.0>
0

>  <SCORE.INTRA.norm>
0

>  <SCORE.RESTR>
0

>  <SCORE.RESTR.CAVITY>
0

>  <SCORE.RESTR.norm>
0

>  <SCORE.SYSTEM>
0

>  <SCORE.SYSTEM.CONST>
0

>  <SCORE.SYSTEM.DIHEDRAL>
0

>  <SCORE.SYSTEM.SOLV>
0

>  <SCORE.SYSTEM.norm>
0

>  <SCORE.heavy>
10

>  <SCORE.norm>
-1.85759

>  <RMSD>
0.865

$$$$
ligand
 OpenBabel11021811423D
libRbt.so/2013.1/901 2013/11/27
 10 11  0  0  0  0  0  0  0  0999 V2000
   11.8175   10.9867    8.4214 N   0  0  0  0  0  0  0  0  0  0  0  0
   11.5159   12.3096    8.6751 C   0  0  0  0  0  0  0  0  0  0  0  0
   11.1493   13.1546    7.7036 N   0  0  0  0  0  0  0  0  0  0  0  0
   11.1125   12.5740    6.4711 C   0  0  0  0  0  0  0  0  0  0  0  0
   11.4039   11.2570    6.1495 C   0  0  0  0  0  0  0  0  0  0  0  0
   11.7916   10.3539    7.1765 C   0  0  0  0  0  0  0  0  0  0  0  0
   12.0895    9.1609    7.1171 O   0  0  0  0  0  0  0  0  0  0  0  0
   11.2415   11.0950    4.7946 N   0  0  0  0  0  0  0  0  0  0  0  0
   10.8569   12.2981    4.3077 C   0  0  0  0  0  0  0  0  0  0  0  0
   10.7693   13.2312    5.3144 N   0  0  0  0  0  0  0  0  0  0  0  0
  1  2  1  0  0  0  0
  1  6  1  0  0  0  0
  2  3  2  0  0  0  0
  3  4  1  0  0  0  0
  4  5  2  0  0  0  0
  4 10  1  0  0  0  0
  5  6  1  0  0  0  0
  5  8  1  0  0  0  0
  6  7  2  0  0  0  0
  8  9  1  0  0  0  0
  9 10  2  0  0  0  0
M  END
>  <CHROM.1>
11.38850101,11.59584797,6.62502906,0.40622311,-1.28055787,1.03976551

>  <Name>
ligand

>  <RI>
0

>  <Rbt.Current_Directory>
/home/itssahil/PROJECTS/Mol_Feturizer/New_Systems/rnas/2EEU

>  <Rbt.Executable>
rbdock ($Id: //depot/dev/client3/rdock/2013.1/src/exe/rbdock.cxx#4 $)

>  <Rbt.Library>
libRbt.so (2013.1, Build901 2013/11/27)

>  <Rbt.Parameter_File>
/export/apps/rDock/src/rDock_2013.1_src/data/scripts/dock_solv.prm

>  <Rbt.Receptor>
prm/pocket_docking_4.prm

>  <SCORE>
-18.5777

>  <SCORE.INTER>
-18.5777

>  <SCORE.INTER.CONST>
1

>  <SCORE.INTER.POLAR>
0

>  <SCORE.INTER.ROT>
0

>  <SCORE.INTER.SOLV>
3.58054

>  <SCORE.INTER.VDW>
-17.1787

>  <SCORE.INTER.norm>
-1.85777

>  <SCORE.INTRA>
0

>  <SCORE.INTRA.DIHEDRAL>
0

>  <SCORE.INTRA.DIHEDRAL.0>
0

>  <SCORE.INTRA.POLAR>
0

>  <SCORE.INTRA.POLAR.0>
0

>  <SCORE.INTRA.REPUL>
0

>  <SCORE.INTRA.REPUL.0>
0

>  <SCORE.INTRA.SOLV>
0

>  <SCORE.INTRA.SOLV.lig_0>
-4.28148

>  <SCORE.INTRA.VDW>
0

>  <SCORE.INTRA.VDW.0>
0

>  <SCORE.INTRA.norm>
0

>  <SCORE.RESTR>
0

>  <SCORE.RESTR.CAVITY>
0

>  <SCORE.RESTR.norm>
0

>  <SCORE.SYSTEM>
0

>  <SCORE.SYSTEM.CONST>
0

>  <SCORE.SYSTEM.DIHEDRAL>
0

>  <SCORE.SYSTEM.SOLV>
0

>  <SCORE.SYSTEM.norm>
0

>  <SCORE.heavy>
10

>  <SCORE.norm>
-1.85777

>  <RMSD>
0.865

$$$$
ligand
 OpenBabel11021811423D
libRbt.so/2013.1/901 2013/11/27
 10 11  0  0  0  0  0  0  0  0999 V2000
   11.8175   10.9748    8.4246 N   0  0  0  0  0  0  0  0  0  0  0  0
   11.4923   12.2919    8.6797 C   0  0  0  0  0  0  0  0  0  0  0  0
   11.1163   13.1328    7.7083 N   0  0  0  0  0  0  0  0  0  0  0  0
   11.0957   12.5545    6.4744 C   0  0  0  0  0  0  0  0  0  0  0  0
   11.4110   11.2434    6.1513 C   0  0  0  0  0  0  0  0  0  0  0  0
   11.8087   10.3446    7.1781 C   0  0  0  0  0  0  0  0  0  0  0  0
   12.1271    9.1570    7.1176 O   0  0  0  0  0  0  0  0  0  0  0  0
   11.2582   11.0819    4.7952 N   0  0  0  0  0  0  0  0  0  0  0  0
   10.8558   12.2794    4.3091 C   0  0  0  0  0  0  0  0  0  0  0  0
   10.7472   13.2085    5.3174 N   0  0  0  0  0  0  0  0  0  0  0  0
  1  2  1  0  0  0  0
  1  6  1  0  0  0  0
  2  3  2  0  0  0  0
  3  4  1  0  0  0  0
  4  5  2  0  0  0  0
  4 10  1  0  0  0  0
  5  6  1  0  0  0  0
  5  8  1  0  0  0  0
  6  7  2  0  0  0  0
  8  9  1  0  0  0  0
  9 10  2  0  0  0  0
M  END
>  <CHROM.1>
11.38739055,11.58085801,6.62744759,0.44977464,-1.26821383,1.08372970

>  <Name>
ligand

>  <RI>
0

>  <Rbt.Current_Directory>
/home/itssahil/PROJECTS/Mol_Feturizer/New_Systems/rnas/2EEU

>  <Rbt.Executable>
rbdock ($Id: //depot/dev/client3/rdock/2013.1/src/exe/rbdock.cxx#4 $)

>  <Rbt.Library>
libRbt.so (2013.1, Build901 2013/11/27)

>  <Rbt.Parameter_File>
/export/apps/rDock/src/rDock_2013.1_src/data/scripts/dock_solv.prm

>  <Rbt.Receptor>
prm/pocket_docking_6.prm

>  <SCORE>
-18.5973

>  <SCORE.INTER>
-18.5973

>  <SCORE.INTER.CONST>
1

>  <SCORE.INTER.POLAR>
0

>  <SCORE.INTER.ROT>
0

>  <SCORE.INTER.SOLV>
3.54036

>  <SCORE.INTER.VDW>
-17.1783

>  <SCORE.INTER.norm>
-1.85973

>  <SCORE.INTRA>
0

>  <SCORE.INTRA.DIHEDRAL>
0

>  <SCORE.INTRA.DIHEDRAL.0>
0

>  <SCORE.INTRA.POLAR>
0

>  <SCORE.INTRA.POLAR.0>
0

>  <SCORE.INTRA.REPUL>
0

>  <SCORE.INTRA.REPUL.0>
0

>  <SCORE.INTRA.SOLV>
0

>  <SCORE.INTRA.SOLV.lig_0>
-4.28148

>  <SCORE.INTRA.VDW>
0

>  <SCORE.INTRA.VDW.0>
0

>  <SCORE.INTRA.norm>
0

>  <SCORE.RESTR>
0

>  <SCORE.RESTR.CAVITY>
0

>  <SCORE.RESTR.norm>
0

>  <SCORE.SYSTEM>
0

>  <SCORE.SYSTEM.CONST>
0

>  <SCORE.SYSTEM.DIHEDRAL>
0

>  <SCORE.SYSTEM.SOLV>
0

>  <SCORE.SYSTEM.norm>
0

>  <SCORE.heavy>
10

>  <SCORE.norm>
-1.85973

>  <RMSD>
0.865

$$$$
ligand
 OpenBabel11021811423D
libRbt.so/2013.1/901 2013/11/27
 10 11  0  0  0  0  0  0  0  0999 V2000
   11.8079   10.9748    8.4275 N   0  0  0  0  0  0  0  0  0  0  0  0
   11.4786   12.2909    8.6826 C   0  0  0  0  0  0  0  0  0  0  0  0
   11.1057   13.1323    7.7103 N   0  0  0  0  0  0  0  0  0  0  0  0
   11.0926   12.5555    6.4756 C   0  0  0  0  0  0  0  0  0  0  0  0
   11.4123   11.2455    6.1524 C   0  0  0  0  0  0  0  0  0  0  0  0
   11.8067   10.3462    7.1802 C   0  0  0  0  0  0  0  0  0  0  0  0
   12.1279    9.1593    7.1198 O   0  0  0  0  0  0  0  0  0  0  0  0
   11.2668   11.0853    4.7954 N   0  0  0  0  0  0  0  0  0  0  0  0
   10.8643   12.2827    4.3087 C   0  0  0  0  0  0  0  0  0  0  0  0
   10.7486   13.2103    5.3177 N   0  0  0  0  0  0  0  0  0  0  0  0
  1  2  1  0  0  0  0
  1  6  1  0  0  0  0
  2  3  2  0  0  0  0
  3  4  1  0  0  0  0
  4  5  2  0  0  0  0
  4 10  1  0  0  0  0
  5  6  1  0  0  0  0
  5  8  1  0  0  0  0
  6  7  2  0  0  0  0
  8  9  1  0  0  0  0
  9 10  2  0  0  0  0
M  END
>  <CHROM.1>
11.38559915,11.58226343,6.62891519,0.46819436,-1.26869231,1.10257403

>  <Name>
ligand

>  <RI>
0

>  <Rbt.Current_Directory>
/home/itssahil/PROJECTS/Mol_Feturizer/New_Systems/rnas/2EEU

>  <Rbt.Executable>
rbdock ($Id: //depot/dev/client3/rdock/2013.1/src/exe/rbdock.cxx#4 $)

>  <Rbt.Library>
libRbt.so (2013.1, Build901 2013/11/27)

>  <Rbt.Parameter_File>
/export/apps/rDock/src/rDock_2013.1_src/data/scripts/dock_solv.prm

>  <Rbt.Receptor>
prm/pocket_docking_6.prm

>  <SCORE>
-18.5956

>  <SCORE.INTER>
-18.5956

>  <SCORE.INTER.CONST>
1

>  <SCORE.INTER.POLAR>
0

>  <SCORE.INTER.ROT>
0

>  <SCORE.INTER.SOLV>
3.54395

>  <SCORE.INTER.VDW>
-17.1784

>  <SCORE.INTER.norm>
-1.85956

>  <SCORE.INTRA>
0

>  <SCORE.INTRA.DIHEDRAL>
0

>  <SCORE.INTRA.DIHEDRAL.0>
0

>  <SCORE.INTRA.POLAR>
0

>  <SCORE.INTRA.POLAR.0>
0

>  <SCORE.INTRA.REPUL>
0

>  <SCORE.INTRA.REPUL.0>
0

>  <SCORE.INTRA.SOLV>
0

>  <SCORE.INTRA.SOLV.lig_0>
-4.28148

>  <SCORE.INTRA.VDW>
0

>  <SCORE.INTRA.VDW.0>
0

>  <SCORE.INTRA.norm>
0

>  <SCORE.RESTR>
0

>  <SCORE.RESTR.CAVITY>
0

>  <SCORE.RESTR.norm>
0

>  <SCORE.SYSTEM>
0

>  <SCORE.SYSTEM.CONST>
0

>  <SCORE.SYSTEM.DIHEDRAL>
0

>  <SCORE.SYSTEM.SOLV>
0

>  <SCORE.SYSTEM.norm>
0

>  <SCORE.heavy>
10

>  <SCORE.norm>
-1.85956

>  <RMSD>
0.865

$$$$
ligand
 OpenBabel11021811423D
libRbt.so/2013.1/901 2013/11/27
 10 11  0  0  0  0  0  0  0  0999 V2000
   11.8047   11.0067    8.4210 N   0  0  0  0  0  0  0  0  0  0  0  0
   11.4810   12.3238    8.6779 C   0  0  0  0  0  0  0  0  0  0  0  0
   11.1156   13.1690    7.7061 N   0  0  0  0  0  0  0  0  0  0  0  0
   11.1037   12.5950    6.4701 C   0  0  0  0  0  0  0  0  0  0  0  0
   11.4181   11.2841    6.1453 C   0  0  0  0  0  0  0  0  0  0  0  0
   11.8046   10.3807    7.1724 C   0  0  0  0  0  0  0  0  0  0  0  0
   12.1202    9.1924    7.1105 O   0  0  0  0  0  0  0  0  0  0  0  0
   11.2763   11.1275    4.7874 N   0  0  0  0  0  0  0  0  0  0  0  0
   10.8813   12.3278    4.3020 C   0  0  0  0  0  0  0  0  0  0  0  0
   10.7668   13.2539    5.3125 N   0  0  0  0  0  0  0  0  0  0  0  0
  1  2  1  0  0  0  0
  1  6  1  0  0  0  0
  2  3  2  0  0  0  0
  3  4  1  0  0  0  0
  4  5  2  0  0  0  0
  4 10  1  0  0  0  0
  5  6  1  0  0  0  0
  5  8  1  0  0  0  0
  6  7  2  0  0  0  0
  8  9  1  0  0  0  0
  9 10  2  0  0  0  0
M  END
>  <CHROM.1>
11.39143012,11.61999031,6.62236429,0.47080430,-1.27456117,1.10719153

>  <Name>
ligand

>  <RI>
0

>  <Rbt.Current_Directory>
/home/itssahil/PROJECTS/Mol_Feturizer/New_Systems/rnas/2EEU

>  <Rbt.Executable>
rbdock ($Id: //depot/dev/client3/rdock/2013.1/src/exe/rbdock.cxx#4 $)

>  <Rbt.Library>
libRbt.so (2013.1, Build901 2013/11/27)

>  <Rbt.Parameter_File>
/export/apps/rDock/src/rDock_2013.1_src/data/scripts/dock_solv.prm

>  <Rbt.Receptor>
prm/pocket_docking_7.prm

>  <SCORE>
-18.5661

>  <SCORE.INTER>
-18.5661

>  <SCORE.INTER.CONST>
1

>  <SCORE.INTER.POLAR>
0

>  <SCORE.INTER.ROT>
0

>  <SCORE.INTER.SOLV>
3.55744

>  <SCORE.INTER.VDW>
-17.1632

>  <SCORE.INTER.norm>
-1.85661

>  <SCORE.INTRA>
0

>  <SCORE.INTRA.DIHEDRAL>
0

>  <SCORE.INTRA.DIHEDRAL.0>
0

>  <SCORE.INTRA.POLAR>
0

>  <SCORE.INTRA.POLAR.0>
0

>  <SCORE.INTRA.REPUL>
0

>  <SCORE.INTRA.REPUL.0>
0

>  <SCORE.INTRA.SOLV>
0

>  <SCORE.INTRA.SOLV.lig_0>
-4.28148

>  <SCORE.INTRA.VDW>
0

>  <SCORE.INTRA.VDW.0>
0

>  <SCORE.INTRA.norm>
0

>  <SCORE.RESTR>
0

>  <SCORE.RESTR.CAVITY>
0

>  <SCORE.RESTR.norm>
0

>  <SCORE.SYSTEM>
0

>  <SCORE.SYSTEM.CONST>
0

>  <SCORE.SYSTEM.DIHEDRAL>
0

>  <SCORE.SYSTEM.SOLV>
0

>  <SCORE.SYSTEM.norm>
0

>  <SCORE.heavy>
10

>  <SCORE.norm>
-1.85661

>  <RMSD>
0.865

$$$$
ligand
 OpenBabel11021811423D
libRbt.so/2013.1/901 2013/11/27
 10 11  0  0  0  0  0  0  0  0999 V2000
   11.7880   10.9738    8.4305 N   0  0  0  0  0  0  0  0  0  0  0  0
   11.4513   12.2877    8.6867 C   0  0  0  0  0  0  0  0  0  0  0  0
   11.0834   13.1305    7.7137 N   0  0  0  0  0  0  0  0  0  0  0  0
   11.0832   12.5574    6.4772 C   0  0  0  0  0  0  0  0  0  0  0  0
   11.4109   11.2497    6.1530 C   0  0  0  0  0  0  0  0  0  0  0  0
   11.8000   10.3489    7.1814 C   0  0  0  0  0  0  0  0  0  0  0  0
   12.1265    9.1635    7.1202 O   0  0  0  0  0  0  0  0  0  0  0  0
   11.2777   11.0930    4.7943 N   0  0  0  0  0  0  0  0  0  0  0  0
   10.8745   12.2902    4.3077 C   0  0  0  0  0  0  0  0  0  0  0  0
   10.7465   13.2143    5.3184 N   0  0  0  0  0  0  0  0  0  0  0  0
  1  2  1  0  0  0  0
  1  6  1  0  0  0  0
  2  3  2  0  0  0  0
  3  4  1  0  0  0  0
  4  5  2  0  0  0  0
  4 10  1  0  0  0  0
  5  6  1  0  0  0  0
  5  8  1  0  0  0  0
  6  7  2  0  0  0  0
  8  9  1  0  0  0  0
  9 10  2  0  0  0  0
M  END
>  <CHROM.1>
11.37875535,11.58490916,6.63018771,0.49997043,-1.26883704,1.13590509

>  <Name>
ligand

>  <RI>
0

>  <Rbt.Current_Directory>
/home/itssahil/PROJECTS/Mol_Feturizer/New_Systems/rnas/2EEU

>  <Rbt.Executable>
rbdock ($Id: //depot/dev/client3/rdock/2013.1/src/exe/rbdock.cxx#4 $)

>  <Rbt.Library>
libRbt.so (2013.1, Build901 2013/11/27)

>  <Rbt.Parameter_File>
/export/apps/rDock/src/rDock_2013.1_src/data/scripts/dock_solv.prm

>  <Rbt.Receptor>
prm/blind_docking_100.prm

>  <SCORE>
-18.5864

>  <SCORE.INTER>
-18.5864

>  <SCORE.INTER.CONST>
1

>  <SCORE.INTER.POLAR>
0

>  <SCORE.INTER.ROT>
0

>  <SCORE.INTER.SOLV>
3.5538

>  <SCORE.INTER.VDW>
-17.1755

>  <SCORE.INTER.norm>
-1.85864

>  <SCORE.INTRA>
0

>  <SCORE.INTRA.DIHEDRAL>
0

>  <SCORE.INTRA.DIHEDRAL.0>
0

>  <SCORE.INTRA.POLAR>
0

>  <SCORE.INTRA.POLAR.0>
0

>  <SCORE.INTRA.REPUL>
0

>  <SCORE.INTRA.REPUL.0>
0

>  <SCORE.INTRA.SOLV>
0

>  <SCORE.INTRA.SOLV.lig_0>
-4.28148

>  <SCORE.INTRA.VDW>
0

>  <SCORE.INTRA.VDW.0>
0

>  <SCORE.INTRA.norm>
0

>  <SCORE.RESTR>
0

>  <SCORE.RESTR.CAVITY>
0

>  <SCORE.RESTR.norm>
0

>  <SCORE.SYSTEM>
0

>  <SCORE.SYSTEM.CONST>
0

>  <SCORE.SYSTEM.DIHEDRAL>
0

>  <SCORE.SYSTEM.SOLV>
0

>  <SCORE.SYSTEM.norm>
0

>  <SCORE.heavy>
10

>  <SCORE.norm>
-1.85864

>  <RMSD>
0.866

$$$$
ligand
 OpenBabel11021811423D
libRbt.so/2013.1/901 2013/11/27
 10 11  0  0  0  0  0  0  0  0999 V2000
   11.7955   10.9728    8.4284 N   0  0  0  0  0  0  0  0  0  0  0  0
   11.4667   12.2887    8.6854 C   0  0  0  0  0  0  0  0  0  0  0  0
   11.0960   13.1320    7.7140 N   0  0  0  0  0  0  0  0  0  0  0  0
   11.0844   12.5575    6.4782 C   0  0  0  0  0  0  0  0  0  0  0  0
   11.4037   11.2477    6.1533 C   0  0  0  0  0  0  0  0  0  0  0  0
   11.7959   10.3464    7.1801 C   0  0  0  0  0  0  0  0  0  0  0  0
   12.1164    9.1594    7.1181 O   0  0  0  0  0  0  0  0  0  0  0  0
   11.2603   11.0901    4.7958 N   0  0  0  0  0  0  0  0  0  0  0  0
   10.8594   12.2886    4.3105 C   0  0  0  0  0  0  0  0  0  0  0  0
   10.7428   13.2145    5.3209 N   0  0  0  0  0  0  0  0  0  0  0  0
  1  2  1  0  0  0  0
  1  6  1  0  0  0  0
  2  3  2  0  0  0  0
  3  4  1  0  0  0  0
  4  5  2  0  0  0  0
  4 10  1  0  0  0  0
  5  6  1  0  0  0  0
  5  8  1  0  0  0  0
  6  7  2  0  0  0  0
  8  9  1  0  0  0  0
  9 10  2  0  0  0  0
M  END
>  <CHROM.1>
11.37652390,11.58372564,6.63030685,0.47186645,-1.27002363,1.10784116

>  <Name>
ligand

>  <RI>
0

>  <Rbt.Current_Directory>
/home/itssahil/PROJECTS/Mol_Feturizer/New_Systems/rnas/2EEU

>  <Rbt.Executable>
rbdock ($Id: //depot/dev/client3/rdock/2013.1/src/exe/rbdock.cxx#4 $)

>  <Rbt.Library>
libRbt.so (2013.1, Build901 2013/11/27)

>  <Rbt.Parameter_File>
/export/apps/rDock/src/rDock_2013.1_src/data/scripts/dock_solv.prm

>  <Rbt.Receptor>
prm/blind_docking_40.prm

>  <SCORE>
-18.5946

>  <SCORE.INTER>
-18.5946

>  <SCORE.INTER.CONST>
1

>  <SCORE.INTER.POLAR>
0

>  <SCORE.INTER.ROT>
0

>  <SCORE.INTER.SOLV>
3.55875

>  <SCORE.INTER.VDW>
-17.1827

>  <SCORE.INTER.norm>
-1.85946

>  <SCORE.INTRA>
0

>  <SCORE.INTRA.DIHEDRAL>
0

>  <SCORE.INTRA.DIHEDRAL.0>
0

>  <SCORE.INTRA.POLAR>
0

>  <SCORE.INTRA.POLAR.0>
0

>  <SCORE.INTRA.REPUL>
0

>  <SCORE.INTRA.REPUL.0>
0

>  <SCORE.INTRA.SOLV>
0

>  <SCORE.INTRA.SOLV.lig_0>
-4.28148

>  <SCORE.INTRA.VDW>
0

>  <SCORE.INTRA.VDW.0>
0

>  <SCORE.INTRA.norm>
0

>  <SCORE.RESTR>
0

>  <SCORE.RESTR.CAVITY>
0

>  <SCORE.RESTR.norm>
0

>  <SCORE.SYSTEM>
0

>  <SCORE.SYSTEM.CONST>
0

>  <SCORE.SYSTEM.DIHEDRAL>
0

>  <SCORE.SYSTEM.SOLV>
0

>  <SCORE.SYSTEM.norm>
0

>  <SCORE.heavy>
10

>  <SCORE.norm>
-1.85946

>  <RMSD>
0.866

$$$$
ligand
 OpenBabel11021811423D
libRbt.so/2013.1/901 2013/11/27
 10 11  0  0  0  0  0  0  0  0999 V2000
   11.8135   10.9724    8.4235 N   0  0  0  0  0  0  0  0  0  0  0  0
   11.4861   12.2883    8.6817 C   0  0  0  0  0  0  0  0  0  0  0  0
   11.1093   13.1310    7.7121 N   0  0  0  0  0  0  0  0  0  0  0  0
   11.0902   12.5557    6.4767 C   0  0  0  0  0  0  0  0  0  0  0  0
   11.4077   11.2459    6.1506 C   0  0  0  0  0  0  0  0  0  0  0  0
   11.8063   10.3452    7.1755 C   0  0  0  0  0  0  0  0  0  0  0  0
   12.1266    9.1582    7.1122 O   0  0  0  0  0  0  0  0  0  0  0  0
   11.2559   11.0874    4.7941 N   0  0  0  0  0  0  0  0  0  0  0  0
   10.8518   12.2855    4.3107 C   0  0  0  0  0  0  0  0  0  0  0  0
   10.7413   13.2120    5.3212 N   0  0  0  0  0  0  0  0  0  0  0  0
  1  2  1  0  0  0  0
  1  6  1  0  0  0  0
  2  3  2  0  0  0  0
  3  4  1  0  0  0  0
  4  5  2  0  0  0  0
  4 10  1  0  0  0  0
  5  6  1  0  0  0  0
  5  8  1  0  0  0  0
  6  7  2  0  0  0  0
  8  9  1  0  0  0  0
  9 10  2  0  0  0  0
M  END
>  <CHROM.1>
11.38336180,11.58211050,6.62761106,0.45375395,-1.26707973,1.08995986

>  <Name>
ligand

>  <RI>
0

>  <Rbt.Current_Directory>
/home/itssahil/PROJECTS/Mol_Feturizer/New_Systems/rnas/2EEU

>  <Rbt.Executable>
rbdock ($Id: //depot/dev/client3/rdock/2013.1/src/exe/rbdock.cxx#4 $)

>  <Rbt.Library>
libRbt.so (2013.1, Build901 2013/11/27)

>  <Rbt.Parameter_File>
/export/apps/rDock/src/rDock_2013.1_src/data/scripts/dock_solv.prm

>  <Rbt.Receptor>
prm/blind_docking_40.prm

>  <SCORE>
-18.5966

>  <SCORE.INTER>
-18.5966

>  <SCORE.INTER.CONST>
1

>  <SCORE.INTER.POLAR>
0

>  <SCORE.INTER.ROT>
0

>  <SCORE.INTER.SOLV>
3.54265

>  <SCORE.INTER.VDW>
-17.1786

>  <SCORE.INTER.norm>
-1.85966

>  <SCORE.INTRA>
0

>  <SCORE.INTRA.DIHEDRAL>
0

>  <SCORE.INTRA.DIHEDRAL.0>
0

>  <SCORE.INTRA.POLAR>
0

>  <SCORE.INTRA.POLAR.0>
0

>  <SCORE.INTRA.REPUL>
0

>  <SCORE.INTRA.REPUL.0>
0

>  <SCORE.INTRA.SOLV>
0

>  <SCORE.INTRA.SOLV.lig_0>
-4.28148

>  <SCORE.INTRA.VDW>
0

>  <SCORE.INTRA.VDW.0>
0

>  <SCORE.INTRA.norm>
0

>  <SCORE.RESTR>
0

>  <SCORE.RESTR.CAVITY>
0

>  <SCORE.RESTR.norm>
0

>  <SCORE.SYSTEM>
0

>  <SCORE.SYSTEM.CONST>
0

>  <SCORE.SYSTEM.DIHEDRAL>
0

>  <SCORE.SYSTEM.SOLV>
0

>  <SCORE.SYSTEM.norm>
0

>  <SCORE.heavy>
10

>  <SCORE.norm>
-1.85966

>  <RMSD>
0.866

$$$$
ligand
 OpenBabel11021811423D
libRbt.so/2013.1/901 2013/11/27
 10 11  0  0  0  0  0  0  0  0999 V2000
   11.7885   10.9948    8.4327 N   0  0  0  0  0  0  0  0  0  0  0  0
   11.4259   12.3031    8.6825 C   0  0  0  0  0  0  0  0  0  0  0  0
   11.0537   13.1373    7.7039 N   0  0  0  0  0  0  0  0  0  0  0  0
   11.0767   12.5619    6.4687 C   0  0  0  0  0  0  0  0  0  0  0  0
   11.4308   11.2594    6.1508 C   0  0  0  0  0  0  0  0  0  0  0  0
   11.8247   10.3677    7.1852 C   0  0  0  0  0  0  0  0  0  0  0  0
   12.1727    9.1881    7.1301 O   0  0  0  0  0  0  0  0  0  0  0  0
   11.3148   11.0977    4.7911 N   0  0  0  0  0  0  0  0  0  0  0  0
   10.8959   12.2866    4.2977 C   0  0  0  0  0  0  0  0  0  0  0  0
   10.7408   13.2104    5.3049 N   0  0  0  0  0  0  0  0  0  0  0  0
  1  2  1  0  0  0  0
  1  6  1  0  0  0  0
  2  3  2  0  0  0  0
  3  4  1  0  0  0  0
  4  5  2  0  0  0  0
  4 10  1  0  0  0  0
  5  6  1  0  0  0  0
  5  8  1  0  0  0  0
  6  7  2  0  0  0  0
  8  9  1  0  0  0  0
  9 10  2  0  0  0  0
M  END
>  <CHROM.1>
11.38765308,11.59499915,6.62689905,0.55527051,-1.25691348,1.18651031

>  <Name>
ligand

>  <RI>
0

>  <Rbt.Current_Directory>
/home/itssahil/PROJECTS/Mol_Feturizer/New_Systems/rnas/2EEU

>  <Rbt.Executable>
rbdock ($Id: //depot/dev/client3/rdock/2013.1/src/exe/rbdock.cxx#4 $)

>  <Rbt.Library>
libRbt.so (2013.1, Build901 2013/11/27)

>  <Rbt.Parameter_File>
/export/apps/rDock/src/rDock_2013.1_src/data/scripts/dock_solv.prm

>  <Rbt.Receptor>
prm/blind_docking_80.prm

>  <SCORE>
-18.5503

>  <SCORE.INTER>
-18.5503

>  <SCORE.INTER.CONST>
1

>  <SCORE.INTER.POLAR>
0

>  <SCORE.INTER.ROT>
0

>  <SCORE.INTER.SOLV>
3.50429

>  <SCORE.INTER.VDW>
-17.1349

>  <SCORE.INTER.norm>
-1.85503

>  <SCORE.INTRA>
0

>  <SCORE.INTRA.DIHEDRAL>
0

>  <SCORE.INTRA.DIHEDRAL.0>
0

>  <SCORE.INTRA.POLAR>
0

>  <SCORE.INTRA.POLAR.0>
0

>  <SCORE.INTRA.REPUL>
0

>  <SCORE.INTRA.REPUL.0>
0

>  <SCORE.INTRA.SOLV>
0

>  <SCORE.INTRA.SOLV.lig_0>
-4.28148

>  <SCORE.INTRA.VDW>
0

>  <SCORE.INTRA.VDW.0>
0

>  <SCORE.INTRA.norm>
0

>  <SCORE.RESTR>
0

>  <SCORE.RESTR.CAVITY>
0

>  <SCORE.RESTR.norm>
0

>  <SCORE.SYSTEM>
0

>  <SCORE.SYSTEM.CONST>
0

>  <SCORE.SYSTEM.DIHEDRAL>
0

>  <SCORE.SYSTEM.SOLV>
0

>  <SCORE.SYSTEM.norm>
0

>  <SCORE.heavy>
10

>  <SCORE.norm>
-1.85503

>  <RMSD>
0.866

$$$$
ligand
 OpenBabel11021811423D
libRbt.so/2013.1/901 2013/11/27
 10 11  0  0  0  0  0  0  0  0999 V2000
   11.7999   10.9923    8.4289 N   0  0  0  0  0  0  0  0  0  0  0  0
   11.4599   12.3066    8.6791 C   0  0  0  0  0  0  0  0  0  0  0  0
   11.0833   13.1420    7.7032 N   0  0  0  0  0  0  0  0  0  0  0  0
   11.0778   12.5614    6.4702 C   0  0  0  0  0  0  0  0  0  0  0  0
   11.4084   11.2529    6.1520 C   0  0  0  0  0  0  0  0  0  0  0  0
   11.8069   10.3598    7.1836 C   0  0  0  0  0  0  0  0  0  0  0  0
   12.1373    9.1752    7.1277 O   0  0  0  0  0  0  0  0  0  0  0  0
   11.2677   11.0874    4.7951 N   0  0  0  0  0  0  0  0  0  0  0  0
   10.8574   12.2801    4.3037 C   0  0  0  0  0  0  0  0  0  0  0  0
   10.7320   13.2099    5.3094 N   0  0  0  0  0  0  0  0  0  0  0  0
  1  2  1  0  0  0  0
  1  6  1  0  0  0  0
  2  3  2  0  0  0  0
  3  4  1  0  0  0  0
  4  5  2  0  0  0  0
  4 10  1  0  0  0  0
  5  6  1  0  0  0  0
  5  8  1  0  0  0  0
  6  7  2  0  0  0  0
  8  9  1  0  0  0  0
  9 10  2  0  0  0  0
M  END
>  <CHROM.1>
11.37784008,11.59090903,6.62738150,0.48743629,-1.26302528,1.11783644

>  <Name>
ligand

>  <RI>
0

>  <Rbt.Current_Directory>
/home/itssahil/PROJECTS/Mol_Feturizer/New_Systems/rnas/2EEU

>  <Rbt.Executable>
rbdock ($Id: //depot/dev/client3/rdock/2013.1/src/exe/rbdock.cxx#4 $)

>  <Rbt.Library>
libRbt.so (2013.1, Build901 2013/11/27)

>  <Rbt.Parameter_File>
/export/apps/rDock/src/rDock_2013.1_src/data/scripts/dock_solv.prm

>  <Rbt.Receptor>
prm/blind_docking_80.prm

>  <SCORE>
-18.5913

>  <SCORE.INTER>
-18.5913

>  <SCORE.INTER.CONST>
1

>  <SCORE.INTER.POLAR>
0

>  <SCORE.INTER.ROT>
0

>  <SCORE.INTER.SOLV>
3.53048

>  <SCORE.INTER.VDW>
-17.171

>  <SCORE.INTER.norm>
-1.85913

>  <SCORE.INTRA>
0

>  <SCORE.INTRA.DIHEDRAL>
0

>  <SCORE.INTRA.DIHEDRAL.0>
0

>  <SCORE.INTRA.POLAR>
0

>  <SCORE.INTRA.POLAR.0>
0

>  <SCORE.INTRA.REPUL>
0

>  <SCORE.INTRA.REPUL.0>
0

>  <SCORE.INTRA.SOLV>
0

>  <SCORE.INTRA.SOLV.lig_0>
-4.28148

>  <SCORE.INTRA.VDW>
0

>  <SCORE.INTRA.VDW.0>
0

>  <SCORE.INTRA.norm>
0

>  <SCORE.RESTR>
0

>  <SCORE.RESTR.CAVITY>
0

>  <SCORE.RESTR.norm>
0

>  <SCORE.SYSTEM>
0

>  <SCORE.SYSTEM.CONST>
0

>  <SCORE.SYSTEM.DIHEDRAL>
0

>  <SCORE.SYSTEM.SOLV>
0

>  <SCORE.SYSTEM.norm>
0

>  <SCORE.heavy>
10

>  <SCORE.norm>
-1.85913

>  <RMSD>
0.866

$$$$
ligand
 OpenBabel11021811423D
libRbt.so/2013.1/901 2013/11/27
 10 11  0  0  0  0  0  0  0  0999 V2000
   11.7811   10.9743    8.4335 N   0  0  0  0  0  0  0  0  0  0  0  0
   11.4475   12.2893    8.6883 C   0  0  0  0  0  0  0  0  0  0  0  0
   11.0830   13.1323    7.7143 N   0  0  0  0  0  0  0  0  0  0  0  0
   11.0827   12.5583    6.4782 C   0  0  0  0  0  0  0  0  0  0  0  0
   11.4074   11.2494    6.1553 C   0  0  0  0  0  0  0  0  0  0  0  0
   11.7930   10.3484    7.1849 C   0  0  0  0  0  0  0  0  0  0  0  0
   12.1165    9.1621    7.1250 O   0  0  0  0  0  0  0  0  0  0  0  0
   11.2754   11.0920    4.7966 N   0  0  0  0  0  0  0  0  0  0  0  0
   10.8760   12.2899    4.3086 C   0  0  0  0  0  0  0  0  0  0  0  0
   10.7492   13.2151    5.3184 N   0  0  0  0  0  0  0  0  0  0  0  0
  1  2  1  0  0  0  0
  1  6  1  0  0  0  0
  2  3  2  0  0  0  0
  3  4  1  0  0  0  0
  4  5  2  0  0  0  0
  4 10  1  0  0  0  0
  5  6  1  0  0  0  0
  5  8  1  0  0  0  0
  6  7  2  0  0  0  0
  8  9  1  0  0  0  0
  9 10  2  0  0  0  0
M  END
>  <CHROM.1>
11.37557593,11.58508054,6.63224957,0.49992045,-1.27170168,1.13507956

>  <Name>
ligand

>  <RI>
0

>  <Rbt.Current_Directory>
/home/itssahil/PROJECTS/Mol_Feturizer/New_Systems/rnas/2EEU

>  <Rbt.Executable>
rbdock ($Id: //depot/dev/client3/rdock/2013.1/src/exe/rbdock.cxx#4 $)

>  <Rbt.Library>
libRbt.so (2013.1, Build901 2013/11/27)

>  <Rbt.Parameter_File>
/export/apps/rDock/src/rDock_2013.1_src/data/scripts/dock_solv.prm

>  <Rbt.Receptor>
prm/pocket_docking_3.prm

>  <SCORE>
-18.5873

>  <SCORE.INTER>
-18.5873

>  <SCORE.INTER.CONST>
1

>  <SCORE.INTER.POLAR>
0

>  <SCORE.INTER.ROT>
0

>  <SCORE.INTER.SOLV>
3.56513

>  <SCORE.INTER.VDW>
-17.1799

>  <SCORE.INTER.norm>
-1.85873

>  <SCORE.INTRA>
0

>  <SCORE.INTRA.DIHEDRAL>
0

>  <SCORE.INTRA.DIHEDRAL.0>
0

>  <SCORE.INTRA.POLAR>
0

>  <SCORE.INTRA.POLAR.0>
0

>  <SCORE.INTRA.REPUL>
0

>  <SCORE.INTRA.REPUL.0>
0

>  <SCORE.INTRA.SOLV>
0

>  <SCORE.INTRA.SOLV.lig_0>
-4.28148

>  <SCORE.INTRA.VDW>
0

>  <SCORE.INTRA.VDW.0>
0

>  <SCORE.INTRA.norm>
0

>  <SCORE.RESTR>
0

>  <SCORE.RESTR.CAVITY>
0

>  <SCORE.RESTR.norm>
0

>  <SCORE.SYSTEM>
0

>  <SCORE.SYSTEM.CONST>
0

>  <SCORE.SYSTEM.DIHEDRAL>
0

>  <SCORE.SYSTEM.SOLV>
0

>  <SCORE.SYSTEM.norm>
0

>  <SCORE.heavy>
10

>  <SCORE.norm>
-1.85873

>  <RMSD>
0.866

$$$$
ligand
 OpenBabel11021811423D
libRbt.so/2013.1/901 2013/11/27
 10 11  0  0  0  0  0  0  0  0999 V2000
   11.8078   10.9729    8.4250 N   0  0  0  0  0  0  0  0  0  0  0  0
   11.4762   12.2879    8.6830 C   0  0  0  0  0  0  0  0  0  0  0  0
   11.1016   13.1306    7.7126 N   0  0  0  0  0  0  0  0  0  0  0  0
   11.0891   12.5564    6.4767 C   0  0  0  0  0  0  0  0  0  0  0  0
   11.4110   11.2476    6.1507 C   0  0  0  0  0  0  0  0  0  0  0  0
   11.8073   10.3469    7.1764 C   0  0  0  0  0  0  0  0  0  0  0  0
   12.1306    9.1607    7.1134 O   0  0  0  0  0  0  0  0  0  0  0  0
   11.2653   11.0901    4.7934 N   0  0  0  0  0  0  0  0  0  0  0  0
   10.8606   12.2877    4.3094 C   0  0  0  0  0  0  0  0  0  0  0  0
   10.7436   13.2130    5.3203 N   0  0  0  0  0  0  0  0  0  0  0  0
  1  2  1  0  0  0  0
  1  6  1  0  0  0  0
  2  3  2  0  0  0  0
  3  4  1  0  0  0  0
  4  5  2  0  0  0  0
  4 10  1  0  0  0  0
  5  6  1  0  0  0  0
  5  8  1  0  0  0  0
  6  7  2  0  0  0  0
  8  9  1  0  0  0  0
  9 10  2  0  0  0  0
M  END
>  <CHROM.1>
11.38385683,11.58338599,6.62788410,0.46986652,-1.26697438,1.10627223

>  <Name>
ligand

>  <RI>
0

>  <Rbt.Current_Directory>
/home/itssahil/PROJECTS/Mol_Feturizer/New_Systems/rnas/2EEU

>  <Rbt.Executable>
rbdock ($Id: //depot/dev/client3/rdock/2013.1/src/exe/rbdock.cxx#4 $)

>  <Rbt.Library>
libRbt.so (2013.1, Build901 2013/11/27)

>  <Rbt.Parameter_File>
/export/apps/rDock/src/rDock_2013.1_src/data/scripts/dock_solv.prm

>  <Rbt.Receptor>
prm/pocket_docking_4.prm

>  <SCORE>
-18.5949

>  <SCORE.INTER>
-18.5949

>  <SCORE.INTER.CONST>
1

>  <SCORE.INTER.POLAR>
0

>  <SCORE.INTER.ROT>
0

>  <SCORE.INTER.SOLV>
3.54218

>  <SCORE.INTER.VDW>
-17.1773

>  <SCORE.INTER.norm>
-1.85949

>  <SCORE.INTRA>
0

>  <SCORE.INTRA.DIHEDRAL>
0

>  <SCORE.INTRA.DIHEDRAL.0>
0

>  <SCORE.INTRA.POLAR>
0

>  <SCORE.INTRA.POLAR.0>
0

>  <SCORE.INTRA.REPUL>
0

>  <SCORE.INTRA.REPUL.0>
0

>  <SCORE.INTRA.SOLV>
0

>  <SCORE.INTRA.SOLV.lig_0>
-4.28148

>  <SCORE.INTRA.VDW>
0

>  <SCORE.INTRA.VDW.0>
0

>  <SCORE.INTRA.norm>
0

>  <SCORE.RESTR>
0

>  <SCORE.RESTR.CAVITY>
0

>  <SCORE.RESTR.norm>
0

>  <SCORE.SYSTEM>
0

>  <SCORE.SYSTEM.CONST>
0

>  <SCORE.SYSTEM.DIHEDRAL>
0

>  <SCORE.SYSTEM.SOLV>
0

>  <SCORE.SYSTEM.norm>
0

>  <SCORE.heavy>
10

>  <SCORE.norm>
-1.85949

>  <RMSD>
0.866

$$$$
ligand
 OpenBabel11021811423D
libRbt.so/2013.1/901 2013/11/27
 10 11  0  0  0  0  0  0  0  0999 V2000
   11.8037   11.0025    8.4243 N   0  0  0  0  0  0  0  0  0  0  0  0
   11.4877   12.3227    8.6747 C   0  0  0  0  0  0  0  0  0  0  0  0
   11.1194   13.1632    7.6999 N   0  0  0  0  0  0  0  0  0  0  0  0
   11.0966   12.5811    6.4678 C   0  0  0  0  0  0  0  0  0  0  0  0
   11.4028   11.2667    6.1495 C   0  0  0  0  0  0  0  0  0  0  0  0
   11.7923   10.3683    7.1799 C   0  0  0  0  0  0  0  0  0  0  0  0
   12.1021    9.1782    7.1237 O   0  0  0  0  0  0  0  0  0  0  0  0
   11.2511   11.1019    4.7937 N   0  0  0  0  0  0  0  0  0  0  0  0
   10.8582   12.3008    4.3030 C   0  0  0  0  0  0  0  0  0  0  0  0
   10.7548   13.2339    5.3082 N   0  0  0  0  0  0  0  0  0  0  0  0
  1  2  1  0  0  0  0
  1  6  1  0  0  0  0
  2  3  2  0  0  0  0
  3  4  1  0  0  0  0
  4  5  2  0  0  0  0
  4 10  1  0  0  0  0
  5  6  1  0  0  0  0
  5  8  1  0  0  0  0
  6  7  2  0  0  0  0
  8  9  1  0  0  0  0
  9 10  2  0  0  0  0
M  END
>  <CHROM.1>
11.38094647,11.60583015,6.62451482,0.44297345,-1.27544292,1.07400353

>  <Name>
ligand

>  <RI>
0

>  <Rbt.Current_Directory>
/home/itssahil/PROJECTS/Mol_Feturizer/New_Systems/rnas/2EEU

>  <Rbt.Executable>
rbdock ($Id: //depot/dev/client3/rdock/2013.1/src/exe/rbdock.cxx#4 $)

>  <Rbt.Library>
libRbt.so (2013.1, Build901 2013/11/27)

>  <Rbt.Parameter_File>
/export/apps/rDock/src/rDock_2013.1_src/data/scripts/dock_solv.prm

>  <Rbt.Receptor>
prm/pocket_docking_6.prm

>  <SCORE>
-18.6085

>  <SCORE.INTER>
-18.6085

>  <SCORE.INTER.CONST>
1

>  <SCORE.INTER.POLAR>
0

>  <SCORE.INTER.ROT>
0

>  <SCORE.INTER.SOLV>
3.56741

>  <SCORE.INTER.VDW>
-17.1948

>  <SCORE.INTER.norm>
-1.86085

>  <SCORE.INTRA>
0

>  <SCORE.INTRA.DIHEDRAL>
0

>  <SCORE.INTRA.DIHEDRAL.0>
0

>  <SCORE.INTRA.POLAR>
0

>  <SCORE.INTRA.POLAR.0>
0

>  <SCORE.INTRA.REPUL>
0

>  <SCORE.INTRA.REPUL.0>
0

>  <SCORE.INTRA.SOLV>
0

>  <SCORE.INTRA.SOLV.lig_0>
-4.28148

>  <SCORE.INTRA.VDW>
0

>  <SCORE.INTRA.VDW.0>
0

>  <SCORE.INTRA.norm>
0

>  <SCORE.RESTR>
0

>  <SCORE.RESTR.CAVITY>
0

>  <SCORE.RESTR.norm>
0

>  <SCORE.SYSTEM>
0

>  <SCORE.SYSTEM.CONST>
0

>  <SCORE.SYSTEM.DIHEDRAL>
0

>  <SCORE.SYSTEM.SOLV>
0

>  <SCORE.SYSTEM.norm>
0

>  <SCORE.heavy>
10

>  <SCORE.norm>
-1.86085

>  <RMSD>
0.866

$$$$
ligand
 OpenBabel11021811423D
libRbt.so/2013.1/901 2013/11/27
 10 11  0  0  0  0  0  0  0  0999 V2000
   11.8195   10.9731    8.4227 N   0  0  0  0  0  0  0  0  0  0  0  0
   11.4978   12.2910    8.6781 C   0  0  0  0  0  0  0  0  0  0  0  0
   11.1217   13.1325    7.7072 N   0  0  0  0  0  0  0  0  0  0  0  0
   11.0972   12.5539    6.4735 C   0  0  0  0  0  0  0  0  0  0  0  0
   11.4088   11.2420    6.1502 C   0  0  0  0  0  0  0  0  0  0  0  0
   11.8065   10.3425    7.1764 C   0  0  0  0  0  0  0  0  0  0  0  0
   12.1221    9.1541    7.1156 O   0  0  0  0  0  0  0  0  0  0  0  0
   11.2528   11.0804    4.7945 N   0  0  0  0  0  0  0  0  0  0  0  0
   10.8521   12.2787    4.3088 C   0  0  0  0  0  0  0  0  0  0  0  0
   10.7478   13.2084    5.3171 N   0  0  0  0  0  0  0  0  0  0  0  0
  1  2  1  0  0  0  0
  1  6  1  0  0  0  0
  2  3  2  0  0  0  0
  3  4  1  0  0  0  0
  4  5  2  0  0  0  0
  4 10  1  0  0  0  0
  5  6  1  0  0  0  0
  5  8  1  0  0  0  0
  6  7  2  0  0  0  0
  8  9  1  0  0  0  0
  9 10  2  0  0  0  0
M  END
>  <CHROM.1>
11.38697567,11.57959337,6.62628583,0.43991530,-1.26926258,1.07402863

>  <Name>
ligand

>  <RI>
0

>  <Rbt.Current_Directory>
/home/itssahil/PROJECTS/Mol_Feturizer/New_Systems/rnas/2EEU

>  <Rbt.Executable>
rbdock ($Id: //depot/dev/client3/rdock/2013.1/src/exe/rbdock.cxx#4 $)

>  <Rbt.Library>
libRbt.so (2013.1, Build901 2013/11/27)

>  <Rbt.Parameter_File>
/export/apps/rDock/src/rDock_2013.1_src/data/scripts/dock_solv.prm

>  <Rbt.Receptor>
prm/pocket_docking_6.prm

>  <SCORE>
-18.5972

>  <SCORE.INTER>
-18.5972

>  <SCORE.INTER.CONST>
1

>  <SCORE.INTER.POLAR>
0

>  <SCORE.INTER.ROT>
0

>  <SCORE.INTER.SOLV>
3.54509

>  <SCORE.INTER.VDW>
-17.1798

>  <SCORE.INTER.norm>
-1.85972

>  <SCORE.INTRA>
0

>  <SCORE.INTRA.DIHEDRAL>
0

>  <SCORE.INTRA.DIHEDRAL.0>
0

>  <SCORE.INTRA.POLAR>
0

>  <SCORE.INTRA.POLAR.0>
0

>  <SCORE.INTRA.REPUL>
0

>  <SCORE.INTRA.REPUL.0>
0

>  <SCORE.INTRA.SOLV>
0

>  <SCORE.INTRA.SOLV.lig_0>
-4.28148

>  <SCORE.INTRA.VDW>
0

>  <SCORE.INTRA.VDW.0>
0

>  <SCORE.INTRA.norm>
0

>  <SCORE.RESTR>
0

>  <SCORE.RESTR.CAVITY>
0

>  <SCORE.RESTR.norm>
0

>  <SCORE.SYSTEM>
0

>  <SCORE.SYSTEM.CONST>
0

>  <SCORE.SYSTEM.DIHEDRAL>
0

>  <SCORE.SYSTEM.SOLV>
0

>  <SCORE.SYSTEM.norm>
0

>  <SCORE.heavy>
10

>  <SCORE.norm>
-1.85972

>  <RMSD>
0.866

$$$$
ligand
 OpenBabel11021811423D
libRbt.so/2013.1/901 2013/11/27
 10 11  0  0  0  0  0  0  0  0999 V2000
   11.7883   10.9944    8.4298 N   0  0  0  0  0  0  0  0  0  0  0  0
   11.4598   12.3117    8.6798 C   0  0  0  0  0  0  0  0  0  0  0  0
   11.0954   13.1517    7.7032 N   0  0  0  0  0  0  0  0  0  0  0  0
   11.0898   12.5723    6.4696 C   0  0  0  0  0  0  0  0  0  0  0  0
   11.4092   11.2610    6.1515 C   0  0  0  0  0  0  0  0  0  0  0  0
   11.7946   10.3631    7.1839 C   0  0  0  0  0  0  0  0  0  0  0  0
   12.1140    9.1755    7.1283 O   0  0  0  0  0  0  0  0  0  0  0  0
   11.2729   11.0982    4.7938 N   0  0  0  0  0  0  0  0  0  0  0  0
   10.8761   12.2952    4.3018 C   0  0  0  0  0  0  0  0  0  0  0  0
   10.7552   13.2252    5.3079 N   0  0  0  0  0  0  0  0  0  0  0  0
  1  2  1  0  0  0  0
  1  6  1  0  0  0  0
  2  3  2  0  0  0  0
  3  4  1  0  0  0  0
  4  5  2  0  0  0  0
  4 10  1  0  0  0  0
  5  6  1  0  0  0  0
  5  8  1  0  0  0  0
  6  7  2  0  0  0  0
  8  9  1  0  0  0  0
  9 10  2  0  0  0  0
M  END
>  <CHROM.1>
11.37983810,11.59882144,6.62705105,0.48651413,-1.27353695,1.11794303

>  <Name>
ligand

>  <RI>
0

>  <Rbt.Current_Directory>
/home/itssahil/PROJECTS/Mol_Feturizer/New_Systems/rnas/2EEU

>  <Rbt.Executable>
rbdock ($Id: //depot/dev/client3/rdock/2013.1/src/exe/rbdock.cxx#4 $)

>  <Rbt.Library>
libRbt.so (2013.1, Build901 2013/11/27)

>  <Rbt.Parameter_File>
/export/apps/rDock/src/rDock_2013.1_src/data/scripts/dock_solv.prm

>  <Rbt.Receptor>
prm/pocket_docking_7.prm

>  <SCORE>
-18.593

>  <SCORE.INTER>
-18.593

>  <SCORE.INTER.CONST>
1

>  <SCORE.INTER.POLAR>
0

>  <SCORE.INTER.ROT>
0

>  <SCORE.INTER.SOLV>
3.56368

>  <SCORE.INTER.VDW>
-17.1832

>  <SCORE.INTER.norm>
-1.8593

>  <SCORE.INTRA>
0

>  <SCORE.INTRA.DIHEDRAL>
0

>  <SCORE.INTRA.DIHEDRAL.0>
0

>  <SCORE.INTRA.POLAR>
0

>  <SCORE.INTRA.POLAR.0>
0

>  <SCORE.INTRA.REPUL>
0

>  <SCORE.INTRA.REPUL.0>
0

>  <SCORE.INTRA.SOLV>
0

>  <SCORE.INTRA.SOLV.lig_0>
-4.28148

>  <SCORE.INTRA.VDW>
0

>  <SCORE.INTRA.VDW.0>
0

>  <SCORE.INTRA.norm>
0

>  <SCORE.RESTR>
0

>  <SCORE.RESTR.CAVITY>
0

>  <SCORE.RESTR.norm>
0

>  <SCORE.SYSTEM>
0

>  <SCORE.SYSTEM.CONST>
0

>  <SCORE.SYSTEM.DIHEDRAL>
0

>  <SCORE.SYSTEM.SOLV>
0

>  <SCORE.SYSTEM.norm>
0

>  <SCORE.heavy>
10

>  <SCORE.norm>
-1.8593

>  <RMSD>
0.866

$$$$
ligand
 OpenBabel11021811423D
libRbt.so/2013.1/901 2013/11/27
 10 11  0  0  0  0  0  0  0  0999 V2000
   11.8100   10.9746    8.4268 N   0  0  0  0  0  0  0  0  0  0  0  0
   11.4844   12.2920    8.6800 C   0  0  0  0  0  0  0  0  0  0  0  0
   11.1133   13.1327    7.7065 N   0  0  0  0  0  0  0  0  0  0  0  0
   11.0978   12.5539    6.4727 C   0  0  0  0  0  0  0  0  0  0  0  0
   11.4137   11.2425    6.1516 C   0  0  0  0  0  0  0  0  0  0  0  0
   11.8063   10.3438    7.1806 C   0  0  0  0  0  0  0  0  0  0  0  0
   12.1242    9.1560    7.1220 O   0  0  0  0  0  0  0  0  0  0  0  0
   11.2670   11.0804    4.7950 N   0  0  0  0  0  0  0  0  0  0  0  0
   10.8674   12.2780    4.3065 C   0  0  0  0  0  0  0  0  0  0  0  0
   10.7549   13.2077    5.3139 N   0  0  0  0  0  0  0  0  0  0  0  0
  1  2  1  0  0  0  0
  1  6  1  0  0  0  0
  2  3  2  0  0  0  0
  3  4  1  0  0  0  0
  4  5  2  0  0  0  0
  4 10  1  0  0  0  0
  5  6  1  0  0  0  0
  5  8  1  0  0  0  0
  6  7  2  0  0  0  0
  8  9  1  0  0  0  0
  9 10  2  0  0  0  0
M  END
>  <CHROM.1>
11.38823987,11.58012784,6.62753841,0.46215256,-1.27085732,1.09511992

>  <Name>
ligand

>  <RI>
0

>  <Rbt.Current_Directory>
/home/itssahil/PROJECTS/Mol_Feturizer/New_Systems/rnas/2EEU

>  <Rbt.Executable>
rbdock ($Id: //depot/dev/client3/rdock/2013.1/src/exe/rbdock.cxx#4 $)

>  <Rbt.Library>
libRbt.so (2013.1, Build901 2013/11/27)

>  <Rbt.Parameter_File>
/export/apps/rDock/src/rDock_2013.1_src/data/scripts/dock_solv.prm

>  <Rbt.Receptor>
prm/pocket_docking_7.prm

>  <SCORE>
-18.5945

>  <SCORE.INTER>
-18.5945

>  <SCORE.INTER.CONST>
1

>  <SCORE.INTER.POLAR>
0

>  <SCORE.INTER.ROT>
0

>  <SCORE.INTER.SOLV>
3.54806

>  <SCORE.INTER.VDW>
-17.1791

>  <SCORE.INTER.norm>
-1.85945

>  <SCORE.INTRA>
0

>  <SCORE.INTRA.DIHEDRAL>
0

>  <SCORE.INTRA.DIHEDRAL.0>
0

>  <SCORE.INTRA.POLAR>
0

>  <SCORE.INTRA.POLAR.0>
0

>  <SCORE.INTRA.REPUL>
0

>  <SCORE.INTRA.REPUL.0>
0

>  <SCORE.INTRA.SOLV>
0

>  <SCORE.INTRA.SOLV.lig_0>
-4.28148

>  <SCORE.INTRA.VDW>
0

>  <SCORE.INTRA.VDW.0>
0

>  <SCORE.INTRA.norm>
0

>  <SCORE.RESTR>
0

>  <SCORE.RESTR.CAVITY>
0

>  <SCORE.RESTR.norm>
0

>  <SCORE.SYSTEM>
0

>  <SCORE.SYSTEM.CONST>
0

>  <SCORE.SYSTEM.DIHEDRAL>
0

>  <SCORE.SYSTEM.SOLV>
0

>  <SCORE.SYSTEM.norm>
0

>  <SCORE.heavy>
10

>  <SCORE.norm>
-1.85945

>  <RMSD>
0.866

$$$$
ligand
 OpenBabel11021811423D
libRbt.so/2013.1/901 2013/11/27
 10 11  0  0  0  0  0  0  0  0999 V2000
   11.8032   10.9997    8.4267 N   0  0  0  0  0  0  0  0  0  0  0  0
   11.4880   12.3208    8.6731 C   0  0  0  0  0  0  0  0  0  0  0  0
   11.1264   13.1603    7.6950 N   0  0  0  0  0  0  0  0  0  0  0  0
   11.1094   12.5763    6.4638 C   0  0  0  0  0  0  0  0  0  0  0  0
   11.4152   11.2608    6.1492 C   0  0  0  0  0  0  0  0  0  0  0  0
   11.7975   10.3635    7.1832 C   0  0  0  0  0  0  0  0  0  0  0  0
   12.1057    9.1728    7.1307 O   0  0  0  0  0  0  0  0  0  0  0  0
   11.2707   11.0940    4.7929 N   0  0  0  0  0  0  0  0  0  0  0  0
   10.8824   12.2928    4.2982 C   0  0  0  0  0  0  0  0  0  0  0  0
   10.7750   13.2277    5.3012 N   0  0  0  0  0  0  0  0  0  0  0  0
  1  2  1  0  0  0  0
  1  6  1  0  0  0  0
  2  3  2  0  0  0  0
  3  4  1  0  0  0  0
  4  5  2  0  0  0  0
  4 10  1  0  0  0  0
  5  6  1  0  0  0  0
  5  8  1  0  0  0  0
  6  7  2  0  0  0  0
  8  9  1  0  0  0  0
  9 10  2  0  0  0  0
M  END
>  <CHROM.1>
11.39129116,11.60077691,6.62360626,0.45702219,-1.27946055,1.08581884

>  <Name>
ligand

>  <RI>
0

>  <Rbt.Current_Directory>
/home/itssahil/PROJECTS/Mol_Feturizer/New_Systems/rnas/2EEU

>  <Rbt.Executable>
rbdock ($Id: //depot/dev/client3/rdock/2013.1/src/exe/rbdock.cxx#4 $)

>  <Rbt.Library>
libRbt.so (2013.1, Build901 2013/11/27)

>  <Rbt.Parameter_File>
/export/apps/rDock/src/rDock_2013.1_src/data/scripts/dock_solv.prm

>  <Rbt.Receptor>
prm/pocket_docking_8.prm

>  <SCORE>
-18.6017

>  <SCORE.INTER>
-18.6017

>  <SCORE.INTER.CONST>
1

>  <SCORE.INTER.POLAR>
0

>  <SCORE.INTER.ROT>
0

>  <SCORE.INTER.SOLV>
3.56976

>  <SCORE.INTER.VDW>
-17.1911

>  <SCORE.INTER.norm>
-1.86017

>  <SCORE.INTRA>
0

>  <SCORE.INTRA.DIHEDRAL>
0

>  <SCORE.INTRA.DIHEDRAL.0>
0

>  <SCORE.INTRA.POLAR>
0

>  <SCORE.INTRA.POLAR.0>
0

>  <SCORE.INTRA.REPUL>
0

>  <SCORE.INTRA.REPUL.0>
0

>  <SCORE.INTRA.SOLV>
0

>  <SCORE.INTRA.SOLV.lig_0>
-4.28148

>  <SCORE.INTRA.VDW>
0

>  <SCORE.INTRA.VDW.0>
0

>  <SCORE.INTRA.norm>
0

>  <SCORE.RESTR>
0

>  <SCORE.RESTR.CAVITY>
0

>  <SCORE.RESTR.norm>
0

>  <SCORE.SYSTEM>
0

>  <SCORE.SYSTEM.CONST>
0

>  <SCORE.SYSTEM.DIHEDRAL>
0

>  <SCORE.SYSTEM.SOLV>
0

>  <SCORE.SYSTEM.norm>
0

>  <SCORE.heavy>
10

>  <SCORE.norm>
-1.86017

>  <RMSD>
0.866

$$$$
ligand
 OpenBabel11021811423D
libRbt.so/2013.1/901 2013/11/27
 10 11  0  0  0  0  0  0  0  0999 V2000
   11.8059   10.9992    8.4224 N   0  0  0  0  0  0  0  0  0  0  0  0
   11.4976   12.3211    8.6739 C   0  0  0  0  0  0  0  0  0  0  0  0
   11.1301   13.1634    7.7004 N   0  0  0  0  0  0  0  0  0  0  0  0
   11.0997   12.5814    6.4685 C   0  0  0  0  0  0  0  0  0  0  0  0
   11.3979   11.2654    6.1491 C   0  0  0  0  0  0  0  0  0  0  0  0
   11.7865   10.3651    7.1781 C   0  0  0  0  0  0  0  0  0  0  0  0
   12.0900    9.1734    7.1209 O   0  0  0  0  0  0  0  0  0  0  0  0
   11.2404   11.1013    4.7939 N   0  0  0  0  0  0  0  0  0  0  0  0
   10.8519   12.3022    4.3046 C   0  0  0  0  0  0  0  0  0  0  0  0
   10.7570   13.2359    5.3100 N   0  0  0  0  0  0  0  0  0  0  0  0
  1  2  1  0  0  0  0
  1  6  1  0  0  0  0
  2  3  2  0  0  0  0
  3  4  1  0  0  0  0
  4  5  2  0  0  0  0
  4 10  1  0  0  0  0
  5  6  1  0  0  0  0
  5  8  1  0  0  0  0
  6  7  2  0  0  0  0
  8  9  1  0  0  0  0
  9 10  2  0  0  0  0
M  END
>  <CHROM.1>
11.37956076,11.60468732,6.62419231,0.42316718,-1.27816962,1.05497855

>  <Name>
ligand

>  <RI>
0

>  <Rbt.Current_Directory>
/home/itssahil/PROJECTS/Mol_Feturizer/New_Systems/rnas/2EEU

>  <Rbt.Executable>
rbdock ($Id: //depot/dev/client3/rdock/2013.1/src/exe/rbdock.cxx#4 $)

>  <Rbt.Library>
libRbt.so (2013.1, Build901 2013/11/27)

>  <Rbt.Parameter_File>
/export/apps/rDock/src/rDock_2013.1_src/data/scripts/dock_solv.prm

>  <Rbt.Receptor>
prm/pocket_docking_8.prm

>  <SCORE>
-18.6098

>  <SCORE.INTER>
-18.6098

>  <SCORE.INTER.CONST>
1

>  <SCORE.INTER.POLAR>
0

>  <SCORE.INTER.ROT>
0

>  <SCORE.INTER.SOLV>
3.57891

>  <SCORE.INTER.VDW>
-17.1995

>  <SCORE.INTER.norm>
-1.86098

>  <SCORE.INTRA>
0

>  <SCORE.INTRA.DIHEDRAL>
0

>  <SCORE.INTRA.DIHEDRAL.0>
0

>  <SCORE.INTRA.POLAR>
0

>  <SCORE.INTRA.POLAR.0>
0

>  <SCORE.INTRA.REPUL>
0

>  <SCORE.INTRA.REPUL.0>
0

>  <SCORE.INTRA.SOLV>
0

>  <SCORE.INTRA.SOLV.lig_0>
-4.28148

>  <SCORE.INTRA.VDW>
0

>  <SCORE.INTRA.VDW.0>
0

>  <SCORE.INTRA.norm>
0

>  <SCORE.RESTR>
0

>  <SCORE.RESTR.CAVITY>
0

>  <SCORE.RESTR.norm>
0

>  <SCORE.SYSTEM>
0

>  <SCORE.SYSTEM.CONST>
0

>  <SCORE.SYSTEM.DIHEDRAL>
0

>  <SCORE.SYSTEM.SOLV>
0

>  <SCORE.SYSTEM.norm>
0

>  <SCORE.heavy>
10

>  <SCORE.norm>
-1.86098

>  <RMSD>
0.866

$$$$
ligand
 OpenBabel11021811423D
libRbt.so/2013.1/901 2013/11/27
 10 11  0  0  0  0  0  0  0  0999 V2000
   11.8114   10.9723    8.4248 N   0  0  0  0  0  0  0  0  0  0  0  0
   11.4874   12.2898    8.6792 C   0  0  0  0  0  0  0  0  0  0  0  0
   11.1159   13.1315    7.7067 N   0  0  0  0  0  0  0  0  0  0  0  0
   11.0982   12.5535    6.4726 C   0  0  0  0  0  0  0  0  0  0  0  0
   11.4125   11.2420    6.1502 C   0  0  0  0  0  0  0  0  0  0  0  0
   11.8055   10.3423    7.1782 C   0  0  0  0  0  0  0  0  0  0  0  0
   12.1222    9.1542    7.1184 O   0  0  0  0  0  0  0  0  0  0  0  0
   11.2638   11.0810    4.7937 N   0  0  0  0  0  0  0  0  0  0  0  0
   10.8648   12.2793    4.3065 C   0  0  0  0  0  0  0  0  0  0  0  0
   10.7545   13.2083    5.3146 N   0  0  0  0  0  0  0  0  0  0  0  0
  1  2  1  0  0  0  0
  1  6  1  0  0  0  0
  2  3  2  0  0  0  0
  3  4  1  0  0  0  0
  4  5  2  0  0  0  0
  4 10  1  0  0  0  0
  5  6  1  0  0  0  0
  5  8  1  0  0  0  0
  6  7  2  0  0  0  0
  8  9  1  0  0  0  0
  9 10  2  0  0  0  0
M  END
>  <CHROM.1>
11.38791779,11.57937081,6.62640519,0.45675730,-1.27111553,1.09059811

>  <Name>
ligand

>  <RI>
0

>  <Rbt.Current_Directory>
/home/itssahil/PROJECTS/Mol_Feturizer/New_Systems/rnas/2EEU

>  <Rbt.Executable>
rbdock ($Id: //depot/dev/client3/rdock/2013.1/src/exe/rbdock.cxx#4 $)

>  <Rbt.Library>
libRbt.so (2013.1, Build901 2013/11/27)

>  <Rbt.Parameter_File>
/export/apps/rDock/src/rDock_2013.1_src/data/scripts/dock_solv.prm

>  <Rbt.Receptor>
prm/blind_docking_40.prm

>  <SCORE>
-18.5952

>  <SCORE.INTER>
-18.5952

>  <SCORE.INTER.CONST>
1

>  <SCORE.INTER.POLAR>
0

>  <SCORE.INTER.ROT>
0

>  <SCORE.INTER.SOLV>
3.55059

>  <SCORE.INTER.VDW>
-17.1803

>  <SCORE.INTER.norm>
-1.85952

>  <SCORE.INTRA>
0

>  <SCORE.INTRA.DIHEDRAL>
0

>  <SCORE.INTRA.DIHEDRAL.0>
0

>  <SCORE.INTRA.POLAR>
0

>  <SCORE.INTRA.POLAR.0>
0

>  <SCORE.INTRA.REPUL>
0

>  <SCORE.INTRA.REPUL.0>
0

>  <SCORE.INTRA.SOLV>
0

>  <SCORE.INTRA.SOLV.lig_0>
-4.28148

>  <SCORE.INTRA.VDW>
0

>  <SCORE.INTRA.VDW.0>
0

>  <SCORE.INTRA.norm>
0

>  <SCORE.RESTR>
0

>  <SCORE.RESTR.CAVITY>
0

>  <SCORE.RESTR.norm>
0

>  <SCORE.SYSTEM>
0

>  <SCORE.SYSTEM.CONST>
0

>  <SCORE.SYSTEM.DIHEDRAL>
0

>  <SCORE.SYSTEM.SOLV>
0

>  <SCORE.SYSTEM.norm>
0

>  <SCORE.heavy>
10

>  <SCORE.norm>
-1.85952

>  <RMSD>
0.867

$$$$
ligand
 OpenBabel11021811423D
libRbt.so/2013.1/901 2013/11/27
 10 11  0  0  0  0  0  0  0  0999 V2000
   11.8071   10.9714    8.4233 N   0  0  0  0  0  0  0  0  0  0  0  0
   11.4793   12.2871    8.6822 C   0  0  0  0  0  0  0  0  0  0  0  0
   11.1045   13.1308    7.7128 N   0  0  0  0  0  0  0  0  0  0  0  0
   11.0878   12.5568    6.4768 C   0  0  0  0  0  0  0  0  0  0  0  0
   11.4058   11.2472    6.1500 C   0  0  0  0  0  0  0  0  0  0  0  0
   11.8022   10.3454    7.1747 C   0  0  0  0  0  0  0  0  0  0  0  0
   12.1225    9.1585    7.1109 O   0  0  0  0  0  0  0  0  0  0  0  0
   11.2567   11.0902    4.7930 N   0  0  0  0  0  0  0  0  0  0  0  0
   10.8537   12.2888    4.3100 C   0  0  0  0  0  0  0  0  0  0  0  0
   10.7413   13.2143    5.3212 N   0  0  0  0  0  0  0  0  0  0  0  0
  1  2  1  0  0  0  0
  1  6  1  0  0  0  0
  2  3  2  0  0  0  0
  3  4  1  0  0  0  0
  4  5  2  0  0  0  0
  4 10  1  0  0  0  0
  5  6  1  0  0  0  0
  5  8  1  0  0  0  0
  6  7  2  0  0  0  0
  8  9  1  0  0  0  0
  9 10  2  0  0  0  0
M  END
>  <CHROM.1>
11.38055046,11.58300823,6.62724299,0.45942136,-1.26810471,1.09639664

>  <Name>
ligand

>  <RI>
0

>  <Rbt.Current_Directory>
/home/itssahil/PROJECTS/Mol_Feturizer/New_Systems/rnas/2EEU

>  <Rbt.Executable>
rbdock ($Id: //depot/dev/client3/rdock/2013.1/src/exe/rbdock.cxx#4 $)

>  <Rbt.Library>
libRbt.so (2013.1, Build901 2013/11/27)

>  <Rbt.Parameter_File>
/export/apps/rDock/src/rDock_2013.1_src/data/scripts/dock_solv.prm

>  <Rbt.Receptor>
prm/blind_docking_80.prm

>  <SCORE>
-18.5957

>  <SCORE.INTER>
-18.5957

>  <SCORE.INTER.CONST>
1

>  <SCORE.INTER.POLAR>
0

>  <SCORE.INTER.ROT>
0

>  <SCORE.INTER.SOLV>
3.55003

>  <SCORE.INTER.VDW>
-17.1805

>  <SCORE.INTER.norm>
-1.85957

>  <SCORE.INTRA>
0

>  <SCORE.INTRA.DIHEDRAL>
0

>  <SCORE.INTRA.DIHEDRAL.0>
0

>  <SCORE.INTRA.POLAR>
0

>  <SCORE.INTRA.POLAR.0>
0

>  <SCORE.INTRA.REPUL>
0

>  <SCORE.INTRA.REPUL.0>
0

>  <SCORE.INTRA.SOLV>
0

>  <SCORE.INTRA.SOLV.lig_0>
-4.28148

>  <SCORE.INTRA.VDW>
0

>  <SCORE.INTRA.VDW.0>
0

>  <SCORE.INTRA.norm>
0

>  <SCORE.RESTR>
0

>  <SCORE.RESTR.CAVITY>
0

>  <SCORE.RESTR.norm>
0

>  <SCORE.SYSTEM>
0

>  <SCORE.SYSTEM.CONST>
0

>  <SCORE.SYSTEM.DIHEDRAL>
0

>  <SCORE.SYSTEM.SOLV>
0

>  <SCORE.SYSTEM.norm>
0

>  <SCORE.heavy>
10

>  <SCORE.norm>
-1.85957

>  <RMSD>
0.867

$$$$
ligand
 OpenBabel11021811423D
libRbt.so/2013.1/901 2013/11/27
 10 11  0  0  0  0  0  0  0  0999 V2000
   11.7985   10.9721    8.4270 N   0  0  0  0  0  0  0  0  0  0  0  0
   11.4659   12.2870    8.6839 C   0  0  0  0  0  0  0  0  0  0  0  0
   11.0961   13.1301    7.7120 N   0  0  0  0  0  0  0  0  0  0  0  0
   11.0896   12.5565    6.4758 C   0  0  0  0  0  0  0  0  0  0  0  0
   11.4129   11.2478    6.1509 C   0  0  0  0  0  0  0  0  0  0  0  0
   11.8041   10.3466    7.1782 C   0  0  0  0  0  0  0  0  0  0  0  0
   12.1276    9.1604    7.1163 O   0  0  0  0  0  0  0  0  0  0  0  0
   11.2739   11.0908    4.7928 N   0  0  0  0  0  0  0  0  0  0  0  0
   10.8716   12.2886    4.3073 C   0  0  0  0  0  0  0  0  0  0  0  0
   10.7498   13.2135    5.3180 N   0  0  0  0  0  0  0  0  0  0  0  0
  1  2  1  0  0  0  0
  1  6  1  0  0  0  0
  2  3  2  0  0  0  0
  3  4  1  0  0  0  0
  4  5  2  0  0  0  0
  4 10  1  0  0  0  0
  5  6  1  0  0  0  0
  5  8  1  0  0  0  0
  6  7  2  0  0  0  0
  8  9  1  0  0  0  0
  9 10  2  0  0  0  0
M  END
>  <CHROM.1>
11.38347923,11.58331523,6.62807055,0.48447107,-1.26922822,1.12060119

>  <Name>
ligand

>  <RI>
0

>  <Rbt.Current_Directory>
/home/itssahil/PROJECTS/Mol_Feturizer/New_Systems/rnas/2EEU

>  <Rbt.Executable>
rbdock ($Id: //depot/dev/client3/rdock/2013.1/src/exe/rbdock.cxx#4 $)

>  <Rbt.Library>
libRbt.so (2013.1, Build901 2013/11/27)

>  <Rbt.Parameter_File>
/export/apps/rDock/src/rDock_2013.1_src/data/scripts/dock_solv.prm

>  <Rbt.Receptor>
prm/pocket_docking_4.prm

>  <SCORE>
-18.591

>  <SCORE.INTER>
-18.591

>  <SCORE.INTER.CONST>
1

>  <SCORE.INTER.POLAR>
0

>  <SCORE.INTER.ROT>
0

>  <SCORE.INTER.SOLV>
3.5507

>  <SCORE.INTER.VDW>
-17.1776

>  <SCORE.INTER.norm>
-1.8591

>  <SCORE.INTRA>
0

>  <SCORE.INTRA.DIHEDRAL>
0

>  <SCORE.INTRA.DIHEDRAL.0>
0

>  <SCORE.INTRA.POLAR>
0

>  <SCORE.INTRA.POLAR.0>
0

>  <SCORE.INTRA.REPUL>
0

>  <SCORE.INTRA.REPUL.0>
0

>  <SCORE.INTRA.SOLV>
0

>  <SCORE.INTRA.SOLV.lig_0>
-4.28148

>  <SCORE.INTRA.VDW>
0

>  <SCORE.INTRA.VDW.0>
0

>  <SCORE.INTRA.norm>
0

>  <SCORE.RESTR>
0

>  <SCORE.RESTR.CAVITY>
0

>  <SCORE.RESTR.norm>
0

>  <SCORE.SYSTEM>
0

>  <SCORE.SYSTEM.CONST>
0

>  <SCORE.SYSTEM.DIHEDRAL>
0

>  <SCORE.SYSTEM.SOLV>
0

>  <SCORE.SYSTEM.norm>
0

>  <SCORE.heavy>
10

>  <SCORE.norm>
-1.8591

>  <RMSD>
0.867

$$$$
ligand
 OpenBabel11021811423D
libRbt.so/2013.1/901 2013/11/27
 10 11  0  0  0  0  0  0  0  0999 V2000
   11.8037   10.9992    8.4254 N   0  0  0  0  0  0  0  0  0  0  0  0
   11.4874   12.3198    8.6733 C   0  0  0  0  0  0  0  0  0  0  0  0
   11.1233   13.1596    7.6964 N   0  0  0  0  0  0  0  0  0  0  0  0
   11.1048   12.5764    6.4648 C   0  0  0  0  0  0  0  0  0  0  0  0
   11.4116   11.2615    6.1488 C   0  0  0  0  0  0  0  0  0  0  0  0
   11.7967   10.3639    7.1815 C   0  0  0  0  0  0  0  0  0  0  0  0
   12.1061    9.1735    7.1276 O   0  0  0  0  0  0  0  0  0  0  0  0
   11.2649   11.0955    4.7926 N   0  0  0  0  0  0  0  0  0  0  0  0
   10.8745   12.2941    4.2994 C   0  0  0  0  0  0  0  0  0  0  0  0
   10.7677   13.2282    5.3032 N   0  0  0  0  0  0  0  0  0  0  0  0
  1  2  1  0  0  0  0
  1  6  1  0  0  0  0
  2  3  2  0  0  0  0
  3  4  1  0  0  0  0
  4  5  2  0  0  0  0
  4 10  1  0  0  0  0
  5  6  1  0  0  0  0
  5  8  1  0  0  0  0
  6  7  2  0  0  0  0
  8  9  1  0  0  0  0
  9 10  2  0  0  0  0
M  END
>  <CHROM.1>
11.38805807,11.60107686,6.62345683,0.45364770,-1.27765967,1.08329365

>  <Name>
ligand

>  <RI>
0

>  <Rbt.Current_Directory>
/home/itssahil/PROJECTS/Mol_Feturizer/New_Systems/rnas/2EEU

>  <Rbt.Executable>
rbdock ($Id: //depot/dev/client3/rdock/2013.1/src/exe/rbdock.cxx#4 $)

>  <Rbt.Library>
libRbt.so (2013.1, Build901 2013/11/27)

>  <Rbt.Parameter_File>
/export/apps/rDock/src/rDock_2013.1_src/data/scripts/dock_solv.prm

>  <Rbt.Receptor>
prm/pocket_docking_4.prm

>  <SCORE>
-18.6042

>  <SCORE.INTER>
-18.6042

>  <SCORE.INTER.CONST>
1

>  <SCORE.INTER.POLAR>
0

>  <SCORE.INTER.ROT>
0

>  <SCORE.INTER.SOLV>
3.56774

>  <SCORE.INTER.VDW>
-17.192

>  <SCORE.INTER.norm>
-1.86042

>  <SCORE.INTRA>
0

>  <SCORE.INTRA.DIHEDRAL>
0

>  <SCORE.INTRA.DIHEDRAL.0>
0

>  <SCORE.INTRA.POLAR>
0

>  <SCORE.INTRA.POLAR.0>
0

>  <SCORE.INTRA.REPUL>
0

>  <SCORE.INTRA.REPUL.0>
0

>  <SCORE.INTRA.SOLV>
0

>  <SCORE.INTRA.SOLV.lig_0>
-4.28148

>  <SCORE.INTRA.VDW>
0

>  <SCORE.INTRA.VDW.0>
0

>  <SCORE.INTRA.norm>
0

>  <SCORE.RESTR>
0

>  <SCORE.RESTR.CAVITY>
0

>  <SCORE.RESTR.norm>
0

>  <SCORE.SYSTEM>
0

>  <SCORE.SYSTEM.CONST>
0

>  <SCORE.SYSTEM.DIHEDRAL>
0

>  <SCORE.SYSTEM.SOLV>
0

>  <SCORE.SYSTEM.norm>
0

>  <SCORE.heavy>
10

>  <SCORE.norm>
-1.86042

>  <RMSD>
0.867

$$$$
ligand
 OpenBabel11021811423D
libRbt.so/2013.1/901 2013/11/27
 10 11  0  0  0  0  0  0  0  0999 V2000
   11.8199   10.9710    8.4199 N   0  0  0  0  0  0  0  0  0  0  0  0
   11.4963   12.2877    8.6793 C   0  0  0  0  0  0  0  0  0  0  0  0
   11.1170   13.1310    7.7112 N   0  0  0  0  0  0  0  0  0  0  0  0
   11.0912   12.5555    6.4761 C   0  0  0  0  0  0  0  0  0  0  0  0
   11.4045   11.2450    6.1488 C   0  0  0  0  0  0  0  0  0  0  0  0
   11.8058   10.3436    7.1720 C   0  0  0  0  0  0  0  0  0  0  0  0
   12.1233    9.1560    7.1076 O   0  0  0  0  0  0  0  0  0  0  0  0
   11.2464   11.0866    4.7930 N   0  0  0  0  0  0  0  0  0  0  0  0
   10.8427   12.2855    4.3111 C   0  0  0  0  0  0  0  0  0  0  0  0
   10.7385   13.2123    5.3220 N   0  0  0  0  0  0  0  0  0  0  0  0
  1  2  1  0  0  0  0
  1  6  1  0  0  0  0
  2  3  2  0  0  0  0
  3  4  1  0  0  0  0
  4  5  2  0  0  0  0
  4 10  1  0  0  0  0
  5  6  1  0  0  0  0
  5  8  1  0  0  0  0
  6  7  2  0  0  0  0
  8  9  1  0  0  0  0
  9 10  2  0  0  0  0
M  END
>  <CHROM.1>
11.38299871,11.58136048,6.62581948,0.43733845,-1.26683741,1.07412105

>  <Name>
ligand

>  <RI>
0

>  <Rbt.Current_Directory>
/home/itssahil/PROJECTS/Mol_Feturizer/New_Systems/rnas/2EEU

>  <Rbt.Executable>
rbdock ($Id: //depot/dev/client3/rdock/2013.1/src/exe/rbdock.cxx#4 $)

>  <Rbt.Library>
libRbt.so (2013.1, Build901 2013/11/27)

>  <Rbt.Parameter_File>
/export/apps/rDock/src/rDock_2013.1_src/data/scripts/dock_solv.prm

>  <Rbt.Receptor>
prm/pocket_docking_4.prm

>  <SCORE>
-18.5953

>  <SCORE.INTER>
-18.5953

>  <SCORE.INTER.CONST>
1

>  <SCORE.INTER.POLAR>
0

>  <SCORE.INTER.ROT>
0

>  <SCORE.INTER.SOLV>
3.5435

>  <SCORE.INTER.VDW>
-17.178

>  <SCORE.INTER.norm>
-1.85953

>  <SCORE.INTRA>
0

>  <SCORE.INTRA.DIHEDRAL>
0

>  <SCORE.INTRA.DIHEDRAL.0>
0

>  <SCORE.INTRA.POLAR>
0

>  <SCORE.INTRA.POLAR.0>
0

>  <SCORE.INTRA.REPUL>
0

>  <SCORE.INTRA.REPUL.0>
0

>  <SCORE.INTRA.SOLV>
0

>  <SCORE.INTRA.SOLV.lig_0>
-4.28148

>  <SCORE.INTRA.VDW>
0

>  <SCORE.INTRA.VDW.0>
0

>  <SCORE.INTRA.norm>
0

>  <SCORE.RESTR>
0

>  <SCORE.RESTR.CAVITY>
0

>  <SCORE.RESTR.norm>
0

>  <SCORE.SYSTEM>
0

>  <SCORE.SYSTEM.CONST>
0

>  <SCORE.SYSTEM.DIHEDRAL>
0

>  <SCORE.SYSTEM.SOLV>
0

>  <SCORE.SYSTEM.norm>
0

>  <SCORE.heavy>
10

>  <SCORE.norm>
-1.85953

>  <RMSD>
0.867

$$$$
ligand
 OpenBabel11021811423D
libRbt.so/2013.1/901 2013/11/27
 10 11  0  0  0  0  0  0  0  0999 V2000
   11.8051   11.0007    8.4241 N   0  0  0  0  0  0  0  0  0  0  0  0
   11.5000   12.3241    8.6715 C   0  0  0  0  0  0  0  0  0  0  0  0
   11.1368   13.1649    7.6951 N   0  0  0  0  0  0  0  0  0  0  0  0
   11.1073   12.5798    6.4646 C   0  0  0  0  0  0  0  0  0  0  0  0
   11.4026   11.2622    6.1492 C   0  0  0  0  0  0  0  0  0  0  0  0
   11.7866   10.3634    7.1813 C   0  0  0  0  0  0  0  0  0  0  0  0
   12.0869    9.1707    7.1278 O   0  0  0  0  0  0  0  0  0  0  0  0
   11.2473   11.0951    4.7941 N   0  0  0  0  0  0  0  0  0  0  0  0
   10.8632   12.2957    4.3010 C   0  0  0  0  0  0  0  0  0  0  0  0
   10.7688   13.2323    5.3038 N   0  0  0  0  0  0  0  0  0  0  0  0
  1  2  1  0  0  0  0
  1  6  1  0  0  0  0
  2  3  2  0  0  0  0
  3  4  1  0  0  0  0
  4  5  2  0  0  0  0
  4 10  1  0  0  0  0
  5  6  1  0  0  0  0
  5  8  1  0  0  0  0
  6  7  2  0  0  0  0
  8  9  1  0  0  0  0
  9 10  2  0  0  0  0
M  END
>  <CHROM.1>
11.38418246,11.60271926,6.62341068,0.42457142,-1.28159006,1.05376812

>  <Name>
ligand

>  <RI>
0

>  <Rbt.Current_Directory>
/home/itssahil/PROJECTS/Mol_Feturizer/New_Systems/rnas/2EEU

>  <Rbt.Executable>
rbdock ($Id: //depot/dev/client3/rdock/2013.1/src/exe/rbdock.cxx#4 $)

>  <Rbt.Library>
libRbt.so (2013.1, Build901 2013/11/27)

>  <Rbt.Parameter_File>
/export/apps/rDock/src/rDock_2013.1_src/data/scripts/dock_solv.prm

>  <Rbt.Receptor>
prm/pocket_docking_5.prm

>  <SCORE>
-18.61

>  <SCORE.INTER>
-18.61

>  <SCORE.INTER.CONST>
1

>  <SCORE.INTER.POLAR>
0

>  <SCORE.INTER.ROT>
0

>  <SCORE.INTER.SOLV>
3.58461

>  <SCORE.INTER.VDW>
-17.2015

>  <SCORE.INTER.norm>
-1.861

>  <SCORE.INTRA>
0

>  <SCORE.INTRA.DIHEDRAL>
0

>  <SCORE.INTRA.DIHEDRAL.0>
0

>  <SCORE.INTRA.POLAR>
0

>  <SCORE.INTRA.POLAR.0>
0

>  <SCORE.INTRA.REPUL>
0

>  <SCORE.INTRA.REPUL.0>
0

>  <SCORE.INTRA.SOLV>
0

>  <SCORE.INTRA.SOLV.lig_0>
-4.28148

>  <SCORE.INTRA.VDW>
0

>  <SCORE.INTRA.VDW.0>
0

>  <SCORE.INTRA.norm>
0

>  <SCORE.RESTR>
0

>  <SCORE.RESTR.CAVITY>
0

>  <SCORE.RESTR.norm>
0

>  <SCORE.SYSTEM>
0

>  <SCORE.SYSTEM.CONST>
0

>  <SCORE.SYSTEM.DIHEDRAL>
0

>  <SCORE.SYSTEM.SOLV>
0

>  <SCORE.SYSTEM.norm>
0

>  <SCORE.heavy>
10

>  <SCORE.norm>
-1.861

>  <RMSD>
0.867

$$$$
ligand
 OpenBabel11021811423D
libRbt.so/2013.1/901 2013/11/27
 10 11  0  0  0  0  0  0  0  0999 V2000
   11.8629   10.7779    8.4166 N   0  0  0  0  0  0  0  0  0  0  0  0
   11.5093   12.0706    8.7476 C   0  0  0  0  0  0  0  0  0  0  0  0
   11.1099   12.9568    7.8270 N   0  0  0  0  0  0  0  0  0  0  0  0
   11.0966   12.4495    6.5622 C   0  0  0  0  0  0  0  0  0  0  0  0
   11.4399   11.1664    6.1637 C   0  0  0  0  0  0  0  0  0  0  0  0
   11.8625   10.2198    7.1362 C   0  0  0  0  0  0  0  0  0  0  0  0
   12.2073    9.0451    7.0069 O   0  0  0  0  0  0  0  0  0  0  0  0
   11.2846   11.0790    4.8011 N   0  0  0  0  0  0  0  0  0  0  0  0
   10.8530   12.2929    4.3855 C   0  0  0  0  0  0  0  0  0  0  0  0
   10.7282   13.1603    5.4456 N   0  0  0  0  0  0  0  0  0  0  0  0
  1  2  1  0  0  0  0
  1  6  1  0  0  0  0
  2  3  2  0  0  0  0
  3  4  1  0  0  0  0
  4  5  2  0  0  0  0
  4 10  1  0  0  0  0
  5  6  1  0  0  0  0
  5  8  1  0  0  0  0
  6  7  2  0  0  0  0
  8  9  1  0  0  0  0
  9 10  2  0  0  0  0
M  END
>  <CHROM.1>
11.41093917,11.47553838,6.65842226,0.47003358,-1.24608937,1.16010093

>  <Name>
ligand

>  <RI>
0

>  <Rbt.Current_Directory>
/home/itssahil/PROJECTS/Mol_Feturizer/New_Systems/rnas/2EEU

>  <Rbt.Executable>
rbdock ($Id: //depot/dev/client3/rdock/2013.1/src/exe/rbdock.cxx#4 $)

>  <Rbt.Library>
libRbt.so (2013.1, Build901 2013/11/27)

>  <Rbt.Parameter_File>
/export/apps/rDock/src/rDock_2013.1_src/data/scripts/dock_solv.prm

>  <Rbt.Receptor>
prm/blind_docking_20.prm

>  <SCORE>
-18.4471

>  <SCORE.INTER>
-18.4471

>  <SCORE.INTER.CONST>
1

>  <SCORE.INTER.POLAR>
0

>  <SCORE.INTER.ROT>
0

>  <SCORE.INTER.SOLV>
3.49639

>  <SCORE.INTER.VDW>
-17.0635

>  <SCORE.INTER.norm>
-1.84471

>  <SCORE.INTRA>
0

>  <SCORE.INTRA.DIHEDRAL>
0

>  <SCORE.INTRA.DIHEDRAL.0>
0

>  <SCORE.INTRA.POLAR>
0

>  <SCORE.INTRA.POLAR.0>
0

>  <SCORE.INTRA.REPUL>
0

>  <SCORE.INTRA.REPUL.0>
0

>  <SCORE.INTRA.SOLV>
0

>  <SCORE.INTRA.SOLV.lig_0>
-4.28148

>  <SCORE.INTRA.VDW>
0

>  <SCORE.INTRA.VDW.0>
0

>  <SCORE.INTRA.norm>
0

>  <SCORE.RESTR>
0

>  <SCORE.RESTR.CAVITY>
0

>  <SCORE.RESTR.norm>
0

>  <SCORE.SYSTEM>
0

>  <SCORE.SYSTEM.CONST>
0

>  <SCORE.SYSTEM.DIHEDRAL>
0

>  <SCORE.SYSTEM.SOLV>
0

>  <SCORE.SYSTEM.norm>
0

>  <SCORE.heavy>
10

>  <SCORE.norm>
-1.84471

>  <RMSD>
0.868

$$$$
ligand
 OpenBabel11021811423D
libRbt.so/2013.1/901 2013/11/27
 10 11  0  0  0  0  0  0  0  0999 V2000
   11.8250   10.9706    8.4197 N   0  0  0  0  0  0  0  0  0  0  0  0
   11.5087   12.2898    8.6750 C   0  0  0  0  0  0  0  0  0  0  0  0
   11.1326   13.1318    7.7045 N   0  0  0  0  0  0  0  0  0  0  0  0
   11.1023   12.5523    6.4714 C   0  0  0  0  0  0  0  0  0  0  0  0
   11.4084   11.2390    6.1482 C   0  0  0  0  0  0  0  0  0  0  0  0
   11.8062   10.3390    7.1741 C   0  0  0  0  0  0  0  0  0  0  0  0
   12.1174    9.1495    7.1133 O   0  0  0  0  0  0  0  0  0  0  0  0
   11.2478   11.0768    4.7931 N   0  0  0  0  0  0  0  0  0  0  0  0
   10.8498   12.2761    4.3077 C   0  0  0  0  0  0  0  0  0  0  0  0
   10.7517   13.2069    5.3154 N   0  0  0  0  0  0  0  0  0  0  0  0
  1  2  1  0  0  0  0
  1  6  1  0  0  0  0
  2  3  2  0  0  0  0
  3  4  1  0  0  0  0
  4  5  2  0  0  0  0
  4 10  1  0  0  0  0
  5  6  1  0  0  0  0
  5  8  1  0  0  0  0
  6  7  2  0  0  0  0
  8  9  1  0  0  0  0
  9 10  2  0  0  0  0
M  END
>  <CHROM.1>
11.38920962,11.57708527,6.62411872,0.42537329,-1.27083481,1.05926559

>  <Name>
ligand

>  <RI>
0

>  <Rbt.Current_Directory>
/home/itssahil/PROJECTS/Mol_Feturizer/New_Systems/rnas/2EEU

>  <Rbt.Executable>
rbdock ($Id: //depot/dev/client3/rdock/2013.1/src/exe/rbdock.cxx#4 $)

>  <Rbt.Library>
libRbt.so (2013.1, Build901 2013/11/27)

>  <Rbt.Parameter_File>
/export/apps/rDock/src/rDock_2013.1_src/data/scripts/dock_solv.prm

>  <Rbt.Receptor>
prm/pocket_docking_3.prm

>  <SCORE>
-18.5963

>  <SCORE.INTER>
-18.5963

>  <SCORE.INTER.CONST>
1

>  <SCORE.INTER.POLAR>
0

>  <SCORE.INTER.ROT>
0

>  <SCORE.INTER.SOLV>
3.54916

>  <SCORE.INTER.VDW>
-17.1806

>  <SCORE.INTER.norm>
-1.85963

>  <SCORE.INTRA>
0

>  <SCORE.INTRA.DIHEDRAL>
0

>  <SCORE.INTRA.DIHEDRAL.0>
0

>  <SCORE.INTRA.POLAR>
0

>  <SCORE.INTRA.POLAR.0>
0

>  <SCORE.INTRA.REPUL>
0

>  <SCORE.INTRA.REPUL.0>
0

>  <SCORE.INTRA.SOLV>
0

>  <SCORE.INTRA.SOLV.lig_0>
-4.28148

>  <SCORE.INTRA.VDW>
0

>  <SCORE.INTRA.VDW.0>
0

>  <SCORE.INTRA.norm>
0

>  <SCORE.RESTR>
0

>  <SCORE.RESTR.CAVITY>
0

>  <SCORE.RESTR.norm>
0

>  <SCORE.SYSTEM>
0

>  <SCORE.SYSTEM.CONST>
0

>  <SCORE.SYSTEM.DIHEDRAL>
0

>  <SCORE.SYSTEM.SOLV>
0

>  <SCORE.SYSTEM.norm>
0

>  <SCORE.heavy>
10

>  <SCORE.norm>
-1.85963

>  <RMSD>
0.868

$$$$
ligand
 OpenBabel11021811423D
libRbt.so/2013.1/901 2013/11/27
 10 11  0  0  0  0  0  0  0  0999 V2000
   11.7954   10.9972    8.4243 N   0  0  0  0  0  0  0  0  0  0  0  0
   11.4640   12.3133    8.6768 C   0  0  0  0  0  0  0  0  0  0  0  0
   11.0935   13.1530    7.7022 N   0  0  0  0  0  0  0  0  0  0  0  0
   11.0849   12.5747    6.4682 C   0  0  0  0  0  0  0  0  0  0  0  0
   11.4069   11.2646    6.1477 C   0  0  0  0  0  0  0  0  0  0  0  0
   11.7988   10.3670    7.1778 C   0  0  0  0  0  0  0  0  0  0  0  0
   12.1214    9.1804    7.1200 O   0  0  0  0  0  0  0  0  0  0  0  0
   11.2659   11.1026    4.7904 N   0  0  0  0  0  0  0  0  0  0  0  0
   10.8638   12.2989    4.3010 C   0  0  0  0  0  0  0  0  0  0  0  0
   10.7440   13.2277    5.3083 N   0  0  0  0  0  0  0  0  0  0  0  0
  1  2  1  0  0  0  0
  1  6  1  0  0  0  0
  2  3  2  0  0  0  0
  3  4  1  0  0  0  0
  4  5  2  0  0  0  0
  4 10  1  0  0  0  0
  5  6  1  0  0  0  0
  5  8  1  0  0  0  0
  6  7  2  0  0  0  0
  8  9  1  0  0  0  0
  9 10  2  0  0  0  0
M  END
>  <CHROM.1>
11.37832484,11.60196844,6.62367613,0.47932332,-1.26923859,1.11194760

>  <Name>
ligand

>  <RI>
0

>  <Rbt.Current_Directory>
/home/itssahil/PROJECTS/Mol_Feturizer/New_Systems/rnas/2EEU

>  <Rbt.Executable>
rbdock ($Id: //depot/dev/client3/rdock/2013.1/src/exe/rbdock.cxx#4 $)

>  <Rbt.Library>
libRbt.so (2013.1, Build901 2013/11/27)

>  <Rbt.Parameter_File>
/export/apps/rDock/src/rDock_2013.1_src/data/scripts/dock_solv.prm

>  <Rbt.Receptor>
prm/pocket_docking_3.prm

>  <SCORE>
-18.5932

>  <SCORE.INTER>
-18.5932

>  <SCORE.INTER.CONST>
1

>  <SCORE.INTER.POLAR>
0

>  <SCORE.INTER.ROT>
0

>  <SCORE.INTER.SOLV>
3.55276

>  <SCORE.INTER.VDW>
-17.1797

>  <SCORE.INTER.norm>
-1.85932

>  <SCORE.INTRA>
0

>  <SCORE.INTRA.DIHEDRAL>
0

>  <SCORE.INTRA.DIHEDRAL.0>
0

>  <SCORE.INTRA.POLAR>
0

>  <SCORE.INTRA.POLAR.0>
0

>  <SCORE.INTRA.REPUL>
0

>  <SCORE.INTRA.REPUL.0>
0

>  <SCORE.INTRA.SOLV>
0

>  <SCORE.INTRA.SOLV.lig_0>
-4.28148

>  <SCORE.INTRA.VDW>
0

>  <SCORE.INTRA.VDW.0>
0

>  <SCORE.INTRA.norm>
0

>  <SCORE.RESTR>
0

>  <SCORE.RESTR.CAVITY>
0

>  <SCORE.RESTR.norm>
0

>  <SCORE.SYSTEM>
0

>  <SCORE.SYSTEM.CONST>
0

>  <SCORE.SYSTEM.DIHEDRAL>
0

>  <SCORE.SYSTEM.SOLV>
0

>  <SCORE.SYSTEM.norm>
0

>  <SCORE.heavy>
10

>  <SCORE.norm>
-1.85932

>  <RMSD>
0.868

$$$$
ligand
 OpenBabel11021811423D
libRbt.so/2013.1/901 2013/11/27
 10 11  0  0  0  0  0  0  0  0999 V2000
   11.8065   11.0042    8.4211 N   0  0  0  0  0  0  0  0  0  0  0  0
   11.4911   12.3248    8.6706 C   0  0  0  0  0  0  0  0  0  0  0  0
   11.1223   13.1645    7.6954 N   0  0  0  0  0  0  0  0  0  0  0  0
   11.0981   12.5813    6.4638 C   0  0  0  0  0  0  0  0  0  0  0  0
   11.4036   11.2665    6.1464 C   0  0  0  0  0  0  0  0  0  0  0  0
   11.7936   10.3689    7.1773 C   0  0  0  0  0  0  0  0  0  0  0  0
   12.1030    9.1787    7.1219 O   0  0  0  0  0  0  0  0  0  0  0  0
   11.2505   11.1005    4.7909 N   0  0  0  0  0  0  0  0  0  0  0  0
   10.8576   12.2991    4.2995 C   0  0  0  0  0  0  0  0  0  0  0  0
   10.7554   13.2332    5.3039 N   0  0  0  0  0  0  0  0  0  0  0  0
  1  2  1  0  0  0  0
  1  6  1  0  0  0  0
  2  3  2  0  0  0  0
  3  4  1  0  0  0  0
  4  5  2  0  0  0  0
  4 10  1  0  0  0  0
  5  6  1  0  0  0  0
  5  8  1  0  0  0  0
  6  7  2  0  0  0  0
  8  9  1  0  0  0  0
  9 10  2  0  0  0  0
M  END
>  <CHROM.1>
11.38223573,11.60609184,6.62117055,0.43958822,-1.27529861,1.06984694

>  <Name>
ligand

>  <RI>
0

>  <Rbt.Current_Directory>
/home/itssahil/PROJECTS/Mol_Feturizer/New_Systems/rnas/2EEU

>  <Rbt.Executable>
rbdock ($Id: //depot/dev/client3/rdock/2013.1/src/exe/rbdock.cxx#4 $)

>  <Rbt.Library>
libRbt.so (2013.1, Build901 2013/11/27)

>  <Rbt.Parameter_File>
/export/apps/rDock/src/rDock_2013.1_src/data/scripts/dock_solv.prm

>  <Rbt.Receptor>
prm/pocket_docking_7.prm

>  <SCORE>
-18.6064

>  <SCORE.INTER>
-18.6064

>  <SCORE.INTER.CONST>
1

>  <SCORE.INTER.POLAR>
0

>  <SCORE.INTER.ROT>
0

>  <SCORE.INTER.SOLV>
3.56683

>  <SCORE.INTER.VDW>
-17.1932

>  <SCORE.INTER.norm>
-1.86064

>  <SCORE.INTRA>
0

>  <SCORE.INTRA.DIHEDRAL>
0

>  <SCORE.INTRA.DIHEDRAL.0>
0

>  <SCORE.INTRA.POLAR>
0

>  <SCORE.INTRA.POLAR.0>
0

>  <SCORE.INTRA.REPUL>
0

>  <SCORE.INTRA.REPUL.0>
0

>  <SCORE.INTRA.SOLV>
0

>  <SCORE.INTRA.SOLV.lig_0>
-4.28148

>  <SCORE.INTRA.VDW>
0

>  <SCORE.INTRA.VDW.0>
0

>  <SCORE.INTRA.norm>
0

>  <SCORE.RESTR>
0

>  <SCORE.RESTR.CAVITY>
0

>  <SCORE.RESTR.norm>
0

>  <SCORE.SYSTEM>
0

>  <SCORE.SYSTEM.CONST>
0

>  <SCORE.SYSTEM.DIHEDRAL>
0

>  <SCORE.SYSTEM.SOLV>
0

>  <SCORE.SYSTEM.norm>
0

>  <SCORE.heavy>
10

>  <SCORE.norm>
-1.86064

>  <RMSD>
0.868

$$$$
ligand
 OpenBabel11021811423D
libRbt.so/2013.1/901 2013/11/27
 10 11  0  0  0  0  0  0  0  0999 V2000
   11.8206   10.9697    8.4199 N   0  0  0  0  0  0  0  0  0  0  0  0
   11.5018   12.2880    8.6768 C   0  0  0  0  0  0  0  0  0  0  0  0
   11.1258   13.1309    7.7071 N   0  0  0  0  0  0  0  0  0  0  0  0
   11.0983   12.5533    6.4730 C   0  0  0  0  0  0  0  0  0  0  0  0
   11.4069   11.2410    6.1482 C   0  0  0  0  0  0  0  0  0  0  0  0
   11.8045   10.3401    7.1732 C   0  0  0  0  0  0  0  0  0  0  0  0
   12.1178    9.1512    7.1109 O   0  0  0  0  0  0  0  0  0  0  0  0
   11.2485   11.0808    4.7926 N   0  0  0  0  0  0  0  0  0  0  0  0
   10.8493   12.2802    4.3085 C   0  0  0  0  0  0  0  0  0  0  0  0
   10.7483   13.2093    5.3176 N   0  0  0  0  0  0  0  0  0  0  0  0
  1  2  1  0  0  0  0
  1  6  1  0  0  0  0
  2  3  2  0  0  0  0
  3  4  1  0  0  0  0
  4  5  2  0  0  0  0
  4 10  1  0  0  0  0
  5  6  1  0  0  0  0
  5  8  1  0  0  0  0
  6  7  2  0  0  0  0
  8  9  1  0  0  0  0
  9 10  2  0  0  0  0
M  END
>  <CHROM.1>
11.38645266,11.57836766,6.62458183,0.43222009,-1.27017935,1.06741680

>  <Name>
ligand

>  <RI>
0

>  <Rbt.Current_Directory>
/home/itssahil/PROJECTS/Mol_Feturizer/New_Systems/rnas/2EEU

>  <Rbt.Executable>
rbdock ($Id: //depot/dev/client3/rdock/2013.1/src/exe/rbdock.cxx#4 $)

>  <Rbt.Library>
libRbt.so (2013.1, Build901 2013/11/27)

>  <Rbt.Parameter_File>
/export/apps/rDock/src/rDock_2013.1_src/data/scripts/dock_solv.prm

>  <Rbt.Receptor>
prm/pocket_docking_7.prm

>  <SCORE>
-18.5965

>  <SCORE.INTER>
-18.5965

>  <SCORE.INTER.CONST>
1

>  <SCORE.INTER.POLAR>
0

>  <SCORE.INTER.ROT>
0

>  <SCORE.INTER.SOLV>
3.55067

>  <SCORE.INTER.VDW>
-17.1812

>  <SCORE.INTER.norm>
-1.85965

>  <SCORE.INTRA>
0

>  <SCORE.INTRA.DIHEDRAL>
0

>  <SCORE.INTRA.DIHEDRAL.0>
0

>  <SCORE.INTRA.POLAR>
0

>  <SCORE.INTRA.POLAR.0>
0

>  <SCORE.INTRA.REPUL>
0

>  <SCORE.INTRA.REPUL.0>
0

>  <SCORE.INTRA.SOLV>
0

>  <SCORE.INTRA.SOLV.lig_0>
-4.28148

>  <SCORE.INTRA.VDW>
0

>  <SCORE.INTRA.VDW.0>
0

>  <SCORE.INTRA.norm>
0

>  <SCORE.RESTR>
0

>  <SCORE.RESTR.CAVITY>
0

>  <SCORE.RESTR.norm>
0

>  <SCORE.SYSTEM>
0

>  <SCORE.SYSTEM.CONST>
0

>  <SCORE.SYSTEM.DIHEDRAL>
0

>  <SCORE.SYSTEM.SOLV>
0

>  <SCORE.SYSTEM.norm>
0

>  <SCORE.heavy>
10

>  <SCORE.norm>
-1.85965

>  <RMSD>
0.868

$$$$
ligand
 OpenBabel11021811423D
libRbt.so/2013.1/901 2013/11/27
 10 11  0  0  0  0  0  0  0  0999 V2000
   11.8426   10.7381    8.4318 N   0  0  0  0  0  0  0  0  0  0  0  0
   11.4923   12.0308    8.7660 C   0  0  0  0  0  0  0  0  0  0  0  0
   11.0979   12.9210    7.8472 N   0  0  0  0  0  0  0  0  0  0  0  0
   11.0858   12.4176    6.5808 C   0  0  0  0  0  0  0  0  0  0  0  0
   11.4259   11.1347    6.1792 C   0  0  0  0  0  0  0  0  0  0  0  0
   11.8433   10.1838    7.1498 C   0  0  0  0  0  0  0  0  0  0  0  0
   12.1847    9.0084    7.0177 O   0  0  0  0  0  0  0  0  0  0  0  0
   11.2733   11.0519    4.8160 N   0  0  0  0  0  0  0  0  0  0  0  0
   10.8465   12.2683    4.4031 C   0  0  0  0  0  0  0  0  0  0  0  0
   10.7221   13.1329    5.4655 N   0  0  0  0  0  0  0  0  0  0  0  0
  1  2  1  0  0  0  0
  1  6  1  0  0  0  0
  2  3  2  0  0  0  0
  3  4  1  0  0  0  0
  4  5  2  0  0  0  0
  4 10  1  0  0  0  0
  5  6  1  0  0  0  0
  5  8  1  0  0  0  0
  6  7  2  0  0  0  0
  8  9  1  0  0  0  0
  9 10  2  0  0  0  0
M  END
>  <CHROM.1>
11.39678933,11.44238079,6.67479689,0.47251430,-1.24988771,1.16547021

>  <Name>
ligand

>  <RI>
0

>  <Rbt.Current_Directory>
/home/itssahil/PROJECTS/Mol_Feturizer/New_Systems/rnas/2EEU

>  <Rbt.Executable>
rbdock ($Id: //depot/dev/client3/rdock/2013.1/src/exe/rbdock.cxx#4 $)

>  <Rbt.Library>
libRbt.so (2013.1, Build901 2013/11/27)

>  <Rbt.Parameter_File>
/export/apps/rDock/src/rDock_2013.1_src/data/scripts/dock_solv.prm

>  <Rbt.Receptor>
prm/blind_docking_20.prm

>  <SCORE>
-18.4431

>  <SCORE.INTER>
-18.4431

>  <SCORE.INTER.CONST>
1

>  <SCORE.INTER.POLAR>
0

>  <SCORE.INTER.ROT>
0

>  <SCORE.INTER.SOLV>
3.53784

>  <SCORE.INTER.VDW>
-17.0747

>  <SCORE.INTER.norm>
-1.84431

>  <SCORE.INTRA>
0

>  <SCORE.INTRA.DIHEDRAL>
0

>  <SCORE.INTRA.DIHEDRAL.0>
0

>  <SCORE.INTRA.POLAR>
0

>  <SCORE.INTRA.POLAR.0>
0

>  <SCORE.INTRA.REPUL>
0

>  <SCORE.INTRA.REPUL.0>
0

>  <SCORE.INTRA.SOLV>
0

>  <SCORE.INTRA.SOLV.lig_0>
-4.28148

>  <SCORE.INTRA.VDW>
0

>  <SCORE.INTRA.VDW.0>
0

>  <SCORE.INTRA.norm>
0

>  <SCORE.RESTR>
0

>  <SCORE.RESTR.CAVITY>
0

>  <SCORE.RESTR.norm>
0

>  <SCORE.SYSTEM>
0

>  <SCORE.SYSTEM.CONST>
0

>  <SCORE.SYSTEM.DIHEDRAL>
0

>  <SCORE.SYSTEM.SOLV>
0

>  <SCORE.SYSTEM.norm>
0

>  <SCORE.heavy>
10

>  <SCORE.norm>
-1.84431

>  <RMSD>
0.869

$$$$
ligand
 OpenBabel11021811423D
libRbt.so/2013.1/901 2013/11/27
 10 11  0  0  0  0  0  0  0  0999 V2000
   11.8217   10.9687    8.4182 N   0  0  0  0  0  0  0  0  0  0  0  0
   11.5045   12.2871    8.6766 C   0  0  0  0  0  0  0  0  0  0  0  0
   11.1270   13.1310    7.7083 N   0  0  0  0  0  0  0  0  0  0  0  0
   11.0963   12.5542    6.4739 C   0  0  0  0  0  0  0  0  0  0  0  0
   11.4032   11.2419    6.1476 C   0  0  0  0  0  0  0  0  0  0  0  0
   11.8024   10.3399    7.1711 C   0  0  0  0  0  0  0  0  0  0  0  0
   12.1145    9.1508    7.1074 O   0  0  0  0  0  0  0  0  0  0  0  0
   11.2417   11.0826    4.7922 N   0  0  0  0  0  0  0  0  0  0  0  0
   10.8424   12.2827    4.3097 C   0  0  0  0  0  0  0  0  0  0  0  0
   10.7444   13.2112    5.3197 N   0  0  0  0  0  0  0  0  0  0  0  0
  1  2  1  0  0  0  0
  1  6  1  0  0  0  0
  2  3  2  0  0  0  0
  3  4  1  0  0  0  0
  4  5  2  0  0  0  0
  4 10  1  0  0  0  0
  5  6  1  0  0  0  0
  5  8  1  0  0  0  0
  6  7  2  0  0  0  0
  8  9  1  0  0  0  0
  9 10  2  0  0  0  0
M  END
>  <CHROM.1>
11.38407963,11.57889028,6.62422102,0.42450832,-1.26981366,1.06070864

>  <Name>
ligand

>  <RI>
0

>  <Rbt.Current_Directory>
/home/itssahil/PROJECTS/Mol_Feturizer/New_Systems/rnas/2EEU

>  <Rbt.Executable>
rbdock ($Id: //depot/dev/client3/rdock/2013.1/src/exe/rbdock.cxx#4 $)

>  <Rbt.Library>
libRbt.so (2013.1, Build901 2013/11/27)

>  <Rbt.Parameter_File>
/export/apps/rDock/src/rDock_2013.1_src/data/scripts/dock_solv.prm

>  <Rbt.Receptor>
prm/blind_docking_40.prm

>  <SCORE>
-18.5955

>  <SCORE.INTER>
-18.5955

>  <SCORE.INTER.CONST>
1

>  <SCORE.INTER.POLAR>
0

>  <SCORE.INTER.ROT>
0

>  <SCORE.INTER.SOLV>
3.55284

>  <SCORE.INTER.VDW>
-17.1812

>  <SCORE.INTER.norm>
-1.85955

>  <SCORE.INTRA>
0

>  <SCORE.INTRA.DIHEDRAL>
0

>  <SCORE.INTRA.DIHEDRAL.0>
0

>  <SCORE.INTRA.POLAR>
0

>  <SCORE.INTRA.POLAR.0>
0

>  <SCORE.INTRA.REPUL>
0

>  <SCORE.INTRA.REPUL.0>
0

>  <SCORE.INTRA.SOLV>
0

>  <SCORE.INTRA.SOLV.lig_0>
-4.28148

>  <SCORE.INTRA.VDW>
0

>  <SCORE.INTRA.VDW.0>
0

>  <SCORE.INTRA.norm>
0

>  <SCORE.RESTR>
0

>  <SCORE.RESTR.CAVITY>
0

>  <SCORE.RESTR.norm>
0

>  <SCORE.SYSTEM>
0

>  <SCORE.SYSTEM.CONST>
0

>  <SCORE.SYSTEM.DIHEDRAL>
0

>  <SCORE.SYSTEM.SOLV>
0

>  <SCORE.SYSTEM.norm>
0

>  <SCORE.heavy>
10

>  <SCORE.norm>
-1.85955

>  <RMSD>
0.869

$$$$
ligand
 OpenBabel11021811423D
libRbt.so/2013.1/901 2013/11/27
 10 11  0  0  0  0  0  0  0  0999 V2000
   11.7899   10.9690    8.4260 N   0  0  0  0  0  0  0  0  0  0  0  0
   11.4517   12.2819    8.6860 C   0  0  0  0  0  0  0  0  0  0  0  0
   11.0818   13.1268    7.7156 N   0  0  0  0  0  0  0  0  0  0  0  0
   11.0812   12.5570    6.4776 C   0  0  0  0  0  0  0  0  0  0  0  0
   11.4104   11.2505    6.1495 C   0  0  0  0  0  0  0  0  0  0  0  0
   11.8016   10.3475    7.1752 C   0  0  0  0  0  0  0  0  0  0  0  0
   12.1297    9.1627    7.1106 O   0  0  0  0  0  0  0  0  0  0  0  0
   11.2762   11.0973    4.7906 N   0  0  0  0  0  0  0  0  0  0  0  0
   10.8710   12.2952    4.3075 C   0  0  0  0  0  0  0  0  0  0  0  0
   10.7427   13.2164    5.3207 N   0  0  0  0  0  0  0  0  0  0  0  0
  1  2  1  0  0  0  0
  1  6  1  0  0  0  0
  2  3  2  0  0  0  0
  3  4  1  0  0  0  0
  4  5  2  0  0  0  0
  4 10  1  0  0  0  0
  5  6  1  0  0  0  0
  5  8  1  0  0  0  0
  6  7  2  0  0  0  0
  8  9  1  0  0  0  0
  9 10  2  0  0  0  0
M  END
>  <CHROM.1>
11.37822980,11.58441870,6.62768506,0.49913791,-1.26725761,1.13775874

>  <Name>
ligand

>  <RI>
0

>  <Rbt.Current_Directory>
/home/itssahil/PROJECTS/Mol_Feturizer/New_Systems/rnas/2EEU

>  <Rbt.Executable>
rbdock ($Id: //depot/dev/client3/rdock/2013.1/src/exe/rbdock.cxx#4 $)

>  <Rbt.Library>
libRbt.so (2013.1, Build901 2013/11/27)

>  <Rbt.Parameter_File>
/export/apps/rDock/src/rDock_2013.1_src/data/scripts/dock_solv.prm

>  <Rbt.Receptor>
prm/blind_docking_60.prm

>  <SCORE>
-18.585

>  <SCORE.INTER>
-18.585

>  <SCORE.INTER.CONST>
1

>  <SCORE.INTER.POLAR>
0

>  <SCORE.INTER.ROT>
0

>  <SCORE.INTER.SOLV>
3.55266

>  <SCORE.INTER.VDW>
-17.1742

>  <SCORE.INTER.norm>
-1.8585

>  <SCORE.INTRA>
0

>  <SCORE.INTRA.DIHEDRAL>
0

>  <SCORE.INTRA.DIHEDRAL.0>
0

>  <SCORE.INTRA.POLAR>
0

>  <SCORE.INTRA.POLAR.0>
0

>  <SCORE.INTRA.REPUL>
0

>  <SCORE.INTRA.REPUL.0>
0

>  <SCORE.INTRA.SOLV>
0

>  <SCORE.INTRA.SOLV.lig_0>
-4.28148

>  <SCORE.INTRA.VDW>
0

>  <SCORE.INTRA.VDW.0>
0

>  <SCORE.INTRA.norm>
0

>  <SCORE.RESTR>
0

>  <SCORE.RESTR.CAVITY>
0

>  <SCORE.RESTR.norm>
0

>  <SCORE.SYSTEM>
0

>  <SCORE.SYSTEM.CONST>
0

>  <SCORE.SYSTEM.DIHEDRAL>
0

>  <SCORE.SYSTEM.SOLV>
0

>  <SCORE.SYSTEM.norm>
0

>  <SCORE.heavy>
10

>  <SCORE.norm>
-1.8585

>  <RMSD>
0.869

$$$$
ligand
 OpenBabel11021811423D
libRbt.so/2013.1/901 2013/11/27
 10 11  0  0  0  0  0  0  0  0999 V2000
   11.8393   10.9680    8.4131 N   0  0  0  0  0  0  0  0  0  0  0  0
   11.5274   12.2877    8.6717 C   0  0  0  0  0  0  0  0  0  0  0  0
   11.1445   13.1307    7.7048 N   0  0  0  0  0  0  0  0  0  0  0  0
   11.1028   12.5518    6.4717 C   0  0  0  0  0  0  0  0  0  0  0  0
   11.4039   11.2382    6.1453 C   0  0  0  0  0  0  0  0  0  0  0  0
   11.8087   10.3371    7.1674 C   0  0  0  0  0  0  0  0  0  0  0  0
   12.1174    9.1471    7.1034 O   0  0  0  0  0  0  0  0  0  0  0  0
   11.2315   11.0769    4.7916 N   0  0  0  0  0  0  0  0  0  0  0  0
   10.8314   12.2771    4.3100 C   0  0  0  0  0  0  0  0  0  0  0  0
   10.7435   13.2076    5.3190 N   0  0  0  0  0  0  0  0  0  0  0  0
  1  2  1  0  0  0  0
  1  6  1  0  0  0  0
  2  3  2  0  0  0  0
  3  4  1  0  0  0  0
  4  5  2  0  0  0  0
  4 10  1  0  0  0  0
  5  6  1  0  0  0  0
  5  8  1  0  0  0  0
  6  7  2  0  0  0  0
  8  9  1  0  0  0  0
  9 10  2  0  0  0  0
M  END
>  <CHROM.1>
11.38927140,11.57608990,6.62152702,0.39773515,-1.26807520,1.03333470

>  <Name>
ligand

>  <RI>
0

>  <Rbt.Current_Directory>
/home/itssahil/PROJECTS/Mol_Feturizer/New_Systems/rnas/2EEU

>  <Rbt.Executable>
rbdock ($Id: //depot/dev/client3/rdock/2013.1/src/exe/rbdock.cxx#4 $)

>  <Rbt.Library>
libRbt.so (2013.1, Build901 2013/11/27)

>  <Rbt.Parameter_File>
/export/apps/rDock/src/rDock_2013.1_src/data/scripts/dock_solv.prm

>  <Rbt.Receptor>
prm/blind_docking_80.prm

>  <SCORE>
-18.5899

>  <SCORE.INTER>
-18.5899

>  <SCORE.INTER.CONST>
1

>  <SCORE.INTER.POLAR>
0

>  <SCORE.INTER.ROT>
0

>  <SCORE.INTER.SOLV>
3.54335

>  <SCORE.INTER.VDW>
-17.1744

>  <SCORE.INTER.norm>
-1.85899

>  <SCORE.INTRA>
0

>  <SCORE.INTRA.DIHEDRAL>
0

>  <SCORE.INTRA.DIHEDRAL.0>
0

>  <SCORE.INTRA.POLAR>
0

>  <SCORE.INTRA.POLAR.0>
0

>  <SCORE.INTRA.REPUL>
0

>  <SCORE.INTRA.REPUL.0>
0

>  <SCORE.INTRA.SOLV>
0

>  <SCORE.INTRA.SOLV.lig_0>
-4.28148

>  <SCORE.INTRA.VDW>
0

>  <SCORE.INTRA.VDW.0>
0

>  <SCORE.INTRA.norm>
0

>  <SCORE.RESTR>
0

>  <SCORE.RESTR.CAVITY>
0

>  <SCORE.RESTR.norm>
0

>  <SCORE.SYSTEM>
0

>  <SCORE.SYSTEM.CONST>
0

>  <SCORE.SYSTEM.DIHEDRAL>
0

>  <SCORE.SYSTEM.SOLV>
0

>  <SCORE.SYSTEM.norm>
0

>  <SCORE.heavy>
10

>  <SCORE.norm>
-1.85899

>  <RMSD>
0.869

$$$$
ligand
 OpenBabel11021811423D
libRbt.so/2013.1/901 2013/11/27
 10 11  0  0  0  0  0  0  0  0999 V2000
   11.8112   10.9680    8.4201 N   0  0  0  0  0  0  0  0  0  0  0  0
   11.4887   12.2850    8.6791 C   0  0  0  0  0  0  0  0  0  0  0  0
   11.1140   13.1294    7.7102 N   0  0  0  0  0  0  0  0  0  0  0  0
   11.0918   12.5547    6.4747 C   0  0  0  0  0  0  0  0  0  0  0  0
   11.4043   11.2439    6.1477 C   0  0  0  0  0  0  0  0  0  0  0  0
   11.8006   10.3413    7.1719 C   0  0  0  0  0  0  0  0  0  0  0  0
   12.1166    9.1532    7.1078 O   0  0  0  0  0  0  0  0  0  0  0  0
   11.2508   11.0865    4.7913 N   0  0  0  0  0  0  0  0  0  0  0  0
   10.8505   12.2862    4.3087 C   0  0  0  0  0  0  0  0  0  0  0  0
   10.7442   13.2127    5.3197 N   0  0  0  0  0  0  0  0  0  0  0  0
  1  2  1  0  0  0  0
  1  6  1  0  0  0  0
  2  3  2  0  0  0  0
  3  4  1  0  0  0  0
  4  5  2  0  0  0  0
  4 10  1  0  0  0  0
  5  6  1  0  0  0  0
  5  8  1  0  0  0  0
  6  7  2  0  0  0  0
  8  9  1  0  0  0  0
  9 10  2  0  0  0  0
M  END
>  <CHROM.1>
11.38159041,11.57999414,6.62486684,0.44550431,-1.26984110,1.08249594

>  <Name>
ligand

>  <RI>
0

>  <Rbt.Current_Directory>
/home/itssahil/PROJECTS/Mol_Feturizer/New_Systems/rnas/2EEU

>  <Rbt.Executable>
rbdock ($Id: //depot/dev/client3/rdock/2013.1/src/exe/rbdock.cxx#4 $)

>  <Rbt.Library>
libRbt.so (2013.1, Build901 2013/11/27)

>  <Rbt.Parameter_File>
/export/apps/rDock/src/rDock_2013.1_src/data/scripts/dock_solv.prm

>  <Rbt.Receptor>
prm/pocket_docking_3.prm

>  <SCORE>
-18.5948

>  <SCORE.INTER>
-18.5948

>  <SCORE.INTER.CONST>
1

>  <SCORE.INTER.POLAR>
0

>  <SCORE.INTER.ROT>
0

>  <SCORE.INTER.SOLV>
3.55613

>  <SCORE.INTER.VDW>
-17.1819

>  <SCORE.INTER.norm>
-1.85948

>  <SCORE.INTRA>
0

>  <SCORE.INTRA.DIHEDRAL>
0

>  <SCORE.INTRA.DIHEDRAL.0>
0

>  <SCORE.INTRA.POLAR>
0

>  <SCORE.INTRA.POLAR.0>
0

>  <SCORE.INTRA.REPUL>
0

>  <SCORE.INTRA.REPUL.0>
0

>  <SCORE.INTRA.SOLV>
0

>  <SCORE.INTRA.SOLV.lig_0>
-4.28148

>  <SCORE.INTRA.VDW>
0

>  <SCORE.INTRA.VDW.0>
0

>  <SCORE.INTRA.norm>
0

>  <SCORE.RESTR>
0

>  <SCORE.RESTR.CAVITY>
0

>  <SCORE.RESTR.norm>
0

>  <SCORE.SYSTEM>
0

>  <SCORE.SYSTEM.CONST>
0

>  <SCORE.SYSTEM.DIHEDRAL>
0

>  <SCORE.SYSTEM.SOLV>
0

>  <SCORE.SYSTEM.norm>
0

>  <SCORE.heavy>
10

>  <SCORE.norm>
-1.85948

>  <RMSD>
0.869

$$$$
ligand
 OpenBabel11021811423D
libRbt.so/2013.1/901 2013/11/27
 10 11  0  0  0  0  0  0  0  0999 V2000
   11.7727   10.9854    8.4333 N   0  0  0  0  0  0  0  0  0  0  0  0
   11.4376   12.3012    8.6823 C   0  0  0  0  0  0  0  0  0  0  0  0
   11.0745   13.1401    7.7043 N   0  0  0  0  0  0  0  0  0  0  0  0
   11.0771   12.5613    6.4705 C   0  0  0  0  0  0  0  0  0  0  0  0
   11.4034   11.2514    6.1533 C   0  0  0  0  0  0  0  0  0  0  0  0
   11.7875   10.3547    7.1871 C   0  0  0  0  0  0  0  0  0  0  0  0
   12.1120    9.1684    7.1325 O   0  0  0  0  0  0  0  0  0  0  0  0
   11.2742   11.0887    4.7949 N   0  0  0  0  0  0  0  0  0  0  0  0
   10.8749   12.2843    4.3016 C   0  0  0  0  0  0  0  0  0  0  0  0
   10.7454   13.2134    5.3075 N   0  0  0  0  0  0  0  0  0  0  0  0
  1  2  1  0  0  0  0
  1  6  1  0  0  0  0
  2  3  2  0  0  0  0
  3  4  1  0  0  0  0
  4  5  2  0  0  0  0
  4 10  1  0  0  0  0
  5  6  1  0  0  0  0
  5  8  1  0  0  0  0
  6  7  2  0  0  0  0
  8  9  1  0  0  0  0
  9 10  2  0  0  0  0
M  END
>  <CHROM.1>
11.37035244,11.58891149,6.62888087,0.50711183,-1.27189289,1.13807930

>  <Name>
ligand

>  <RI>
0

>  <Rbt.Current_Directory>
/home/itssahil/PROJECTS/Mol_Feturizer/New_Systems/rnas/2EEU

>  <Rbt.Executable>
rbdock ($Id: //depot/dev/client3/rdock/2013.1/src/exe/rbdock.cxx#4 $)

>  <Rbt.Library>
libRbt.so (2013.1, Build901 2013/11/27)

>  <Rbt.Parameter_File>
/export/apps/rDock/src/rDock_2013.1_src/data/scripts/dock_solv.prm

>  <Rbt.Receptor>
prm/pocket_docking_3.prm

>  <SCORE>
-18.6142

>  <SCORE.INTER>
-18.6142

>  <SCORE.INTER.CONST>
1

>  <SCORE.INTER.POLAR>
0

>  <SCORE.INTER.ROT>
0

>  <SCORE.INTER.SOLV>
3.56934

>  <SCORE.INTER.VDW>
-17.1993

>  <SCORE.INTER.norm>
-1.86142

>  <SCORE.INTRA>
0

>  <SCORE.INTRA.DIHEDRAL>
0

>  <SCORE.INTRA.DIHEDRAL.0>
0

>  <SCORE.INTRA.POLAR>
0

>  <SCORE.INTRA.POLAR.0>
0

>  <SCORE.INTRA.REPUL>
0

>  <SCORE.INTRA.REPUL.0>
0

>  <SCORE.INTRA.SOLV>
0

>  <SCORE.INTRA.SOLV.lig_0>
-4.28148

>  <SCORE.INTRA.VDW>
0

>  <SCORE.INTRA.VDW.0>
0

>  <SCORE.INTRA.norm>
0

>  <SCORE.RESTR>
0

>  <SCORE.RESTR.CAVITY>
0

>  <SCORE.RESTR.norm>
0

>  <SCORE.SYSTEM>
0

>  <SCORE.SYSTEM.CONST>
0

>  <SCORE.SYSTEM.DIHEDRAL>
0

>  <SCORE.SYSTEM.SOLV>
0

>  <SCORE.SYSTEM.norm>
0

>  <SCORE.heavy>
10

>  <SCORE.norm>
-1.86142

>  <RMSD>
0.869

$$$$
ligand
 OpenBabel11021811423D
libRbt.so/2013.1/901 2013/11/27
 10 11  0  0  0  0  0  0  0  0999 V2000
   11.8006   10.9693    8.4232 N   0  0  0  0  0  0  0  0  0  0  0  0
   11.4650   12.2829    8.6828 C   0  0  0  0  0  0  0  0  0  0  0  0
   11.0939   13.1273    7.7125 N   0  0  0  0  0  0  0  0  0  0  0  0
   11.0891   12.5562    6.4750 C   0  0  0  0  0  0  0  0  0  0  0  0
   11.4155   11.2489    6.1475 C   0  0  0  0  0  0  0  0  0  0  0  0
   11.8081   10.3464    7.1731 C   0  0  0  0  0  0  0  0  0  0  0  0
   12.1342    9.1610    7.1089 O   0  0  0  0  0  0  0  0  0  0  0  0
   11.2774   11.0944    4.7891 N   0  0  0  0  0  0  0  0  0  0  0  0
   10.8728   12.2924    4.3059 C   0  0  0  0  0  0  0  0  0  0  0  0
   10.7485   13.2149    5.3184 N   0  0  0  0  0  0  0  0  0  0  0  0
  1  2  1  0  0  0  0
  1  6  1  0  0  0  0
  2  3  2  0  0  0  0
  3  4  1  0  0  0  0
  4  5  2  0  0  0  0
  4 10  1  0  0  0  0
  5  6  1  0  0  0  0
  5  8  1  0  0  0  0
  6  7  2  0  0  0  0
  8  9  1  0  0  0  0
  9 10  2  0  0  0  0
M  END
>  <CHROM.1>
11.38509166,11.58335890,6.62540455,0.48901701,-1.26748747,1.12704089

>  <Name>
ligand

>  <RI>
0

>  <Rbt.Current_Directory>
/home/itssahil/PROJECTS/Mol_Feturizer/New_Systems/rnas/2EEU

>  <Rbt.Executable>
rbdock ($Id: //depot/dev/client3/rdock/2013.1/src/exe/rbdock.cxx#4 $)

>  <Rbt.Library>
libRbt.so (2013.1, Build901 2013/11/27)

>  <Rbt.Parameter_File>
/export/apps/rDock/src/rDock_2013.1_src/data/scripts/dock_solv.prm

>  <Rbt.Receptor>
prm/pocket_docking_4.prm

>  <SCORE>
-18.5872

>  <SCORE.INTER>
-18.5872

>  <SCORE.INTER.CONST>
1

>  <SCORE.INTER.POLAR>
0

>  <SCORE.INTER.ROT>
0

>  <SCORE.INTER.SOLV>
3.54633

>  <SCORE.INTER.VDW>
-17.1736

>  <SCORE.INTER.norm>
-1.85872

>  <SCORE.INTRA>
0

>  <SCORE.INTRA.DIHEDRAL>
0

>  <SCORE.INTRA.DIHEDRAL.0>
0

>  <SCORE.INTRA.POLAR>
0

>  <SCORE.INTRA.POLAR.0>
0

>  <SCORE.INTRA.REPUL>
0

>  <SCORE.INTRA.REPUL.0>
0

>  <SCORE.INTRA.SOLV>
0

>  <SCORE.INTRA.SOLV.lig_0>
-4.28148

>  <SCORE.INTRA.VDW>
0

>  <SCORE.INTRA.VDW.0>
0

>  <SCORE.INTRA.norm>
0

>  <SCORE.RESTR>
0

>  <SCORE.RESTR.CAVITY>
0

>  <SCORE.RESTR.norm>
0

>  <SCORE.SYSTEM>
0

>  <SCORE.SYSTEM.CONST>
0

>  <SCORE.SYSTEM.DIHEDRAL>
0

>  <SCORE.SYSTEM.SOLV>
0

>  <SCORE.SYSTEM.norm>
0

>  <SCORE.heavy>
10

>  <SCORE.norm>
-1.85872

>  <RMSD>
0.869

$$$$
ligand
 OpenBabel11021811423D
libRbt.so/2013.1/901 2013/11/27
 10 11  0  0  0  0  0  0  0  0999 V2000
   11.8222   10.9689    8.4175 N   0  0  0  0  0  0  0  0  0  0  0  0
   11.4973   12.2851    8.6775 C   0  0  0  0  0  0  0  0  0  0  0  0
   11.1188   13.1289    7.7096 N   0  0  0  0  0  0  0  0  0  0  0  0
   11.0954   12.5545    6.4739 C   0  0  0  0  0  0  0  0  0  0  0  0
   11.4102   11.2444    6.1461 C   0  0  0  0  0  0  0  0  0  0  0  0
   11.8105   10.3425    7.1692 C   0  0  0  0  0  0  0  0  0  0  0  0
   12.1290    9.1551    7.1042 O   0  0  0  0  0  0  0  0  0  0  0  0
   11.2543   11.0870    4.7899 N   0  0  0  0  0  0  0  0  0  0  0  0
   10.8504   12.2860    4.3084 C   0  0  0  0  0  0  0  0  0  0  0  0
   10.7440   13.2120    5.3198 N   0  0  0  0  0  0  0  0  0  0  0  0
  1  2  1  0  0  0  0
  1  6  1  0  0  0  0
  2  3  2  0  0  0  0
  3  4  1  0  0  0  0
  4  5  2  0  0  0  0
  4 10  1  0  0  0  0
  5  6  1  0  0  0  0
  5  8  1  0  0  0  0
  6  7  2  0  0  0  0
  8  9  1  0  0  0  0
  9 10  2  0  0  0  0
M  END
>  <CHROM.1>
11.38767002,11.58037794,6.62332350,0.44305774,-1.26693674,1.08040968

>  <Name>
ligand

>  <RI>
0

>  <Rbt.Current_Directory>
/home/itssahil/PROJECTS/Mol_Feturizer/New_Systems/rnas/2EEU

>  <Rbt.Executable>
rbdock ($Id: //depot/dev/client3/rdock/2013.1/src/exe/rbdock.cxx#4 $)

>  <Rbt.Library>
libRbt.so (2013.1, Build901 2013/11/27)

>  <Rbt.Parameter_File>
/export/apps/rDock/src/rDock_2013.1_src/data/scripts/dock_solv.prm

>  <Rbt.Receptor>
prm/pocket_docking_4.prm

>  <SCORE>
-18.5953

>  <SCORE.INTER>
-18.5953

>  <SCORE.INTER.CONST>
1

>  <SCORE.INTER.POLAR>
0

>  <SCORE.INTER.ROT>
0

>  <SCORE.INTER.SOLV>
3.54074

>  <SCORE.INTER.VDW>
-17.1771

>  <SCORE.INTER.norm>
-1.85953

>  <SCORE.INTRA>
0

>  <SCORE.INTRA.DIHEDRAL>
0

>  <SCORE.INTRA.DIHEDRAL.0>
0

>  <SCORE.INTRA.POLAR>
0

>  <SCORE.INTRA.POLAR.0>
0

>  <SCORE.INTRA.REPUL>
0

>  <SCORE.INTRA.REPUL.0>
0

>  <SCORE.INTRA.SOLV>
0

>  <SCORE.INTRA.SOLV.lig_0>
-4.28148

>  <SCORE.INTRA.VDW>
0

>  <SCORE.INTRA.VDW.0>
0

>  <SCORE.INTRA.norm>
0

>  <SCORE.RESTR>
0

>  <SCORE.RESTR.CAVITY>
0

>  <SCORE.RESTR.norm>
0

>  <SCORE.SYSTEM>
0

>  <SCORE.SYSTEM.CONST>
0

>  <SCORE.SYSTEM.DIHEDRAL>
0

>  <SCORE.SYSTEM.SOLV>
0

>  <SCORE.SYSTEM.norm>
0

>  <SCORE.heavy>
10

>  <SCORE.norm>
-1.85953

>  <RMSD>
0.869

$$$$
ligand
 OpenBabel11021811423D
libRbt.so/2013.1/901 2013/11/27
 10 11  0  0  0  0  0  0  0  0999 V2000
   11.8349   10.9697    8.4163 N   0  0  0  0  0  0  0  0  0  0  0  0
   11.5198   12.2891    8.6720 C   0  0  0  0  0  0  0  0  0  0  0  0
   11.1411   13.1309    7.7024 N   0  0  0  0  0  0  0  0  0  0  0  0
   11.1070   12.5509    6.4695 C   0  0  0  0  0  0  0  0  0  0  0  0
   11.4117   11.2374    6.1459 C   0  0  0  0  0  0  0  0  0  0  0  0
   11.8122   10.3377    7.1709 C   0  0  0  0  0  0  0  0  0  0  0  0
   12.1229    9.1480    7.1097 O   0  0  0  0  0  0  0  0  0  0  0  0
   11.2471   11.0748    4.7914 N   0  0  0  0  0  0  0  0  0  0  0  0
   10.8480   12.2741    4.3066 C   0  0  0  0  0  0  0  0  0  0  0  0
   10.7532   13.2053    5.3144 N   0  0  0  0  0  0  0  0  0  0  0  0
  1  2  1  0  0  0  0
  1  6  1  0  0  0  0
  2  3  2  0  0  0  0
  3  4  1  0  0  0  0
  4  5  2  0  0  0  0
  4 10  1  0  0  0  0
  5  6  1  0  0  0  0
  5  8  1  0  0  0  0
  6  7  2  0  0  0  0
  8  9  1  0  0  0  0
  9 10  2  0  0  0  0
M  END
>  <CHROM.1>
11.39403460,11.57568474,6.62175168,0.41619152,-1.26967808,1.05015600

>  <Name>
ligand

>  <RI>
0

>  <Rbt.Current_Directory>
/home/itssahil/PROJECTS/Mol_Feturizer/New_Systems/rnas/2EEU

>  <Rbt.Executable>
rbdock ($Id: //depot/dev/client3/rdock/2013.1/src/exe/rbdock.cxx#4 $)

>  <Rbt.Library>
libRbt.so (2013.1, Build901 2013/11/27)

>  <Rbt.Parameter_File>
/export/apps/rDock/src/rDock_2013.1_src/data/scripts/dock_solv.prm

>  <Rbt.Receptor>
prm/pocket_docking_5.prm

>  <SCORE>
-18.5947

>  <SCORE.INTER>
-18.5947

>  <SCORE.INTER.CONST>
1

>  <SCORE.INTER.POLAR>
0

>  <SCORE.INTER.ROT>
0

>  <SCORE.INTER.SOLV>
3.5416

>  <SCORE.INTER.VDW>
-17.177

>  <SCORE.INTER.norm>
-1.85947

>  <SCORE.INTRA>
0

>  <SCORE.INTRA.DIHEDRAL>
0

>  <SCORE.INTRA.DIHEDRAL.0>
0

>  <SCORE.INTRA.POLAR>
0

>  <SCORE.INTRA.POLAR.0>
0

>  <SCORE.INTRA.REPUL>
0

>  <SCORE.INTRA.REPUL.0>
0

>  <SCORE.INTRA.SOLV>
0

>  <SCORE.INTRA.SOLV.lig_0>
-4.28148

>  <SCORE.INTRA.VDW>
0

>  <SCORE.INTRA.VDW.0>
0

>  <SCORE.INTRA.norm>
0

>  <SCORE.RESTR>
0

>  <SCORE.RESTR.CAVITY>
0

>  <SCORE.RESTR.norm>
0

>  <SCORE.SYSTEM>
0

>  <SCORE.SYSTEM.CONST>
0

>  <SCORE.SYSTEM.DIHEDRAL>
0

>  <SCORE.SYSTEM.SOLV>
0

>  <SCORE.SYSTEM.norm>
0

>  <SCORE.heavy>
10

>  <SCORE.norm>
-1.85947

>  <RMSD>
0.869

$$$$
ligand
 OpenBabel11021811423D
libRbt.so/2013.1/901 2013/11/27
 10 11  0  0  0  0  0  0  0  0999 V2000
   11.8066   11.0036    8.4214 N   0  0  0  0  0  0  0  0  0  0  0  0
   11.4915   12.3246    8.6693 C   0  0  0  0  0  0  0  0  0  0  0  0
   11.1261   13.1641    7.6926 N   0  0  0  0  0  0  0  0  0  0  0  0
   11.1052   12.5804    6.4613 C   0  0  0  0  0  0  0  0  0  0  0  0
   11.4106   11.2652    6.1454 C   0  0  0  0  0  0  0  0  0  0  0  0
   11.7970   10.3678    7.1778 C   0  0  0  0  0  0  0  0  0  0  0  0
   12.1056    9.1773    7.1239 O   0  0  0  0  0  0  0  0  0  0  0  0
   11.2615   11.0987    4.7895 N   0  0  0  0  0  0  0  0  0  0  0  0
   10.8709   12.2973    4.2964 C   0  0  0  0  0  0  0  0  0  0  0  0
   10.7665   13.2320    5.3001 N   0  0  0  0  0  0  0  0  0  0  0  0
  1  2  1  0  0  0  0
  1  6  1  0  0  0  0
  2  3  2  0  0  0  0
  3  4  1  0  0  0  0
  4  5  2  0  0  0  0
  4 10  1  0  0  0  0
  5  6  1  0  0  0  0
  5  8  1  0  0  0  0
  6  7  2  0  0  0  0
  8  9  1  0  0  0  0
  9 10  2  0  0  0  0
M  END
>  <CHROM.1>
11.38814021,11.60501329,6.61992930,0.44739508,-1.27737121,1.07686638

>  <Name>
ligand

>  <RI>
0

>  <Rbt.Current_Directory>
/home/itssahil/PROJECTS/Mol_Feturizer/New_Systems/rnas/2EEU

>  <Rbt.Executable>
rbdock ($Id: //depot/dev/client3/rdock/2013.1/src/exe/rbdock.cxx#4 $)

>  <Rbt.Library>
libRbt.so (2013.1, Build901 2013/11/27)

>  <Rbt.Parameter_File>
/export/apps/rDock/src/rDock_2013.1_src/data/scripts/dock_solv.prm

>  <Rbt.Receptor>
prm/pocket_docking_6.prm

>  <SCORE>
-18.6052

>  <SCORE.INTER>
-18.6052

>  <SCORE.INTER.CONST>
1

>  <SCORE.INTER.POLAR>
0

>  <SCORE.INTER.ROT>
0

>  <SCORE.INTER.SOLV>
3.56799

>  <SCORE.INTER.VDW>
-17.1928

>  <SCORE.INTER.norm>
-1.86052

>  <SCORE.INTRA>
0

>  <SCORE.INTRA.DIHEDRAL>
0

>  <SCORE.INTRA.DIHEDRAL.0>
0

>  <SCORE.INTRA.POLAR>
0

>  <SCORE.INTRA.POLAR.0>
0

>  <SCORE.INTRA.REPUL>
0

>  <SCORE.INTRA.REPUL.0>
0

>  <SCORE.INTRA.SOLV>
0

>  <SCORE.INTRA.SOLV.lig_0>
-4.28148

>  <SCORE.INTRA.VDW>
0

>  <SCORE.INTRA.VDW.0>
0

>  <SCORE.INTRA.norm>
0

>  <SCORE.RESTR>
0

>  <SCORE.RESTR.CAVITY>
0

>  <SCORE.RESTR.norm>
0

>  <SCORE.SYSTEM>
0

>  <SCORE.SYSTEM.CONST>
0

>  <SCORE.SYSTEM.DIHEDRAL>
0

>  <SCORE.SYSTEM.SOLV>
0

>  <SCORE.SYSTEM.norm>
0

>  <SCORE.heavy>
10

>  <SCORE.norm>
-1.86052

>  <RMSD>
0.869

$$$$
ligand
 OpenBabel11021811423D
libRbt.so/2013.1/901 2013/11/27
 10 11  0  0  0  0  0  0  0  0999 V2000
   11.8297   10.9705    8.4142 N   0  0  0  0  0  0  0  0  0  0  0  0
   11.5005   12.2853    8.6758 C   0  0  0  0  0  0  0  0  0  0  0  0
   11.1176   13.1286    7.7092 N   0  0  0  0  0  0  0  0  0  0  0  0
   11.0943   12.5552    6.4731 C   0  0  0  0  0  0  0  0  0  0  0  0
   11.4132   11.2465    6.1436 C   0  0  0  0  0  0  0  0  0  0  0  0
   11.8183   10.3451    7.1653 C   0  0  0  0  0  0  0  0  0  0  0  0
   12.1409    9.1590    7.0988 O   0  0  0  0  0  0  0  0  0  0  0  0
   11.2558   11.0897    4.7875 N   0  0  0  0  0  0  0  0  0  0  0  0
   10.8470   12.2877    4.3076 C   0  0  0  0  0  0  0  0  0  0  0  0
   10.7388   13.2124    5.3200 N   0  0  0  0  0  0  0  0  0  0  0  0
  1  2  1  0  0  0  0
  1  6  1  0  0  0  0
  2  3  2  0  0  0  0
  3  4  1  0  0  0  0
  4  5  2  0  0  0  0
  4 10  1  0  0  0  0
  5  6  1  0  0  0  0
  5  8  1  0  0  0  0
  6  7  2  0  0  0  0
  8  9  1  0  0  0  0
  9 10  2  0  0  0  0
M  END
>  <CHROM.1>
11.39025043,11.58197985,6.62115231,0.44413075,-1.26308389,1.08229661

>  <Name>
ligand

>  <RI>
0

>  <Rbt.Current_Directory>
/home/itssahil/PROJECTS/Mol_Feturizer/New_Systems/rnas/2EEU

>  <Rbt.Executable>
rbdock ($Id: //depot/dev/client3/rdock/2013.1/src/exe/rbdock.cxx#4 $)

>  <Rbt.Library>
libRbt.so (2013.1, Build901 2013/11/27)

>  <Rbt.Parameter_File>
/export/apps/rDock/src/rDock_2013.1_src/data/scripts/dock_solv.prm

>  <Rbt.Receptor>
prm/pocket_docking_7.prm

>  <SCORE>
-18.5912

>  <SCORE.INTER>
-18.5912

>  <SCORE.INTER.CONST>
1

>  <SCORE.INTER.POLAR>
0

>  <SCORE.INTER.ROT>
0

>  <SCORE.INTER.SOLV>
3.5265

>  <SCORE.INTER.VDW>
-17.1697

>  <SCORE.INTER.norm>
-1.85912

>  <SCORE.INTRA>
0

>  <SCORE.INTRA.DIHEDRAL>
0

>  <SCORE.INTRA.DIHEDRAL.0>
0

>  <SCORE.INTRA.POLAR>
0

>  <SCORE.INTRA.POLAR.0>
0

>  <SCORE.INTRA.REPUL>
0

>  <SCORE.INTRA.REPUL.0>
0

>  <SCORE.INTRA.SOLV>
0

>  <SCORE.INTRA.SOLV.lig_0>
-4.28148

>  <SCORE.INTRA.VDW>
0

>  <SCORE.INTRA.VDW.0>
0

>  <SCORE.INTRA.norm>
0

>  <SCORE.RESTR>
0

>  <SCORE.RESTR.CAVITY>
0

>  <SCORE.RESTR.norm>
0

>  <SCORE.SYSTEM>
0

>  <SCORE.SYSTEM.CONST>
0

>  <SCORE.SYSTEM.DIHEDRAL>
0

>  <SCORE.SYSTEM.SOLV>
0

>  <SCORE.SYSTEM.norm>
0

>  <SCORE.heavy>
10

>  <SCORE.norm>
-1.85912

>  <RMSD>
0.869

$$$$
ligand
 OpenBabel11021811423D
libRbt.so/2013.1/901 2013/11/27
 10 11  0  0  0  0  0  0  0  0999 V2000
   11.8090   11.0014    8.4204 N   0  0  0  0  0  0  0  0  0  0  0  0
   11.5055   12.3249    8.6691 C   0  0  0  0  0  0  0  0  0  0  0  0
   11.1411   13.1665    7.6938 N   0  0  0  0  0  0  0  0  0  0  0  0
   11.1088   12.5821    6.4631 C   0  0  0  0  0  0  0  0  0  0  0  0
   11.4024   11.2644    6.1464 C   0  0  0  0  0  0  0  0  0  0  0  0
   11.7876   10.3648    7.1773 C   0  0  0  0  0  0  0  0  0  0  0  0
   12.0868    9.1719    7.1226 O   0  0  0  0  0  0  0  0  0  0  0  0
   11.2444   11.0981    4.7915 N   0  0  0  0  0  0  0  0  0  0  0  0
   10.8603   12.2993    4.2997 C   0  0  0  0  0  0  0  0  0  0  0  0
   10.7686   13.2354    5.3032 N   0  0  0  0  0  0  0  0  0  0  0  0
  1  2  1  0  0  0  0
  1  6  1  0  0  0  0
  2  3  2  0  0  0  0
  3  4  1  0  0  0  0
  4  5  2  0  0  0  0
  4 10  1  0  0  0  0
  5  6  1  0  0  0  0
  5  8  1  0  0  0  0
  6  7  2  0  0  0  0
  8  9  1  0  0  0  0
  9 10  2  0  0  0  0
M  END
>  <CHROM.1>
11.38515341,11.60468465,6.62081067,0.41740341,-1.28133481,1.04741316

>  <Name>
ligand

>  <RI>
0

>  <Rbt.Current_Directory>
/home/itssahil/PROJECTS/Mol_Feturizer/New_Systems/rnas/2EEU

>  <Rbt.Executable>
rbdock ($Id: //depot/dev/client3/rdock/2013.1/src/exe/rbdock.cxx#4 $)

>  <Rbt.Library>
libRbt.so (2013.1, Build901 2013/11/27)

>  <Rbt.Parameter_File>
/export/apps/rDock/src/rDock_2013.1_src/data/scripts/dock_solv.prm

>  <Rbt.Receptor>
prm/pocket_docking_7.prm

>  <SCORE>
-18.6109

>  <SCORE.INTER>
-18.6109

>  <SCORE.INTER.CONST>
1

>  <SCORE.INTER.POLAR>
0

>  <SCORE.INTER.ROT>
0

>  <SCORE.INTER.SOLV>
3.58483

>  <SCORE.INTER.VDW>
-17.2022

>  <SCORE.INTER.norm>
-1.86109

>  <SCORE.INTRA>
0

>  <SCORE.INTRA.DIHEDRAL>
0

>  <SCORE.INTRA.DIHEDRAL.0>
0

>  <SCORE.INTRA.POLAR>
0

>  <SCORE.INTRA.POLAR.0>
0

>  <SCORE.INTRA.REPUL>
0

>  <SCORE.INTRA.REPUL.0>
0

>  <SCORE.INTRA.SOLV>
0

>  <SCORE.INTRA.SOLV.lig_0>
-4.28148

>  <SCORE.INTRA.VDW>
0

>  <SCORE.INTRA.VDW.0>
0

>  <SCORE.INTRA.norm>
0

>  <SCORE.RESTR>
0

>  <SCORE.RESTR.CAVITY>
0

>  <SCORE.RESTR.norm>
0

>  <SCORE.SYSTEM>
0

>  <SCORE.SYSTEM.CONST>
0

>  <SCORE.SYSTEM.DIHEDRAL>
0

>  <SCORE.SYSTEM.SOLV>
0

>  <SCORE.SYSTEM.norm>
0

>  <SCORE.heavy>
10

>  <SCORE.norm>
-1.86109

>  <RMSD>
0.869

$$$$
ligand
 OpenBabel11021811423D
libRbt.so/2013.1/901 2013/11/27
 10 11  0  0  0  0  0  0  0  0999 V2000
   11.7777   10.9888    8.4318 N   0  0  0  0  0  0  0  0  0  0  0  0
   11.4440   12.3051    8.6800 C   0  0  0  0  0  0  0  0  0  0  0  0
   11.0781   13.1427    7.7019 N   0  0  0  0  0  0  0  0  0  0  0  0
   11.0764   12.5621    6.4689 C   0  0  0  0  0  0  0  0  0  0  0  0
   11.4011   11.2516    6.1526 C   0  0  0  0  0  0  0  0  0  0  0  0
   11.7882   10.3562    7.1865 C   0  0  0  0  0  0  0  0  0  0  0  0
   12.1119    9.1697    7.1325 O   0  0  0  0  0  0  0  0  0  0  0  0
   11.2674   11.0870    4.7949 N   0  0  0  0  0  0  0  0  0  0  0  0
   10.8671   12.2821    4.3011 C   0  0  0  0  0  0  0  0  0  0  0  0
   10.7413   13.2127    5.3061 N   0  0  0  0  0  0  0  0  0  0  0  0
  1  2  1  0  0  0  0
  1  6  1  0  0  0  0
  2  3  2  0  0  0  0
  3  4  1  0  0  0  0
  4  5  2  0  0  0  0
  4 10  1  0  0  0  0
  5  6  1  0  0  0  0
  5  8  1  0  0  0  0
  6  7  2  0  0  0  0
  8  9  1  0  0  0  0
  9 10  2  0  0  0  0
M  END
>  <CHROM.1>
11.36975144,11.58986186,6.62779752,0.49646386,-1.27093133,1.12645112

>  <Name>
ligand

>  <RI>
0

>  <Rbt.Current_Directory>
/home/itssahil/PROJECTS/Mol_Feturizer/New_Systems/rnas/2EEU

>  <Rbt.Executable>
rbdock ($Id: //depot/dev/client3/rdock/2013.1/src/exe/rbdock.cxx#4 $)

>  <Rbt.Library>
libRbt.so (2013.1, Build901 2013/11/27)

>  <Rbt.Parameter_File>
/export/apps/rDock/src/rDock_2013.1_src/data/scripts/dock_solv.prm

>  <Rbt.Receptor>
prm/pocket_docking_7.prm

>  <SCORE>
-18.6165

>  <SCORE.INTER>
-18.6165

>  <SCORE.INTER.CONST>
1

>  <SCORE.INTER.POLAR>
0

>  <SCORE.INTER.ROT>
0

>  <SCORE.INTER.SOLV>
3.56571

>  <SCORE.INTER.VDW>
-17.1996

>  <SCORE.INTER.norm>
-1.86165

>  <SCORE.INTRA>
0

>  <SCORE.INTRA.DIHEDRAL>
0

>  <SCORE.INTRA.DIHEDRAL.0>
0

>  <SCORE.INTRA.POLAR>
0

>  <SCORE.INTRA.POLAR.0>
0

>  <SCORE.INTRA.REPUL>
0

>  <SCORE.INTRA.REPUL.0>
0

>  <SCORE.INTRA.SOLV>
0

>  <SCORE.INTRA.SOLV.lig_0>
-4.28148

>  <SCORE.INTRA.VDW>
0

>  <SCORE.INTRA.VDW.0>
0

>  <SCORE.INTRA.norm>
0

>  <SCORE.RESTR>
0

>  <SCORE.RESTR.CAVITY>
0

>  <SCORE.RESTR.norm>
0

>  <SCORE.SYSTEM>
0

>  <SCORE.SYSTEM.CONST>
0

>  <SCORE.SYSTEM.DIHEDRAL>
0

>  <SCORE.SYSTEM.SOLV>
0

>  <SCORE.SYSTEM.norm>
0

>  <SCORE.heavy>
10

>  <SCORE.norm>
-1.86165

>  <RMSD>
0.869

$$$$
ligand
 OpenBabel11021811423D
libRbt.so/2013.1/901 2013/11/27
 10 11  0  0  0  0  0  0  0  0999 V2000
   11.8262   10.9691    8.4154 N   0  0  0  0  0  0  0  0  0  0  0  0
   11.5035   12.2858    8.6760 C   0  0  0  0  0  0  0  0  0  0  0  0
   11.1226   13.1296    7.7089 N   0  0  0  0  0  0  0  0  0  0  0  0
   11.0943   12.5546    6.4736 C   0  0  0  0  0  0  0  0  0  0  0  0
   11.4067   11.2441    6.1452 C   0  0  0  0  0  0  0  0  0  0  0  0
   11.8096   10.3422    7.1674 C   0  0  0  0  0  0  0  0  0  0  0  0
   12.1267    9.1545    7.1019 O   0  0  0  0  0  0  0  0  0  0  0  0
   11.2460   11.0863    4.7897 N   0  0  0  0  0  0  0  0  0  0  0  0
   10.8417   12.2854    4.3090 C   0  0  0  0  0  0  0  0  0  0  0  0
   10.7397   13.2119    5.3204 N   0  0  0  0  0  0  0  0  0  0  0  0
  1  2  1  0  0  0  0
  1  6  1  0  0  0  0
  2  3  2  0  0  0  0
  3  4  1  0  0  0  0
  4  5  2  0  0  0  0
  4 10  1  0  0  0  0
  5  6  1  0  0  0  0
  5  8  1  0  0  0  0
  6  7  2  0  0  0  0
  8  9  1  0  0  0  0
  9 10  2  0  0  0  0
M  END
>  <CHROM.1>
11.38616801,11.58027952,6.62243942,0.43152308,-1.26618916,1.06896241

>  <Name>
ligand

>  <RI>
0

>  <Rbt.Current_Directory>
/home/itssahil/PROJECTS/Mol_Feturizer/New_Systems/rnas/2EEU

>  <Rbt.Executable>
rbdock ($Id: //depot/dev/client3/rdock/2013.1/src/exe/rbdock.cxx#4 $)

>  <Rbt.Library>
libRbt.so (2013.1, Build901 2013/11/27)

>  <Rbt.Parameter_File>
/export/apps/rDock/src/rDock_2013.1_src/data/scripts/dock_solv.prm

>  <Rbt.Receptor>
prm/pocket_docking_8.prm

>  <SCORE>
-18.5932

>  <SCORE.INTER>
-18.5932

>  <SCORE.INTER.CONST>
1

>  <SCORE.INTER.POLAR>
0

>  <SCORE.INTER.ROT>
0

>  <SCORE.INTER.SOLV>
3.54024

>  <SCORE.INTER.VDW>
-17.1755

>  <SCORE.INTER.norm>
-1.85932

>  <SCORE.INTRA>
0

>  <SCORE.INTRA.DIHEDRAL>
0

>  <SCORE.INTRA.DIHEDRAL.0>
0

>  <SCORE.INTRA.POLAR>
0

>  <SCORE.INTRA.POLAR.0>
0

>  <SCORE.INTRA.REPUL>
0

>  <SCORE.INTRA.REPUL.0>
0

>  <SCORE.INTRA.SOLV>
0

>  <SCORE.INTRA.SOLV.lig_0>
-4.28148

>  <SCORE.INTRA.VDW>
0

>  <SCORE.INTRA.VDW.0>
0

>  <SCORE.INTRA.norm>
0

>  <SCORE.RESTR>
0

>  <SCORE.RESTR.CAVITY>
0

>  <SCORE.RESTR.norm>
0

>  <SCORE.SYSTEM>
0

>  <SCORE.SYSTEM.CONST>
0

>  <SCORE.SYSTEM.DIHEDRAL>
0

>  <SCORE.SYSTEM.SOLV>
0

>  <SCORE.SYSTEM.norm>
0

>  <SCORE.heavy>
10

>  <SCORE.norm>
-1.85932

>  <RMSD>
0.869

$$$$
ligand
 OpenBabel11021811423D
libRbt.so/2013.1/901 2013/11/27
 10 11  0  0  0  0  0  0  0  0999 V2000
   11.8302   10.7329    8.4374 N   0  0  0  0  0  0  0  0  0  0  0  0
   11.4702   12.0233    8.7703 C   0  0  0  0  0  0  0  0  0  0  0  0
   11.0811   12.9134    7.8492 N   0  0  0  0  0  0  0  0  0  0  0  0
   11.0846   12.4124    6.5818 C   0  0  0  0  0  0  0  0  0  0  0  0
   11.4351   11.1319    6.1813 C   0  0  0  0  0  0  0  0  0  0  0  0
   11.8470   10.1811    7.1544 C   0  0  0  0  0  0  0  0  0  0  0  0
   12.1954    9.0077    7.0236 O   0  0  0  0  0  0  0  0  0  0  0  0
   11.2972   11.0510    4.8164 N   0  0  0  0  0  0  0  0  0  0  0  0
   10.8688   12.2662    4.4014 C   0  0  0  0  0  0  0  0  0  0  0  0
   10.7291   13.1281    5.4641 N   0  0  0  0  0  0  0  0  0  0  0  0
  1  2  1  0  0  0  0
  1  6  1  0  0  0  0
  2  3  2  0  0  0  0
  3  4  1  0  0  0  0
  4  5  2  0  0  0  0
  4 10  1  0  0  0  0
  5  6  1  0  0  0  0
  5  8  1  0  0  0  0
  6  7  2  0  0  0  0
  8  9  1  0  0  0  0
  9 10  2  0  0  0  0
M  END
>  <CHROM.1>
11.39936042,11.43848514,6.67715180,0.50893604,-1.24934567,1.20196246

>  <Name>
ligand

>  <RI>
0

>  <Rbt.Current_Directory>
/home/itssahil/PROJECTS/Mol_Feturizer/New_Systems/rnas/2EEU

>  <Rbt.Executable>
rbdock ($Id: //depot/dev/client3/rdock/2013.1/src/exe/rbdock.cxx#4 $)

>  <Rbt.Library>
libRbt.so (2013.1, Build901 2013/11/27)

>  <Rbt.Parameter_File>
/export/apps/rDock/src/rDock_2013.1_src/data/scripts/dock_solv.prm

>  <Rbt.Receptor>
prm/blind_docking_20.prm

>  <SCORE>
-18.431

>  <SCORE.INTER>
-18.431

>  <SCORE.INTER.CONST>
1

>  <SCORE.INTER.POLAR>
0

>  <SCORE.INTER.ROT>
0

>  <SCORE.INTER.SOLV>
3.53714

>  <SCORE.INTER.VDW>
-17.0664

>  <SCORE.INTER.norm>
-1.8431

>  <SCORE.INTRA>
0

>  <SCORE.INTRA.DIHEDRAL>
0

>  <SCORE.INTRA.DIHEDRAL.0>
0

>  <SCORE.INTRA.POLAR>
0

>  <SCORE.INTRA.POLAR.0>
0

>  <SCORE.INTRA.REPUL>
0

>  <SCORE.INTRA.REPUL.0>
0

>  <SCORE.INTRA.SOLV>
0

>  <SCORE.INTRA.SOLV.lig_0>
-4.28148

>  <SCORE.INTRA.VDW>
0

>  <SCORE.INTRA.VDW.0>
0

>  <SCORE.INTRA.norm>
0

>  <SCORE.RESTR>
0

>  <SCORE.RESTR.CAVITY>
0

>  <SCORE.RESTR.norm>
0

>  <SCORE.SYSTEM>
0

>  <SCORE.SYSTEM.CONST>
0

>  <SCORE.SYSTEM.DIHEDRAL>
0

>  <SCORE.SYSTEM.SOLV>
0

>  <SCORE.SYSTEM.norm>
0

>  <SCORE.heavy>
10

>  <SCORE.norm>
-1.8431

>  <RMSD>
0.870

$$$$
ligand
 OpenBabel11021811423D
libRbt.so/2013.1/901 2013/11/27
 10 11  0  0  0  0  0  0  0  0999 V2000
   11.7968   10.9964    8.4217 N   0  0  0  0  0  0  0  0  0  0  0  0
   11.4889   12.3186    8.6718 C   0  0  0  0  0  0  0  0  0  0  0  0
   11.1256   13.1610    7.6968 N   0  0  0  0  0  0  0  0  0  0  0  0
   11.0990   12.5787    6.4649 C   0  0  0  0  0  0  0  0  0  0  0  0
   11.3971   11.2623    6.1469 C   0  0  0  0  0  0  0  0  0  0  0  0
   11.7812   10.3619    7.1775 C   0  0  0  0  0  0  0  0  0  0  0  0
   12.0837    9.1699    7.1216 O   0  0  0  0  0  0  0  0  0  0  0  0
   11.2441   11.0981    4.7912 N   0  0  0  0  0  0  0  0  0  0  0  0
   10.8585   12.2992    4.3002 C   0  0  0  0  0  0  0  0  0  0  0  0
   10.7610   13.2333    5.3051 N   0  0  0  0  0  0  0  0  0  0  0  0
  1  2  1  0  0  0  0
  1  6  1  0  0  0  0
  2  3  2  0  0  0  0
  3  4  1  0  0  0  0
  4  5  2  0  0  0  0
  4 10  1  0  0  0  0
  5  6  1  0  0  0  0
  5  8  1  0  0  0  0
  6  7  2  0  0  0  0
  8  9  1  0  0  0  0
  9 10  2  0  0  0  0
M  END
>  <CHROM.1>
11.37736190,11.60176524,6.62183701,0.43211391,-1.28072989,1.06330160

>  <Name>
ligand

>  <RI>
0

>  <Rbt.Current_Directory>
/home/itssahil/PROJECTS/Mol_Feturizer/New_Systems/rnas/2EEU

>  <Rbt.Executable>
rbdock ($Id: //depot/dev/client3/rdock/2013.1/src/exe/rbdock.cxx#4 $)

>  <Rbt.Library>
libRbt.so (2013.1, Build901 2013/11/27)

>  <Rbt.Parameter_File>
/export/apps/rDock/src/rDock_2013.1_src/data/scripts/dock_solv.prm

>  <Rbt.Receptor>
prm/blind_docking_40.prm

>  <SCORE>
-18.6033

>  <SCORE.INTER>
-18.6033

>  <SCORE.INTER.CONST>
1

>  <SCORE.INTER.POLAR>
0

>  <SCORE.INTER.ROT>
0

>  <SCORE.INTER.SOLV>
3.59102

>  <SCORE.INTER.VDW>
-17.1992

>  <SCORE.INTER.norm>
-1.86033

>  <SCORE.INTRA>
0

>  <SCORE.INTRA.DIHEDRAL>
0

>  <SCORE.INTRA.DIHEDRAL.0>
0

>  <SCORE.INTRA.POLAR>
0

>  <SCORE.INTRA.POLAR.0>
0

>  <SCORE.INTRA.REPUL>
0

>  <SCORE.INTRA.REPUL.0>
0

>  <SCORE.INTRA.SOLV>
0

>  <SCORE.INTRA.SOLV.lig_0>
-4.28148

>  <SCORE.INTRA.VDW>
0

>  <SCORE.INTRA.VDW.0>
0

>  <SCORE.INTRA.norm>
0

>  <SCORE.RESTR>
0

>  <SCORE.RESTR.CAVITY>
0

>  <SCORE.RESTR.norm>
0

>  <SCORE.SYSTEM>
0

>  <SCORE.SYSTEM.CONST>
0

>  <SCORE.SYSTEM.DIHEDRAL>
0

>  <SCORE.SYSTEM.SOLV>
0

>  <SCORE.SYSTEM.norm>
0

>  <SCORE.heavy>
10

>  <SCORE.norm>
-1.86033

>  <RMSD>
0.870

$$$$
ligand
 OpenBabel11021811423D
libRbt.so/2013.1/901 2013/11/27
 10 11  0  0  0  0  0  0  0  0999 V2000
   11.7910   10.9921    8.4280 N   0  0  0  0  0  0  0  0  0  0  0  0
   11.4629   12.3101    8.6748 C   0  0  0  0  0  0  0  0  0  0  0  0
   11.0920   13.1459    7.6970 N   0  0  0  0  0  0  0  0  0  0  0  0
   11.0793   12.5616    6.4658 C   0  0  0  0  0  0  0  0  0  0  0  0
   11.3978   11.2493    6.1510 C   0  0  0  0  0  0  0  0  0  0  0  0
   11.7902   10.3558    7.1846 C   0  0  0  0  0  0  0  0  0  0  0  0
   12.1101    9.1682    7.1317 O   0  0  0  0  0  0  0  0  0  0  0  0
   11.2534   11.0810    4.7949 N   0  0  0  0  0  0  0  0  0  0  0  0
   10.8527   12.2758    4.3005 C   0  0  0  0  0  0  0  0  0  0  0  0
   10.7372   13.2097    5.3036 N   0  0  0  0  0  0  0  0  0  0  0  0
  1  2  1  0  0  0  0
  1  6  1  0  0  0  0
  2  3  2  0  0  0  0
  3  4  1  0  0  0  0
  4  5  2  0  0  0  0
  4 10  1  0  0  0  0
  5  6  1  0  0  0  0
  5  8  1  0  0  0  0
  6  7  2  0  0  0  0
  8  9  1  0  0  0  0
  9 10  2  0  0  0  0
M  END
>  <CHROM.1>
11.37104219,11.58899711,6.62539105,0.46922903,-1.27013794,1.09744866

>  <Name>
ligand

>  <RI>
0

>  <Rbt.Current_Directory>
/home/itssahil/PROJECTS/Mol_Feturizer/New_Systems/rnas/2EEU

>  <Rbt.Executable>
rbdock ($Id: //depot/dev/client3/rdock/2013.1/src/exe/rbdock.cxx#4 $)

>  <Rbt.Library>
libRbt.so (2013.1, Build901 2013/11/27)

>  <Rbt.Parameter_File>
/export/apps/rDock/src/rDock_2013.1_src/data/scripts/dock_solv.prm

>  <Rbt.Receptor>
prm/blind_docking_60.prm

>  <SCORE>
-18.6181

>  <SCORE.INTER>
-18.6181

>  <SCORE.INTER.CONST>
1

>  <SCORE.INTER.POLAR>
0

>  <SCORE.INTER.ROT>
0

>  <SCORE.INTER.SOLV>
3.56048

>  <SCORE.INTER.VDW>
-17.1989

>  <SCORE.INTER.norm>
-1.86181

>  <SCORE.INTRA>
0

>  <SCORE.INTRA.DIHEDRAL>
0

>  <SCORE.INTRA.DIHEDRAL.0>
0

>  <SCORE.INTRA.POLAR>
0

>  <SCORE.INTRA.POLAR.0>
0

>  <SCORE.INTRA.REPUL>
0

>  <SCORE.INTRA.REPUL.0>
0

>  <SCORE.INTRA.SOLV>
0

>  <SCORE.INTRA.SOLV.lig_0>
-4.28148

>  <SCORE.INTRA.VDW>
0

>  <SCORE.INTRA.VDW.0>
0

>  <SCORE.INTRA.norm>
0

>  <SCORE.RESTR>
0

>  <SCORE.RESTR.CAVITY>
0

>  <SCORE.RESTR.norm>
0

>  <SCORE.SYSTEM>
0

>  <SCORE.SYSTEM.CONST>
0

>  <SCORE.SYSTEM.DIHEDRAL>
0

>  <SCORE.SYSTEM.SOLV>
0

>  <SCORE.SYSTEM.norm>
0

>  <SCORE.heavy>
10

>  <SCORE.norm>
-1.86181

>  <RMSD>
0.870

$$$$
ligand
 OpenBabel11021811423D
libRbt.so/2013.1/901 2013/11/27
 10 11  0  0  0  0  0  0  0  0999 V2000
   11.8131   11.0012    8.4168 N   0  0  0  0  0  0  0  0  0  0  0  0
   11.4992   12.3219    8.6677 C   0  0  0  0  0  0  0  0  0  0  0  0
   11.1297   13.1626    7.6936 N   0  0  0  0  0  0  0  0  0  0  0  0
   11.1033   12.5803    6.4617 C   0  0  0  0  0  0  0  0  0  0  0  0
   11.4072   11.2655    6.1429 C   0  0  0  0  0  0  0  0  0  0  0  0
   11.7980   10.3668    7.1726 C   0  0  0  0  0  0  0  0  0  0  0  0
   12.1063    9.1763    7.1159 O   0  0  0  0  0  0  0  0  0  0  0  0
   11.2522   11.1006    4.7875 N   0  0  0  0  0  0  0  0  0  0  0  0
   10.8596   12.2999    4.2975 C   0  0  0  0  0  0  0  0  0  0  0  0
   10.7596   13.2333    5.3027 N   0  0  0  0  0  0  0  0  0  0  0  0
  1  2  1  0  0  0  0
  1  6  1  0  0  0  0
  2  3  2  0  0  0  0
  3  4  1  0  0  0  0
  4  5  2  0  0  0  0
  4 10  1  0  0  0  0
  5  6  1  0  0  0  0
  5  8  1  0  0  0  0
  6  7  2  0  0  0  0
  8  9  1  0  0  0  0
  9 10  2  0  0  0  0
M  END
>  <CHROM.1>
11.38686933,11.60473598,6.61792881,0.43398509,-1.27536954,1.06520955

>  <Name>
ligand

>  <RI>
0

>  <Rbt.Current_Directory>
/home/itssahil/PROJECTS/Mol_Feturizer/New_Systems/rnas/2EEU

>  <Rbt.Executable>
rbdock ($Id: //depot/dev/client3/rdock/2013.1/src/exe/rbdock.cxx#4 $)

>  <Rbt.Library>
libRbt.so (2013.1, Build901 2013/11/27)

>  <Rbt.Parameter_File>
/export/apps/rDock/src/rDock_2013.1_src/data/scripts/dock_solv.prm

>  <Rbt.Receptor>
prm/pocket_docking_3.prm

>  <SCORE>
-18.6064

>  <SCORE.INTER>
-18.6064

>  <SCORE.INTER.CONST>
1

>  <SCORE.INTER.POLAR>
0

>  <SCORE.INTER.ROT>
0

>  <SCORE.INTER.SOLV>
3.5648

>  <SCORE.INTER.VDW>
-17.1925

>  <SCORE.INTER.norm>
-1.86064

>  <SCORE.INTRA>
0

>  <SCORE.INTRA.DIHEDRAL>
0

>  <SCORE.INTRA.DIHEDRAL.0>
0

>  <SCORE.INTRA.POLAR>
0

>  <SCORE.INTRA.POLAR.0>
0

>  <SCORE.INTRA.REPUL>
0

>  <SCORE.INTRA.REPUL.0>
0

>  <SCORE.INTRA.SOLV>
0

>  <SCORE.INTRA.SOLV.lig_0>
-4.28148

>  <SCORE.INTRA.VDW>
0

>  <SCORE.INTRA.VDW.0>
0

>  <SCORE.INTRA.norm>
0

>  <SCORE.RESTR>
0

>  <SCORE.RESTR.CAVITY>
0

>  <SCORE.RESTR.norm>
0

>  <SCORE.SYSTEM>
0

>  <SCORE.SYSTEM.CONST>
0

>  <SCORE.SYSTEM.DIHEDRAL>
0

>  <SCORE.SYSTEM.SOLV>
0

>  <SCORE.SYSTEM.norm>
0

>  <SCORE.heavy>
10

>  <SCORE.norm>
-1.86064

>  <RMSD>
0.870

$$$$
ligand
 OpenBabel11021811423D
libRbt.so/2013.1/901 2013/11/27
 10 11  0  0  0  0  0  0  0  0999 V2000
   11.7735   10.9834    8.4322 N   0  0  0  0  0  0  0  0  0  0  0  0
   11.4389   12.2991    8.6824 C   0  0  0  0  0  0  0  0  0  0  0  0
   11.0755   13.1389    7.7051 N   0  0  0  0  0  0  0  0  0  0  0  0
   11.0775   12.5610    6.4709 C   0  0  0  0  0  0  0  0  0  0  0  0
   11.4032   11.2512    6.1526 C   0  0  0  0  0  0  0  0  0  0  0  0
   11.7876   10.3536    7.1856 C   0  0  0  0  0  0  0  0  0  0  0  0
   12.1117    9.1673    7.1300 O   0  0  0  0  0  0  0  0  0  0  0  0
   11.2734   11.0896    4.7942 N   0  0  0  0  0  0  0  0  0  0  0  0
   10.8742   12.2857    4.3019 C   0  0  0  0  0  0  0  0  0  0  0  0
   10.7454   13.2140    5.3085 N   0  0  0  0  0  0  0  0  0  0  0  0
  1  2  1  0  0  0  0
  1  6  1  0  0  0  0
  2  3  2  0  0  0  0
  3  4  1  0  0  0  0
  4  5  2  0  0  0  0
  4 10  1  0  0  0  0
  5  6  1  0  0  0  0
  5  8  1  0  0  0  0
  6  7  2  0  0  0  0
  8  9  1  0  0  0  0
  9 10  2  0  0  0  0
M  END
>  <CHROM.1>
11.37051014,11.58839838,6.62845444,0.50540169,-1.27194788,1.13718215

>  <Name>
ligand

>  <RI>
0

>  <Rbt.Current_Directory>
/home/itssahil/PROJECTS/Mol_Feturizer/New_Systems/rnas/2EEU

>  <Rbt.Executable>
rbdock ($Id: //depot/dev/client3/rdock/2013.1/src/exe/rbdock.cxx#4 $)

>  <Rbt.Library>
libRbt.so (2013.1, Build901 2013/11/27)

>  <Rbt.Parameter_File>
/export/apps/rDock/src/rDock_2013.1_src/data/scripts/dock_solv.prm

>  <Rbt.Receptor>
prm/pocket_docking_5.prm

>  <SCORE>
-18.6151

>  <SCORE.INTER>
-18.6151

>  <SCORE.INTER.CONST>
1

>  <SCORE.INTER.POLAR>
0

>  <SCORE.INTER.ROT>
0

>  <SCORE.INTER.SOLV>
3.57013

>  <SCORE.INTER.VDW>
-17.2001

>  <SCORE.INTER.norm>
-1.86151

>  <SCORE.INTRA>
0

>  <SCORE.INTRA.DIHEDRAL>
0

>  <SCORE.INTRA.DIHEDRAL.0>
0

>  <SCORE.INTRA.POLAR>
0

>  <SCORE.INTRA.POLAR.0>
0

>  <SCORE.INTRA.REPUL>
0

>  <SCORE.INTRA.REPUL.0>
0

>  <SCORE.INTRA.SOLV>
0

>  <SCORE.INTRA.SOLV.lig_0>
-4.28148

>  <SCORE.INTRA.VDW>
0

>  <SCORE.INTRA.VDW.0>
0

>  <SCORE.INTRA.norm>
0

>  <SCORE.RESTR>
0

>  <SCORE.RESTR.CAVITY>
0

>  <SCORE.RESTR.norm>
0

>  <SCORE.SYSTEM>
0

>  <SCORE.SYSTEM.CONST>
0

>  <SCORE.SYSTEM.DIHEDRAL>
0

>  <SCORE.SYSTEM.SOLV>
0

>  <SCORE.SYSTEM.norm>
0

>  <SCORE.heavy>
10

>  <SCORE.norm>
-1.86151

>  <RMSD>
0.870

$$$$
ligand
 OpenBabel11021811423D
libRbt.so/2013.1/901 2013/11/27
 10 11  0  0  0  0  0  0  0  0999 V2000
   11.7978   10.9682    8.4225 N   0  0  0  0  0  0  0  0  0  0  0  0
   11.4634   12.2820    8.6826 C   0  0  0  0  0  0  0  0  0  0  0  0
   11.0931   13.1273    7.7127 N   0  0  0  0  0  0  0  0  0  0  0  0
   11.0880   12.5568    6.4750 C   0  0  0  0  0  0  0  0  0  0  0  0
   11.4131   11.2493    6.1469 C   0  0  0  0  0  0  0  0  0  0  0  0
   11.8048   10.3459    7.1720 C   0  0  0  0  0  0  0  0  0  0  0  0
   12.1297    9.1603    7.1072 O   0  0  0  0  0  0  0  0  0  0  0  0
   11.2751   11.0958    4.7883 N   0  0  0  0  0  0  0  0  0  0  0  0
   10.8717   12.2944    4.3057 C   0  0  0  0  0  0  0  0  0  0  0  0
   10.7481   13.2165    5.3187 N   0  0  0  0  0  0  0  0  0  0  0  0
  1  2  1  0  0  0  0
  1  6  1  0  0  0  0
  2  3  2  0  0  0  0
  3  4  1  0  0  0  0
  4  5  2  0  0  0  0
  4 10  1  0  0  0  0
  5  6  1  0  0  0  0
  5  8  1  0  0  0  0
  6  7  2  0  0  0  0
  8  9  1  0  0  0  0
  9 10  2  0  0  0  0
M  END
>  <CHROM.1>
11.38301618,11.58362487,6.62491467,0.48795960,-1.26839585,1.12655727

>  <Name>
ligand

>  <RI>
0

>  <Rbt.Current_Directory>
/home/itssahil/PROJECTS/Mol_Feturizer/New_Systems/rnas/2EEU

>  <Rbt.Executable>
rbdock ($Id: //depot/dev/client3/rdock/2013.1/src/exe/rbdock.cxx#4 $)

>  <Rbt.Library>
libRbt.so (2013.1, Build901 2013/11/27)

>  <Rbt.Parameter_File>
/export/apps/rDock/src/rDock_2013.1_src/data/scripts/dock_solv.prm

>  <Rbt.Receptor>
prm/pocket_docking_5.prm

>  <SCORE>
-18.5879

>  <SCORE.INTER>
-18.5879

>  <SCORE.INTER.CONST>
1

>  <SCORE.INTER.POLAR>
0

>  <SCORE.INTER.ROT>
0

>  <SCORE.INTER.SOLV>
3.55231

>  <SCORE.INTER.VDW>
-17.176

>  <SCORE.INTER.norm>
-1.85879

>  <SCORE.INTRA>
0

>  <SCORE.INTRA.DIHEDRAL>
0

>  <SCORE.INTRA.DIHEDRAL.0>
0

>  <SCORE.INTRA.POLAR>
0

>  <SCORE.INTRA.POLAR.0>
0

>  <SCORE.INTRA.REPUL>
0

>  <SCORE.INTRA.REPUL.0>
0

>  <SCORE.INTRA.SOLV>
0

>  <SCORE.INTRA.SOLV.lig_0>
-4.28148

>  <SCORE.INTRA.VDW>
0

>  <SCORE.INTRA.VDW.0>
0

>  <SCORE.INTRA.norm>
0

>  <SCORE.RESTR>
0

>  <SCORE.RESTR.CAVITY>
0

>  <SCORE.RESTR.norm>
0

>  <SCORE.SYSTEM>
0

>  <SCORE.SYSTEM.CONST>
0

>  <SCORE.SYSTEM.DIHEDRAL>
0

>  <SCORE.SYSTEM.SOLV>
0

>  <SCORE.SYSTEM.norm>
0

>  <SCORE.heavy>
10

>  <SCORE.norm>
-1.85879

>  <RMSD>
0.870

$$$$
ligand
 OpenBabel11021811423D
libRbt.so/2013.1/901 2013/11/27
 10 11  0  0  0  0  0  0  0  0999 V2000
   11.7643   10.9801    8.4341 N   0  0  0  0  0  0  0  0  0  0  0  0
   11.4264   12.2948    8.6851 C   0  0  0  0  0  0  0  0  0  0  0  0
   11.0680   13.1362    7.7075 N   0  0  0  0  0  0  0  0  0  0  0  0
   11.0783   12.5610    6.4720 C   0  0  0  0  0  0  0  0  0  0  0  0
   11.4077   11.2524    6.1529 C   0  0  0  0  0  0  0  0  0  0  0  0
   11.7869   10.3530    7.1862 C   0  0  0  0  0  0  0  0  0  0  0  0
   12.1130    9.1672    7.1300 O   0  0  0  0  0  0  0  0  0  0  0  0
   11.2865   11.0935    4.7933 N   0  0  0  0  0  0  0  0  0  0  0  0
   10.8887   12.2902    4.3012 C   0  0  0  0  0  0  0  0  0  0  0  0
   10.7525   13.2161    5.3090 N   0  0  0  0  0  0  0  0  0  0  0  0
  1  2  1  0  0  0  0
  1  6  1  0  0  0  0
  2  3  2  0  0  0  0
  3  4  1  0  0  0  0
  4  5  2  0  0  0  0
  4 10  1  0  0  0  0
  5  6  1  0  0  0  0
  5  8  1  0  0  0  0
  6  7  2  0  0  0  0
  8  9  1  0  0  0  0
  9 10  2  0  0  0  0
M  END
>  <CHROM.1>
11.37163586,11.58846616,6.62922918,0.52632533,-1.27326718,1.15937374

>  <Name>
ligand

>  <RI>
0

>  <Rbt.Current_Directory>
/home/itssahil/PROJECTS/Mol_Feturizer/New_Systems/rnas/2EEU

>  <Rbt.Executable>
rbdock ($Id: //depot/dev/client3/rdock/2013.1/src/exe/rbdock.cxx#4 $)

>  <Rbt.Library>
libRbt.so (2013.1, Build901 2013/11/27)

>  <Rbt.Parameter_File>
/export/apps/rDock/src/rDock_2013.1_src/data/scripts/dock_solv.prm

>  <Rbt.Receptor>
prm/pocket_docking_5.prm

>  <SCORE>
-18.6059

>  <SCORE.INTER>
-18.6059

>  <SCORE.INTER.CONST>
1

>  <SCORE.INTER.POLAR>
0

>  <SCORE.INTER.ROT>
0

>  <SCORE.INTER.SOLV>
3.57573

>  <SCORE.INTER.VDW>
-17.1959

>  <SCORE.INTER.norm>
-1.86059

>  <SCORE.INTRA>
0

>  <SCORE.INTRA.DIHEDRAL>
0

>  <SCORE.INTRA.DIHEDRAL.0>
0

>  <SCORE.INTRA.POLAR>
0

>  <SCORE.INTRA.POLAR.0>
0

>  <SCORE.INTRA.REPUL>
0

>  <SCORE.INTRA.REPUL.0>
0

>  <SCORE.INTRA.SOLV>
0

>  <SCORE.INTRA.SOLV.lig_0>
-4.28148

>  <SCORE.INTRA.VDW>
0

>  <SCORE.INTRA.VDW.0>
0

>  <SCORE.INTRA.norm>
0

>  <SCORE.RESTR>
0

>  <SCORE.RESTR.CAVITY>
0

>  <SCORE.RESTR.norm>
0

>  <SCORE.SYSTEM>
0

>  <SCORE.SYSTEM.CONST>
0

>  <SCORE.SYSTEM.DIHEDRAL>
0

>  <SCORE.SYSTEM.SOLV>
0

>  <SCORE.SYSTEM.norm>
0

>  <SCORE.heavy>
10

>  <SCORE.norm>
-1.86059

>  <RMSD>
0.870

$$$$
ligand
 OpenBabel11021811423D
libRbt.so/2013.1/901 2013/11/27
 10 11  0  0  0  0  0  0  0  0999 V2000
   11.8015   10.9677    8.4229 N   0  0  0  0  0  0  0  0  0  0  0  0
   11.4665   12.2817    8.6813 C   0  0  0  0  0  0  0  0  0  0  0  0
   11.0978   13.1260    7.7100 N   0  0  0  0  0  0  0  0  0  0  0  0
   11.0948   12.5545    6.4728 C   0  0  0  0  0  0  0  0  0  0  0  0
   11.4207   11.2467    6.1464 C   0  0  0  0  0  0  0  0  0  0  0  0
   11.8107   10.3443    7.1730 C   0  0  0  0  0  0  0  0  0  0  0  0
   12.1359    9.1587    7.1098 O   0  0  0  0  0  0  0  0  0  0  0  0
   11.2849   11.0919    4.7877 N   0  0  0  0  0  0  0  0  0  0  0  0
   10.8822   12.2900    4.3033 C   0  0  0  0  0  0  0  0  0  0  0  0
   10.7568   13.2130    5.3153 N   0  0  0  0  0  0  0  0  0  0  0  0
  1  2  1  0  0  0  0
  1  6  1  0  0  0  0
  2  3  2  0  0  0  0
  3  4  1  0  0  0  0
  4  5  2  0  0  0  0
  4 10  1  0  0  0  0
  5  6  1  0  0  0  0
  5  8  1  0  0  0  0
  6  7  2  0  0  0  0
  8  9  1  0  0  0  0
  9 10  2  0  0  0  0
M  END
>  <CHROM.1>
11.38969297,11.58144136,6.62405474,0.49328310,-1.26900347,1.13072249

>  <Name>
ligand

>  <RI>
0

>  <Rbt.Current_Directory>
/home/itssahil/PROJECTS/Mol_Feturizer/New_Systems/rnas/2EEU

>  <Rbt.Executable>
rbdock ($Id: //depot/dev/client3/rdock/2013.1/src/exe/rbdock.cxx#4 $)

>  <Rbt.Library>
libRbt.so (2013.1, Build901 2013/11/27)

>  <Rbt.Parameter_File>
/export/apps/rDock/src/rDock_2013.1_src/data/scripts/dock_solv.prm

>  <Rbt.Receptor>
prm/pocket_docking_5.prm

>  <SCORE>
-18.5818

>  <SCORE.INTER>
-18.5818

>  <SCORE.INTER.CONST>
1

>  <SCORE.INTER.POLAR>
0

>  <SCORE.INTER.ROT>
0

>  <SCORE.INTER.SOLV>
3.54734

>  <SCORE.INTER.VDW>
-17.1703

>  <SCORE.INTER.norm>
-1.85818

>  <SCORE.INTRA>
0

>  <SCORE.INTRA.DIHEDRAL>
0

>  <SCORE.INTRA.DIHEDRAL.0>
0

>  <SCORE.INTRA.POLAR>
0

>  <SCORE.INTRA.POLAR.0>
0

>  <SCORE.INTRA.REPUL>
0

>  <SCORE.INTRA.REPUL.0>
0

>  <SCORE.INTRA.SOLV>
0

>  <SCORE.INTRA.SOLV.lig_0>
-4.28148

>  <SCORE.INTRA.VDW>
0

>  <SCORE.INTRA.VDW.0>
0

>  <SCORE.INTRA.norm>
0

>  <SCORE.RESTR>
0

>  <SCORE.RESTR.CAVITY>
0

>  <SCORE.RESTR.norm>
0

>  <SCORE.SYSTEM>
0

>  <SCORE.SYSTEM.CONST>
0

>  <SCORE.SYSTEM.DIHEDRAL>
0

>  <SCORE.SYSTEM.SOLV>
0

>  <SCORE.SYSTEM.norm>
0

>  <SCORE.heavy>
10

>  <SCORE.norm>
-1.85818

>  <RMSD>
0.870

$$$$
ligand
 OpenBabel11021811423D
libRbt.so/2013.1/901 2013/11/27
 10 11  0  0  0  0  0  0  0  0999 V2000
   11.7908   10.9899    8.4266 N   0  0  0  0  0  0  0  0  0  0  0  0
   11.4568   12.3057    8.6770 C   0  0  0  0  0  0  0  0  0  0  0  0
   11.0840   13.1431    7.7012 N   0  0  0  0  0  0  0  0  0  0  0  0
   11.0758   12.5626    6.4682 C   0  0  0  0  0  0  0  0  0  0  0  0
   11.4002   11.2526    6.1498 C   0  0  0  0  0  0  0  0  0  0  0  0
   11.7946   10.3575    7.1812 C   0  0  0  0  0  0  0  0  0  0  0  0
   12.1196    9.1714    7.1252 O   0  0  0  0  0  0  0  0  0  0  0  0
   11.2587   11.0879    4.7929 N   0  0  0  0  0  0  0  0  0  0  0  0
   10.8539   12.2826    4.3016 C   0  0  0  0  0  0  0  0  0  0  0  0
   10.7328   13.2128    5.3074 N   0  0  0  0  0  0  0  0  0  0  0  0
  1  2  1  0  0  0  0
  1  6  1  0  0  0  0
  2  3  2  0  0  0  0
  3  4  1  0  0  0  0
  4  5  2  0  0  0  0
  4 10  1  0  0  0  0
  5  6  1  0  0  0  0
  5  8  1  0  0  0  0
  6  7  2  0  0  0  0
  8  9  1  0  0  0  0
  9 10  2  0  0  0  0
M  END
>  <CHROM.1>
11.37129487,11.59069458,6.62518701,0.48038733,-1.26715987,1.11122265

>  <Name>
ligand

>  <RI>
0

>  <Rbt.Current_Directory>
/home/itssahil/PROJECTS/Mol_Feturizer/New_Systems/rnas/2EEU

>  <Rbt.Executable>
rbdock ($Id: //depot/dev/client3/rdock/2013.1/src/exe/rbdock.cxx#4 $)

>  <Rbt.Library>
libRbt.so (2013.1, Build901 2013/11/27)

>  <Rbt.Parameter_File>
/export/apps/rDock/src/rDock_2013.1_src/data/scripts/dock_solv.prm

>  <Rbt.Receptor>
prm/pocket_docking_6.prm

>  <SCORE>
-18.6184

>  <SCORE.INTER>
-18.6184

>  <SCORE.INTER.CONST>
1

>  <SCORE.INTER.POLAR>
0

>  <SCORE.INTER.ROT>
0

>  <SCORE.INTER.SOLV>
3.55262

>  <SCORE.INTER.VDW>
-17.1965

>  <SCORE.INTER.norm>
-1.86184

>  <SCORE.INTRA>
0

>  <SCORE.INTRA.DIHEDRAL>
0

>  <SCORE.INTRA.DIHEDRAL.0>
0

>  <SCORE.INTRA.POLAR>
0

>  <SCORE.INTRA.POLAR.0>
0

>  <SCORE.INTRA.REPUL>
0

>  <SCORE.INTRA.REPUL.0>
0

>  <SCORE.INTRA.SOLV>
0

>  <SCORE.INTRA.SOLV.lig_0>
-4.28148

>  <SCORE.INTRA.VDW>
0

>  <SCORE.INTRA.VDW.0>
0

>  <SCORE.INTRA.norm>
0

>  <SCORE.RESTR>
0

>  <SCORE.RESTR.CAVITY>
0

>  <SCORE.RESTR.norm>
0

>  <SCORE.SYSTEM>
0

>  <SCORE.SYSTEM.CONST>
0

>  <SCORE.SYSTEM.DIHEDRAL>
0

>  <SCORE.SYSTEM.SOLV>
0

>  <SCORE.SYSTEM.norm>
0

>  <SCORE.heavy>
10

>  <SCORE.norm>
-1.86184

>  <RMSD>
0.870

$$$$
ligand
 OpenBabel11021811423D
libRbt.so/2013.1/901 2013/11/27
 10 11  0  0  0  0  0  0  0  0999 V2000
   11.8093   11.0011    8.4193 N   0  0  0  0  0  0  0  0  0  0  0  0
   11.5062   12.3250    8.6664 C   0  0  0  0  0  0  0  0  0  0  0  0
   11.1367   13.1642    7.6910 N   0  0  0  0  0  0  0  0  0  0  0  0
   11.0988   12.5769    6.4617 C   0  0  0  0  0  0  0  0  0  0  0  0
   11.3916   11.2586    6.1467 C   0  0  0  0  0  0  0  0  0  0  0  0
   11.7823   10.3616    7.1778 C   0  0  0  0  0  0  0  0  0  0  0  0
   12.0819    9.1687    7.1243 O   0  0  0  0  0  0  0  0  0  0  0  0
   11.2273   11.0892    4.7930 N   0  0  0  0  0  0  0  0  0  0  0  0
   10.8401   12.2891    4.3003 C   0  0  0  0  0  0  0  0  0  0  0  0
   10.7527   13.2274    5.3021 N   0  0  0  0  0  0  0  0  0  0  0  0
  1  2  1  0  0  0  0
  1  6  1  0  0  0  0
  2  3  2  0  0  0  0
  3  4  1  0  0  0  0
  4  5  2  0  0  0  0
  4 10  1  0  0  0  0
  5  6  1  0  0  0  0
  5  8  1  0  0  0  0
  6  7  2  0  0  0  0
  8  9  1  0  0  0  0
  9 10  2  0  0  0  0
M  END
>  <CHROM.1>
11.37649118,11.60003136,6.62039694,0.40393090,-1.27843452,1.03223003

>  <Name>
ligand

>  <RI>
0

>  <Rbt.Current_Directory>
/home/itssahil/PROJECTS/Mol_Feturizer/New_Systems/rnas/2EEU

>  <Rbt.Executable>
rbdock ($Id: //depot/dev/client3/rdock/2013.1/src/exe/rbdock.cxx#4 $)

>  <Rbt.Library>
libRbt.so (2013.1, Build901 2013/11/27)

>  <Rbt.Parameter_File>
/export/apps/rDock/src/rDock_2013.1_src/data/scripts/dock_solv.prm

>  <Rbt.Receptor>
prm/pocket_docking_7.prm

>  <SCORE>
-18.596

>  <SCORE.INTER>
-18.596

>  <SCORE.INTER.CONST>
1

>  <SCORE.INTER.POLAR>
0

>  <SCORE.INTER.ROT>
0

>  <SCORE.INTER.SOLV>
3.58329

>  <SCORE.INTER.VDW>
-17.1918

>  <SCORE.INTER.norm>
-1.8596

>  <SCORE.INTRA>
0

>  <SCORE.INTRA.DIHEDRAL>
0

>  <SCORE.INTRA.DIHEDRAL.0>
0

>  <SCORE.INTRA.POLAR>
0

>  <SCORE.INTRA.POLAR.0>
0

>  <SCORE.INTRA.REPUL>
0

>  <SCORE.INTRA.REPUL.0>
0

>  <SCORE.INTRA.SOLV>
0

>  <SCORE.INTRA.SOLV.lig_0>
-4.28148

>  <SCORE.INTRA.VDW>
0

>  <SCORE.INTRA.VDW.0>
0

>  <SCORE.INTRA.norm>
0

>  <SCORE.RESTR>
0

>  <SCORE.RESTR.CAVITY>
0

>  <SCORE.RESTR.norm>
0

>  <SCORE.SYSTEM>
0

>  <SCORE.SYSTEM.CONST>
0

>  <SCORE.SYSTEM.DIHEDRAL>
0

>  <SCORE.SYSTEM.SOLV>
0

>  <SCORE.SYSTEM.norm>
0

>  <SCORE.heavy>
10

>  <SCORE.norm>
-1.8596

>  <RMSD>
0.870

$$$$
ligand
 OpenBabel11021811423D
libRbt.so/2013.1/901 2013/11/27
 10 11  0  0  0  0  0  0  0  0999 V2000
   11.7688   10.9834    8.4337 N   0  0  0  0  0  0  0  0  0  0  0  0
   11.4330   12.2989    8.6830 C   0  0  0  0  0  0  0  0  0  0  0  0
   11.0717   13.1385    7.7049 N   0  0  0  0  0  0  0  0  0  0  0  0
   11.0769   12.5606    6.4707 C   0  0  0  0  0  0  0  0  0  0  0  0
   11.4040   11.2510    6.1532 C   0  0  0  0  0  0  0  0  0  0  0  0
   11.7862   10.3536    7.1871 C   0  0  0  0  0  0  0  0  0  0  0  0
   12.1109    9.1674    7.1323 O   0  0  0  0  0  0  0  0  0  0  0  0
   11.2775   11.0893    4.7945 N   0  0  0  0  0  0  0  0  0  0  0  0
   10.8790   12.2853    4.3012 C   0  0  0  0  0  0  0  0  0  0  0  0
   10.7474   13.2135    5.3075 N   0  0  0  0  0  0  0  0  0  0  0  0
  1  2  1  0  0  0  0
  1  6  1  0  0  0  0
  2  3  2  0  0  0  0
  3  4  1  0  0  0  0
  4  5  2  0  0  0  0
  4 10  1  0  0  0  0
  5  6  1  0  0  0  0
  5  8  1  0  0  0  0
  6  7  2  0  0  0  0
  8  9  1  0  0  0  0
  9 10  2  0  0  0  0
M  END
>  <CHROM.1>
11.36994583,11.58818824,6.62895412,0.51345951,-1.27257850,1.14488090

>  <Name>
ligand

>  <RI>
0

>  <Rbt.Current_Directory>
/home/itssahil/PROJECTS/Mol_Feturizer/New_Systems/rnas/2EEU

>  <Rbt.Executable>
rbdock ($Id: //depot/dev/client3/rdock/2013.1/src/exe/rbdock.cxx#4 $)

>  <Rbt.Library>
libRbt.so (2013.1, Build901 2013/11/27)

>  <Rbt.Parameter_File>
/export/apps/rDock/src/rDock_2013.1_src/data/scripts/dock_solv.prm

>  <Rbt.Receptor>
prm/pocket_docking_7.prm

>  <SCORE>
-18.611

>  <SCORE.INTER>
-18.611

>  <SCORE.INTER.CONST>
1

>  <SCORE.INTER.POLAR>
0

>  <SCORE.INTER.ROT>
0

>  <SCORE.INTER.SOLV>
3.57299

>  <SCORE.INTER.VDW>
-17.1983

>  <SCORE.INTER.norm>
-1.8611

>  <SCORE.INTRA>
0

>  <SCORE.INTRA.DIHEDRAL>
0

>  <SCORE.INTRA.DIHEDRAL.0>
0

>  <SCORE.INTRA.POLAR>
0

>  <SCORE.INTRA.POLAR.0>
0

>  <SCORE.INTRA.REPUL>
0

>  <SCORE.INTRA.REPUL.0>
0

>  <SCORE.INTRA.SOLV>
0

>  <SCORE.INTRA.SOLV.lig_0>
-4.28148

>  <SCORE.INTRA.VDW>
0

>  <SCORE.INTRA.VDW.0>
0

>  <SCORE.INTRA.norm>
0

>  <SCORE.RESTR>
0

>  <SCORE.RESTR.CAVITY>
0

>  <SCORE.RESTR.norm>
0

>  <SCORE.SYSTEM>
0

>  <SCORE.SYSTEM.CONST>
0

>  <SCORE.SYSTEM.DIHEDRAL>
0

>  <SCORE.SYSTEM.SOLV>
0

>  <SCORE.SYSTEM.norm>
0

>  <SCORE.heavy>
10

>  <SCORE.norm>
-1.8611

>  <RMSD>
0.870

$$$$
ligand
 OpenBabel11021811423D
libRbt.so/2013.1/901 2013/11/27
 10 11  0  0  0  0  0  0  0  0999 V2000
   11.8120   10.9668    8.4175 N   0  0  0  0  0  0  0  0  0  0  0  0
   11.4923   12.2842    8.6777 C   0  0  0  0  0  0  0  0  0  0  0  0
   11.1174   13.1298    7.7099 N   0  0  0  0  0  0  0  0  0  0  0  0
   11.0921   12.5558    6.4741 C   0  0  0  0  0  0  0  0  0  0  0  0
   11.4018   11.2446    6.1459 C   0  0  0  0  0  0  0  0  0  0  0  0
   11.7982   10.3408    7.1689 C   0  0  0  0  0  0  0  0  0  0  0  0
   12.1121    9.1522    7.1037 O   0  0  0  0  0  0  0  0  0  0  0  0
   11.2457   11.0882    4.7896 N   0  0  0  0  0  0  0  0  0  0  0  0
   10.8467   12.2889    4.3084 C   0  0  0  0  0  0  0  0  0  0  0  0
   10.7437   13.2150    5.3200 N   0  0  0  0  0  0  0  0  0  0  0  0
  1  2  1  0  0  0  0
  1  6  1  0  0  0  0
  2  3  2  0  0  0  0
  3  4  1  0  0  0  0
  4  5  2  0  0  0  0
  4 10  1  0  0  0  0
  5  6  1  0  0  0  0
  5  8  1  0  0  0  0
  6  7  2  0  0  0  0
  8  9  1  0  0  0  0
  9 10  2  0  0  0  0
M  END
>  <CHROM.1>
11.38048260,11.58053595,6.62328356,0.43768965,-1.27056850,1.07556220

>  <Name>
ligand

>  <RI>
0

>  <Rbt.Current_Directory>
/home/itssahil/PROJECTS/Mol_Feturizer/New_Systems/rnas/2EEU

>  <Rbt.Executable>
rbdock ($Id: //depot/dev/client3/rdock/2013.1/src/exe/rbdock.cxx#4 $)

>  <Rbt.Library>
libRbt.so (2013.1, Build901 2013/11/27)

>  <Rbt.Parameter_File>
/export/apps/rDock/src/rDock_2013.1_src/data/scripts/dock_solv.prm

>  <Rbt.Receptor>
prm/blind_docking_80.prm

>  <SCORE>
-18.5945

>  <SCORE.INTER>
-18.5945

>  <SCORE.INTER.CONST>
1

>  <SCORE.INTER.POLAR>
0

>  <SCORE.INTER.ROT>
0

>  <SCORE.INTER.SOLV>
3.5611

>  <SCORE.INTER.VDW>
-17.1834

>  <SCORE.INTER.norm>
-1.85945

>  <SCORE.INTRA>
0

>  <SCORE.INTRA.DIHEDRAL>
0

>  <SCORE.INTRA.DIHEDRAL.0>
0

>  <SCORE.INTRA.POLAR>
0

>  <SCORE.INTRA.POLAR.0>
0

>  <SCORE.INTRA.REPUL>
0

>  <SCORE.INTRA.REPUL.0>
0

>  <SCORE.INTRA.SOLV>
0

>  <SCORE.INTRA.SOLV.lig_0>
-4.28148

>  <SCORE.INTRA.VDW>
0

>  <SCORE.INTRA.VDW.0>
0

>  <SCORE.INTRA.norm>
0

>  <SCORE.RESTR>
0

>  <SCORE.RESTR.CAVITY>
0

>  <SCORE.RESTR.norm>
0

>  <SCORE.SYSTEM>
0

>  <SCORE.SYSTEM.CONST>
0

>  <SCORE.SYSTEM.DIHEDRAL>
0

>  <SCORE.SYSTEM.SOLV>
0

>  <SCORE.SYSTEM.norm>
0

>  <SCORE.heavy>
10

>  <SCORE.norm>
-1.85945

>  <RMSD>
0.871

$$$$
ligand
 OpenBabel11021811423D
libRbt.so/2013.1/901 2013/11/27
 10 11  0  0  0  0  0  0  0  0999 V2000
   11.7870   10.9747    8.4252 N   0  0  0  0  0  0  0  0  0  0  0  0
   11.4470   12.2875    8.6832 C   0  0  0  0  0  0  0  0  0  0  0  0
   11.0775   13.1307    7.7113 N   0  0  0  0  0  0  0  0  0  0  0  0
   11.0791   12.5594    6.4740 C   0  0  0  0  0  0  0  0  0  0  0  0
   11.4101   11.2529    6.1480 C   0  0  0  0  0  0  0  0  0  0  0  0
   11.8010   10.3516    7.1752 C   0  0  0  0  0  0  0  0  0  0  0  0
   12.1304    9.1671    7.1125 O   0  0  0  0  0  0  0  0  0  0  0  0
   11.2778   11.0979    4.7890 N   0  0  0  0  0  0  0  0  0  0  0  0
   10.8720   12.2948    4.3040 C   0  0  0  0  0  0  0  0  0  0  0  0
   10.7413   13.2171    5.3159 N   0  0  0  0  0  0  0  0  0  0  0  0
  1  2  1  0  0  0  0
  1  6  1  0  0  0  0
  2  3  2  0  0  0  0
  3  4  1  0  0  0  0
  4  5  2  0  0  0  0
  4 10  1  0  0  0  0
  5  6  1  0  0  0  0
  5  8  1  0  0  0  0
  6  7  2  0  0  0  0
  8  9  1  0  0  0  0
  9 10  2  0  0  0  0
M  END
>  <CHROM.1>
11.37697917,11.58740390,6.62565600,0.50460497,-1.26679998,1.14175842

>  <Name>
ligand

>  <RI>
0

>  <Rbt.Current_Directory>
/home/itssahil/PROJECTS/Mol_Feturizer/New_Systems/rnas/2EEU

>  <Rbt.Executable>
rbdock ($Id: //depot/dev/client3/rdock/2013.1/src/exe/rbdock.cxx#4 $)

>  <Rbt.Library>
libRbt.so (2013.1, Build901 2013/11/27)

>  <Rbt.Parameter_File>
/export/apps/rDock/src/rDock_2013.1_src/data/scripts/dock_solv.prm

>  <Rbt.Receptor>
prm/pocket_docking_3.prm

>  <SCORE>
-18.5813

>  <SCORE.INTER>
-18.5813

>  <SCORE.INTER.CONST>
1

>  <SCORE.INTER.POLAR>
0

>  <SCORE.INTER.ROT>
0

>  <SCORE.INTER.SOLV>
3.55209

>  <SCORE.INTER.VDW>
-17.1716

>  <SCORE.INTER.norm>
-1.85813

>  <SCORE.INTRA>
0

>  <SCORE.INTRA.DIHEDRAL>
0

>  <SCORE.INTRA.DIHEDRAL.0>
0

>  <SCORE.INTRA.POLAR>
0

>  <SCORE.INTRA.POLAR.0>
0

>  <SCORE.INTRA.REPUL>
0

>  <SCORE.INTRA.REPUL.0>
0

>  <SCORE.INTRA.SOLV>
0

>  <SCORE.INTRA.SOLV.lig_0>
-4.28148

>  <SCORE.INTRA.VDW>
0

>  <SCORE.INTRA.VDW.0>
0

>  <SCORE.INTRA.norm>
0

>  <SCORE.RESTR>
0

>  <SCORE.RESTR.CAVITY>
0

>  <SCORE.RESTR.norm>
0

>  <SCORE.SYSTEM>
0

>  <SCORE.SYSTEM.CONST>
0

>  <SCORE.SYSTEM.DIHEDRAL>
0

>  <SCORE.SYSTEM.SOLV>
0

>  <SCORE.SYSTEM.norm>
0

>  <SCORE.heavy>
10

>  <SCORE.norm>
-1.85813

>  <RMSD>
0.871

$$$$
ligand
 OpenBabel11021811423D
libRbt.so/2013.1/901 2013/11/27
 10 11  0  0  0  0  0  0  0  0999 V2000
   11.8177   10.9669    8.4169 N   0  0  0  0  0  0  0  0  0  0  0  0
   11.4930   12.2834    8.6759 C   0  0  0  0  0  0  0  0  0  0  0  0
   11.1184   13.1276    7.7068 N   0  0  0  0  0  0  0  0  0  0  0  0
   11.0985   12.5533    6.4710 C   0  0  0  0  0  0  0  0  0  0  0  0
   11.4133   11.2430    6.1441 C   0  0  0  0  0  0  0  0  0  0  0  0
   11.8096   10.3407    7.1684 C   0  0  0  0  0  0  0  0  0  0  0  0
   12.1274    9.1531    7.1044 O   0  0  0  0  0  0  0  0  0  0  0  0
   11.2617   11.0859    4.7874 N   0  0  0  0  0  0  0  0  0  0  0  0
   10.8604   12.2852    4.3047 C   0  0  0  0  0  0  0  0  0  0  0  0
   10.7514   13.2112    5.3158 N   0  0  0  0  0  0  0  0  0  0  0  0
  1  2  1  0  0  0  0
  1  6  1  0  0  0  0
  2  3  2  0  0  0  0
  3  4  1  0  0  0  0
  4  5  2  0  0  0  0
  4 10  1  0  0  0  0
  5  6  1  0  0  0  0
  5  8  1  0  0  0  0
  6  7  2  0  0  0  0
  8  9  1  0  0  0  0
  9 10  2  0  0  0  0
M  END
>  <CHROM.1>
11.38954291,11.57895591,6.62128757,0.45151031,-1.26915016,1.08856516

>  <Name>
ligand

>  <RI>
0

>  <Rbt.Current_Directory>
/home/itssahil/PROJECTS/Mol_Feturizer/New_Systems/rnas/2EEU

>  <Rbt.Executable>
rbdock ($Id: //depot/dev/client3/rdock/2013.1/src/exe/rbdock.cxx#4 $)

>  <Rbt.Library>
libRbt.so (2013.1, Build901 2013/11/27)

>  <Rbt.Parameter_File>
/export/apps/rDock/src/rDock_2013.1_src/data/scripts/dock_solv.prm

>  <Rbt.Receptor>
prm/pocket_docking_3.prm

>  <SCORE>
-18.5928

>  <SCORE.INTER>
-18.5928

>  <SCORE.INTER.CONST>
1

>  <SCORE.INTER.POLAR>
0

>  <SCORE.INTER.ROT>
0

>  <SCORE.INTER.SOLV>
3.54754

>  <SCORE.INTER.VDW>
-17.1777

>  <SCORE.INTER.norm>
-1.85928

>  <SCORE.INTRA>
0

>  <SCORE.INTRA.DIHEDRAL>
0

>  <SCORE.INTRA.DIHEDRAL.0>
0

>  <SCORE.INTRA.POLAR>
0

>  <SCORE.INTRA.POLAR.0>
0

>  <SCORE.INTRA.REPUL>
0

>  <SCORE.INTRA.REPUL.0>
0

>  <SCORE.INTRA.SOLV>
0

>  <SCORE.INTRA.SOLV.lig_0>
-4.28148

>  <SCORE.INTRA.VDW>
0

>  <SCORE.INTRA.VDW.0>
0

>  <SCORE.INTRA.norm>
0

>  <SCORE.RESTR>
0

>  <SCORE.RESTR.CAVITY>
0

>  <SCORE.RESTR.norm>
0

>  <SCORE.SYSTEM>
0

>  <SCORE.SYSTEM.CONST>
0

>  <SCORE.SYSTEM.DIHEDRAL>
0

>  <SCORE.SYSTEM.SOLV>
0

>  <SCORE.SYSTEM.norm>
0

>  <SCORE.heavy>
10

>  <SCORE.norm>
-1.85928

>  <RMSD>
0.871

$$$$
ligand
 OpenBabel11021811423D
libRbt.so/2013.1/901 2013/11/27
 10 11  0  0  0  0  0  0  0  0999 V2000
   11.8233   10.9662    8.4159 N   0  0  0  0  0  0  0  0  0  0  0  0
   11.5068   12.2850    8.6736 C   0  0  0  0  0  0  0  0  0  0  0  0
   11.1321   13.1291    7.7044 N   0  0  0  0  0  0  0  0  0  0  0  0
   11.1032   12.5522    6.4701 C   0  0  0  0  0  0  0  0  0  0  0  0
   11.4094   11.2395    6.1444 C   0  0  0  0  0  0  0  0  0  0  0  0
   11.8058   10.3373    7.1689 C   0  0  0  0  0  0  0  0  0  0  0  0
   12.1169    9.1479    7.1059 O   0  0  0  0  0  0  0  0  0  0  0  0
   11.2504   11.0803    4.7888 N   0  0  0  0  0  0  0  0  0  0  0  0
   10.8532   12.2807    4.3054 C   0  0  0  0  0  0  0  0  0  0  0  0
   10.7541   13.2094    5.3151 N   0  0  0  0  0  0  0  0  0  0  0  0
  1  2  1  0  0  0  0
  1  6  1  0  0  0  0
  2  3  2  0  0  0  0
  3  4  1  0  0  0  0
  4  5  2  0  0  0  0
  4 10  1  0  0  0  0
  5  6  1  0  0  0  0
  5  8  1  0  0  0  0
  6  7  2  0  0  0  0
  8  9  1  0  0  0  0
  9 10  2  0  0  0  0
M  END
>  <CHROM.1>
11.38970562,11.57663545,6.62103774,0.42861557,-1.27158190,1.06451053

>  <Name>
ligand

>  <RI>
0

>  <Rbt.Current_Directory>
/home/itssahil/PROJECTS/Mol_Feturizer/New_Systems/rnas/2EEU

>  <Rbt.Executable>
rbdock ($Id: //depot/dev/client3/rdock/2013.1/src/exe/rbdock.cxx#4 $)

>  <Rbt.Library>
libRbt.so (2013.1, Build901 2013/11/27)

>  <Rbt.Parameter_File>
/export/apps/rDock/src/rDock_2013.1_src/data/scripts/dock_solv.prm

>  <Rbt.Receptor>
prm/pocket_docking_3.prm

>  <SCORE>
-18.595

>  <SCORE.INTER>
-18.595

>  <SCORE.INTER.CONST>
1

>  <SCORE.INTER.POLAR>
0

>  <SCORE.INTER.ROT>
0

>  <SCORE.INTER.SOLV>
3.55464

>  <SCORE.INTER.VDW>
-17.1816

>  <SCORE.INTER.norm>
-1.8595

>  <SCORE.INTRA>
0

>  <SCORE.INTRA.DIHEDRAL>
0

>  <SCORE.INTRA.DIHEDRAL.0>
0

>  <SCORE.INTRA.POLAR>
0

>  <SCORE.INTRA.POLAR.0>
0

>  <SCORE.INTRA.REPUL>
0

>  <SCORE.INTRA.REPUL.0>
0

>  <SCORE.INTRA.SOLV>
0

>  <SCORE.INTRA.SOLV.lig_0>
-4.28148

>  <SCORE.INTRA.VDW>
0

>  <SCORE.INTRA.VDW.0>
0

>  <SCORE.INTRA.norm>
0

>  <SCORE.RESTR>
0

>  <SCORE.RESTR.CAVITY>
0

>  <SCORE.RESTR.norm>
0

>  <SCORE.SYSTEM>
0

>  <SCORE.SYSTEM.CONST>
0

>  <SCORE.SYSTEM.DIHEDRAL>
0

>  <SCORE.SYSTEM.SOLV>
0

>  <SCORE.SYSTEM.norm>
0

>  <SCORE.heavy>
10

>  <SCORE.norm>
-1.8595

>  <RMSD>
0.871

$$$$
ligand
 OpenBabel11021811423D
libRbt.so/2013.1/901 2013/11/27
 10 11  0  0  0  0  0  0  0  0999 V2000
   11.7873   10.9893    8.4267 N   0  0  0  0  0  0  0  0  0  0  0  0
   11.4539   12.3054    8.6764 C   0  0  0  0  0  0  0  0  0  0  0  0
   11.0834   13.1429    7.6999 N   0  0  0  0  0  0  0  0  0  0  0  0
   11.0770   12.5623    6.4669 C   0  0  0  0  0  0  0  0  0  0  0  0
   11.4011   11.2521    6.1492 C   0  0  0  0  0  0  0  0  0  0  0  0
   11.7930   10.3568    7.1814 C   0  0  0  0  0  0  0  0  0  0  0  0
   12.1172    9.1705    7.1260 O   0  0  0  0  0  0  0  0  0  0  0  0
   11.2619   11.0875    4.7920 N   0  0  0  0  0  0  0  0  0  0  0  0
   10.8588   12.2824    4.3000 C   0  0  0  0  0  0  0  0  0  0  0  0
   10.7366   13.2128    5.3055 N   0  0  0  0  0  0  0  0  0  0  0  0
  1  2  1  0  0  0  0
  1  6  1  0  0  0  0
  2  3  2  0  0  0  0
  3  4  1  0  0  0  0
  4  5  2  0  0  0  0
  4 10  1  0  0  0  0
  5  6  1  0  0  0  0
  5  8  1  0  0  0  0
  6  7  2  0  0  0  0
  8  9  1  0  0  0  0
  9 10  2  0  0  0  0
M  END
>  <CHROM.1>
11.37151595,11.59024529,6.62451863,0.48477558,-1.26857860,1.11534951

>  <Name>
ligand

>  <RI>
0

>  <Rbt.Current_Directory>
/home/itssahil/PROJECTS/Mol_Feturizer/New_Systems/rnas/2EEU

>  <Rbt.Executable>
rbdock ($Id: //depot/dev/client3/rdock/2013.1/src/exe/rbdock.cxx#4 $)

>  <Rbt.Library>
libRbt.so (2013.1, Build901 2013/11/27)

>  <Rbt.Parameter_File>
/export/apps/rDock/src/rDock_2013.1_src/data/scripts/dock_solv.prm

>  <Rbt.Receptor>
prm/pocket_docking_5.prm

>  <SCORE>
-18.6176

>  <SCORE.INTER>
-18.6176

>  <SCORE.INTER.CONST>
1

>  <SCORE.INTER.POLAR>
0

>  <SCORE.INTER.ROT>
0

>  <SCORE.INTER.SOLV>
3.55749

>  <SCORE.INTER.VDW>
-17.1976

>  <SCORE.INTER.norm>
-1.86176

>  <SCORE.INTRA>
0

>  <SCORE.INTRA.DIHEDRAL>
0

>  <SCORE.INTRA.DIHEDRAL.0>
0

>  <SCORE.INTRA.POLAR>
0

>  <SCORE.INTRA.POLAR.0>
0

>  <SCORE.INTRA.REPUL>
0

>  <SCORE.INTRA.REPUL.0>
0

>  <SCORE.INTRA.SOLV>
0

>  <SCORE.INTRA.SOLV.lig_0>
-4.28148

>  <SCORE.INTRA.VDW>
0

>  <SCORE.INTRA.VDW.0>
0

>  <SCORE.INTRA.norm>
0

>  <SCORE.RESTR>
0

>  <SCORE.RESTR.CAVITY>
0

>  <SCORE.RESTR.norm>
0

>  <SCORE.SYSTEM>
0

>  <SCORE.SYSTEM.CONST>
0

>  <SCORE.SYSTEM.DIHEDRAL>
0

>  <SCORE.SYSTEM.SOLV>
0

>  <SCORE.SYSTEM.norm>
0

>  <SCORE.heavy>
10

>  <SCORE.norm>
-1.86176

>  <RMSD>
0.871

$$$$
ligand
 OpenBabel11021811423D
libRbt.so/2013.1/901 2013/11/27
 10 11  0  0  0  0  0  0  0  0999 V2000
   11.7820   10.9858    8.4273 N   0  0  0  0  0  0  0  0  0  0  0  0
   11.4462   12.3010    8.6784 C   0  0  0  0  0  0  0  0  0  0  0  0
   11.0778   13.1399    7.7023 N   0  0  0  0  0  0  0  0  0  0  0  0
   11.0761   12.5617    6.4682 C   0  0  0  0  0  0  0  0  0  0  0  0
   11.4028   11.2524    6.1490 C   0  0  0  0  0  0  0  0  0  0  0  0
   11.7924   10.3557    7.1808 C   0  0  0  0  0  0  0  0  0  0  0  0
   12.1182    9.1699    7.1242 O   0  0  0  0  0  0  0  0  0  0  0  0
   11.2681   11.0902    4.7911 N   0  0  0  0  0  0  0  0  0  0  0  0
   10.8652   12.2856    4.3000 C   0  0  0  0  0  0  0  0  0  0  0  0
   10.7386   13.2139    5.3069 N   0  0  0  0  0  0  0  0  0  0  0  0
  1  2  1  0  0  0  0
  1  6  1  0  0  0  0
  2  3  2  0  0  0  0
  3  4  1  0  0  0  0
  4  5  2  0  0  0  0
  4 10  1  0  0  0  0
  5  6  1  0  0  0  0
  5  8  1  0  0  0  0
  6  7  2  0  0  0  0
  8  9  1  0  0  0  0
  9 10  2  0  0  0  0
M  END
>  <CHROM.1>
11.37126393,11.58966981,6.62488446,0.49624121,-1.26890690,1.12818339

>  <Name>
ligand

>  <RI>
0

>  <Rbt.Current_Directory>
/home/itssahil/PROJECTS/Mol_Feturizer/New_Systems/rnas/2EEU

>  <Rbt.Executable>
rbdock ($Id: //depot/dev/client3/rdock/2013.1/src/exe/rbdock.cxx#4 $)

>  <Rbt.Library>
libRbt.so (2013.1, Build901 2013/11/27)

>  <Rbt.Parameter_File>
/export/apps/rDock/src/rDock_2013.1_src/data/scripts/dock_solv.prm

>  <Rbt.Receptor>
prm/pocket_docking_6.prm

>  <SCORE>
-18.6158

>  <SCORE.INTER>
-18.6158

>  <SCORE.INTER.CONST>
1

>  <SCORE.INTER.POLAR>
0

>  <SCORE.INTER.ROT>
0

>  <SCORE.INTER.SOLV>
3.5604

>  <SCORE.INTER.VDW>
-17.1973

>  <SCORE.INTER.norm>
-1.86158

>  <SCORE.INTRA>
0

>  <SCORE.INTRA.DIHEDRAL>
0

>  <SCORE.INTRA.DIHEDRAL.0>
0

>  <SCORE.INTRA.POLAR>
0

>  <SCORE.INTRA.POLAR.0>
0

>  <SCORE.INTRA.REPUL>
0

>  <SCORE.INTRA.REPUL.0>
0

>  <SCORE.INTRA.SOLV>
0

>  <SCORE.INTRA.SOLV.lig_0>
-4.28148

>  <SCORE.INTRA.VDW>
0

>  <SCORE.INTRA.VDW.0>
0

>  <SCORE.INTRA.norm>
0

>  <SCORE.RESTR>
0

>  <SCORE.RESTR.CAVITY>
0

>  <SCORE.RESTR.norm>
0

>  <SCORE.SYSTEM>
0

>  <SCORE.SYSTEM.CONST>
0

>  <SCORE.SYSTEM.DIHEDRAL>
0

>  <SCORE.SYSTEM.SOLV>
0

>  <SCORE.SYSTEM.norm>
0

>  <SCORE.heavy>
10

>  <SCORE.norm>
-1.86158

>  <RMSD>
0.871

$$$$
ligand
 OpenBabel11021811423D
libRbt.so/2013.1/901 2013/11/27
 10 11  0  0  0  0  0  0  0  0999 V2000
   11.8012   10.9660    8.4187 N   0  0  0  0  0  0  0  0  0  0  0  0
   11.4726   12.2805    8.6825 C   0  0  0  0  0  0  0  0  0  0  0  0
   11.0982   13.1279    7.7161 N   0  0  0  0  0  0  0  0  0  0  0  0
   11.0827   12.5588    6.4778 C   0  0  0  0  0  0  0  0  0  0  0  0
   11.4017   11.2507    6.1461 C   0  0  0  0  0  0  0  0  0  0  0  0
   11.7977   10.3450    7.1676 C   0  0  0  0  0  0  0  0  0  0  0  0
   12.1186    9.1585    7.0994 O   0  0  0  0  0  0  0  0  0  0  0  0
   11.2537   11.0989    4.7884 N   0  0  0  0  0  0  0  0  0  0  0  0
   10.8505   12.2992    4.3098 C   0  0  0  0  0  0  0  0  0  0  0  0
   10.7368   13.2206    5.3246 N   0  0  0  0  0  0  0  0  0  0  0  0
  1  2  1  0  0  0  0
  1  6  1  0  0  0  0
  2  3  2  0  0  0  0
  3  4  1  0  0  0  0
  4  5  2  0  0  0  0
  4 10  1  0  0  0  0
  5  6  1  0  0  0  0
  5  8  1  0  0  0  0
  6  7  2  0  0  0  0
  8  9  1  0  0  0  0
  9 10  2  0  0  0  0
M  END
>  <CHROM.1>
11.37585172,11.58452827,6.62469352,0.46261892,-1.26803071,1.10338729

>  <Name>
ligand

>  <RI>
0

>  <Rbt.Current_Directory>
/home/itssahil/PROJECTS/Mol_Feturizer/New_Systems/rnas/2EEU

>  <Rbt.Executable>
rbdock ($Id: //depot/dev/client3/rdock/2013.1/src/exe/rbdock.cxx#4 $)

>  <Rbt.Library>
libRbt.so (2013.1, Build901 2013/11/27)

>  <Rbt.Parameter_File>
/export/apps/rDock/src/rDock_2013.1_src/data/scripts/dock_solv.prm

>  <Rbt.Receptor>
prm/pocket_docking_8.prm

>  <SCORE>
-18.5923

>  <SCORE.INTER>
-18.5923

>  <SCORE.INTER.CONST>
1

>  <SCORE.INTER.POLAR>
0

>  <SCORE.INTER.ROT>
0

>  <SCORE.INTER.SOLV>
3.55921

>  <SCORE.INTER.VDW>
-17.1813

>  <SCORE.INTER.norm>
-1.85923

>  <SCORE.INTRA>
0

>  <SCORE.INTRA.DIHEDRAL>
0

>  <SCORE.INTRA.DIHEDRAL.0>
0

>  <SCORE.INTRA.POLAR>
0

>  <SCORE.INTRA.POLAR.0>
0

>  <SCORE.INTRA.REPUL>
0

>  <SCORE.INTRA.REPUL.0>
0

>  <SCORE.INTRA.SOLV>
0

>  <SCORE.INTRA.SOLV.lig_0>
-4.28148

>  <SCORE.INTRA.VDW>
0

>  <SCORE.INTRA.VDW.0>
0

>  <SCORE.INTRA.norm>
0

>  <SCORE.RESTR>
0

>  <SCORE.RESTR.CAVITY>
0

>  <SCORE.RESTR.norm>
0

>  <SCORE.SYSTEM>
0

>  <SCORE.SYSTEM.CONST>
0

>  <SCORE.SYSTEM.DIHEDRAL>
0

>  <SCORE.SYSTEM.SOLV>
0

>  <SCORE.SYSTEM.norm>
0

>  <SCORE.heavy>
10

>  <SCORE.norm>
-1.85923

>  <RMSD>
0.871

$$$$
ligand
 OpenBabel11021811423D
libRbt.so/2013.1/901 2013/11/27
 10 11  0  0  0  0  0  0  0  0999 V2000
   11.8099   10.9656    8.4169 N   0  0  0  0  0  0  0  0  0  0  0  0
   11.4829   12.2806    8.6802 C   0  0  0  0  0  0  0  0  0  0  0  0
   11.1066   13.1272    7.7139 N   0  0  0  0  0  0  0  0  0  0  0  0
   11.0875   12.5568    6.4763 C   0  0  0  0  0  0  0  0  0  0  0  0
   11.4046   11.2481    6.1451 C   0  0  0  0  0  0  0  0  0  0  0  0
   11.8027   10.3433    7.1665 C   0  0  0  0  0  0  0  0  0  0  0  0
   12.1226    9.1565    7.0986 O   0  0  0  0  0  0  0  0  0  0  0  0
   11.2530   11.0950    4.7879 N   0  0  0  0  0  0  0  0  0  0  0  0
   10.8494   12.2952    4.3091 C   0  0  0  0  0  0  0  0  0  0  0  0
   10.7390   13.2177    5.3232 N   0  0  0  0  0  0  0  0  0  0  0  0
  1  2  1  0  0  0  0
  1  6  1  0  0  0  0
  2  3  2  0  0  0  0
  3  4  1  0  0  0  0
  4  5  2  0  0  0  0
  4 10  1  0  0  0  0
  5  6  1  0  0  0  0
  5  8  1  0  0  0  0
  6  7  2  0  0  0  0
  8  9  1  0  0  0  0
  9 10  2  0  0  0  0
M  END
>  <CHROM.1>
11.38028240,11.58252695,6.62337019,0.45372552,-1.26746975,1.09385644

>  <Name>
ligand

>  <RI>
0

>  <Rbt.Current_Directory>
/home/itssahil/PROJECTS/Mol_Feturizer/New_Systems/rnas/2EEU

>  <Rbt.Executable>
rbdock ($Id: //depot/dev/client3/rdock/2013.1/src/exe/rbdock.cxx#4 $)

>  <Rbt.Library>
libRbt.so (2013.1, Build901 2013/11/27)

>  <Rbt.Parameter_File>
/export/apps/rDock/src/rDock_2013.1_src/data/scripts/dock_solv.prm

>  <Rbt.Receptor>
prm/pocket_docking_8.prm

>  <SCORE>
-18.5933

>  <SCORE.INTER>
-18.5933

>  <SCORE.INTER.CONST>
1

>  <SCORE.INTER.POLAR>
0

>  <SCORE.INTER.ROT>
0

>  <SCORE.INTER.SOLV>
3.55274

>  <SCORE.INTER.VDW>
-17.1797

>  <SCORE.INTER.norm>
-1.85933

>  <SCORE.INTRA>
0

>  <SCORE.INTRA.DIHEDRAL>
0

>  <SCORE.INTRA.DIHEDRAL.0>
0

>  <SCORE.INTRA.POLAR>
0

>  <SCORE.INTRA.POLAR.0>
0

>  <SCORE.INTRA.REPUL>
0

>  <SCORE.INTRA.REPUL.0>
0

>  <SCORE.INTRA.SOLV>
0

>  <SCORE.INTRA.SOLV.lig_0>
-4.28148

>  <SCORE.INTRA.VDW>
0

>  <SCORE.INTRA.VDW.0>
0

>  <SCORE.INTRA.norm>
0

>  <SCORE.RESTR>
0

>  <SCORE.RESTR.CAVITY>
0

>  <SCORE.RESTR.norm>
0

>  <SCORE.SYSTEM>
0

>  <SCORE.SYSTEM.CONST>
0

>  <SCORE.SYSTEM.DIHEDRAL>
0

>  <SCORE.SYSTEM.SOLV>
0

>  <SCORE.SYSTEM.norm>
0

>  <SCORE.heavy>
10

>  <SCORE.norm>
-1.85933

>  <RMSD>
0.871

$$$$
ligand
 OpenBabel11021811423D
libRbt.so/2013.1/901 2013/11/27
 10 11  0  0  0  0  0  0  0  0999 V2000
   11.7671   10.9820    8.4327 N   0  0  0  0  0  0  0  0  0  0  0  0
   11.4304   12.2972    8.6827 C   0  0  0  0  0  0  0  0  0  0  0  0
   11.0701   13.1375    7.7049 N   0  0  0  0  0  0  0  0  0  0  0  0
   11.0772   12.5608    6.4701 C   0  0  0  0  0  0  0  0  0  0  0  0
   11.4053   11.2516    6.1519 C   0  0  0  0  0  0  0  0  0  0  0  0
   11.7865   10.3534    7.1855 C   0  0  0  0  0  0  0  0  0  0  0  0
   12.1118    9.1674    7.1301 O   0  0  0  0  0  0  0  0  0  0  0  0
   11.2808   11.0910    4.7929 N   0  0  0  0  0  0  0  0  0  0  0  0
   10.8824   12.2873    4.3001 C   0  0  0  0  0  0  0  0  0  0  0  0
   10.7490   13.2146    5.3071 N   0  0  0  0  0  0  0  0  0  0  0  0
  1  2  1  0  0  0  0
  1  6  1  0  0  0  0
  2  3  2  0  0  0  0
  3  4  1  0  0  0  0
  4  5  2  0  0  0  0
  4 10  1  0  0  0  0
  5  6  1  0  0  0  0
  5  8  1  0  0  0  0
  6  7  2  0  0  0  0
  8  9  1  0  0  0  0
  9 10  2  0  0  0  0
M  END
>  <CHROM.1>
11.37045154,11.58829913,6.62791552,0.51833996,-1.27276399,1.15045381

>  <Name>
ligand

>  <RI>
0

>  <Rbt.Current_Directory>
/home/itssahil/PROJECTS/Mol_Feturizer/New_Systems/rnas/2EEU

>  <Rbt.Executable>
rbdock ($Id: //depot/dev/client3/rdock/2013.1/src/exe/rbdock.cxx#4 $)

>  <Rbt.Library>
libRbt.so (2013.1, Build901 2013/11/27)

>  <Rbt.Parameter_File>
/export/apps/rDock/src/rDock_2013.1_src/data/scripts/dock_solv.prm

>  <Rbt.Receptor>
prm/pocket_docking_8.prm

>  <SCORE>
-18.6084

>  <SCORE.INTER>
-18.6084

>  <SCORE.INTER.CONST>
1

>  <SCORE.INTER.POLAR>
0

>  <SCORE.INTER.ROT>
0

>  <SCORE.INTER.SOLV>
3.57461

>  <SCORE.INTER.VDW>
-17.1971

>  <SCORE.INTER.norm>
-1.86084

>  <SCORE.INTRA>
0

>  <SCORE.INTRA.DIHEDRAL>
0

>  <SCORE.INTRA.DIHEDRAL.0>
0

>  <SCORE.INTRA.POLAR>
0

>  <SCORE.INTRA.POLAR.0>
0

>  <SCORE.INTRA.REPUL>
0

>  <SCORE.INTRA.REPUL.0>
0

>  <SCORE.INTRA.SOLV>
0

>  <SCORE.INTRA.SOLV.lig_0>
-4.28148

>  <SCORE.INTRA.VDW>
0

>  <SCORE.INTRA.VDW.0>
0

>  <SCORE.INTRA.norm>
0

>  <SCORE.RESTR>
0

>  <SCORE.RESTR.CAVITY>
0

>  <SCORE.RESTR.norm>
0

>  <SCORE.SYSTEM>
0

>  <SCORE.SYSTEM.CONST>
0

>  <SCORE.SYSTEM.DIHEDRAL>
0

>  <SCORE.SYSTEM.SOLV>
0

>  <SCORE.SYSTEM.norm>
0

>  <SCORE.heavy>
10

>  <SCORE.norm>
-1.86084

>  <RMSD>
0.871

$$$$
ligand
 OpenBabel11021811423D
libRbt.so/2013.1/901 2013/11/27
 10 11  0  0  0  0  0  0  0  0999 V2000
   11.8112   11.0040    8.4170 N   0  0  0  0  0  0  0  0  0  0  0  0
   11.5101   12.3285    8.6634 C   0  0  0  0  0  0  0  0  0  0  0  0
   11.1486   13.1695    7.6865 N   0  0  0  0  0  0  0  0  0  0  0  0
   11.1165   12.5833    6.4566 C   0  0  0  0  0  0  0  0  0  0  0  0
   11.4077   11.2645    6.1422 C   0  0  0  0  0  0  0  0  0  0  0  0
   11.7899   10.3656    7.1748 C   0  0  0  0  0  0  0  0  0  0  0  0
   12.0867    9.1720    7.1221 O   0  0  0  0  0  0  0  0  0  0  0  0
   11.2509   11.0966    4.7873 N   0  0  0  0  0  0  0  0  0  0  0  0
   10.8698   12.2979    4.2933 C   0  0  0  0  0  0  0  0  0  0  0  0
   10.7789   13.2357    5.2954 N   0  0  0  0  0  0  0  0  0  0  0  0
  1  2  1  0  0  0  0
  1  6  1  0  0  0  0
  2  3  2  0  0  0  0
  3  4  1  0  0  0  0
  4  5  2  0  0  0  0
  4 10  1  0  0  0  0
  5  6  1  0  0  0  0
  5  8  1  0  0  0  0
  6  7  2  0  0  0  0
  8  9  1  0  0  0  0
  9 10  2  0  0  0  0
M  END
>  <CHROM.1>
11.39062776,11.60557183,6.61605237,0.41723192,-1.28371339,1.04580158

>  <Name>
ligand

>  <RI>
0

>  <Rbt.Current_Directory>
/home/itssahil/PROJECTS/Mol_Feturizer/New_Systems/rnas/2EEU

>  <Rbt.Executable>
rbdock ($Id: //depot/dev/client3/rdock/2013.1/src/exe/rbdock.cxx#4 $)

>  <Rbt.Library>
libRbt.so (2013.1, Build901 2013/11/27)

>  <Rbt.Parameter_File>
/export/apps/rDock/src/rDock_2013.1_src/data/scripts/dock_solv.prm

>  <Rbt.Receptor>
prm/blind_docking_60.prm

>  <SCORE>
-18.6077

>  <SCORE.INTER>
-18.6077

>  <SCORE.INTER.CONST>
1

>  <SCORE.INTER.POLAR>
0

>  <SCORE.INTER.ROT>
0

>  <SCORE.INTER.SOLV>
3.58945

>  <SCORE.INTER.VDW>
-17.2016

>  <SCORE.INTER.norm>
-1.86077

>  <SCORE.INTRA>
0

>  <SCORE.INTRA.DIHEDRAL>
0

>  <SCORE.INTRA.DIHEDRAL.0>
0

>  <SCORE.INTRA.POLAR>
0

>  <SCORE.INTRA.POLAR.0>
0

>  <SCORE.INTRA.REPUL>
0

>  <SCORE.INTRA.REPUL.0>
0

>  <SCORE.INTRA.SOLV>
0

>  <SCORE.INTRA.SOLV.lig_0>
-4.28148

>  <SCORE.INTRA.VDW>
0

>  <SCORE.INTRA.VDW.0>
0

>  <SCORE.INTRA.norm>
0

>  <SCORE.RESTR>
0

>  <SCORE.RESTR.CAVITY>
0

>  <SCORE.RESTR.norm>
0

>  <SCORE.SYSTEM>
0

>  <SCORE.SYSTEM.CONST>
0

>  <SCORE.SYSTEM.DIHEDRAL>
0

>  <SCORE.SYSTEM.SOLV>
0

>  <SCORE.SYSTEM.norm>
0

>  <SCORE.heavy>
10

>  <SCORE.norm>
-1.86077

>  <RMSD>
0.872

$$$$
ligand
 OpenBabel11021811423D
libRbt.so/2013.1/901 2013/11/27
 10 11  0  0  0  0  0  0  0  0999 V2000
   11.7884   10.9906    8.4248 N   0  0  0  0  0  0  0  0  0  0  0  0
   11.4553   12.3067    8.6747 C   0  0  0  0  0  0  0  0  0  0  0  0
   11.0831   13.1439    7.6985 N   0  0  0  0  0  0  0  0  0  0  0  0
   11.0747   12.5630    6.4657 C   0  0  0  0  0  0  0  0  0  0  0  0
   11.3984   11.2527    6.1479 C   0  0  0  0  0  0  0  0  0  0  0  0
   11.7920   10.3578    7.1797 C   0  0  0  0  0  0  0  0  0  0  0  0
   12.1162    9.1714    7.1241 O   0  0  0  0  0  0  0  0  0  0  0  0
   11.2569   11.0876    4.7910 N   0  0  0  0  0  0  0  0  0  0  0  0
   10.8529   12.2824    4.2992 C   0  0  0  0  0  0  0  0  0  0  0  0
   10.7323   13.2131    5.3047 N   0  0  0  0  0  0  0  0  0  0  0  0
  1  2  1  0  0  0  0
  1  6  1  0  0  0  0
  2  3  2  0  0  0  0
  3  4  1  0  0  0  0
  4  5  2  0  0  0  0
  4 10  1  0  0  0  0
  5  6  1  0  0  0  0
  5  8  1  0  0  0  0
  6  7  2  0  0  0  0
  8  9  1  0  0  0  0
  9 10  2  0  0  0  0
M  END
>  <CHROM.1>
11.36956450,11.59098234,6.62311651,0.47983890,-1.26780203,1.11034187

>  <Name>
ligand

>  <RI>
0

>  <Rbt.Current_Directory>
/home/itssahil/PROJECTS/Mol_Feturizer/New_Systems/rnas/2EEU

>  <Rbt.Executable>
rbdock ($Id: //depot/dev/client3/rdock/2013.1/src/exe/rbdock.cxx#4 $)

>  <Rbt.Library>
libRbt.so (2013.1, Build901 2013/11/27)

>  <Rbt.Parameter_File>
/export/apps/rDock/src/rDock_2013.1_src/data/scripts/dock_solv.prm

>  <Rbt.Receptor>
prm/blind_docking_80.prm

>  <SCORE>
-18.6152

>  <SCORE.INTER>
-18.6152

>  <SCORE.INTER.CONST>
1

>  <SCORE.INTER.POLAR>
0

>  <SCORE.INTER.ROT>
0

>  <SCORE.INTER.SOLV>
3.55758

>  <SCORE.INTER.VDW>
-17.196

>  <SCORE.INTER.norm>
-1.86152

>  <SCORE.INTRA>
0

>  <SCORE.INTRA.DIHEDRAL>
0

>  <SCORE.INTRA.DIHEDRAL.0>
0

>  <SCORE.INTRA.POLAR>
0

>  <SCORE.INTRA.POLAR.0>
0

>  <SCORE.INTRA.REPUL>
0

>  <SCORE.INTRA.REPUL.0>
0

>  <SCORE.INTRA.SOLV>
0

>  <SCORE.INTRA.SOLV.lig_0>
-4.28148

>  <SCORE.INTRA.VDW>
0

>  <SCORE.INTRA.VDW.0>
0

>  <SCORE.INTRA.norm>
0

>  <SCORE.RESTR>
0

>  <SCORE.RESTR.CAVITY>
0

>  <SCORE.RESTR.norm>
0

>  <SCORE.SYSTEM>
0

>  <SCORE.SYSTEM.CONST>
0

>  <SCORE.SYSTEM.DIHEDRAL>
0

>  <SCORE.SYSTEM.SOLV>
0

>  <SCORE.SYSTEM.norm>
0

>  <SCORE.heavy>
10

>  <SCORE.norm>
-1.86152

>  <RMSD>
0.872

$$$$
ligand
 OpenBabel11021811423D
libRbt.so/2013.1/901 2013/11/27
 10 11  0  0  0  0  0  0  0  0999 V2000
   11.7866   10.9882    8.4257 N   0  0  0  0  0  0  0  0  0  0  0  0
   11.4581   12.3055    8.6758 C   0  0  0  0  0  0  0  0  0  0  0  0
   11.0875   13.1437    7.7000 N   0  0  0  0  0  0  0  0  0  0  0  0
   11.0756   12.5627    6.4673 C   0  0  0  0  0  0  0  0  0  0  0  0
   11.3945   11.2512    6.1492 C   0  0  0  0  0  0  0  0  0  0  0  0
   11.7865   10.3552    7.1807 C   0  0  0  0  0  0  0  0  0  0  0  0
   12.1067    9.1678    7.1249 O   0  0  0  0  0  0  0  0  0  0  0  0
   11.2508   11.0865    4.7925 N   0  0  0  0  0  0  0  0  0  0  0  0
   10.8501   12.2824    4.3011 C   0  0  0  0  0  0  0  0  0  0  0  0
   10.7339   13.2137    5.3066 N   0  0  0  0  0  0  0  0  0  0  0  0
  1  2  1  0  0  0  0
  1  6  1  0  0  0  0
  2  3  2  0  0  0  0
  3  4  1  0  0  0  0
  4  5  2  0  0  0  0
  4 10  1  0  0  0  0
  5  6  1  0  0  0  0
  5  8  1  0  0  0  0
  6  7  2  0  0  0  0
  8  9  1  0  0  0  0
  9 10  2  0  0  0  0
M  END
>  <CHROM.1>
11.36742291,11.58969427,6.62445703,0.47103777,-1.27018105,1.10178373

>  <Name>
ligand

>  <RI>
0

>  <Rbt.Current_Directory>
/home/itssahil/PROJECTS/Mol_Feturizer/New_Systems/rnas/2EEU

>  <Rbt.Executable>
rbdock ($Id: //depot/dev/client3/rdock/2013.1/src/exe/rbdock.cxx#4 $)

>  <Rbt.Library>
libRbt.so (2013.1, Build901 2013/11/27)

>  <Rbt.Parameter_File>
/export/apps/rDock/src/rDock_2013.1_src/data/scripts/dock_solv.prm

>  <Rbt.Receptor>
prm/pocket_docking_3.prm

>  <SCORE>
-18.6169

>  <SCORE.INTER>
-18.6169

>  <SCORE.INTER.CONST>
1

>  <SCORE.INTER.POLAR>
0

>  <SCORE.INTER.ROT>
0

>  <SCORE.INTER.SOLV>
3.56686

>  <SCORE.INTER.VDW>
-17.2002

>  <SCORE.INTER.norm>
-1.86169

>  <SCORE.INTRA>
0

>  <SCORE.INTRA.DIHEDRAL>
0

>  <SCORE.INTRA.DIHEDRAL.0>
0

>  <SCORE.INTRA.POLAR>
0

>  <SCORE.INTRA.POLAR.0>
0

>  <SCORE.INTRA.REPUL>
0

>  <SCORE.INTRA.REPUL.0>
0

>  <SCORE.INTRA.SOLV>
0

>  <SCORE.INTRA.SOLV.lig_0>
-4.28148

>  <SCORE.INTRA.VDW>
0

>  <SCORE.INTRA.VDW.0>
0

>  <SCORE.INTRA.norm>
0

>  <SCORE.RESTR>
0

>  <SCORE.RESTR.CAVITY>
0

>  <SCORE.RESTR.norm>
0

>  <SCORE.SYSTEM>
0

>  <SCORE.SYSTEM.CONST>
0

>  <SCORE.SYSTEM.DIHEDRAL>
0

>  <SCORE.SYSTEM.SOLV>
0

>  <SCORE.SYSTEM.norm>
0

>  <SCORE.heavy>
10

>  <SCORE.norm>
-1.86169

>  <RMSD>
0.872

$$$$
ligand
 OpenBabel11021811423D
libRbt.so/2013.1/901 2013/11/27
 10 11  0  0  0  0  0  0  0  0999 V2000
   11.7827   10.9919    8.4294 N   0  0  0  0  0  0  0  0  0  0  0  0
   11.4564   12.3110    8.6726 C   0  0  0  0  0  0  0  0  0  0  0  0
   11.0918   13.1461    7.6919 N   0  0  0  0  0  0  0  0  0  0  0  0
   11.0836   12.5600    6.4615 C   0  0  0  0  0  0  0  0  0  0  0  0
   11.4007   11.2465    6.1502 C   0  0  0  0  0  0  0  0  0  0  0  0
   11.7864   10.3538    7.1869 C   0  0  0  0  0  0  0  0  0  0  0  0
   12.1040    9.1654    7.1374 O   0  0  0  0  0  0  0  0  0  0  0  0
   11.2622   11.0764    4.7936 N   0  0  0  0  0  0  0  0  0  0  0  0
   10.8664   12.2713    4.2956 C   0  0  0  0  0  0  0  0  0  0  0  0
   10.7483   13.2070    5.2967 N   0  0  0  0  0  0  0  0  0  0  0  0
  1  2  1  0  0  0  0
  1  6  1  0  0  0  0
  2  3  2  0  0  0  0
  3  4  1  0  0  0  0
  4  5  2  0  0  0  0
  4 10  1  0  0  0  0
  5  6  1  0  0  0  0
  5  8  1  0  0  0  0
  6  7  2  0  0  0  0
  8  9  1  0  0  0  0
  9 10  2  0  0  0  0
M  END
>  <CHROM.1>
11.37249770,11.58698419,6.62392154,0.48000344,-1.27415516,1.10621874

>  <Name>
ligand

>  <RI>
0

>  <Rbt.Current_Directory>
/home/itssahil/PROJECTS/Mol_Feturizer/New_Systems/rnas/2EEU

>  <Rbt.Executable>
rbdock ($Id: //depot/dev/client3/rdock/2013.1/src/exe/rbdock.cxx#4 $)

>  <Rbt.Library>
libRbt.so (2013.1, Build901 2013/11/27)

>  <Rbt.Parameter_File>
/export/apps/rDock/src/rDock_2013.1_src/data/scripts/dock_solv.prm

>  <Rbt.Receptor>
prm/pocket_docking_4.prm

>  <SCORE>
-18.6129

>  <SCORE.INTER>
-18.6129

>  <SCORE.INTER.CONST>
1

>  <SCORE.INTER.POLAR>
0

>  <SCORE.INTER.ROT>
0

>  <SCORE.INTER.SOLV>
3.57238

>  <SCORE.INTER.VDW>
-17.1994

>  <SCORE.INTER.norm>
-1.86129

>  <SCORE.INTRA>
0

>  <SCORE.INTRA.DIHEDRAL>
0

>  <SCORE.INTRA.DIHEDRAL.0>
0

>  <SCORE.INTRA.POLAR>
0

>  <SCORE.INTRA.POLAR.0>
0

>  <SCORE.INTRA.REPUL>
0

>  <SCORE.INTRA.REPUL.0>
0

>  <SCORE.INTRA.SOLV>
0

>  <SCORE.INTRA.SOLV.lig_0>
-4.28148

>  <SCORE.INTRA.VDW>
0

>  <SCORE.INTRA.VDW.0>
0

>  <SCORE.INTRA.norm>
0

>  <SCORE.RESTR>
0

>  <SCORE.RESTR.CAVITY>
0

>  <SCORE.RESTR.norm>
0

>  <SCORE.SYSTEM>
0

>  <SCORE.SYSTEM.CONST>
0

>  <SCORE.SYSTEM.DIHEDRAL>
0

>  <SCORE.SYSTEM.SOLV>
0

>  <SCORE.SYSTEM.norm>
0

>  <SCORE.heavy>
10

>  <SCORE.norm>
-1.86129

>  <RMSD>
0.872

$$$$
ligand
 OpenBabel11021811423D
libRbt.so/2013.1/901 2013/11/27
 10 11  0  0  0  0  0  0  0  0999 V2000
   11.8054   10.9657    8.4185 N   0  0  0  0  0  0  0  0  0  0  0  0
   11.4748   12.2802    8.6798 C   0  0  0  0  0  0  0  0  0  0  0  0
   11.1030   13.1262    7.7112 N   0  0  0  0  0  0  0  0  0  0  0  0
   11.0922   12.5557    6.4735 C   0  0  0  0  0  0  0  0  0  0  0  0
   11.4133   11.2475    6.1443 C   0  0  0  0  0  0  0  0  0  0  0  0
   11.8066   10.3433    7.1681 C   0  0  0  0  0  0  0  0  0  0  0  0
   12.1288    9.1570    7.1022 O   0  0  0  0  0  0  0  0  0  0  0  0
   11.2701   11.0942    4.7862 N   0  0  0  0  0  0  0  0  0  0  0  0
   10.8676   12.2937    4.3050 C   0  0  0  0  0  0  0  0  0  0  0  0
   10.7496   13.2161    5.3184 N   0  0  0  0  0  0  0  0  0  0  0  0
  1  2  1  0  0  0  0
  1  6  1  0  0  0  0
  2  3  2  0  0  0  0
  3  4  1  0  0  0  0
  4  5  2  0  0  0  0
  4 10  1  0  0  0  0
  5  6  1  0  0  0  0
  5  8  1  0  0  0  0
  6  7  2  0  0  0  0
  8  9  1  0  0  0  0
  9 10  2  0  0  0  0
M  END
>  <CHROM.1>
11.38562140,11.58189420,6.62240316,0.47400571,-1.26880364,1.11318391

>  <Name>
ligand

>  <RI>
0

>  <Rbt.Current_Directory>
/home/itssahil/PROJECTS/Mol_Feturizer/New_Systems/rnas/2EEU

>  <Rbt.Executable>
rbdock ($Id: //depot/dev/client3/rdock/2013.1/src/exe/rbdock.cxx#4 $)

>  <Rbt.Library>
libRbt.so (2013.1, Build901 2013/11/27)

>  <Rbt.Parameter_File>
/export/apps/rDock/src/rDock_2013.1_src/data/scripts/dock_solv.prm

>  <Rbt.Receptor>
prm/pocket_docking_6.prm

>  <SCORE>
-18.5901

>  <SCORE.INTER>
-18.5901

>  <SCORE.INTER.CONST>
1

>  <SCORE.INTER.POLAR>
0

>  <SCORE.INTER.ROT>
0

>  <SCORE.INTER.SOLV>
3.55224

>  <SCORE.INTER.VDW>
-17.1775

>  <SCORE.INTER.norm>
-1.85901

>  <SCORE.INTRA>
0

>  <SCORE.INTRA.DIHEDRAL>
0

>  <SCORE.INTRA.DIHEDRAL.0>
0

>  <SCORE.INTRA.POLAR>
0

>  <SCORE.INTRA.POLAR.0>
0

>  <SCORE.INTRA.REPUL>
0

>  <SCORE.INTRA.REPUL.0>
0

>  <SCORE.INTRA.SOLV>
0

>  <SCORE.INTRA.SOLV.lig_0>
-4.28148

>  <SCORE.INTRA.VDW>
0

>  <SCORE.INTRA.VDW.0>
0

>  <SCORE.INTRA.norm>
0

>  <SCORE.RESTR>
0

>  <SCORE.RESTR.CAVITY>
0

>  <SCORE.RESTR.norm>
0

>  <SCORE.SYSTEM>
0

>  <SCORE.SYSTEM.CONST>
0

>  <SCORE.SYSTEM.DIHEDRAL>
0

>  <SCORE.SYSTEM.SOLV>
0

>  <SCORE.SYSTEM.norm>
0

>  <SCORE.heavy>
10

>  <SCORE.norm>
-1.85901

>  <RMSD>
0.872

$$$$
ligand
 OpenBabel11021811423D
libRbt.so/2013.1/901 2013/11/27
 10 11  0  0  0  0  0  0  0  0999 V2000
   11.7870   10.9862    8.4229 N   0  0  0  0  0  0  0  0  0  0  0  0
   11.4470   12.2999    8.6763 C   0  0  0  0  0  0  0  0  0  0  0  0
   11.0756   13.1392    7.7016 N   0  0  0  0  0  0  0  0  0  0  0  0
   11.0753   12.5630    6.4666 C   0  0  0  0  0  0  0  0  0  0  0  0
   11.4062   11.2553    6.1452 C   0  0  0  0  0  0  0  0  0  0  0  0
   11.7991   10.3582    7.1754 C   0  0  0  0  0  0  0  0  0  0  0  0
   12.1288    9.1735    7.1169 O   0  0  0  0  0  0  0  0  0  0  0  0
   11.2716   11.0948    4.7871 N   0  0  0  0  0  0  0  0  0  0  0  0
   10.8646   12.2896    4.2981 C   0  0  0  0  0  0  0  0  0  0  0  0
   10.7353   13.2159    5.3065 N   0  0  0  0  0  0  0  0  0  0  0  0
  1  2  1  0  0  0  0
  1  6  1  0  0  0  0
  2  3  2  0  0  0  0
  3  4  1  0  0  0  0
  4  5  2  0  0  0  0
  4 10  1  0  0  0  0
  5  6  1  0  0  0  0
  5  8  1  0  0  0  0
  6  7  2  0  0  0  0
  8  9  1  0  0  0  0
  9 10  2  0  0  0  0
M  END
>  <CHROM.1>
11.37374543,11.59166066,6.62165377,0.49991212,-1.26580089,1.13329532

>  <Name>
ligand

>  <RI>
0

>  <Rbt.Current_Directory>
/home/itssahil/PROJECTS/Mol_Feturizer/New_Systems/rnas/2EEU

>  <Rbt.Executable>
rbdock ($Id: //depot/dev/client3/rdock/2013.1/src/exe/rbdock.cxx#4 $)

>  <Rbt.Library>
libRbt.so (2013.1, Build901 2013/11/27)

>  <Rbt.Parameter_File>
/export/apps/rDock/src/rDock_2013.1_src/data/scripts/dock_solv.prm

>  <Rbt.Receptor>
prm/blind_docking_100.prm

>  <SCORE>
-18.6135

>  <SCORE.INTER>
-18.6135

>  <SCORE.INTER.CONST>
1

>  <SCORE.INTER.POLAR>
0

>  <SCORE.INTER.ROT>
0

>  <SCORE.INTER.SOLV>
3.55015

>  <SCORE.INTER.VDW>
-17.1924

>  <SCORE.INTER.norm>
-1.86135

>  <SCORE.INTRA>
0

>  <SCORE.INTRA.DIHEDRAL>
0

>  <SCORE.INTRA.DIHEDRAL.0>
0

>  <SCORE.INTRA.POLAR>
0

>  <SCORE.INTRA.POLAR.0>
0

>  <SCORE.INTRA.REPUL>
0

>  <SCORE.INTRA.REPUL.0>
0

>  <SCORE.INTRA.SOLV>
0

>  <SCORE.INTRA.SOLV.lig_0>
-4.28148

>  <SCORE.INTRA.VDW>
0

>  <SCORE.INTRA.VDW.0>
0

>  <SCORE.INTRA.norm>
0

>  <SCORE.RESTR>
0

>  <SCORE.RESTR.CAVITY>
0

>  <SCORE.RESTR.norm>
0

>  <SCORE.SYSTEM>
0

>  <SCORE.SYSTEM.CONST>
0

>  <SCORE.SYSTEM.DIHEDRAL>
0

>  <SCORE.SYSTEM.SOLV>
0

>  <SCORE.SYSTEM.norm>
0

>  <SCORE.heavy>
10

>  <SCORE.norm>
-1.86135

>  <RMSD>
0.873

$$$$
ligand
 OpenBabel11021811423D
libRbt.so/2013.1/901 2013/11/27
 10 11  0  0  0  0  0  0  0  0999 V2000
   11.7766   10.9842    8.4275 N   0  0  0  0  0  0  0  0  0  0  0  0
   11.4454   12.3007    8.6784 C   0  0  0  0  0  0  0  0  0  0  0  0
   11.0798   13.1407    7.7022 N   0  0  0  0  0  0  0  0  0  0  0  0
   11.0759   12.5622    6.4682 C   0  0  0  0  0  0  0  0  0  0  0  0
   11.3980   11.2517    6.1492 C   0  0  0  0  0  0  0  0  0  0  0  0
   11.7847   10.3539    7.1811 C   0  0  0  0  0  0  0  0  0  0  0  0
   12.1064    9.1669    7.1248 O   0  0  0  0  0  0  0  0  0  0  0  0
   11.2627   11.0897    4.7914 N   0  0  0  0  0  0  0  0  0  0  0  0
   10.8638   12.2864    4.3001 C   0  0  0  0  0  0  0  0  0  0  0  0
   10.7406   13.2154    5.3068 N   0  0  0  0  0  0  0  0  0  0  0  0
  1  2  1  0  0  0  0
  1  6  1  0  0  0  0
  2  3  2  0  0  0  0
  3  4  1  0  0  0  0
  4  5  2  0  0  0  0
  4 10  1  0  0  0  0
  5  6  1  0  0  0  0
  5  8  1  0  0  0  0
  6  7  2  0  0  0  0
  8  9  1  0  0  0  0
  9 10  2  0  0  0  0
M  END
>  <CHROM.1>
11.36776633,11.58917562,6.62503907,0.49080585,-1.27197732,1.12279610

>  <Name>
ligand

>  <RI>
0

>  <Rbt.Current_Directory>
/home/itssahil/PROJECTS/Mol_Feturizer/New_Systems/rnas/2EEU

>  <Rbt.Executable>
rbdock ($Id: //depot/dev/client3/rdock/2013.1/src/exe/rbdock.cxx#4 $)

>  <Rbt.Library>
libRbt.so (2013.1, Build901 2013/11/27)

>  <Rbt.Parameter_File>
/export/apps/rDock/src/rDock_2013.1_src/data/scripts/dock_solv.prm

>  <Rbt.Receptor>
prm/blind_docking_40.prm

>  <SCORE>
-18.616

>  <SCORE.INTER>
-18.616

>  <SCORE.INTER.CONST>
1

>  <SCORE.INTER.POLAR>
0

>  <SCORE.INTER.ROT>
0

>  <SCORE.INTER.SOLV>
3.57421

>  <SCORE.INTER.VDW>
-17.2021

>  <SCORE.INTER.norm>
-1.8616

>  <SCORE.INTRA>
0

>  <SCORE.INTRA.DIHEDRAL>
0

>  <SCORE.INTRA.DIHEDRAL.0>
0

>  <SCORE.INTRA.POLAR>
0

>  <SCORE.INTRA.POLAR.0>
0

>  <SCORE.INTRA.REPUL>
0

>  <SCORE.INTRA.REPUL.0>
0

>  <SCORE.INTRA.SOLV>
0

>  <SCORE.INTRA.SOLV.lig_0>
-4.28148

>  <SCORE.INTRA.VDW>
0

>  <SCORE.INTRA.VDW.0>
0

>  <SCORE.INTRA.norm>
0

>  <SCORE.RESTR>
0

>  <SCORE.RESTR.CAVITY>
0

>  <SCORE.RESTR.norm>
0

>  <SCORE.SYSTEM>
0

>  <SCORE.SYSTEM.CONST>
0

>  <SCORE.SYSTEM.DIHEDRAL>
0

>  <SCORE.SYSTEM.SOLV>
0

>  <SCORE.SYSTEM.norm>
0

>  <SCORE.heavy>
10

>  <SCORE.norm>
-1.8616

>  <RMSD>
0.873

$$$$
ligand
 OpenBabel11021811423D
libRbt.so/2013.1/901 2013/11/27
 10 11  0  0  0  0  0  0  0  0999 V2000
   11.8367   10.9648    8.4105 N   0  0  0  0  0  0  0  0  0  0  0  0
   11.5180   12.2825    8.6704 C   0  0  0  0  0  0  0  0  0  0  0  0
   11.1385   13.1267    7.7031 N   0  0  0  0  0  0  0  0  0  0  0  0
   11.1074   12.5509    6.4682 C   0  0  0  0  0  0  0  0  0  0  0  0
   11.4157   11.2393    6.1405 C   0  0  0  0  0  0  0  0  0  0  0  0
   11.8171   10.3370    7.1629 C   0  0  0  0  0  0  0  0  0  0  0  0
   12.1308    9.1484    7.0980 O   0  0  0  0  0  0  0  0  0  0  0  0
   11.2532   11.0809    4.7852 N   0  0  0  0  0  0  0  0  0  0  0  0
   10.8518   12.2809    4.3041 C   0  0  0  0  0  0  0  0  0  0  0  0
   10.7534   13.2084    5.3149 N   0  0  0  0  0  0  0  0  0  0  0  0
  1  2  1  0  0  0  0
  1  6  1  0  0  0  0
  2  3  2  0  0  0  0
  3  4  1  0  0  0  0
  4  5  2  0  0  0  0
  4 10  1  0  0  0  0
  5  6  1  0  0  0  0
  5  8  1  0  0  0  0
  6  7  2  0  0  0  0
  8  9  1  0  0  0  0
  9 10  2  0  0  0  0
M  END
>  <CHROM.1>
11.39659424,11.57587346,6.61747358,0.42396606,-1.26815558,1.06101734

>  <Name>
ligand

>  <RI>
0

>  <Rbt.Current_Directory>
/home/itssahil/PROJECTS/Mol_Feturizer/New_Systems/rnas/2EEU

>  <Rbt.Executable>
rbdock ($Id: //depot/dev/client3/rdock/2013.1/src/exe/rbdock.cxx#4 $)

>  <Rbt.Library>
libRbt.so (2013.1, Build901 2013/11/27)

>  <Rbt.Parameter_File>
/export/apps/rDock/src/rDock_2013.1_src/data/scripts/dock_solv.prm

>  <Rbt.Receptor>
prm/blind_docking_60.prm

>  <SCORE>
-18.5916

>  <SCORE.INTER>
-18.5916

>  <SCORE.INTER.CONST>
1

>  <SCORE.INTER.POLAR>
0

>  <SCORE.INTER.ROT>
0

>  <SCORE.INTER.SOLV>
3.53845

>  <SCORE.INTER.VDW>
-17.1739

>  <SCORE.INTER.norm>
-1.85916

>  <SCORE.INTRA>
0

>  <SCORE.INTRA.DIHEDRAL>
0

>  <SCORE.INTRA.DIHEDRAL.0>
0

>  <SCORE.INTRA.POLAR>
0

>  <SCORE.INTRA.POLAR.0>
0

>  <SCORE.INTRA.REPUL>
0

>  <SCORE.INTRA.REPUL.0>
0

>  <SCORE.INTRA.SOLV>
0

>  <SCORE.INTRA.SOLV.lig_0>
-4.28148

>  <SCORE.INTRA.VDW>
0

>  <SCORE.INTRA.VDW.0>
0

>  <SCORE.INTRA.norm>
0

>  <SCORE.RESTR>
0

>  <SCORE.RESTR.CAVITY>
0

>  <SCORE.RESTR.norm>
0

>  <SCORE.SYSTEM>
0

>  <SCORE.SYSTEM.CONST>
0

>  <SCORE.SYSTEM.DIHEDRAL>
0

>  <SCORE.SYSTEM.SOLV>
0

>  <SCORE.SYSTEM.norm>
0

>  <SCORE.heavy>
10

>  <SCORE.norm>
-1.85916

>  <RMSD>
0.873

$$$$
ligand
 OpenBabel11021811423D
libRbt.so/2013.1/901 2013/11/27
 10 11  0  0  0  0  0  0  0  0999 V2000
   11.7777   10.9849    8.4270 N   0  0  0  0  0  0  0  0  0  0  0  0
   11.4435   12.3005    8.6782 C   0  0  0  0  0  0  0  0  0  0  0  0
   11.0770   13.1401    7.7020 N   0  0  0  0  0  0  0  0  0  0  0  0
   11.0752   12.5622    6.4678 C   0  0  0  0  0  0  0  0  0  0  0  0
   11.4003   11.2525    6.1486 C   0  0  0  0  0  0  0  0  0  0  0  0
   11.7880   10.3550    7.1804 C   0  0  0  0  0  0  0  0  0  0  0  0
   12.1122    9.1688    7.1238 O   0  0  0  0  0  0  0  0  0  0  0  0
   11.2663   11.0908    4.7906 N   0  0  0  0  0  0  0  0  0  0  0  0
   10.8653   12.2868    4.2994 C   0  0  0  0  0  0  0  0  0  0  0  0
   10.7394   13.2151    5.3065 N   0  0  0  0  0  0  0  0  0  0  0  0
  1  2  1  0  0  0  0
  1  6  1  0  0  0  0
  2  3  2  0  0  0  0
  3  4  1  0  0  0  0
  4  5  2  0  0  0  0
  4 10  1  0  0  0  0
  5  6  1  0  0  0  0
  5  8  1  0  0  0  0
  6  7  2  0  0  0  0
  8  9  1  0  0  0  0
  9 10  2  0  0  0  0
M  END
>  <CHROM.1>
11.36896090,11.58969986,6.62448390,0.49617106,-1.27045094,1.12833048

>  <Name>
ligand

>  <RI>
0

>  <Rbt.Current_Directory>
/home/itssahil/PROJECTS/Mol_Feturizer/New_Systems/rnas/2EEU

>  <Rbt.Executable>
rbdock ($Id: //depot/dev/client3/rdock/2013.1/src/exe/rbdock.cxx#4 $)

>  <Rbt.Library>
libRbt.so (2013.1, Build901 2013/11/27)

>  <Rbt.Parameter_File>
/export/apps/rDock/src/rDock_2013.1_src/data/scripts/dock_solv.prm

>  <Rbt.Receptor>
prm/pocket_docking_7.prm

>  <SCORE>
-18.6148

>  <SCORE.INTER>
-18.6148

>  <SCORE.INTER.CONST>
1

>  <SCORE.INTER.POLAR>
0

>  <SCORE.INTER.ROT>
0

>  <SCORE.INTER.SOLV>
3.56852

>  <SCORE.INTER.VDW>
-17.1994

>  <SCORE.INTER.norm>
-1.86148

>  <SCORE.INTRA>
0

>  <SCORE.INTRA.DIHEDRAL>
0

>  <SCORE.INTRA.DIHEDRAL.0>
0

>  <SCORE.INTRA.POLAR>
0

>  <SCORE.INTRA.POLAR.0>
0

>  <SCORE.INTRA.REPUL>
0

>  <SCORE.INTRA.REPUL.0>
0

>  <SCORE.INTRA.SOLV>
0

>  <SCORE.INTRA.SOLV.lig_0>
-4.28148

>  <SCORE.INTRA.VDW>
0

>  <SCORE.INTRA.VDW.0>
0

>  <SCORE.INTRA.norm>
0

>  <SCORE.RESTR>
0

>  <SCORE.RESTR.CAVITY>
0

>  <SCORE.RESTR.norm>
0

>  <SCORE.SYSTEM>
0

>  <SCORE.SYSTEM.CONST>
0

>  <SCORE.SYSTEM.DIHEDRAL>
0

>  <SCORE.SYSTEM.SOLV>
0

>  <SCORE.SYSTEM.norm>
0

>  <SCORE.heavy>
10

>  <SCORE.norm>
-1.86148

>  <RMSD>
0.873

$$$$
ligand
 OpenBabel11021811423D
libRbt.so/2013.1/901 2013/11/27
 10 11  0  0  0  0  0  0  0  0999 V2000
   11.7728   10.9823    8.4275 N   0  0  0  0  0  0  0  0  0  0  0  0
   11.4307   12.2955    8.6804 C   0  0  0  0  0  0  0  0  0  0  0  0
   11.0669   13.1365    7.7043 N   0  0  0  0  0  0  0  0  0  0  0  0
   11.0762   12.5623    6.4684 C   0  0  0  0  0  0  0  0  0  0  0  0
   11.4096   11.2552    6.1474 C   0  0  0  0  0  0  0  0  0  0  0  0
   11.7946   10.3564    7.1790 C   0  0  0  0  0  0  0  0  0  0  0  0
   12.1248    9.1718    7.1210 O   0  0  0  0  0  0  0  0  0  0  0  0
   11.2856   11.0970    4.7880 N   0  0  0  0  0  0  0  0  0  0  0  0
   10.8824   12.2926    4.2978 C   0  0  0  0  0  0  0  0  0  0  0  0
   10.7452   13.2172    5.3068 N   0  0  0  0  0  0  0  0  0  0  0  0
  1  2  1  0  0  0  0
  1  6  1  0  0  0  0
  2  3  2  0  0  0  0
  3  4  1  0  0  0  0
  4  5  2  0  0  0  0
  4 10  1  0  0  0  0
  5  6  1  0  0  0  0
  5  8  1  0  0  0  0
  6  7  2  0  0  0  0
  8  9  1  0  0  0  0
  9 10  2  0  0  0  0
M  END
>  <CHROM.1>
11.37347446,11.59075034,6.62407299,0.52366610,-1.26897222,1.15766151

>  <Name>
ligand

>  <RI>
0

>  <Rbt.Current_Directory>
/home/itssahil/PROJECTS/Mol_Feturizer/New_Systems/rnas/2EEU

>  <Rbt.Executable>
rbdock ($Id: //depot/dev/client3/rdock/2013.1/src/exe/rbdock.cxx#4 $)

>  <Rbt.Library>
libRbt.so (2013.1, Build901 2013/11/27)

>  <Rbt.Parameter_File>
/export/apps/rDock/src/rDock_2013.1_src/data/scripts/dock_solv.prm

>  <Rbt.Receptor>
prm/pocket_docking_8.prm

>  <SCORE>
-18.6059

>  <SCORE.INTER>
-18.6059

>  <SCORE.INTER.CONST>
1

>  <SCORE.INTER.POLAR>
0

>  <SCORE.INTER.ROT>
0

>  <SCORE.INTER.SOLV>
3.56231

>  <SCORE.INTER.VDW>
-17.1914

>  <SCORE.INTER.norm>
-1.86059

>  <SCORE.INTRA>
0

>  <SCORE.INTRA.DIHEDRAL>
0

>  <SCORE.INTRA.DIHEDRAL.0>
0

>  <SCORE.INTRA.POLAR>
0

>  <SCORE.INTRA.POLAR.0>
0

>  <SCORE.INTRA.REPUL>
0

>  <SCORE.INTRA.REPUL.0>
0

>  <SCORE.INTRA.SOLV>
0

>  <SCORE.INTRA.SOLV.lig_0>
-4.28148

>  <SCORE.INTRA.VDW>
0

>  <SCORE.INTRA.VDW.0>
0

>  <SCORE.INTRA.norm>
0

>  <SCORE.RESTR>
0

>  <SCORE.RESTR.CAVITY>
0

>  <SCORE.RESTR.norm>
0

>  <SCORE.SYSTEM>
0

>  <SCORE.SYSTEM.CONST>
0

>  <SCORE.SYSTEM.DIHEDRAL>
0

>  <SCORE.SYSTEM.SOLV>
0

>  <SCORE.SYSTEM.norm>
0

>  <SCORE.heavy>
10

>  <SCORE.norm>
-1.86059

>  <RMSD>
0.873

$$$$
ligand
 OpenBabel11021811423D
libRbt.so/2013.1/901 2013/11/27
 10 11  0  0  0  0  0  0  0  0999 V2000
   11.8130   10.9621    8.4136 N   0  0  0  0  0  0  0  0  0  0  0  0
   11.4892   12.2780    8.6767 C   0  0  0  0  0  0  0  0  0  0  0  0
   11.1150   13.1254    7.7102 N   0  0  0  0  0  0  0  0  0  0  0  0
   11.0946   12.5548    6.4727 C   0  0  0  0  0  0  0  0  0  0  0  0
   11.4084   11.2453    6.1417 C   0  0  0  0  0  0  0  0  0  0  0  0
   11.8042   10.3396    7.1633 C   0  0  0  0  0  0  0  0  0  0  0  0
   12.1212    9.1520    7.0956 O   0  0  0  0  0  0  0  0  0  0  0  0
   11.2565   11.0924    4.7845 N   0  0  0  0  0  0  0  0  0  0  0  0
   10.8559   12.2934    4.3055 C   0  0  0  0  0  0  0  0  0  0  0  0
   10.7478   13.2164    5.3195 N   0  0  0  0  0  0  0  0  0  0  0  0
  1  2  1  0  0  0  0
  1  6  1  0  0  0  0
  2  3  2  0  0  0  0
  3  4  1  0  0  0  0
  4  5  2  0  0  0  0
  4 10  1  0  0  0  0
  5  6  1  0  0  0  0
  5  8  1  0  0  0  0
  6  7  2  0  0  0  0
  8  9  1  0  0  0  0
  9 10  2  0  0  0  0
M  END
>  <CHROM.1>
11.38494718,11.57981516,6.61993979,0.44995612,-1.26968574,1.09009564

>  <Name>
ligand

>  <RI>
0

>  <Rbt.Current_Directory>
/home/itssahil/PROJECTS/Mol_Feturizer/New_Systems/rnas/2EEU

>  <Rbt.Executable>
rbdock ($Id: //depot/dev/client3/rdock/2013.1/src/exe/rbdock.cxx#4 $)

>  <Rbt.Library>
libRbt.so (2013.1, Build901 2013/11/27)

>  <Rbt.Parameter_File>
/export/apps/rDock/src/rDock_2013.1_src/data/scripts/dock_solv.prm

>  <Rbt.Receptor>
prm/blind_docking_40.prm

>  <SCORE>
-18.5928

>  <SCORE.INTER>
-18.5928

>  <SCORE.INTER.CONST>
1

>  <SCORE.INTER.POLAR>
0

>  <SCORE.INTER.ROT>
0

>  <SCORE.INTER.SOLV>
3.55743

>  <SCORE.INTER.VDW>
-17.181

>  <SCORE.INTER.norm>
-1.85928

>  <SCORE.INTRA>
0

>  <SCORE.INTRA.DIHEDRAL>
0

>  <SCORE.INTRA.DIHEDRAL.0>
0

>  <SCORE.INTRA.POLAR>
0

>  <SCORE.INTRA.POLAR.0>
0

>  <SCORE.INTRA.REPUL>
0

>  <SCORE.INTRA.REPUL.0>
0

>  <SCORE.INTRA.SOLV>
0

>  <SCORE.INTRA.SOLV.lig_0>
-4.28148

>  <SCORE.INTRA.VDW>
0

>  <SCORE.INTRA.VDW.0>
0

>  <SCORE.INTRA.norm>
0

>  <SCORE.RESTR>
0

>  <SCORE.RESTR.CAVITY>
0

>  <SCORE.RESTR.norm>
0

>  <SCORE.SYSTEM>
0

>  <SCORE.SYSTEM.CONST>
0

>  <SCORE.SYSTEM.DIHEDRAL>
0

>  <SCORE.SYSTEM.SOLV>
0

>  <SCORE.SYSTEM.norm>
0

>  <SCORE.heavy>
10

>  <SCORE.norm>
-1.85928

>  <RMSD>
0.874

$$$$
ligand
 OpenBabel11021811423D
libRbt.so/2013.1/901 2013/11/27
 10 11  0  0  0  0  0  0  0  0999 V2000
   11.7653   10.9798    8.4288 N   0  0  0  0  0  0  0  0  0  0  0  0
   11.4266   12.2941    8.6812 C   0  0  0  0  0  0  0  0  0  0  0  0
   11.0667   13.1361    7.7047 N   0  0  0  0  0  0  0  0  0  0  0  0
   11.0764   12.5620    6.4686 C   0  0  0  0  0  0  0  0  0  0  0  0
   11.4066   11.2540    6.1481 C   0  0  0  0  0  0  0  0  0  0  0  0
   11.7873   10.3540    7.1803 C   0  0  0  0  0  0  0  0  0  0  0  0
   12.1142    9.1685    7.1227 O   0  0  0  0  0  0  0  0  0  0  0  0
   11.2843   11.0963    4.7885 N   0  0  0  0  0  0  0  0  0  0  0  0
   10.8852   12.2931    4.2977 C   0  0  0  0  0  0  0  0  0  0  0  0
   10.7492   13.2180    5.3066 N   0  0  0  0  0  0  0  0  0  0  0  0
  1  2  1  0  0  0  0
  1  6  1  0  0  0  0
  2  3  2  0  0  0  0
  3  4  1  0  0  0  0
  4  5  2  0  0  0  0
  4 10  1  0  0  0  0
  5  6  1  0  0  0  0
  5  8  1  0  0  0  0
  6  7  2  0  0  0  0
  8  9  1  0  0  0  0
  9 10  2  0  0  0  0
M  END
>  <CHROM.1>
11.37061847,11.58960280,6.62475448,0.52470217,-1.27224258,1.15873416

>  <Name>
ligand

>  <RI>
0

>  <Rbt.Current_Directory>
/home/itssahil/PROJECTS/Mol_Feturizer/New_Systems/rnas/2EEU

>  <Rbt.Executable>
rbdock ($Id: //depot/dev/client3/rdock/2013.1/src/exe/rbdock.cxx#4 $)

>  <Rbt.Library>
libRbt.so (2013.1, Build901 2013/11/27)

>  <Rbt.Parameter_File>
/export/apps/rDock/src/rDock_2013.1_src/data/scripts/dock_solv.prm

>  <Rbt.Receptor>
prm/blind_docking_60.prm

>  <SCORE>
-18.6045

>  <SCORE.INTER>
-18.6045

>  <SCORE.INTER.CONST>
1

>  <SCORE.INTER.POLAR>
0

>  <SCORE.INTER.ROT>
0

>  <SCORE.INTER.SOLV>
3.57637

>  <SCORE.INTER.VDW>
-17.1951

>  <SCORE.INTER.norm>
-1.86045

>  <SCORE.INTRA>
0

>  <SCORE.INTRA.DIHEDRAL>
0

>  <SCORE.INTRA.DIHEDRAL.0>
0

>  <SCORE.INTRA.POLAR>
0

>  <SCORE.INTRA.POLAR.0>
0

>  <SCORE.INTRA.REPUL>
0

>  <SCORE.INTRA.REPUL.0>
0

>  <SCORE.INTRA.SOLV>
0

>  <SCORE.INTRA.SOLV.lig_0>
-4.28148

>  <SCORE.INTRA.VDW>
0

>  <SCORE.INTRA.VDW.0>
0

>  <SCORE.INTRA.norm>
0

>  <SCORE.RESTR>
0

>  <SCORE.RESTR.CAVITY>
0

>  <SCORE.RESTR.norm>
0

>  <SCORE.SYSTEM>
0

>  <SCORE.SYSTEM.CONST>
0

>  <SCORE.SYSTEM.DIHEDRAL>
0

>  <SCORE.SYSTEM.SOLV>
0

>  <SCORE.SYSTEM.norm>
0

>  <SCORE.heavy>
10

>  <SCORE.norm>
-1.86045

>  <RMSD>
0.874

$$$$
ligand
 OpenBabel11021811423D
libRbt.so/2013.1/901 2013/11/27
 10 11  0  0  0  0  0  0  0  0999 V2000
   11.7738   10.9827    8.4263 N   0  0  0  0  0  0  0  0  0  0  0  0
   11.4321   12.2961    8.6792 C   0  0  0  0  0  0  0  0  0  0  0  0
   11.0672   13.1367    7.7033 N   0  0  0  0  0  0  0  0  0  0  0  0
   11.0752   12.5622    6.4675 C   0  0  0  0  0  0  0  0  0  0  0  0
   11.4082   11.2549    6.1465 C   0  0  0  0  0  0  0  0  0  0  0  0
   11.7943   10.3564    7.1781 C   0  0  0  0  0  0  0  0  0  0  0  0
   12.1243    9.1718    7.1200 O   0  0  0  0  0  0  0  0  0  0  0  0
   11.2828   11.0963    4.7873 N   0  0  0  0  0  0  0  0  0  0  0  0
   10.8790   12.2918    4.2972 C   0  0  0  0  0  0  0  0  0  0  0  0
   10.7430   13.2168    5.3060 N   0  0  0  0  0  0  0  0  0  0  0  0
  1  2  1  0  0  0  0
  1  6  1  0  0  0  0
  2  3  2  0  0  0  0
  3  4  1  0  0  0  0
  4  5  2  0  0  0  0
  4 10  1  0  0  0  0
  5  6  1  0  0  0  0
  5  8  1  0  0  0  0
  6  7  2  0  0  0  0
  8  9  1  0  0  0  0
  9 10  2  0  0  0  0
M  END
>  <CHROM.1>
11.37261842,11.59063649,6.62315174,0.52030514,-1.26858256,1.15414549

>  <Name>
ligand

>  <RI>
0

>  <Rbt.Current_Directory>
/home/itssahil/PROJECTS/Mol_Feturizer/New_Systems/rnas/2EEU

>  <Rbt.Executable>
rbdock ($Id: //depot/dev/client3/rdock/2013.1/src/exe/rbdock.cxx#4 $)

>  <Rbt.Library>
libRbt.so (2013.1, Build901 2013/11/27)

>  <Rbt.Parameter_File>
/export/apps/rDock/src/rDock_2013.1_src/data/scripts/dock_solv.prm

>  <Rbt.Receptor>
prm/pocket_docking_3.prm

>  <SCORE>
-18.6065

>  <SCORE.INTER>
-18.6065

>  <SCORE.INTER.CONST>
1

>  <SCORE.INTER.POLAR>
0

>  <SCORE.INTER.ROT>
0

>  <SCORE.INTER.SOLV>
3.56204

>  <SCORE.INTER.VDW>
-17.1916

>  <SCORE.INTER.norm>
-1.86065

>  <SCORE.INTRA>
0

>  <SCORE.INTRA.DIHEDRAL>
0

>  <SCORE.INTRA.DIHEDRAL.0>
0

>  <SCORE.INTRA.POLAR>
0

>  <SCORE.INTRA.POLAR.0>
0

>  <SCORE.INTRA.REPUL>
0

>  <SCORE.INTRA.REPUL.0>
0

>  <SCORE.INTRA.SOLV>
0

>  <SCORE.INTRA.SOLV.lig_0>
-4.28148

>  <SCORE.INTRA.VDW>
0

>  <SCORE.INTRA.VDW.0>
0

>  <SCORE.INTRA.norm>
0

>  <SCORE.RESTR>
0

>  <SCORE.RESTR.CAVITY>
0

>  <SCORE.RESTR.norm>
0

>  <SCORE.SYSTEM>
0

>  <SCORE.SYSTEM.CONST>
0

>  <SCORE.SYSTEM.DIHEDRAL>
0

>  <SCORE.SYSTEM.SOLV>
0

>  <SCORE.SYSTEM.norm>
0

>  <SCORE.heavy>
10

>  <SCORE.norm>
-1.86065

>  <RMSD>
0.874

$$$$
ligand
 OpenBabel11021811423D
libRbt.so/2013.1/901 2013/11/27
 10 11  0  0  0  0  0  0  0  0999 V2000
   11.8343   10.7677    8.4154 N   0  0  0  0  0  0  0  0  0  0  0  0
   11.4789   12.0588    8.7506 C   0  0  0  0  0  0  0  0  0  0  0  0
   11.0933   12.9520    7.8309 N   0  0  0  0  0  0  0  0  0  0  0  0
   11.0955   12.4533    6.5626 C   0  0  0  0  0  0  0  0  0  0  0  0
   11.4414   11.1723    6.1599 C   0  0  0  0  0  0  0  0  0  0  0  0
   11.8494   10.2182    7.1313 C   0  0  0  0  0  0  0  0  0  0  0  0
   12.1936    9.0437    6.9985 O   0  0  0  0  0  0  0  0  0  0  0  0
   11.3036   11.0944    4.7948 N   0  0  0  0  0  0  0  0  0  0  0  0
   10.8798   12.3120    4.3819 C   0  0  0  0  0  0  0  0  0  0  0  0
   10.7429   13.1724    5.4462 N   0  0  0  0  0  0  0  0  0  0  0  0
  1  2  1  0  0  0  0
  1  6  1  0  0  0  0
  2  3  2  0  0  0  0
  3  4  1  0  0  0  0
  4  5  2  0  0  0  0
  4 10  1  0  0  0  0
  5  6  1  0  0  0  0
  5  8  1  0  0  0  0
  6  7  2  0  0  0  0
  8  9  1  0  0  0  0
  9 10  2  0  0  0  0
M  END
>  <CHROM.1>
11.40657996,11.47809683,6.65628271,0.50569719,-1.25287309,1.20073025

>  <Name>
ligand

>  <RI>
0

>  <Rbt.Current_Directory>
/home/itssahil/PROJECTS/Mol_Feturizer/New_Systems/rnas/2EEU

>  <Rbt.Executable>
rbdock ($Id: //depot/dev/client3/rdock/2013.1/src/exe/rbdock.cxx#4 $)

>  <Rbt.Library>
libRbt.so (2013.1, Build901 2013/11/27)

>  <Rbt.Parameter_File>
/export/apps/rDock/src/rDock_2013.1_src/data/scripts/dock_solv.prm

>  <Rbt.Receptor>
prm/blind_docking_20.prm

>  <SCORE>
-18.3976

>  <SCORE.INTER>
-18.3976

>  <SCORE.INTER.CONST>
1

>  <SCORE.INTER.POLAR>
0

>  <SCORE.INTER.ROT>
0

>  <SCORE.INTER.SOLV>
3.5311

>  <SCORE.INTER.VDW>
-17.0421

>  <SCORE.INTER.norm>
-1.83976

>  <SCORE.INTRA>
0

>  <SCORE.INTRA.DIHEDRAL>
0

>  <SCORE.INTRA.DIHEDRAL.0>
0

>  <SCORE.INTRA.POLAR>
0

>  <SCORE.INTRA.POLAR.0>
0

>  <SCORE.INTRA.REPUL>
0

>  <SCORE.INTRA.REPUL.0>
0

>  <SCORE.INTRA.SOLV>
0

>  <SCORE.INTRA.SOLV.lig_0>
-4.28148

>  <SCORE.INTRA.VDW>
0

>  <SCORE.INTRA.VDW.0>
0

>  <SCORE.INTRA.norm>
0

>  <SCORE.RESTR>
0

>  <SCORE.RESTR.CAVITY>
0

>  <SCORE.RESTR.norm>
0

>  <SCORE.SYSTEM>
0

>  <SCORE.SYSTEM.CONST>
0

>  <SCORE.SYSTEM.DIHEDRAL>
0

>  <SCORE.SYSTEM.SOLV>
0

>  <SCORE.SYSTEM.norm>
0

>  <SCORE.heavy>
10

>  <SCORE.norm>
-1.83976

>  <RMSD>
0.875

$$$$
ligand
 OpenBabel11021811423D
libRbt.so/2013.1/901 2013/11/27
 10 11  0  0  0  0  0  0  0  0999 V2000
   11.7756   10.9843    8.4244 N   0  0  0  0  0  0  0  0  0  0  0  0
   11.4371   12.2986    8.6770 C   0  0  0  0  0  0  0  0  0  0  0  0
   11.0708   13.1389    7.7013 N   0  0  0  0  0  0  0  0  0  0  0  0
   11.0741   12.5632    6.4660 C   0  0  0  0  0  0  0  0  0  0  0  0
   11.4037   11.2550    6.1454 C   0  0  0  0  0  0  0  0  0  0  0  0
   11.7912   10.3567    7.1767 C   0  0  0  0  0  0  0  0  0  0  0  0
   12.1188    9.1715    7.1189 O   0  0  0  0  0  0  0  0  0  0  0  0
   11.2739   11.0953    4.7867 N   0  0  0  0  0  0  0  0  0  0  0  0
   10.8709   12.2910    4.2966 C   0  0  0  0  0  0  0  0  0  0  0  0
   10.7397   13.2172    5.3049 N   0  0  0  0  0  0  0  0  0  0  0  0
  1  2  1  0  0  0  0
  1  6  1  0  0  0  0
  2  3  2  0  0  0  0
  3  4  1  0  0  0  0
  4  5  2  0  0  0  0
  4 10  1  0  0  0  0
  5  6  1  0  0  0  0
  5  8  1  0  0  0  0
  6  7  2  0  0  0  0
  8  9  1  0  0  0  0
  9 10  2  0  0  0  0
M  END
>  <CHROM.1>
11.37013586,11.59121552,6.62181961,0.50860873,-1.26905530,1.14197828

>  <Name>
ligand

>  <RI>
0

>  <Rbt.Current_Directory>
/home/itssahil/PROJECTS/Mol_Feturizer/New_Systems/rnas/2EEU

>  <Rbt.Executable>
rbdock ($Id: //depot/dev/client3/rdock/2013.1/src/exe/rbdock.cxx#4 $)

>  <Rbt.Library>
libRbt.so (2013.1, Build901 2013/11/27)

>  <Rbt.Parameter_File>
/export/apps/rDock/src/rDock_2013.1_src/data/scripts/dock_solv.prm

>  <Rbt.Receptor>
prm/blind_docking_60.prm

>  <SCORE>
-18.6099

>  <SCORE.INTER>
-18.6099

>  <SCORE.INTER.CONST>
1

>  <SCORE.INTER.POLAR>
0

>  <SCORE.INTER.ROT>
0

>  <SCORE.INTER.SOLV>
3.56575

>  <SCORE.INTER.VDW>
-17.1952

>  <SCORE.INTER.norm>
-1.86099

>  <SCORE.INTRA>
0

>  <SCORE.INTRA.DIHEDRAL>
0

>  <SCORE.INTRA.DIHEDRAL.0>
0

>  <SCORE.INTRA.POLAR>
0

>  <SCORE.INTRA.POLAR.0>
0

>  <SCORE.INTRA.REPUL>
0

>  <SCORE.INTRA.REPUL.0>
0

>  <SCORE.INTRA.SOLV>
0

>  <SCORE.INTRA.SOLV.lig_0>
-4.28148

>  <SCORE.INTRA.VDW>
0

>  <SCORE.INTRA.VDW.0>
0

>  <SCORE.INTRA.norm>
0

>  <SCORE.RESTR>
0

>  <SCORE.RESTR.CAVITY>
0

>  <SCORE.RESTR.norm>
0

>  <SCORE.SYSTEM>
0

>  <SCORE.SYSTEM.CONST>
0

>  <SCORE.SYSTEM.DIHEDRAL>
0

>  <SCORE.SYSTEM.SOLV>
0

>  <SCORE.SYSTEM.norm>
0

>  <SCORE.heavy>
10

>  <SCORE.norm>
-1.86099

>  <RMSD>
0.875

$$$$
ligand
 OpenBabel11021811423D
libRbt.so/2013.1/901 2013/11/27
 10 11  0  0  0  0  0  0  0  0999 V2000
   11.8567   11.3242    8.4379 N   0  0  0  0  0  0  0  0  0  0  0  0
   11.6194   12.6768    8.5784 C   0  0  0  0  0  0  0  0  0  0  0  0
   11.2635   13.4478    7.5434 N   0  0  0  0  0  0  0  0  0  0  0  0
   11.1686   12.7622    6.3694 C   0  0  0  0  0  0  0  0  0  0  0  0
   11.3941   11.4099    6.1611 C   0  0  0  0  0  0  0  0  0  0  0  0
   11.7700   10.5850    7.2560 C   0  0  0  0  0  0  0  0  0  0  0  0
   12.0144    9.3792    7.2974 O   0  0  0  0  0  0  0  0  0  0  0  0
   11.1885   11.1356    4.8303 N   0  0  0  0  0  0  0  0  0  0  0  0
   10.8432   12.3069    4.2461 C   0  0  0  0  0  0  0  0  0  0  0  0
   10.8230   13.3288    5.1664 N   0  0  0  0  0  0  0  0  0  0  0  0
  1  2  1  0  0  0  0
  1  6  1  0  0  0  0
  2  3  2  0  0  0  0
  3  4  1  0  0  0  0
  4  5  2  0  0  0  0
  4 10  1  0  0  0  0
  5  6  1  0  0  0  0
  5  8  1  0  0  0  0
  6  7  2  0  0  0  0
  8  9  1  0  0  0  0
  9 10  2  0  0  0  0
M  END
>  <CHROM.1>
11.40615533,11.79006644,6.60435499,0.23672374,-1.30045764,0.78720813

>  <Name>
ligand

>  <RI>
0

>  <Rbt.Current_Directory>
/home/itssahil/PROJECTS/Mol_Feturizer/New_Systems/rnas/2EEU

>  <Rbt.Executable>
rbdock ($Id: //depot/dev/client3/rdock/2013.1/src/exe/rbdock.cxx#4 $)

>  <Rbt.Library>
libRbt.so (2013.1, Build901 2013/11/27)

>  <Rbt.Parameter_File>
/export/apps/rDock/src/rDock_2013.1_src/data/scripts/dock_solv.prm

>  <Rbt.Receptor>
prm/blind_docking_60.prm

>  <SCORE>
-18.491

>  <SCORE.INTER>
-18.491

>  <SCORE.INTER.CONST>
1

>  <SCORE.INTER.POLAR>
0

>  <SCORE.INTER.ROT>
0

>  <SCORE.INTER.SOLV>
3.59785

>  <SCORE.INTER.VDW>
-17.1266

>  <SCORE.INTER.norm>
-1.8491

>  <SCORE.INTRA>
0

>  <SCORE.INTRA.DIHEDRAL>
0

>  <SCORE.INTRA.DIHEDRAL.0>
0

>  <SCORE.INTRA.POLAR>
0

>  <SCORE.INTRA.POLAR.0>
0

>  <SCORE.INTRA.REPUL>
0

>  <SCORE.INTRA.REPUL.0>
0

>  <SCORE.INTRA.SOLV>
0

>  <SCORE.INTRA.SOLV.lig_0>
-4.28148

>  <SCORE.INTRA.VDW>
0

>  <SCORE.INTRA.VDW.0>
0

>  <SCORE.INTRA.norm>
0

>  <SCORE.RESTR>
0

>  <SCORE.RESTR.CAVITY>
0

>  <SCORE.RESTR.norm>
0

>  <SCORE.SYSTEM>
0

>  <SCORE.SYSTEM.CONST>
0

>  <SCORE.SYSTEM.DIHEDRAL>
0

>  <SCORE.SYSTEM.SOLV>
0

>  <SCORE.SYSTEM.norm>
0

>  <SCORE.heavy>
10

>  <SCORE.norm>
-1.8491

>  <RMSD>
0.875

$$$$
ligand
 OpenBabel11021811423D
libRbt.so/2013.1/901 2013/11/27
 10 11  0  0  0  0  0  0  0  0999 V2000
   11.7690   10.9813    8.4273 N   0  0  0  0  0  0  0  0  0  0  0  0
   11.4287   12.2950    8.6802 C   0  0  0  0  0  0  0  0  0  0  0  0
   11.0665   13.1366    7.7041 N   0  0  0  0  0  0  0  0  0  0  0  0
   11.0757   12.5626    6.4680 C   0  0  0  0  0  0  0  0  0  0  0  0
   11.4075   11.2550    6.1470 C   0  0  0  0  0  0  0  0  0  0  0  0
   11.7906   10.3555    7.1788 C   0  0  0  0  0  0  0  0  0  0  0  0
   12.1191    9.1705    7.1208 O   0  0  0  0  0  0  0  0  0  0  0  0
   11.2840   11.0972    4.7875 N   0  0  0  0  0  0  0  0  0  0  0  0
   10.8827   12.2935    4.2973 C   0  0  0  0  0  0  0  0  0  0  0  0
   10.7463   13.2182    5.3063 N   0  0  0  0  0  0  0  0  0  0  0  0
  1  2  1  0  0  0  0
  1  6  1  0  0  0  0
  2  3  2  0  0  0  0
  3  4  1  0  0  0  0
  4  5  2  0  0  0  0
  4 10  1  0  0  0  0
  5  6  1  0  0  0  0
  5  8  1  0  0  0  0
  6  7  2  0  0  0  0
  8  9  1  0  0  0  0
  9 10  2  0  0  0  0
M  END
>  <CHROM.1>
11.37152015,11.59059854,6.62376640,0.52341939,-1.27049466,1.15756236

>  <Name>
ligand

>  <RI>
0

>  <Rbt.Current_Directory>
/home/itssahil/PROJECTS/Mol_Feturizer/New_Systems/rnas/2EEU

>  <Rbt.Executable>
rbdock ($Id: //depot/dev/client3/rdock/2013.1/src/exe/rbdock.cxx#4 $)

>  <Rbt.Library>
libRbt.so (2013.1, Build901 2013/11/27)

>  <Rbt.Parameter_File>
/export/apps/rDock/src/rDock_2013.1_src/data/scripts/dock_solv.prm

>  <Rbt.Receptor>
prm/pocket_docking_4.prm

>  <SCORE>
-18.6055

>  <SCORE.INTER>
-18.6055

>  <SCORE.INTER.CONST>
1

>  <SCORE.INTER.POLAR>
0

>  <SCORE.INTER.ROT>
0

>  <SCORE.INTER.SOLV>
3.56989

>  <SCORE.INTER.VDW>
-17.1936

>  <SCORE.INTER.norm>
-1.86055

>  <SCORE.INTRA>
0

>  <SCORE.INTRA.DIHEDRAL>
0

>  <SCORE.INTRA.DIHEDRAL.0>
0

>  <SCORE.INTRA.POLAR>
0

>  <SCORE.INTRA.POLAR.0>
0

>  <SCORE.INTRA.REPUL>
0

>  <SCORE.INTRA.REPUL.0>
0

>  <SCORE.INTRA.SOLV>
0

>  <SCORE.INTRA.SOLV.lig_0>
-4.28148

>  <SCORE.INTRA.VDW>
0

>  <SCORE.INTRA.VDW.0>
0

>  <SCORE.INTRA.norm>
0

>  <SCORE.RESTR>
0

>  <SCORE.RESTR.CAVITY>
0

>  <SCORE.RESTR.norm>
0

>  <SCORE.SYSTEM>
0

>  <SCORE.SYSTEM.CONST>
0

>  <SCORE.SYSTEM.DIHEDRAL>
0

>  <SCORE.SYSTEM.SOLV>
0

>  <SCORE.SYSTEM.norm>
0

>  <SCORE.heavy>
10

>  <SCORE.norm>
-1.86055

>  <RMSD>
0.875

$$$$
ligand
 OpenBabel11021811423D
libRbt.so/2013.1/901 2013/11/27
 10 11  0  0  0  0  0  0  0  0999 V2000
   11.7757   10.9847    8.4254 N   0  0  0  0  0  0  0  0  0  0  0  0
   11.4362   12.2987    8.6776 C   0  0  0  0  0  0  0  0  0  0  0  0
   11.0698   13.1386    7.7016 N   0  0  0  0  0  0  0  0  0  0  0  0
   11.0739   12.5626    6.4665 C   0  0  0  0  0  0  0  0  0  0  0  0
   11.4046   11.2546    6.1462 C   0  0  0  0  0  0  0  0  0  0  0  0
   11.7922   10.3568    7.1778 C   0  0  0  0  0  0  0  0  0  0  0  0
   12.1207    9.1718    7.1204 O   0  0  0  0  0  0  0  0  0  0  0  0
   11.2754   11.0946    4.7875 N   0  0  0  0  0  0  0  0  0  0  0  0
   10.8718   12.2900    4.2970 C   0  0  0  0  0  0  0  0  0  0  0  0
   10.7395   13.2162    5.3051 N   0  0  0  0  0  0  0  0  0  0  0  0
  1  2  1  0  0  0  0
  1  6  1  0  0  0  0
  2  3  2  0  0  0  0
  3  4  1  0  0  0  0
  4  5  2  0  0  0  0
  4 10  1  0  0  0  0
  5  6  1  0  0  0  0
  5  8  1  0  0  0  0
  6  7  2  0  0  0  0
  8  9  1  0  0  0  0
  9 10  2  0  0  0  0
M  END
>  <CHROM.1>
11.37057924,11.59093382,6.62254643,0.51077519,-1.26860809,1.14386582

>  <Name>
ligand

>  <RI>
0

>  <Rbt.Current_Directory>
/home/itssahil/PROJECTS/Mol_Feturizer/New_Systems/rnas/2EEU

>  <Rbt.Executable>
rbdock ($Id: //depot/dev/client3/rdock/2013.1/src/exe/rbdock.cxx#4 $)

>  <Rbt.Library>
libRbt.so (2013.1, Build901 2013/11/27)

>  <Rbt.Parameter_File>
/export/apps/rDock/src/rDock_2013.1_src/data/scripts/dock_solv.prm

>  <Rbt.Receptor>
prm/pocket_docking_6.prm

>  <SCORE>
-18.6093

>  <SCORE.INTER>
-18.6093

>  <SCORE.INTER.CONST>
1

>  <SCORE.INTER.POLAR>
0

>  <SCORE.INTER.ROT>
0

>  <SCORE.INTER.SOLV>
3.56331

>  <SCORE.INTER.VDW>
-17.194

>  <SCORE.INTER.norm>
-1.86093

>  <SCORE.INTRA>
0

>  <SCORE.INTRA.DIHEDRAL>
0

>  <SCORE.INTRA.DIHEDRAL.0>
0

>  <SCORE.INTRA.POLAR>
0

>  <SCORE.INTRA.POLAR.0>
0

>  <SCORE.INTRA.REPUL>
0

>  <SCORE.INTRA.REPUL.0>
0

>  <SCORE.INTRA.SOLV>
0

>  <SCORE.INTRA.SOLV.lig_0>
-4.28148

>  <SCORE.INTRA.VDW>
0

>  <SCORE.INTRA.VDW.0>
0

>  <SCORE.INTRA.norm>
0

>  <SCORE.RESTR>
0

>  <SCORE.RESTR.CAVITY>
0

>  <SCORE.RESTR.norm>
0

>  <SCORE.SYSTEM>
0

>  <SCORE.SYSTEM.CONST>
0

>  <SCORE.SYSTEM.DIHEDRAL>
0

>  <SCORE.SYSTEM.SOLV>
0

>  <SCORE.SYSTEM.norm>
0

>  <SCORE.heavy>
10

>  <SCORE.norm>
-1.86093

>  <RMSD>
0.875

$$$$
ligand
 OpenBabel11021811423D
libRbt.so/2013.1/901 2013/11/27
 10 11  0  0  0  0  0  0  0  0999 V2000
   11.8171   10.9595    8.4107 N   0  0  0  0  0  0  0  0  0  0  0  0
   11.4977   12.2763    8.6746 C   0  0  0  0  0  0  0  0  0  0  0  0
   11.1222   13.1244    7.7093 N   0  0  0  0  0  0  0  0  0  0  0  0
   11.0957   12.5535    6.4720 C   0  0  0  0  0  0  0  0  0  0  0  0
   11.4049   11.2431    6.1403 C   0  0  0  0  0  0  0  0  0  0  0  0
   11.8021   10.3367    7.1606 C   0  0  0  0  0  0  0  0  0  0  0  0
   12.1157    9.1482    7.0921 O   0  0  0  0  0  0  0  0  0  0  0  0
   11.2476   11.0902    4.7837 N   0  0  0  0  0  0  0  0  0  0  0  0
   10.8484   12.2922    4.3059 C   0  0  0  0  0  0  0  0  0  0  0  0
   10.7464   13.2157    5.3200 N   0  0  0  0  0  0  0  0  0  0  0  0
  1  2  1  0  0  0  0
  1  6  1  0  0  0  0
  2  3  2  0  0  0  0
  3  4  1  0  0  0  0
  4  5  2  0  0  0  0
  4 10  1  0  0  0  0
  5  6  1  0  0  0  0
  5  8  1  0  0  0  0
  6  7  2  0  0  0  0
  8  9  1  0  0  0  0
  9 10  2  0  0  0  0
M  END
>  <CHROM.1>
11.38402844,11.57784458,6.61849191,0.43484111,-1.27027792,1.07539026

>  <Name>
ligand

>  <RI>
0

>  <Rbt.Current_Directory>
/home/itssahil/PROJECTS/Mol_Feturizer/New_Systems/rnas/2EEU

>  <Rbt.Executable>
rbdock ($Id: //depot/dev/client3/rdock/2013.1/src/exe/rbdock.cxx#4 $)

>  <Rbt.Library>
libRbt.so (2013.1, Build901 2013/11/27)

>  <Rbt.Parameter_File>
/export/apps/rDock/src/rDock_2013.1_src/data/scripts/dock_solv.prm

>  <Rbt.Receptor>
prm/pocket_docking_6.prm

>  <SCORE>
-18.5913

>  <SCORE.INTER>
-18.5913

>  <SCORE.INTER.CONST>
1

>  <SCORE.INTER.POLAR>
0

>  <SCORE.INTER.ROT>
0

>  <SCORE.INTER.SOLV>
3.56142

>  <SCORE.INTER.VDW>
-17.1814

>  <SCORE.INTER.norm>
-1.85913

>  <SCORE.INTRA>
0

>  <SCORE.INTRA.DIHEDRAL>
0

>  <SCORE.INTRA.DIHEDRAL.0>
0

>  <SCORE.INTRA.POLAR>
0

>  <SCORE.INTRA.POLAR.0>
0

>  <SCORE.INTRA.REPUL>
0

>  <SCORE.INTRA.REPUL.0>
0

>  <SCORE.INTRA.SOLV>
0

>  <SCORE.INTRA.SOLV.lig_0>
-4.28148

>  <SCORE.INTRA.VDW>
0

>  <SCORE.INTRA.VDW.0>
0

>  <SCORE.INTRA.norm>
0

>  <SCORE.RESTR>
0

>  <SCORE.RESTR.CAVITY>
0

>  <SCORE.RESTR.norm>
0

>  <SCORE.SYSTEM>
0

>  <SCORE.SYSTEM.CONST>
0

>  <SCORE.SYSTEM.DIHEDRAL>
0

>  <SCORE.SYSTEM.SOLV>
0

>  <SCORE.SYSTEM.norm>
0

>  <SCORE.heavy>
10

>  <SCORE.norm>
-1.85913

>  <RMSD>
0.875

$$$$
ligand
 OpenBabel11021811423D
libRbt.so/2013.1/901 2013/11/27
 10 11  0  0  0  0  0  0  0  0999 V2000
   11.7818   10.9853    8.4221 N   0  0  0  0  0  0  0  0  0  0  0  0
   11.4420   12.2990    8.6755 C   0  0  0  0  0  0  0  0  0  0  0  0
   11.0723   13.1389    7.7008 N   0  0  0  0  0  0  0  0  0  0  0  0
   11.0734   12.5632    6.4655 C   0  0  0  0  0  0  0  0  0  0  0  0
   11.4041   11.2555    6.1440 C   0  0  0  0  0  0  0  0  0  0  0  0
   11.7953   10.3578    7.1743 C   0  0  0  0  0  0  0  0  0  0  0  0
   12.1245    9.1730    7.1156 O   0  0  0  0  0  0  0  0  0  0  0  0
   11.2713   11.0957    4.7856 N   0  0  0  0  0  0  0  0  0  0  0  0
   10.8655   12.2910    4.2965 C   0  0  0  0  0  0  0  0  0  0  0  0
   10.7353   13.2169    5.3052 N   0  0  0  0  0  0  0  0  0  0  0  0
  1  2  1  0  0  0  0
  1  6  1  0  0  0  0
  2  3  2  0  0  0  0
  3  4  1  0  0  0  0
  4  5  2  0  0  0  0
  4 10  1  0  0  0  0
  5  6  1  0  0  0  0
  5  8  1  0  0  0  0
  6  7  2  0  0  0  0
  8  9  1  0  0  0  0
  9 10  2  0  0  0  0
M  END
>  <CHROM.1>
11.37119734,11.59171726,6.62047614,0.50335290,-1.26676421,1.13702663

>  <Name>
ligand

>  <RI>
0

>  <Rbt.Current_Directory>
/home/itssahil/PROJECTS/Mol_Feturizer/New_Systems/rnas/2EEU

>  <Rbt.Executable>
rbdock ($Id: //depot/dev/client3/rdock/2013.1/src/exe/rbdock.cxx#4 $)

>  <Rbt.Library>
libRbt.so (2013.1, Build901 2013/11/27)

>  <Rbt.Parameter_File>
/export/apps/rDock/src/rDock_2013.1_src/data/scripts/dock_solv.prm

>  <Rbt.Receptor>
prm/pocket_docking_6.prm

>  <SCORE>
-18.6105

>  <SCORE.INTER>
-18.6105

>  <SCORE.INTER.CONST>
1

>  <SCORE.INTER.POLAR>
0

>  <SCORE.INTER.ROT>
0

>  <SCORE.INTER.SOLV>
3.55733

>  <SCORE.INTER.VDW>
-17.1928

>  <SCORE.INTER.norm>
-1.86105

>  <SCORE.INTRA>
0

>  <SCORE.INTRA.DIHEDRAL>
0

>  <SCORE.INTRA.DIHEDRAL.0>
0

>  <SCORE.INTRA.POLAR>
0

>  <SCORE.INTRA.POLAR.0>
0

>  <SCORE.INTRA.REPUL>
0

>  <SCORE.INTRA.REPUL.0>
0

>  <SCORE.INTRA.SOLV>
0

>  <SCORE.INTRA.SOLV.lig_0>
-4.28148

>  <SCORE.INTRA.VDW>
0

>  <SCORE.INTRA.VDW.0>
0

>  <SCORE.INTRA.norm>
0

>  <SCORE.RESTR>
0

>  <SCORE.RESTR.CAVITY>
0

>  <SCORE.RESTR.norm>
0

>  <SCORE.SYSTEM>
0

>  <SCORE.SYSTEM.CONST>
0

>  <SCORE.SYSTEM.DIHEDRAL>
0

>  <SCORE.SYSTEM.SOLV>
0

>  <SCORE.SYSTEM.norm>
0

>  <SCORE.heavy>
10

>  <SCORE.norm>
-1.86105

>  <RMSD>
0.875

$$$$
ligand
 OpenBabel11021811423D
libRbt.so/2013.1/901 2013/11/27
 10 11  0  0  0  0  0  0  0  0999 V2000
   11.7884   10.9862    8.4208 N   0  0  0  0  0  0  0  0  0  0  0  0
   11.4491   12.2999    8.6749 C   0  0  0  0  0  0  0  0  0  0  0  0
   11.0765   13.1395    7.7010 N   0  0  0  0  0  0  0  0  0  0  0  0
   11.0742   12.5635    6.4658 C   0  0  0  0  0  0  0  0  0  0  0  0
   11.4043   11.2558    6.1437 C   0  0  0  0  0  0  0  0  0  0  0  0
   11.7985   10.3584    7.1732 C   0  0  0  0  0  0  0  0  0  0  0  0
   12.1278    9.1736    7.1139 O   0  0  0  0  0  0  0  0  0  0  0  0
   11.2677   11.0956    4.7858 N   0  0  0  0  0  0  0  0  0  0  0  0
   10.8603   12.2906    4.2975 C   0  0  0  0  0  0  0  0  0  0  0  0
   10.7327   13.2168    5.3064 N   0  0  0  0  0  0  0  0  0  0  0  0
  1  2  1  0  0  0  0
  1  6  1  0  0  0  0
  2  3  2  0  0  0  0
  3  4  1  0  0  0  0
  4  5  2  0  0  0  0
  4 10  1  0  0  0  0
  5  6  1  0  0  0  0
  5  8  1  0  0  0  0
  6  7  2  0  0  0  0
  8  9  1  0  0  0  0
  9 10  2  0  0  0  0
M  END
>  <CHROM.1>
11.37263232,11.59205367,6.62026115,0.49509855,-1.26542338,1.12890150

>  <Name>
ligand

>  <RI>
0

>  <Rbt.Current_Directory>
/home/itssahil/PROJECTS/Mol_Feturizer/New_Systems/rnas/2EEU

>  <Rbt.Executable>
rbdock ($Id: //depot/dev/client3/rdock/2013.1/src/exe/rbdock.cxx#4 $)

>  <Rbt.Library>
libRbt.so (2013.1, Build901 2013/11/27)

>  <Rbt.Parameter_File>
/export/apps/rDock/src/rDock_2013.1_src/data/scripts/dock_solv.prm

>  <Rbt.Receptor>
prm/pocket_docking_7.prm

>  <SCORE>
-18.6132

>  <SCORE.INTER>
-18.6132

>  <SCORE.INTER.CONST>
1

>  <SCORE.INTER.POLAR>
0

>  <SCORE.INTER.ROT>
0

>  <SCORE.INTER.SOLV>
3.5508

>  <SCORE.INTER.VDW>
-17.1924

>  <SCORE.INTER.norm>
-1.86132

>  <SCORE.INTRA>
0

>  <SCORE.INTRA.DIHEDRAL>
0

>  <SCORE.INTRA.DIHEDRAL.0>
0

>  <SCORE.INTRA.POLAR>
0

>  <SCORE.INTRA.POLAR.0>
0

>  <SCORE.INTRA.REPUL>
0

>  <SCORE.INTRA.REPUL.0>
0

>  <SCORE.INTRA.SOLV>
0

>  <SCORE.INTRA.SOLV.lig_0>
-4.28148

>  <SCORE.INTRA.VDW>
0

>  <SCORE.INTRA.VDW.0>
0

>  <SCORE.INTRA.norm>
0

>  <SCORE.RESTR>
0

>  <SCORE.RESTR.CAVITY>
0

>  <SCORE.RESTR.norm>
0

>  <SCORE.SYSTEM>
0

>  <SCORE.SYSTEM.CONST>
0

>  <SCORE.SYSTEM.DIHEDRAL>
0

>  <SCORE.SYSTEM.SOLV>
0

>  <SCORE.SYSTEM.norm>
0

>  <SCORE.heavy>
10

>  <SCORE.norm>
-1.86132

>  <RMSD>
0.875

$$$$
ligand
 OpenBabel11021811423D
libRbt.so/2013.1/901 2013/11/27
 10 11  0  0  0  0  0  0  0  0999 V2000
   11.7817   10.9842    8.4215 N   0  0  0  0  0  0  0  0  0  0  0  0
   11.4424   12.2980    8.6754 C   0  0  0  0  0  0  0  0  0  0  0  0
   11.0731   13.1384    7.7009 N   0  0  0  0  0  0  0  0  0  0  0  0
   11.0741   12.5631    6.4654 C   0  0  0  0  0  0  0  0  0  0  0  0
   11.4043   11.2553    6.1435 C   0  0  0  0  0  0  0  0  0  0  0  0
   11.7950   10.3571    7.1736 C   0  0  0  0  0  0  0  0  0  0  0  0
   12.1237    9.1722    7.1146 O   0  0  0  0  0  0  0  0  0  0  0  0
   11.2715   11.0960    4.7851 N   0  0  0  0  0  0  0  0  0  0  0  0
   10.8661   12.2915    4.2963 C   0  0  0  0  0  0  0  0  0  0  0  0
   10.7363   13.2172    5.3053 N   0  0  0  0  0  0  0  0  0  0  0  0
  1  2  1  0  0  0  0
  1  6  1  0  0  0  0
  2  3  2  0  0  0  0
  3  4  1  0  0  0  0
  4  5  2  0  0  0  0
  4 10  1  0  0  0  0
  5  6  1  0  0  0  0
  5  8  1  0  0  0  0
  6  7  2  0  0  0  0
  8  9  1  0  0  0  0
  9 10  2  0  0  0  0
M  END
>  <CHROM.1>
11.37144605,11.59136066,6.62013046,0.50292837,-1.26717326,1.13692702

>  <Name>
ligand

>  <RI>
0

>  <Rbt.Current_Directory>
/home/itssahil/PROJECTS/Mol_Feturizer/New_Systems/rnas/2EEU

>  <Rbt.Executable>
rbdock ($Id: //depot/dev/client3/rdock/2013.1/src/exe/rbdock.cxx#4 $)

>  <Rbt.Library>
libRbt.so (2013.1, Build901 2013/11/27)

>  <Rbt.Parameter_File>
/export/apps/rDock/src/rDock_2013.1_src/data/scripts/dock_solv.prm

>  <Rbt.Receptor>
prm/blind_docking_40.prm

>  <SCORE>
-18.6107

>  <SCORE.INTER>
-18.6107

>  <SCORE.INTER.CONST>
1

>  <SCORE.INTER.POLAR>
0

>  <SCORE.INTER.ROT>
0

>  <SCORE.INTER.SOLV>
3.55891

>  <SCORE.INTER.VDW>
-17.1935

>  <SCORE.INTER.norm>
-1.86107

>  <SCORE.INTRA>
0

>  <SCORE.INTRA.DIHEDRAL>
0

>  <SCORE.INTRA.DIHEDRAL.0>
0

>  <SCORE.INTRA.POLAR>
0

>  <SCORE.INTRA.POLAR.0>
0

>  <SCORE.INTRA.REPUL>
0

>  <SCORE.INTRA.REPUL.0>
0

>  <SCORE.INTRA.SOLV>
0

>  <SCORE.INTRA.SOLV.lig_0>
-4.28148

>  <SCORE.INTRA.VDW>
0

>  <SCORE.INTRA.VDW.0>
0

>  <SCORE.INTRA.norm>
0

>  <SCORE.RESTR>
0

>  <SCORE.RESTR.CAVITY>
0

>  <SCORE.RESTR.norm>
0

>  <SCORE.SYSTEM>
0

>  <SCORE.SYSTEM.CONST>
0

>  <SCORE.SYSTEM.DIHEDRAL>
0

>  <SCORE.SYSTEM.SOLV>
0

>  <SCORE.SYSTEM.norm>
0

>  <SCORE.heavy>
10

>  <SCORE.norm>
-1.86107

>  <RMSD>
0.876

$$$$
ligand
 OpenBabel11021811423D
libRbt.so/2013.1/901 2013/11/27
 10 11  0  0  0  0  0  0  0  0999 V2000
   11.7953   10.9934    8.4184 N   0  0  0  0  0  0  0  0  0  0  0  0
   11.4631   12.3099    8.6676 C   0  0  0  0  0  0  0  0  0  0  0  0
   11.0879   13.1459    7.6915 N   0  0  0  0  0  0  0  0  0  0  0  0
   11.0755   12.5633    6.4595 C   0  0  0  0  0  0  0  0  0  0  0  0
   11.3981   11.2525    6.1424 C   0  0  0  0  0  0  0  0  0  0  0  0
   11.7950   10.3589    7.1741 C   0  0  0  0  0  0  0  0  0  0  0  0
   12.1189    9.1725    7.1191 O   0  0  0  0  0  0  0  0  0  0  0  0
   11.2523   11.0857    4.7862 N   0  0  0  0  0  0  0  0  0  0  0  0
   10.8468   12.2798    4.2941 C   0  0  0  0  0  0  0  0  0  0  0  0
   10.7295   13.2119    5.2987 N   0  0  0  0  0  0  0  0  0  0  0  0
  1  2  1  0  0  0  0
  1  6  1  0  0  0  0
  2  3  2  0  0  0  0
  3  4  1  0  0  0  0
  4  5  2  0  0  0  0
  4 10  1  0  0  0  0
  5  6  1  0  0  0  0
  5  8  1  0  0  0  0
  6  7  2  0  0  0  0
  8  9  1  0  0  0  0
  9 10  2  0  0  0  0
M  END
>  <CHROM.1>
11.37082136,11.59147387,6.61726045,0.47020809,-1.26644327,1.09983284

>  <Name>
ligand

>  <RI>
0

>  <Rbt.Current_Directory>
/home/itssahil/PROJECTS/Mol_Feturizer/New_Systems/rnas/2EEU

>  <Rbt.Executable>
rbdock ($Id: //depot/dev/client3/rdock/2013.1/src/exe/rbdock.cxx#4 $)

>  <Rbt.Library>
libRbt.so (2013.1, Build901 2013/11/27)

>  <Rbt.Parameter_File>
/export/apps/rDock/src/rDock_2013.1_src/data/scripts/dock_solv.prm

>  <Rbt.Receptor>
prm/pocket_docking_4.prm

>  <SCORE>
-18.6089

>  <SCORE.INTER>
-18.6089

>  <SCORE.INTER.CONST>
1

>  <SCORE.INTER.POLAR>
0

>  <SCORE.INTER.ROT>
0

>  <SCORE.INTER.SOLV>
3.55406

>  <SCORE.INTER.VDW>
-17.1906

>  <SCORE.INTER.norm>
-1.86089

>  <SCORE.INTRA>
0

>  <SCORE.INTRA.DIHEDRAL>
0

>  <SCORE.INTRA.DIHEDRAL.0>
0

>  <SCORE.INTRA.POLAR>
0

>  <SCORE.INTRA.POLAR.0>
0

>  <SCORE.INTRA.REPUL>
0

>  <SCORE.INTRA.REPUL.0>
0

>  <SCORE.INTRA.SOLV>
0

>  <SCORE.INTRA.SOLV.lig_0>
-4.28148

>  <SCORE.INTRA.VDW>
0

>  <SCORE.INTRA.VDW.0>
0

>  <SCORE.INTRA.norm>
0

>  <SCORE.RESTR>
0

>  <SCORE.RESTR.CAVITY>
0

>  <SCORE.RESTR.norm>
0

>  <SCORE.SYSTEM>
0

>  <SCORE.SYSTEM.CONST>
0

>  <SCORE.SYSTEM.DIHEDRAL>
0

>  <SCORE.SYSTEM.SOLV>
0

>  <SCORE.SYSTEM.norm>
0

>  <SCORE.heavy>
10

>  <SCORE.norm>
-1.86089

>  <RMSD>
0.876

$$$$
ligand
 OpenBabel11021811423D
libRbt.so/2013.1/901 2013/11/27
 10 11  0  0  0  0  0  0  0  0999 V2000
   11.8162   11.0031    8.4093 N   0  0  0  0  0  0  0  0  0  0  0  0
   11.5193   12.3278    8.6595 C   0  0  0  0  0  0  0  0  0  0  0  0
   11.1520   13.1705    7.6863 N   0  0  0  0  0  0  0  0  0  0  0  0
   11.1096   12.5858    6.4560 C   0  0  0  0  0  0  0  0  0  0  0  0
   11.3961   11.2669    6.1379 C   0  0  0  0  0  0  0  0  0  0  0  0
   11.7845   10.3661    7.1667 C   0  0  0  0  0  0  0  0  0  0  0  0
   12.0788    9.1721    7.1105 O   0  0  0  0  0  0  0  0  0  0  0  0
   11.2289   11.1007    4.7841 N   0  0  0  0  0  0  0  0  0  0  0  0
   10.8463   12.3033    4.2943 C   0  0  0  0  0  0  0  0  0  0  0  0
   10.7645   13.2400    5.2981 N   0  0  0  0  0  0  0  0  0  0  0  0
  1  2  1  0  0  0  0
  1  6  1  0  0  0  0
  2  3  2  0  0  0  0
  3  4  1  0  0  0  0
  4  5  2  0  0  0  0
  4 10  1  0  0  0  0
  5  6  1  0  0  0  0
  5  8  1  0  0  0  0
  6  7  2  0  0  0  0
  8  9  1  0  0  0  0
  9 10  2  0  0  0  0
M  END
>  <CHROM.1>
11.38323355,11.60739651,6.61231238,0.39136265,-1.28138921,1.02210556

>  <Name>
ligand

>  <RI>
0

>  <Rbt.Current_Directory>
/home/itssahil/PROJECTS/Mol_Feturizer/New_Systems/rnas/2EEU

>  <Rbt.Executable>
rbdock ($Id: //depot/dev/client3/rdock/2013.1/src/exe/rbdock.cxx#4 $)

>  <Rbt.Library>
libRbt.so (2013.1, Build901 2013/11/27)

>  <Rbt.Parameter_File>
/export/apps/rDock/src/rDock_2013.1_src/data/scripts/dock_solv.prm

>  <Rbt.Receptor>
prm/pocket_docking_6.prm

>  <SCORE>
-18.6025

>  <SCORE.INTER>
-18.6025

>  <SCORE.INTER.CONST>
1

>  <SCORE.INTER.POLAR>
0

>  <SCORE.INTER.ROT>
0

>  <SCORE.INTER.SOLV>
3.5942

>  <SCORE.INTER.VDW>
-17.1997

>  <SCORE.INTER.norm>
-1.86025

>  <SCORE.INTRA>
0

>  <SCORE.INTRA.DIHEDRAL>
0

>  <SCORE.INTRA.DIHEDRAL.0>
0

>  <SCORE.INTRA.POLAR>
0

>  <SCORE.INTRA.POLAR.0>
0

>  <SCORE.INTRA.REPUL>
0

>  <SCORE.INTRA.REPUL.0>
0

>  <SCORE.INTRA.SOLV>
0

>  <SCORE.INTRA.SOLV.lig_0>
-4.28148

>  <SCORE.INTRA.VDW>
0

>  <SCORE.INTRA.VDW.0>
0

>  <SCORE.INTRA.norm>
0

>  <SCORE.RESTR>
0

>  <SCORE.RESTR.CAVITY>
0

>  <SCORE.RESTR.norm>
0

>  <SCORE.SYSTEM>
0

>  <SCORE.SYSTEM.CONST>
0

>  <SCORE.SYSTEM.DIHEDRAL>
0

>  <SCORE.SYSTEM.SOLV>
0

>  <SCORE.SYSTEM.norm>
0

>  <SCORE.heavy>
10

>  <SCORE.norm>
-1.86025

>  <RMSD>
0.876

$$$$
ligand
 OpenBabel11021811423D
libRbt.so/2013.1/901 2013/11/27
 10 11  0  0  0  0  0  0  0  0999 V2000
   11.7626   10.9871    8.4288 N   0  0  0  0  0  0  0  0  0  0  0  0
   11.4218   12.3016    8.6770 C   0  0  0  0  0  0  0  0  0  0  0  0
   11.0621   13.1403    7.6975 N   0  0  0  0  0  0  0  0  0  0  0  0
   11.0742   12.5627    6.4632 C   0  0  0  0  0  0  0  0  0  0  0  0
   11.4066   11.2542    6.1468 C   0  0  0  0  0  0  0  0  0  0  0  0
   11.7872   10.3577    7.1821 C   0  0  0  0  0  0  0  0  0  0  0  0
   12.1157    9.1725    7.1284 O   0  0  0  0  0  0  0  0  0  0  0  0
   11.2865   11.0924    4.7875 N   0  0  0  0  0  0  0  0  0  0  0  0
   10.8864   12.2873    4.2928 C   0  0  0  0  0  0  0  0  0  0  0  0
   10.7477   13.2149    5.2988 N   0  0  0  0  0  0  0  0  0  0  0  0
  1  2  1  0  0  0  0
  1  6  1  0  0  0  0
  2  3  2  0  0  0  0
  3  4  1  0  0  0  0
  4  5  2  0  0  0  0
  4 10  1  0  0  0  0
  5  6  1  0  0  0  0
  5  8  1  0  0  0  0
  6  7  2  0  0  0  0
  8  9  1  0  0  0  0
  9 10  2  0  0  0  0
M  END
>  <CHROM.1>
11.36957663,11.59115707,6.62246282,0.53084788,-1.27154294,1.16173557

>  <Name>
ligand

>  <RI>
0

>  <Rbt.Current_Directory>
/home/itssahil/PROJECTS/Mol_Feturizer/New_Systems/rnas/2EEU

>  <Rbt.Executable>
rbdock ($Id: //depot/dev/client3/rdock/2013.1/src/exe/rbdock.cxx#4 $)

>  <Rbt.Library>
libRbt.so (2013.1, Build901 2013/11/27)

>  <Rbt.Parameter_File>
/export/apps/rDock/src/rDock_2013.1_src/data/scripts/dock_solv.prm

>  <Rbt.Receptor>
prm/pocket_docking_7.prm

>  <SCORE>
-18.5965

>  <SCORE.INTER>
-18.5965

>  <SCORE.INTER.CONST>
1

>  <SCORE.INTER.POLAR>
0

>  <SCORE.INTER.ROT>
0

>  <SCORE.INTER.SOLV>
3.57454

>  <SCORE.INTER.VDW>
-17.1892

>  <SCORE.INTER.norm>
-1.85965

>  <SCORE.INTRA>
0

>  <SCORE.INTRA.DIHEDRAL>
0

>  <SCORE.INTRA.DIHEDRAL.0>
0

>  <SCORE.INTRA.POLAR>
0

>  <SCORE.INTRA.POLAR.0>
0

>  <SCORE.INTRA.REPUL>
0

>  <SCORE.INTRA.REPUL.0>
0

>  <SCORE.INTRA.SOLV>
0

>  <SCORE.INTRA.SOLV.lig_0>
-4.28148

>  <SCORE.INTRA.VDW>
0

>  <SCORE.INTRA.VDW.0>
0

>  <SCORE.INTRA.norm>
0

>  <SCORE.RESTR>
0

>  <SCORE.RESTR.CAVITY>
0

>  <SCORE.RESTR.norm>
0

>  <SCORE.SYSTEM>
0

>  <SCORE.SYSTEM.CONST>
0

>  <SCORE.SYSTEM.DIHEDRAL>
0

>  <SCORE.SYSTEM.SOLV>
0

>  <SCORE.SYSTEM.norm>
0

>  <SCORE.heavy>
10

>  <SCORE.norm>
-1.85965

>  <RMSD>
0.876

$$$$
ligand
 OpenBabel11021811423D
libRbt.so/2013.1/901 2013/11/27
 10 11  0  0  0  0  0  0  0  0999 V2000
   11.7874   10.9922    8.4216 N   0  0  0  0  0  0  0  0  0  0  0  0
   11.4551   12.3092    8.6681 C   0  0  0  0  0  0  0  0  0  0  0  0
   11.0866   13.1450    7.6894 N   0  0  0  0  0  0  0  0  0  0  0  0
   11.0809   12.5618    6.4576 C   0  0  0  0  0  0  0  0  0  0  0  0
   11.4040   11.2505    6.1431 C   0  0  0  0  0  0  0  0  0  0  0  0
   11.7938   10.3571    7.1777 C   0  0  0  0  0  0  0  0  0  0  0  0
   12.1168    9.1703    7.1253 O   0  0  0  0  0  0  0  0  0  0  0  0
   11.2661   11.0831    4.7862 N   0  0  0  0  0  0  0  0  0  0  0  0
   10.8648   12.2773    4.2910 C   0  0  0  0  0  0  0  0  0  0  0  0
   10.7425   13.2100    5.2944 N   0  0  0  0  0  0  0  0  0  0  0  0
  1  2  1  0  0  0  0
  1  6  1  0  0  0  0
  2  3  2  0  0  0  0
  3  4  1  0  0  0  0
  4  5  2  0  0  0  0
  4 10  1  0  0  0  0
  5  6  1  0  0  0  0
  5  8  1  0  0  0  0
  6  7  2  0  0  0  0
  8  9  1  0  0  0  0
  9 10  2  0  0  0  0
M  END
>  <CHROM.1>
11.37423851,11.58971189,6.61767105,0.48658873,-1.27004002,1.11491044

>  <Name>
ligand

>  <RI>
0

>  <Rbt.Current_Directory>
/home/itssahil/PROJECTS/Mol_Feturizer/New_Systems/rnas/2EEU

>  <Rbt.Executable>
rbdock ($Id: //depot/dev/client3/rdock/2013.1/src/exe/rbdock.cxx#4 $)

>  <Rbt.Library>
libRbt.so (2013.1, Build901 2013/11/27)

>  <Rbt.Parameter_File>
/export/apps/rDock/src/rDock_2013.1_src/data/scripts/dock_solv.prm

>  <Rbt.Receptor>
prm/blind_docking_80.prm

>  <SCORE>
-18.6091

>  <SCORE.INTER>
-18.6091

>  <SCORE.INTER.CONST>
1

>  <SCORE.INTER.POLAR>
0

>  <SCORE.INTER.ROT>
0

>  <SCORE.INTER.SOLV>
3.56199

>  <SCORE.INTER.VDW>
-17.1934

>  <SCORE.INTER.norm>
-1.86091

>  <SCORE.INTRA>
0

>  <SCORE.INTRA.DIHEDRAL>
0

>  <SCORE.INTRA.DIHEDRAL.0>
0

>  <SCORE.INTRA.POLAR>
0

>  <SCORE.INTRA.POLAR.0>
0

>  <SCORE.INTRA.REPUL>
0

>  <SCORE.INTRA.REPUL.0>
0

>  <SCORE.INTRA.SOLV>
0

>  <SCORE.INTRA.SOLV.lig_0>
-4.28148

>  <SCORE.INTRA.VDW>
0

>  <SCORE.INTRA.VDW.0>
0

>  <SCORE.INTRA.norm>
0

>  <SCORE.RESTR>
0

>  <SCORE.RESTR.CAVITY>
0

>  <SCORE.RESTR.norm>
0

>  <SCORE.SYSTEM>
0

>  <SCORE.SYSTEM.CONST>
0

>  <SCORE.SYSTEM.DIHEDRAL>
0

>  <SCORE.SYSTEM.SOLV>
0

>  <SCORE.SYSTEM.norm>
0

>  <SCORE.heavy>
10

>  <SCORE.norm>
-1.86091

>  <RMSD>
0.877

$$$$
ligand
 OpenBabel11021811423D
libRbt.so/2013.1/901 2013/11/27
 10 11  0  0  0  0  0  0  0  0999 V2000
   11.8181   11.0037    8.4107 N   0  0  0  0  0  0  0  0  0  0  0  0
   11.4978   12.3236    8.6572 C   0  0  0  0  0  0  0  0  0  0  0  0
   11.1221   13.1588    7.6807 N   0  0  0  0  0  0  0  0  0  0  0  0
   11.0964   12.5717    6.4510 C   0  0  0  0  0  0  0  0  0  0  0  0
   11.4067   11.2573    6.1366 C   0  0  0  0  0  0  0  0  0  0  0  0
   11.8041   10.3646    7.1688 C   0  0  0  0  0  0  0  0  0  0  0  0
   12.1185    9.1755    7.1160 O   0  0  0  0  0  0  0  0  0  0  0  0
   11.2500   11.0865    4.7821 N   0  0  0  0  0  0  0  0  0  0  0  0
   10.8502   12.2819    4.2883 C   0  0  0  0  0  0  0  0  0  0  0  0
   10.7472   13.2185    5.2902 N   0  0  0  0  0  0  0  0  0  0  0  0
  1  2  1  0  0  0  0
  1  6  1  0  0  0  0
  2  3  2  0  0  0  0
  3  4  1  0  0  0  0
  4  5  2  0  0  0  0
  4 10  1  0  0  0  0
  5  6  1  0  0  0  0
  5  8  1  0  0  0  0
  6  7  2  0  0  0  0
  8  9  1  0  0  0  0
  9 10  2  0  0  0  0
M  END
>  <CHROM.1>
11.38540580,11.59822666,6.61034382,0.43711783,-1.26988085,1.06446507

>  <Name>
ligand

>  <RI>
0

>  <Rbt.Current_Directory>
/home/itssahil/PROJECTS/Mol_Feturizer/New_Systems/rnas/2EEU

>  <Rbt.Executable>
rbdock ($Id: //depot/dev/client3/rdock/2013.1/src/exe/rbdock.cxx#4 $)

>  <Rbt.Library>
libRbt.so (2013.1, Build901 2013/11/27)

>  <Rbt.Parameter_File>
/export/apps/rDock/src/rDock_2013.1_src/data/scripts/dock_solv.prm

>  <Rbt.Receptor>
prm/pocket_docking_6.prm

>  <SCORE>
-18.5836

>  <SCORE.INTER>
-18.5836

>  <SCORE.INTER.CONST>
1

>  <SCORE.INTER.POLAR>
0

>  <SCORE.INTER.ROT>
0

>  <SCORE.INTER.SOLV>
3.54998

>  <SCORE.INTER.VDW>
-17.1724

>  <SCORE.INTER.norm>
-1.85836

>  <SCORE.INTRA>
0

>  <SCORE.INTRA.DIHEDRAL>
0

>  <SCORE.INTRA.DIHEDRAL.0>
0

>  <SCORE.INTRA.POLAR>
0

>  <SCORE.INTRA.POLAR.0>
0

>  <SCORE.INTRA.REPUL>
0

>  <SCORE.INTRA.REPUL.0>
0

>  <SCORE.INTRA.SOLV>
0

>  <SCORE.INTRA.SOLV.lig_0>
-4.28148

>  <SCORE.INTRA.VDW>
0

>  <SCORE.INTRA.VDW.0>
0

>  <SCORE.INTRA.norm>
0

>  <SCORE.RESTR>
0

>  <SCORE.RESTR.CAVITY>
0

>  <SCORE.RESTR.norm>
0

>  <SCORE.SYSTEM>
0

>  <SCORE.SYSTEM.CONST>
0

>  <SCORE.SYSTEM.DIHEDRAL>
0

>  <SCORE.SYSTEM.SOLV>
0

>  <SCORE.SYSTEM.norm>
0

>  <SCORE.heavy>
10

>  <SCORE.norm>
-1.85836

>  <RMSD>
0.877

$$$$
ligand
 OpenBabel11021811423D
libRbt.so/2013.1/901 2013/11/27
 10 11  0  0  0  0  0  0  0  0999 V2000
   11.8693   11.3232    8.4315 N   0  0  0  0  0  0  0  0  0  0  0  0
   11.6311   12.6755    8.5731 C   0  0  0  0  0  0  0  0  0  0  0  0
   11.2691   13.4461    7.5399 N   0  0  0  0  0  0  0  0  0  0  0  0
   11.1690   12.7603    6.3664 C   0  0  0  0  0  0  0  0  0  0  0  0
   11.3950   11.4083    6.1570 C   0  0  0  0  0  0  0  0  0  0  0  0
   11.7774   10.5839    7.2500 C   0  0  0  0  0  0  0  0  0  0  0  0
   12.0235    9.3783    7.2902 O   0  0  0  0  0  0  0  0  0  0  0  0
   11.1829   11.1337    4.8274 N   0  0  0  0  0  0  0  0  0  0  0  0
   10.8332   12.3046    4.2448 C   0  0  0  0  0  0  0  0  0  0  0  0
   10.8165   13.3265    5.1652 N   0  0  0  0  0  0  0  0  0  0  0  0
  1  2  1  0  0  0  0
  1  6  1  0  0  0  0
  2  3  2  0  0  0  0
  3  4  1  0  0  0  0
  4  5  2  0  0  0  0
  4 10  1  0  0  0  0
  5  6  1  0  0  0  0
  5  8  1  0  0  0  0
  6  7  2  0  0  0  0
  8  9  1  0  0  0  0
  9 10  2  0  0  0  0
M  END
>  <CHROM.1>
11.40883102,11.78847945,6.60020279,0.22636839,-1.29600075,0.77719169

>  <Name>
ligand

>  <RI>
0

>  <Rbt.Current_Directory>
/home/itssahil/PROJECTS/Mol_Feturizer/New_Systems/rnas/2EEU

>  <Rbt.Executable>
rbdock ($Id: //depot/dev/client3/rdock/2013.1/src/exe/rbdock.cxx#4 $)

>  <Rbt.Library>
libRbt.so (2013.1, Build901 2013/11/27)

>  <Rbt.Parameter_File>
/export/apps/rDock/src/rDock_2013.1_src/data/scripts/dock_solv.prm

>  <Rbt.Receptor>
prm/pocket_docking_6.prm

>  <SCORE>
-18.4886

>  <SCORE.INTER>
-18.4886

>  <SCORE.INTER.CONST>
1

>  <SCORE.INTER.POLAR>
0

>  <SCORE.INTER.ROT>
0

>  <SCORE.INTER.SOLV>
3.58659

>  <SCORE.INTER.VDW>
-17.1213

>  <SCORE.INTER.norm>
-1.84886

>  <SCORE.INTRA>
0

>  <SCORE.INTRA.DIHEDRAL>
0

>  <SCORE.INTRA.DIHEDRAL.0>
0

>  <SCORE.INTRA.POLAR>
0

>  <SCORE.INTRA.POLAR.0>
0

>  <SCORE.INTRA.REPUL>
0

>  <SCORE.INTRA.REPUL.0>
0

>  <SCORE.INTRA.SOLV>
0

>  <SCORE.INTRA.SOLV.lig_0>
-4.28148

>  <SCORE.INTRA.VDW>
0

>  <SCORE.INTRA.VDW.0>
0

>  <SCORE.INTRA.norm>
0

>  <SCORE.RESTR>
0

>  <SCORE.RESTR.CAVITY>
0

>  <SCORE.RESTR.norm>
0

>  <SCORE.SYSTEM>
0

>  <SCORE.SYSTEM.CONST>
0

>  <SCORE.SYSTEM.DIHEDRAL>
0

>  <SCORE.SYSTEM.SOLV>
0

>  <SCORE.SYSTEM.norm>
0

>  <SCORE.heavy>
10

>  <SCORE.norm>
-1.84886

>  <RMSD>
0.877

$$$$
ligand
 OpenBabel11021811423D
libRbt.so/2013.1/901 2013/11/27
 10 11  0  0  0  0  0  0  0  0999 V2000
   11.7858   10.9855    8.4179 N   0  0  0  0  0  0  0  0  0  0  0  0
   11.4460   12.2990    8.6726 C   0  0  0  0  0  0  0  0  0  0  0  0
   11.0742   13.1392    7.6990 N   0  0  0  0  0  0  0  0  0  0  0  0
   11.0732   12.5642    6.4634 C   0  0  0  0  0  0  0  0  0  0  0  0
   11.4038   11.2567    6.1407 C   0  0  0  0  0  0  0  0  0  0  0  0
   11.7972   10.3586    7.1698 C   0  0  0  0  0  0  0  0  0  0  0  0
   12.1267    9.1740    7.1100 O   0  0  0  0  0  0  0  0  0  0  0  0
   11.2686   11.0975    4.7824 N   0  0  0  0  0  0  0  0  0  0  0  0
   10.8614   12.2928    4.2947 C   0  0  0  0  0  0  0  0  0  0  0  0
   10.7328   13.2182    5.3040 N   0  0  0  0  0  0  0  0  0  0  0  0
  1  2  1  0  0  0  0
  1  6  1  0  0  0  0
  2  3  2  0  0  0  0
  3  4  1  0  0  0  0
  4  5  2  0  0  0  0
  4 10  1  0  0  0  0
  5  6  1  0  0  0  0
  5  8  1  0  0  0  0
  6  7  2  0  0  0  0
  8  9  1  0  0  0  0
  9 10  2  0  0  0  0
M  END
>  <CHROM.1>
11.37164656,11.59264633,6.61738273,0.49827975,-1.26570191,1.13266442

>  <Name>
ligand

>  <RI>
0

>  <Rbt.Current_Directory>
/home/itssahil/PROJECTS/Mol_Feturizer/New_Systems/rnas/2EEU

>  <Rbt.Executable>
rbdock ($Id: //depot/dev/client3/rdock/2013.1/src/exe/rbdock.cxx#4 $)

>  <Rbt.Library>
libRbt.so (2013.1, Build901 2013/11/27)

>  <Rbt.Parameter_File>
/export/apps/rDock/src/rDock_2013.1_src/data/scripts/dock_solv.prm

>  <Rbt.Receptor>
prm/blind_docking_100.prm

>  <SCORE>
-18.6095

>  <SCORE.INTER>
-18.6095

>  <SCORE.INTER.CONST>
1

>  <SCORE.INTER.POLAR>
0

>  <SCORE.INTER.ROT>
0

>  <SCORE.INTER.SOLV>
3.55508

>  <SCORE.INTER.VDW>
-17.1914

>  <SCORE.INTER.norm>
-1.86095

>  <SCORE.INTRA>
0

>  <SCORE.INTRA.DIHEDRAL>
0

>  <SCORE.INTRA.DIHEDRAL.0>
0

>  <SCORE.INTRA.POLAR>
0

>  <SCORE.INTRA.POLAR.0>
0

>  <SCORE.INTRA.REPUL>
0

>  <SCORE.INTRA.REPUL.0>
0

>  <SCORE.INTRA.SOLV>
0

>  <SCORE.INTRA.SOLV.lig_0>
-4.28148

>  <SCORE.INTRA.VDW>
0

>  <SCORE.INTRA.VDW.0>
0

>  <SCORE.INTRA.norm>
0

>  <SCORE.RESTR>
0

>  <SCORE.RESTR.CAVITY>
0

>  <SCORE.RESTR.norm>
0

>  <SCORE.SYSTEM>
0

>  <SCORE.SYSTEM.CONST>
0

>  <SCORE.SYSTEM.DIHEDRAL>
0

>  <SCORE.SYSTEM.SOLV>
0

>  <SCORE.SYSTEM.norm>
0

>  <SCORE.heavy>
10

>  <SCORE.norm>
-1.86095

>  <RMSD>
0.878

$$$$
ligand
 OpenBabel11021811423D
libRbt.so/2013.1/901 2013/11/27
 10 11  0  0  0  0  0  0  0  0999 V2000
   11.8222   10.9567    8.4061 N   0  0  0  0  0  0  0  0  0  0  0  0
   11.5046   12.2734    8.6721 C   0  0  0  0  0  0  0  0  0  0  0  0
   11.1279   13.1230    7.7085 N   0  0  0  0  0  0  0  0  0  0  0  0
   11.0984   12.5536    6.4706 C   0  0  0  0  0  0  0  0  0  0  0  0
   11.4058   11.2433    6.1367 C   0  0  0  0  0  0  0  0  0  0  0  0
   11.8042   10.3353    7.1552 C   0  0  0  0  0  0  0  0  0  0  0  0
   12.1166    9.1466    7.0848 O   0  0  0  0  0  0  0  0  0  0  0  0
   11.2456   11.0921    4.7803 N   0  0  0  0  0  0  0  0  0  0  0  0
   10.8466   12.2950    4.3046 C   0  0  0  0  0  0  0  0  0  0  0  0
   10.7475   13.2174    5.3200 N   0  0  0  0  0  0  0  0  0  0  0  0
  1  2  1  0  0  0  0
  1  6  1  0  0  0  0
  2  3  2  0  0  0  0
  3  4  1  0  0  0  0
  4  5  2  0  0  0  0
  4 10  1  0  0  0  0
  5  6  1  0  0  0  0
  5  8  1  0  0  0  0
  6  7  2  0  0  0  0
  8  9  1  0  0  0  0
  9 10  2  0  0  0  0
M  END
>  <CHROM.1>
11.38620279,11.57745984,6.61538134,0.42749168,-1.27013133,1.06951295

>  <Name>
ligand

>  <RI>
0

>  <Rbt.Current_Directory>
/home/itssahil/PROJECTS/Mol_Feturizer/New_Systems/rnas/2EEU

>  <Rbt.Executable>
rbdock ($Id: //depot/dev/client3/rdock/2013.1/src/exe/rbdock.cxx#4 $)

>  <Rbt.Library>
libRbt.so (2013.1, Build901 2013/11/27)

>  <Rbt.Parameter_File>
/export/apps/rDock/src/rDock_2013.1_src/data/scripts/dock_solv.prm

>  <Rbt.Receptor>
prm/blind_docking_80.prm

>  <SCORE>
-18.5898

>  <SCORE.INTER>
-18.5898

>  <SCORE.INTER.CONST>
1

>  <SCORE.INTER.POLAR>
0

>  <SCORE.INTER.ROT>
0

>  <SCORE.INTER.SOLV>
3.56134

>  <SCORE.INTER.VDW>
-17.1803

>  <SCORE.INTER.norm>
-1.85898

>  <SCORE.INTRA>
0

>  <SCORE.INTRA.DIHEDRAL>
0

>  <SCORE.INTRA.DIHEDRAL.0>
0

>  <SCORE.INTRA.POLAR>
0

>  <SCORE.INTRA.POLAR.0>
0

>  <SCORE.INTRA.REPUL>
0

>  <SCORE.INTRA.REPUL.0>
0

>  <SCORE.INTRA.SOLV>
0

>  <SCORE.INTRA.SOLV.lig_0>
-4.28148

>  <SCORE.INTRA.VDW>
0

>  <SCORE.INTRA.VDW.0>
0

>  <SCORE.INTRA.norm>
0

>  <SCORE.RESTR>
0

>  <SCORE.RESTR.CAVITY>
0

>  <SCORE.RESTR.norm>
0

>  <SCORE.SYSTEM>
0

>  <SCORE.SYSTEM.CONST>
0

>  <SCORE.SYSTEM.DIHEDRAL>
0

>  <SCORE.SYSTEM.SOLV>
0

>  <SCORE.SYSTEM.norm>
0

>  <SCORE.heavy>
10

>  <SCORE.norm>
-1.85898

>  <RMSD>
0.878

$$$$
ligand
 OpenBabel11021811423D
libRbt.so/2013.1/901 2013/11/27
 10 11  0  0  0  0  0  0  0  0999 V2000
   11.7932   10.9948    8.4197 N   0  0  0  0  0  0  0  0  0  0  0  0
   11.4618   12.3123    8.6646 C   0  0  0  0  0  0  0  0  0  0  0  0
   11.0918   13.1466    7.6852 N   0  0  0  0  0  0  0  0  0  0  0  0
   11.0837   12.5614    6.4544 C   0  0  0  0  0  0  0  0  0  0  0  0
   11.4058   11.2494    6.1415 C   0  0  0  0  0  0  0  0  0  0  0  0
   11.7972   10.3576    7.1768 C   0  0  0  0  0  0  0  0  0  0  0  0
   12.1197    9.1706    7.1257 O   0  0  0  0  0  0  0  0  0  0  0  0
   11.2655   11.0799    4.7850 N   0  0  0  0  0  0  0  0  0  0  0  0
   10.8637   12.2735    4.2887 C   0  0  0  0  0  0  0  0  0  0  0  0
   10.7434   13.2078    5.2908 N   0  0  0  0  0  0  0  0  0  0  0  0
  1  2  1  0  0  0  0
  1  6  1  0  0  0  0
  2  3  2  0  0  0  0
  3  4  1  0  0  0  0
  4  5  2  0  0  0  0
  4 10  1  0  0  0  0
  5  6  1  0  0  0  0
  5  8  1  0  0  0  0
  6  7  2  0  0  0  0
  8  9  1  0  0  0  0
  9 10  2  0  0  0  0
M  END
>  <CHROM.1>
11.37703341,11.58946010,6.61551386,0.48064214,-1.26953665,1.10760328

>  <Name>
ligand

>  <RI>
0

>  <Rbt.Current_Directory>
/home/itssahil/PROJECTS/Mol_Feturizer/New_Systems/rnas/2EEU

>  <Rbt.Executable>
rbdock ($Id: //depot/dev/client3/rdock/2013.1/src/exe/rbdock.cxx#4 $)

>  <Rbt.Library>
libRbt.so (2013.1, Build901 2013/11/27)

>  <Rbt.Parameter_File>
/export/apps/rDock/src/rDock_2013.1_src/data/scripts/dock_solv.prm

>  <Rbt.Receptor>
prm/pocket_docking_4.prm

>  <SCORE>
-18.6074

>  <SCORE.INTER>
-18.6074

>  <SCORE.INTER.CONST>
1

>  <SCORE.INTER.POLAR>
0

>  <SCORE.INTER.ROT>
0

>  <SCORE.INTER.SOLV>
3.55715

>  <SCORE.INTER.VDW>
-17.1907

>  <SCORE.INTER.norm>
-1.86074

>  <SCORE.INTRA>
0

>  <SCORE.INTRA.DIHEDRAL>
0

>  <SCORE.INTRA.DIHEDRAL.0>
0

>  <SCORE.INTRA.POLAR>
0

>  <SCORE.INTRA.POLAR.0>
0

>  <SCORE.INTRA.REPUL>
0

>  <SCORE.INTRA.REPUL.0>
0

>  <SCORE.INTRA.SOLV>
0

>  <SCORE.INTRA.SOLV.lig_0>
-4.28148

>  <SCORE.INTRA.VDW>
0

>  <SCORE.INTRA.VDW.0>
0

>  <SCORE.INTRA.norm>
0

>  <SCORE.RESTR>
0

>  <SCORE.RESTR.CAVITY>
0

>  <SCORE.RESTR.norm>
0

>  <SCORE.SYSTEM>
0

>  <SCORE.SYSTEM.CONST>
0

>  <SCORE.SYSTEM.DIHEDRAL>
0

>  <SCORE.SYSTEM.SOLV>
0

>  <SCORE.SYSTEM.norm>
0

>  <SCORE.heavy>
10

>  <SCORE.norm>
-1.86074

>  <RMSD>
0.878

$$$$
ligand
 OpenBabel11021811423D
libRbt.so/2013.1/901 2013/11/27
 10 11  0  0  0  0  0  0  0  0999 V2000
   11.7593   10.9808    8.4236 N   0  0  0  0  0  0  0  0  0  0  0  0
   11.4192   12.2946    8.6762 C   0  0  0  0  0  0  0  0  0  0  0  0
   11.0598   13.1368    7.6995 N   0  0  0  0  0  0  0  0  0  0  0  0
   11.0715   12.5632    6.4633 C   0  0  0  0  0  0  0  0  0  0  0  0
   11.4031   11.2555    6.1426 C   0  0  0  0  0  0  0  0  0  0  0  0
   11.7833   10.3554    7.1749 C   0  0  0  0  0  0  0  0  0  0  0  0
   12.1112    9.1702    7.1173 O   0  0  0  0  0  0  0  0  0  0  0  0
   11.2826   11.0982    4.7828 N   0  0  0  0  0  0  0  0  0  0  0  0
   10.8832   12.2949    4.2920 C   0  0  0  0  0  0  0  0  0  0  0  0
   10.7451   13.2193    5.3010 N   0  0  0  0  0  0  0  0  0  0  0  0
  1  2  1  0  0  0  0
  1  6  1  0  0  0  0
  2  3  2  0  0  0  0
  3  4  1  0  0  0  0
  4  5  2  0  0  0  0
  4 10  1  0  0  0  0
  5  6  1  0  0  0  0
  5  8  1  0  0  0  0
  6  7  2  0  0  0  0
  8  9  1  0  0  0  0
  9 10  2  0  0  0  0
M  END
>  <CHROM.1>
11.36630292,11.59091351,6.61935857,0.52959296,-1.27198270,1.16379009

>  <Name>
ligand

>  <RI>
0

>  <Rbt.Current_Directory>
/home/itssahil/PROJECTS/Mol_Feturizer/New_Systems/rnas/2EEU

>  <Rbt.Executable>
rbdock ($Id: //depot/dev/client3/rdock/2013.1/src/exe/rbdock.cxx#4 $)

>  <Rbt.Library>
libRbt.so (2013.1, Build901 2013/11/27)

>  <Rbt.Parameter_File>
/export/apps/rDock/src/rDock_2013.1_src/data/scripts/dock_solv.prm

>  <Rbt.Receptor>
prm/blind_docking_80.prm

>  <SCORE>
-18.5959

>  <SCORE.INTER>
-18.5959

>  <SCORE.INTER.CONST>
1

>  <SCORE.INTER.POLAR>
0

>  <SCORE.INTER.ROT>
0

>  <SCORE.INTER.SOLV>
3.58366

>  <SCORE.INTER.VDW>
-17.1918

>  <SCORE.INTER.norm>
-1.85959

>  <SCORE.INTRA>
0

>  <SCORE.INTRA.DIHEDRAL>
0

>  <SCORE.INTRA.DIHEDRAL.0>
0

>  <SCORE.INTRA.POLAR>
0

>  <SCORE.INTRA.POLAR.0>
0

>  <SCORE.INTRA.REPUL>
0

>  <SCORE.INTRA.REPUL.0>
0

>  <SCORE.INTRA.SOLV>
0

>  <SCORE.INTRA.SOLV.lig_0>
-4.28148

>  <SCORE.INTRA.VDW>
0

>  <SCORE.INTRA.VDW.0>
0

>  <SCORE.INTRA.norm>
0

>  <SCORE.RESTR>
0

>  <SCORE.RESTR.CAVITY>
0

>  <SCORE.RESTR.norm>
0

>  <SCORE.SYSTEM>
0

>  <SCORE.SYSTEM.CONST>
0

>  <SCORE.SYSTEM.DIHEDRAL>
0

>  <SCORE.SYSTEM.SOLV>
0

>  <SCORE.SYSTEM.norm>
0

>  <SCORE.heavy>
10

>  <SCORE.norm>
-1.85959

>  <RMSD>
0.880

$$$$
ligand
 OpenBabel11021811423D
libRbt.so/2013.1/901 2013/11/27
 10 11  0  0  0  0  0  0  0  0999 V2000
   11.8526   10.9599    8.4019 N   0  0  0  0  0  0  0  0  0  0  0  0
   11.5482   12.2818    8.6582 C   0  0  0  0  0  0  0  0  0  0  0  0
   11.1703   13.1254    7.6898 N   0  0  0  0  0  0  0  0  0  0  0  0
   11.1255   12.5446    6.4577 C   0  0  0  0  0  0  0  0  0  0  0  0
   11.4191   11.2287    6.1336 C   0  0  0  0  0  0  0  0  0  0  0  0
   11.8187   10.3271    7.1572 C   0  0  0  0  0  0  0  0  0  0  0  0
   12.1206    9.1352    7.0953 O   0  0  0  0  0  0  0  0  0  0  0  0
   11.2461   11.0662    4.7801 N   0  0  0  0  0  0  0  0  0  0  0  0
   10.8529   12.2678    4.2965 C   0  0  0  0  0  0  0  0  0  0  0  0
   10.7701   13.2006    5.3039 N   0  0  0  0  0  0  0  0  0  0  0  0
  1  2  1  0  0  0  0
  1  6  1  0  0  0  0
  2  3  2  0  0  0  0
  3  4  1  0  0  0  0
  4  5  2  0  0  0  0
  4 10  1  0  0  0  0
  5  6  1  0  0  0  0
  5  8  1  0  0  0  0
  6  7  2  0  0  0  0
  8  9  1  0  0  0  0
  9 10  2  0  0  0  0
M  END
>  <CHROM.1>
11.40639886,11.56755404,6.60920869,0.38822607,-1.27304503,1.02257528

>  <Name>
ligand

>  <RI>
0

>  <Rbt.Current_Directory>
/home/itssahil/PROJECTS/Mol_Feturizer/New_Systems/rnas/2EEU

>  <Rbt.Executable>
rbdock ($Id: //depot/dev/client3/rdock/2013.1/src/exe/rbdock.cxx#4 $)

>  <Rbt.Library>
libRbt.so (2013.1, Build901 2013/11/27)

>  <Rbt.Parameter_File>
/export/apps/rDock/src/rDock_2013.1_src/data/scripts/dock_solv.prm

>  <Rbt.Receptor>
prm/pocket_docking_3.prm

>  <SCORE>
-18.5783

>  <SCORE.INTER>
-18.5783

>  <SCORE.INTER.CONST>
1

>  <SCORE.INTER.POLAR>
0

>  <SCORE.INTER.ROT>
0

>  <SCORE.INTER.SOLV>
3.54951

>  <SCORE.INTER.VDW>
-17.1687

>  <SCORE.INTER.norm>
-1.85783

>  <SCORE.INTRA>
0

>  <SCORE.INTRA.DIHEDRAL>
0

>  <SCORE.INTRA.DIHEDRAL.0>
0

>  <SCORE.INTRA.POLAR>
0

>  <SCORE.INTRA.POLAR.0>
0

>  <SCORE.INTRA.REPUL>
0

>  <SCORE.INTRA.REPUL.0>
0

>  <SCORE.INTRA.SOLV>
0

>  <SCORE.INTRA.SOLV.lig_0>
-4.28148

>  <SCORE.INTRA.VDW>
0

>  <SCORE.INTRA.VDW.0>
0

>  <SCORE.INTRA.norm>
0

>  <SCORE.RESTR>
0

>  <SCORE.RESTR.CAVITY>
0

>  <SCORE.RESTR.norm>
0

>  <SCORE.SYSTEM>
0

>  <SCORE.SYSTEM.CONST>
0

>  <SCORE.SYSTEM.DIHEDRAL>
0

>  <SCORE.SYSTEM.SOLV>
0

>  <SCORE.SYSTEM.norm>
0

>  <SCORE.heavy>
10

>  <SCORE.norm>
-1.85783

>  <RMSD>
0.880

$$$$
ligand
 OpenBabel11021811423D
libRbt.so/2013.1/901 2013/11/27
 10 11  0  0  0  0  0  0  0  0999 V2000
   11.8686   10.9551    8.3914 N   0  0  0  0  0  0  0  0  0  0  0  0
   11.5364   12.2672    8.6629 C   0  0  0  0  0  0  0  0  0  0  0  0
   11.1425   13.1143    7.7040 N   0  0  0  0  0  0  0  0  0  0  0  0
   11.1115   12.5475    6.4650 C   0  0  0  0  0  0  0  0  0  0  0  0
   11.4328   11.2419    6.1257 C   0  0  0  0  0  0  0  0  0  0  0  0
   11.8496   10.3366    7.1392 C   0  0  0  0  0  0  0  0  0  0  0  0
   12.1763    9.1521    7.0636 O   0  0  0  0  0  0  0  0  0  0  0  0
   11.2651   11.0920    4.7701 N   0  0  0  0  0  0  0  0  0  0  0  0
   10.8478   12.2910    4.3002 C   0  0  0  0  0  0  0  0  0  0  0  0
   10.7442   13.2097    5.3185 N   0  0  0  0  0  0  0  0  0  0  0  0
  1  2  1  0  0  0  0
  1  6  1  0  0  0  0
  2  3  2  0  0  0  0
  3  4  1  0  0  0  0
  4  5  2  0  0  0  0
  4 10  1  0  0  0  0
  5  6  1  0  0  0  0
  5  8  1  0  0  0  0
  6  7  2  0  0  0  0
  8  9  1  0  0  0  0
  9 10  2  0  0  0  0
M  END
>  <CHROM.1>
11.41239424,11.57470283,6.60533211,0.42715483,-1.25585008,1.07164600

>  <Name>
ligand

>  <RI>
0

>  <Rbt.Current_Directory>
/home/itssahil/PROJECTS/Mol_Feturizer/New_Systems/rnas/2EEU

>  <Rbt.Executable>
rbdock ($Id: //depot/dev/client3/rdock/2013.1/src/exe/rbdock.cxx#4 $)

>  <Rbt.Library>
libRbt.so (2013.1, Build901 2013/11/27)

>  <Rbt.Parameter_File>
/export/apps/rDock/src/rDock_2013.1_src/data/scripts/dock_solv.prm

>  <Rbt.Receptor>
prm/pocket_docking_4.prm

>  <SCORE>
-18.5844

>  <SCORE.INTER>
-18.5844

>  <SCORE.INTER.CONST>
1

>  <SCORE.INTER.POLAR>
0

>  <SCORE.INTER.ROT>
0

>  <SCORE.INTER.SOLV>
3.49119

>  <SCORE.INTER.VDW>
-17.1533

>  <SCORE.INTER.norm>
-1.85844

>  <SCORE.INTRA>
0

>  <SCORE.INTRA.DIHEDRAL>
0

>  <SCORE.INTRA.DIHEDRAL.0>
0

>  <SCORE.INTRA.POLAR>
0

>  <SCORE.INTRA.POLAR.0>
0

>  <SCORE.INTRA.REPUL>
0

>  <SCORE.INTRA.REPUL.0>
0

>  <SCORE.INTRA.SOLV>
0

>  <SCORE.INTRA.SOLV.lig_0>
-4.28148

>  <SCORE.INTRA.VDW>
0

>  <SCORE.INTRA.VDW.0>
0

>  <SCORE.INTRA.norm>
0

>  <SCORE.RESTR>
0

>  <SCORE.RESTR.CAVITY>
0

>  <SCORE.RESTR.norm>
0

>  <SCORE.SYSTEM>
0

>  <SCORE.SYSTEM.CONST>
0

>  <SCORE.SYSTEM.DIHEDRAL>
0

>  <SCORE.SYSTEM.SOLV>
0

>  <SCORE.SYSTEM.norm>
0

>  <SCORE.heavy>
10

>  <SCORE.norm>
-1.85844

>  <RMSD>
0.880

$$$$
ligand
 OpenBabel11021811423D
libRbt.so/2013.1/901 2013/11/27
 10 11  0  0  0  0  0  0  0  0999 V2000
   11.7584   10.9824    8.4244 N   0  0  0  0  0  0  0  0  0  0  0  0
   11.4162   12.2958    8.6760 C   0  0  0  0  0  0  0  0  0  0  0  0
   11.0568   13.1370    7.6986 N   0  0  0  0  0  0  0  0  0  0  0  0
   11.0707   12.5630    6.4626 C   0  0  0  0  0  0  0  0  0  0  0  0
   11.4045   11.2556    6.1429 C   0  0  0  0  0  0  0  0  0  0  0  0
   11.7848   10.3565    7.1761 C   0  0  0  0  0  0  0  0  0  0  0  0
   12.1144    9.1717    7.1193 O   0  0  0  0  0  0  0  0  0  0  0  0
   11.2859   11.0976    4.7830 N   0  0  0  0  0  0  0  0  0  0  0  0
   10.8853   12.2935    4.2913 C   0  0  0  0  0  0  0  0  0  0  0  0
   10.7448   13.2181    5.2997 N   0  0  0  0  0  0  0  0  0  0  0  0
  1  2  1  0  0  0  0
  1  6  1  0  0  0  0
  2  3  2  0  0  0  0
  3  4  1  0  0  0  0
  4  5  2  0  0  0  0
  4 10  1  0  0  0  0
  5  6  1  0  0  0  0
  5  8  1  0  0  0  0
  6  7  2  0  0  0  0
  8  9  1  0  0  0  0
  9 10  2  0  0  0  0
M  END
>  <CHROM.1>
11.36669942,11.59117320,6.61946828,0.53514351,-1.27114778,1.16867333

>  <Name>
ligand

>  <RI>
0

>  <Rbt.Current_Directory>
/home/itssahil/PROJECTS/Mol_Feturizer/New_Systems/rnas/2EEU

>  <Rbt.Executable>
rbdock ($Id: //depot/dev/client3/rdock/2013.1/src/exe/rbdock.cxx#4 $)

>  <Rbt.Library>
libRbt.so (2013.1, Build901 2013/11/27)

>  <Rbt.Parameter_File>
/export/apps/rDock/src/rDock_2013.1_src/data/scripts/dock_solv.prm

>  <Rbt.Receptor>
prm/pocket_docking_8.prm

>  <SCORE>
-18.5925

>  <SCORE.INTER>
-18.5925

>  <SCORE.INTER.CONST>
1

>  <SCORE.INTER.POLAR>
0

>  <SCORE.INTER.ROT>
0

>  <SCORE.INTER.SOLV>
3.58035

>  <SCORE.INTER.VDW>
-17.1884

>  <SCORE.INTER.norm>
-1.85925

>  <SCORE.INTRA>
0

>  <SCORE.INTRA.DIHEDRAL>
0

>  <SCORE.INTRA.DIHEDRAL.0>
0

>  <SCORE.INTRA.POLAR>
0

>  <SCORE.INTRA.POLAR.0>
0

>  <SCORE.INTRA.REPUL>
0

>  <SCORE.INTRA.REPUL.0>
0

>  <SCORE.INTRA.SOLV>
0

>  <SCORE.INTRA.SOLV.lig_0>
-4.28148

>  <SCORE.INTRA.VDW>
0

>  <SCORE.INTRA.VDW.0>
0

>  <SCORE.INTRA.norm>
0

>  <SCORE.RESTR>
0

>  <SCORE.RESTR.CAVITY>
0

>  <SCORE.RESTR.norm>
0

>  <SCORE.SYSTEM>
0

>  <SCORE.SYSTEM.CONST>
0

>  <SCORE.SYSTEM.DIHEDRAL>
0

>  <SCORE.SYSTEM.SOLV>
0

>  <SCORE.SYSTEM.norm>
0

>  <SCORE.heavy>
10

>  <SCORE.norm>
-1.85925

>  <RMSD>
0.880

$$$$
ligand
 OpenBabel11021811423D
libRbt.so/2013.1/901 2013/11/27
 10 11  0  0  0  0  0  0  0  0999 V2000
   11.8177   11.0200    8.3977 N   0  0  0  0  0  0  0  0  0  0  0  0
   11.4814   12.3330    8.6593 C   0  0  0  0  0  0  0  0  0  0  0  0
   11.1055   13.1775    7.6909 N   0  0  0  0  0  0  0  0  0  0  0  0
   11.0966   12.6071    6.4532 C   0  0  0  0  0  0  0  0  0  0  0  0
   11.4233   11.3003    6.1237 C   0  0  0  0  0  0  0  0  0  0  0  0
   11.8210   10.3978    7.1472 C   0  0  0  0  0  0  0  0  0  0  0  0
   12.1483    9.2128    7.0811 O   0  0  0  0  0  0  0  0  0  0  0  0
   11.2801   11.1465    4.7657 N   0  0  0  0  0  0  0  0  0  0  0  0
   10.8721   12.3442    4.2847 C   0  0  0  0  0  0  0  0  0  0  0  0
   10.7506   13.2660    5.2983 N   0  0  0  0  0  0  0  0  0  0  0  0
  1  2  1  0  0  0  0
  1  6  1  0  0  0  0
  2  3  2  0  0  0  0
  3  4  1  0  0  0  0
  4  5  2  0  0  0  0
  4 10  1  0  0  0  0
  5  6  1  0  0  0  0
  5  8  1  0  0  0  0
  6  7  2  0  0  0  0
  8  9  1  0  0  0  0
  9 10  2  0  0  0  0
M  END
>  <CHROM.1>
11.39432503,11.63452685,6.60185371,0.47901547,-1.26467823,1.11804796

>  <Name>
ligand

>  <RI>
0

>  <Rbt.Current_Directory>
/home/itssahil/PROJECTS/Mol_Feturizer/New_Systems/rnas/2EEU

>  <Rbt.Executable>
rbdock ($Id: //depot/dev/client3/rdock/2013.1/src/exe/rbdock.cxx#4 $)

>  <Rbt.Library>
libRbt.so (2013.1, Build901 2013/11/27)

>  <Rbt.Parameter_File>
/export/apps/rDock/src/rDock_2013.1_src/data/scripts/dock_solv.prm

>  <Rbt.Receptor>
prm/blind_docking_40.prm

>  <SCORE>
-18.5744

>  <SCORE.INTER>
-18.5744

>  <SCORE.INTER.CONST>
1

>  <SCORE.INTER.POLAR>
0

>  <SCORE.INTER.ROT>
0

>  <SCORE.INTER.SOLV>
3.53237

>  <SCORE.INTER.VDW>
-17.1604

>  <SCORE.INTER.norm>
-1.85744

>  <SCORE.INTRA>
0

>  <SCORE.INTRA.DIHEDRAL>
0

>  <SCORE.INTRA.DIHEDRAL.0>
0

>  <SCORE.INTRA.POLAR>
0

>  <SCORE.INTRA.POLAR.0>
0

>  <SCORE.INTRA.REPUL>
0

>  <SCORE.INTRA.REPUL.0>
0

>  <SCORE.INTRA.SOLV>
0

>  <SCORE.INTRA.SOLV.lig_0>
-4.28148

>  <SCORE.INTRA.VDW>
0

>  <SCORE.INTRA.VDW.0>
0

>  <SCORE.INTRA.norm>
0

>  <SCORE.RESTR>
0

>  <SCORE.RESTR.CAVITY>
0

>  <SCORE.RESTR.norm>
0

>  <SCORE.SYSTEM>
0

>  <SCORE.SYSTEM.CONST>
0

>  <SCORE.SYSTEM.DIHEDRAL>
0

>  <SCORE.SYSTEM.SOLV>
0

>  <SCORE.SYSTEM.norm>
0

>  <SCORE.heavy>
10

>  <SCORE.norm>
-1.85744

>  <RMSD>
0.881

$$$$
ligand
 OpenBabel11021811423D
libRbt.so/2013.1/901 2013/11/27
 10 11  0  0  0  0  0  0  0  0999 V2000
   11.8198   11.0243    8.3958 N   0  0  0  0  0  0  0  0  0  0  0  0
   11.4947   12.3401    8.6573 C   0  0  0  0  0  0  0  0  0  0  0  0
   11.1215   13.1865    7.6895 N   0  0  0  0  0  0  0  0  0  0  0  0
   11.1034   12.6149    6.4524 C   0  0  0  0  0  0  0  0  0  0  0  0
   11.4187   11.3054    6.1230 C   0  0  0  0  0  0  0  0  0  0  0  0
   11.8135   10.4008    7.1459 C   0  0  0  0  0  0  0  0  0  0  0  0
   12.1314    9.2133    7.0797 O   0  0  0  0  0  0  0  0  0  0  0  0
   11.2691   11.1513    4.7657 N   0  0  0  0  0  0  0  0  0  0  0  0
   10.8684   12.3517    4.2851 C   0  0  0  0  0  0  0  0  0  0  0  0
   10.7580   13.2754    5.2982 N   0  0  0  0  0  0  0  0  0  0  0  0
  1  2  1  0  0  0  0
  1  6  1  0  0  0  0
  2  3  2  0  0  0  0
  3  4  1  0  0  0  0
  4  5  2  0  0  0  0
  4 10  1  0  0  0  0
  5  6  1  0  0  0  0
  5  8  1  0  0  0  0
  6  7  2  0  0  0  0
  8  9  1  0  0  0  0
  9 10  2  0  0  0  0
M  END
>  <CHROM.1>
11.39423636,11.64026509,6.60093928,0.45585218,-1.26981020,1.09493945

>  <Name>
ligand

>  <RI>
0

>  <Rbt.Current_Directory>
/home/itssahil/PROJECTS/Mol_Feturizer/New_Systems/rnas/2EEU

>  <Rbt.Executable>
rbdock ($Id: //depot/dev/client3/rdock/2013.1/src/exe/rbdock.cxx#4 $)

>  <Rbt.Library>
libRbt.so (2013.1, Build901 2013/11/27)

>  <Rbt.Parameter_File>
/export/apps/rDock/src/rDock_2013.1_src/data/scripts/dock_solv.prm

>  <Rbt.Receptor>
prm/blind_docking_60.prm

>  <SCORE>
-18.5861

>  <SCORE.INTER>
-18.5861

>  <SCORE.INTER.CONST>
1

>  <SCORE.INTER.POLAR>
0

>  <SCORE.INTER.ROT>
0

>  <SCORE.INTER.SOLV>
3.5493

>  <SCORE.INTER.VDW>
-17.1738

>  <SCORE.INTER.norm>
-1.85861

>  <SCORE.INTRA>
0

>  <SCORE.INTRA.DIHEDRAL>
0

>  <SCORE.INTRA.DIHEDRAL.0>
0

>  <SCORE.INTRA.POLAR>
0

>  <SCORE.INTRA.POLAR.0>
0

>  <SCORE.INTRA.REPUL>
0

>  <SCORE.INTRA.REPUL.0>
0

>  <SCORE.INTRA.SOLV>
0

>  <SCORE.INTRA.SOLV.lig_0>
-4.28148

>  <SCORE.INTRA.VDW>
0

>  <SCORE.INTRA.VDW.0>
0

>  <SCORE.INTRA.norm>
0

>  <SCORE.RESTR>
0

>  <SCORE.RESTR.CAVITY>
0

>  <SCORE.RESTR.norm>
0

>  <SCORE.SYSTEM>
0

>  <SCORE.SYSTEM.CONST>
0

>  <SCORE.SYSTEM.DIHEDRAL>
0

>  <SCORE.SYSTEM.SOLV>
0

>  <SCORE.SYSTEM.norm>
0

>  <SCORE.heavy>
10

>  <SCORE.norm>
-1.85861

>  <RMSD>
0.881

$$$$
ligand
 OpenBabel11021811423D
libRbt.so/2013.1/901 2013/11/27
 10 11  0  0  0  0  0  0  0  0999 V2000
   11.8676   10.9530    8.3921 N   0  0  0  0  0  0  0  0  0  0  0  0
   11.5600   12.2724    8.6569 C   0  0  0  0  0  0  0  0  0  0  0  0
   11.1736   13.1196    7.6950 N   0  0  0  0  0  0  0  0  0  0  0  0
   11.1238   12.5451    6.4602 C   0  0  0  0  0  0  0  0  0  0  0  0
   11.4201   11.2319    6.1277 C   0  0  0  0  0  0  0  0  0  0  0  0
   11.8287   10.3264    7.1444 C   0  0  0  0  0  0  0  0  0  0  0  0
   12.1345    9.1360    7.0746 O   0  0  0  0  0  0  0  0  0  0  0  0
   11.2399   11.0756    4.7744 N   0  0  0  0  0  0  0  0  0  0  0  0
   10.8398   12.2784    4.2992 C   0  0  0  0  0  0  0  0  0  0  0  0
   10.7595   13.2056    5.3119 N   0  0  0  0  0  0  0  0  0  0  0  0
  1  2  1  0  0  0  0
  1  6  1  0  0  0  0
  2  3  2  0  0  0  0
  3  4  1  0  0  0  0
  4  5  2  0  0  0  0
  4 10  1  0  0  0  0
  5  6  1  0  0  0  0
  5  8  1  0  0  0  0
  6  7  2  0  0  0  0
  8  9  1  0  0  0  0
  9 10  2  0  0  0  0
M  END
>  <CHROM.1>
11.40895575,11.56820706,6.60513573,0.37802658,-1.26704889,1.01796705

>  <Name>
ligand

>  <RI>
0

>  <Rbt.Current_Directory>
/home/itssahil/PROJECTS/Mol_Feturizer/New_Systems/rnas/2EEU

>  <Rbt.Executable>
rbdock ($Id: //depot/dev/client3/rdock/2013.1/src/exe/rbdock.cxx#4 $)

>  <Rbt.Library>
libRbt.so (2013.1, Build901 2013/11/27)

>  <Rbt.Parameter_File>
/export/apps/rDock/src/rDock_2013.1_src/data/scripts/dock_solv.prm

>  <Rbt.Receptor>
prm/pocket_docking_3.prm

>  <SCORE>
-18.5974

>  <SCORE.INTER>
-18.5974

>  <SCORE.INTER.CONST>
1

>  <SCORE.INTER.POLAR>
0

>  <SCORE.INTER.ROT>
0

>  <SCORE.INTER.SOLV>
3.53372

>  <SCORE.INTER.VDW>
-17.1762

>  <SCORE.INTER.norm>
-1.85974

>  <SCORE.INTRA>
0

>  <SCORE.INTRA.DIHEDRAL>
0

>  <SCORE.INTRA.DIHEDRAL.0>
0

>  <SCORE.INTRA.POLAR>
0

>  <SCORE.INTRA.POLAR.0>
0

>  <SCORE.INTRA.REPUL>
0

>  <SCORE.INTRA.REPUL.0>
0

>  <SCORE.INTRA.SOLV>
0

>  <SCORE.INTRA.SOLV.lig_0>
-4.28148

>  <SCORE.INTRA.VDW>
0

>  <SCORE.INTRA.VDW.0>
0

>  <SCORE.INTRA.norm>
0

>  <SCORE.RESTR>
0

>  <SCORE.RESTR.CAVITY>
0

>  <SCORE.RESTR.norm>
0

>  <SCORE.SYSTEM>
0

>  <SCORE.SYSTEM.CONST>
0

>  <SCORE.SYSTEM.DIHEDRAL>
0

>  <SCORE.SYSTEM.SOLV>
0

>  <SCORE.SYSTEM.norm>
0

>  <SCORE.heavy>
10

>  <SCORE.norm>
-1.85974

>  <RMSD>
0.882

$$$$
ligand
 OpenBabel11021811423D
libRbt.so/2013.1/901 2013/11/27
 10 11  0  0  0  0  0  0  0  0999 V2000
   11.8599   10.9512    8.3913 N   0  0  0  0  0  0  0  0  0  0  0  0
   11.5482   12.2687    8.6606 C   0  0  0  0  0  0  0  0  0  0  0  0
   11.1600   13.1182    7.7015 N   0  0  0  0  0  0  0  0  0  0  0  0
   11.1129   12.5479    6.4646 C   0  0  0  0  0  0  0  0  0  0  0  0
   11.4134   11.2368    6.1276 C   0  0  0  0  0  0  0  0  0  0  0  0
   11.8239   10.3289    7.1414 C   0  0  0  0  0  0  0  0  0  0  0  0
   12.1332    9.1396    7.0676 O   0  0  0  0  0  0  0  0  0  0  0  0
   11.2347   11.0848    4.7736 N   0  0  0  0  0  0  0  0  0  0  0  0
   10.8314   12.2880    4.3024 C   0  0  0  0  0  0  0  0  0  0  0  0
   10.7476   13.2115    5.3183 N   0  0  0  0  0  0  0  0  0  0  0  0
  1  2  1  0  0  0  0
  1  6  1  0  0  0  0
  2  3  2  0  0  0  0
  3  4  1  0  0  0  0
  4  5  2  0  0  0  0
  4 10  1  0  0  0  0
  5  6  1  0  0  0  0
  5  8  1  0  0  0  0
  6  7  2  0  0  0  0
  8  9  1  0  0  0  0
  9 10  2  0  0  0  0
M  END
>  <CHROM.1>
11.40085533,11.57136933,6.60622367,0.38542455,-1.26493513,1.02858637

>  <Name>
ligand

>  <RI>
0

>  <Rbt.Current_Directory>
/home/itssahil/PROJECTS/Mol_Feturizer/New_Systems/rnas/2EEU

>  <Rbt.Executable>
rbdock ($Id: //depot/dev/client3/rdock/2013.1/src/exe/rbdock.cxx#4 $)

>  <Rbt.Library>
libRbt.so (2013.1, Build901 2013/11/27)

>  <Rbt.Parameter_File>
/export/apps/rDock/src/rDock_2013.1_src/data/scripts/dock_solv.prm

>  <Rbt.Receptor>
prm/pocket_docking_5.prm

>  <SCORE>
-18.5981

>  <SCORE.INTER>
-18.5981

>  <SCORE.INTER.CONST>
1

>  <SCORE.INTER.POLAR>
0

>  <SCORE.INTER.ROT>
0

>  <SCORE.INTER.SOLV>
3.5353

>  <SCORE.INTER.VDW>
-17.1772

>  <SCORE.INTER.norm>
-1.85981

>  <SCORE.INTRA>
0

>  <SCORE.INTRA.DIHEDRAL>
0

>  <SCORE.INTRA.DIHEDRAL.0>
0

>  <SCORE.INTRA.POLAR>
0

>  <SCORE.INTRA.POLAR.0>
0

>  <SCORE.INTRA.REPUL>
0

>  <SCORE.INTRA.REPUL.0>
0

>  <SCORE.INTRA.SOLV>
0

>  <SCORE.INTRA.SOLV.lig_0>
-4.28148

>  <SCORE.INTRA.VDW>
0

>  <SCORE.INTRA.VDW.0>
0

>  <SCORE.INTRA.norm>
0

>  <SCORE.RESTR>
0

>  <SCORE.RESTR.CAVITY>
0

>  <SCORE.RESTR.norm>
0

>  <SCORE.SYSTEM>
0

>  <SCORE.SYSTEM.CONST>
0

>  <SCORE.SYSTEM.DIHEDRAL>
0

>  <SCORE.SYSTEM.SOLV>
0

>  <SCORE.SYSTEM.norm>
0

>  <SCORE.heavy>
10

>  <SCORE.norm>
-1.85981

>  <RMSD>
0.882

$$$$
ligand
 OpenBabel11021811423D
libRbt.so/2013.1/901 2013/11/27
 10 11  0  0  0  0  0  0  0  0999 V2000
   11.9343   11.3238    8.4104 N   0  0  0  0  0  0  0  0  0  0  0  0
   11.7260   12.6807    8.5550 C   0  0  0  0  0  0  0  0  0  0  0  0
   11.3502   13.4559    7.5302 N   0  0  0  0  0  0  0  0  0  0  0  0
   11.2046   12.7697    6.3618 C   0  0  0  0  0  0  0  0  0  0  0  0
   11.3990   11.4132    6.1497 C   0  0  0  0  0  0  0  0  0  0  0  0
   11.7957   10.5839    7.2338 C   0  0  0  0  0  0  0  0  0  0  0  0
   12.0199    9.3740    7.2704 O   0  0  0  0  0  0  0  0  0  0  0  0
   11.1449   11.1400    4.8271 N   0  0  0  0  0  0  0  0  0  0  0  0
   10.8016   12.3161    4.2514 C   0  0  0  0  0  0  0  0  0  0  0  0
   10.8299   13.3400    5.1693 N   0  0  0  0  0  0  0  0  0  0  0  0
  1  2  1  0  0  0  0
  1  6  1  0  0  0  0
  2  3  2  0  0  0  0
  3  4  1  0  0  0  0
  4  5  2  0  0  0  0
  4 10  1  0  0  0  0
  5  6  1  0  0  0  0
  5  8  1  0  0  0  0
  6  7  2  0  0  0  0
  8  9  1  0  0  0  0
  9 10  2  0  0  0  0
M  END
>  <CHROM.1>
11.43230318,11.79399348,6.59134657,0.10801182,-1.28771869,0.66105759

>  <Name>
ligand

>  <RI>
0

>  <Rbt.Current_Directory>
/home/itssahil/PROJECTS/Mol_Feturizer/New_Systems/rnas/2EEU

>  <Rbt.Executable>
rbdock ($Id: //depot/dev/client3/rdock/2013.1/src/exe/rbdock.cxx#4 $)

>  <Rbt.Library>
libRbt.so (2013.1, Build901 2013/11/27)

>  <Rbt.Parameter_File>
/export/apps/rDock/src/rDock_2013.1_src/data/scripts/dock_solv.prm

>  <Rbt.Receptor>
prm/pocket_docking_8.prm

>  <SCORE>
-18.4601

>  <SCORE.INTER>
-18.4601

>  <SCORE.INTER.CONST>
1

>  <SCORE.INTER.POLAR>
0

>  <SCORE.INTER.ROT>
0

>  <SCORE.INTER.SOLV>
3.5871

>  <SCORE.INTER.VDW>
-17.1024

>  <SCORE.INTER.norm>
-1.84601

>  <SCORE.INTRA>
0

>  <SCORE.INTRA.DIHEDRAL>
0

>  <SCORE.INTRA.DIHEDRAL.0>
0

>  <SCORE.INTRA.POLAR>
0

>  <SCORE.INTRA.POLAR.0>
0

>  <SCORE.INTRA.REPUL>
0

>  <SCORE.INTRA.REPUL.0>
0

>  <SCORE.INTRA.SOLV>
0

>  <SCORE.INTRA.SOLV.lig_0>
-4.28148

>  <SCORE.INTRA.VDW>
0

>  <SCORE.INTRA.VDW.0>
0

>  <SCORE.INTRA.norm>
0

>  <SCORE.RESTR>
0

>  <SCORE.RESTR.CAVITY>
0

>  <SCORE.RESTR.norm>
0

>  <SCORE.SYSTEM>
0

>  <SCORE.SYSTEM.CONST>
0

>  <SCORE.SYSTEM.DIHEDRAL>
0

>  <SCORE.SYSTEM.SOLV>
0

>  <SCORE.SYSTEM.norm>
0

>  <SCORE.heavy>
10

>  <SCORE.norm>
-1.84601

>  <RMSD>
0.882

$$$$
ligand
 OpenBabel11021811423D
libRbt.so/2013.1/901 2013/11/27
 10 11  0  0  0  0  0  0  0  0999 V2000
   11.8570   10.9499    8.3918 N   0  0  0  0  0  0  0  0  0  0  0  0
   11.5434   12.2669    8.6613 C   0  0  0  0  0  0  0  0  0  0  0  0
   11.1561   13.1166    7.7021 N   0  0  0  0  0  0  0  0  0  0  0  0
   11.1118   12.5471    6.4647 C   0  0  0  0  0  0  0  0  0  0  0  0
   11.4143   11.2365    6.1274 C   0  0  0  0  0  0  0  0  0  0  0  0
   11.8239   10.3284    7.1413 C   0  0  0  0  0  0  0  0  0  0  0  0
   12.1346    9.1395    7.0674 O   0  0  0  0  0  0  0  0  0  0  0  0
   11.2382   11.0853    4.7730 N   0  0  0  0  0  0  0  0  0  0  0  0
   10.8345   12.2884    4.3018 C   0  0  0  0  0  0  0  0  0  0  0  0
   10.7478   13.2110    5.3182 N   0  0  0  0  0  0  0  0  0  0  0  0
  1  2  1  0  0  0  0
  1  6  1  0  0  0  0
  2  3  2  0  0  0  0
  3  4  1  0  0  0  0
  4  5  2  0  0  0  0
  4 10  1  0  0  0  0
  5  6  1  0  0  0  0
  5  8  1  0  0  0  0
  6  7  2  0  0  0  0
  8  9  1  0  0  0  0
  9 10  2  0  0  0  0
M  END
>  <CHROM.1>
11.40052124,11.57075996,6.60623132,0.39242889,-1.26495528,1.03592990

>  <Name>
ligand

>  <RI>
0

>  <Rbt.Current_Directory>
/home/itssahil/PROJECTS/Mol_Feturizer/New_Systems/rnas/2EEU

>  <Rbt.Executable>
rbdock ($Id: //depot/dev/client3/rdock/2013.1/src/exe/rbdock.cxx#4 $)

>  <Rbt.Library>
libRbt.so (2013.1, Build901 2013/11/27)

>  <Rbt.Parameter_File>
/export/apps/rDock/src/rDock_2013.1_src/data/scripts/dock_solv.prm

>  <Rbt.Receptor>
prm/blind_docking_40.prm

>  <SCORE>
-18.5982

>  <SCORE.INTER>
-18.5982

>  <SCORE.INTER.CONST>
1

>  <SCORE.INTER.POLAR>
0

>  <SCORE.INTER.ROT>
0

>  <SCORE.INTER.SOLV>
3.53565

>  <SCORE.INTER.VDW>
-17.1774

>  <SCORE.INTER.norm>
-1.85982

>  <SCORE.INTRA>
0

>  <SCORE.INTRA.DIHEDRAL>
0

>  <SCORE.INTRA.DIHEDRAL.0>
0

>  <SCORE.INTRA.POLAR>
0

>  <SCORE.INTRA.POLAR.0>
0

>  <SCORE.INTRA.REPUL>
0

>  <SCORE.INTRA.REPUL.0>
0

>  <SCORE.INTRA.SOLV>
0

>  <SCORE.INTRA.SOLV.lig_0>
-4.28148

>  <SCORE.INTRA.VDW>
0

>  <SCORE.INTRA.VDW.0>
0

>  <SCORE.INTRA.norm>
0

>  <SCORE.RESTR>
0

>  <SCORE.RESTR.CAVITY>
0

>  <SCORE.RESTR.norm>
0

>  <SCORE.SYSTEM>
0

>  <SCORE.SYSTEM.CONST>
0

>  <SCORE.SYSTEM.DIHEDRAL>
0

>  <SCORE.SYSTEM.SOLV>
0

>  <SCORE.SYSTEM.norm>
0

>  <SCORE.heavy>
10

>  <SCORE.norm>
-1.85982

>  <RMSD>
0.883

$$$$
ligand
 OpenBabel11021811423D
libRbt.so/2013.1/901 2013/11/27
 10 11  0  0  0  0  0  0  0  0999 V2000
   11.8527   10.9496    8.3909 N   0  0  0  0  0  0  0  0  0  0  0  0
   11.5294   12.2636    8.6641 C   0  0  0  0  0  0  0  0  0  0  0  0
   11.1410   13.1145    7.7063 N   0  0  0  0  0  0  0  0  0  0  0  0
   11.1060   12.5494    6.4666 C   0  0  0  0  0  0  0  0  0  0  0  0
   11.4185   11.2422    6.1257 C   0  0  0  0  0  0  0  0  0  0  0  0
   11.8293   10.3328    7.1380 C   0  0  0  0  0  0  0  0  0  0  0  0
   12.1480    9.1462    7.0608 O   0  0  0  0  0  0  0  0  0  0  0  0
   11.2495   11.0950    4.7699 N   0  0  0  0  0  0  0  0  0  0  0  0
   10.8402   12.2973    4.3015 C   0  0  0  0  0  0  0  0  0  0  0  0
   10.7430   13.2155    5.3210 N   0  0  0  0  0  0  0  0  0  0  0  0
  1  2  1  0  0  0  0
  1  6  1  0  0  0  0
  2  3  2  0  0  0  0
  3  4  1  0  0  0  0
  4  5  2  0  0  0  0
  4 10  1  0  0  0  0
  5  6  1  0  0  0  0
  5  8  1  0  0  0  0
  6  7  2  0  0  0  0
  8  9  1  0  0  0  0
  9 10  2  0  0  0  0
M  END
>  <CHROM.1>
11.40034505,11.57446451,6.60569996,0.41598192,-1.26165183,1.06222884

>  <Name>
ligand

>  <RI>
0

>  <Rbt.Current_Directory>
/home/itssahil/PROJECTS/Mol_Feturizer/New_Systems/rnas/2EEU

>  <Rbt.Executable>
rbdock ($Id: //depot/dev/client3/rdock/2013.1/src/exe/rbdock.cxx#4 $)

>  <Rbt.Library>
libRbt.so (2013.1, Build901 2013/11/27)

>  <Rbt.Parameter_File>
/export/apps/rDock/src/rDock_2013.1_src/data/scripts/dock_solv.prm

>  <Rbt.Receptor>
prm/blind_docking_60.prm

>  <SCORE>
-18.5963

>  <SCORE.INTER>
-18.5963

>  <SCORE.INTER.CONST>
1

>  <SCORE.INTER.POLAR>
0

>  <SCORE.INTER.ROT>
0

>  <SCORE.INTER.SOLV>
3.52562

>  <SCORE.INTER.VDW>
-17.1727

>  <SCORE.INTER.norm>
-1.85963

>  <SCORE.INTRA>
0

>  <SCORE.INTRA.DIHEDRAL>
0

>  <SCORE.INTRA.DIHEDRAL.0>
0

>  <SCORE.INTRA.POLAR>
0

>  <SCORE.INTRA.POLAR.0>
0

>  <SCORE.INTRA.REPUL>
0

>  <SCORE.INTRA.REPUL.0>
0

>  <SCORE.INTRA.SOLV>
0

>  <SCORE.INTRA.SOLV.lig_0>
-4.28148

>  <SCORE.INTRA.VDW>
0

>  <SCORE.INTRA.VDW.0>
0

>  <SCORE.INTRA.norm>
0

>  <SCORE.RESTR>
0

>  <SCORE.RESTR.CAVITY>
0

>  <SCORE.RESTR.norm>
0

>  <SCORE.SYSTEM>
0

>  <SCORE.SYSTEM.CONST>
0

>  <SCORE.SYSTEM.DIHEDRAL>
0

>  <SCORE.SYSTEM.SOLV>
0

>  <SCORE.SYSTEM.norm>
0

>  <SCORE.heavy>
10

>  <SCORE.norm>
-1.85963

>  <RMSD>
0.883

$$$$
ligand
 OpenBabel11021811423D
libRbt.so/2013.1/901 2013/11/27
 10 11  0  0  0  0  0  0  0  0999 V2000
   11.8571   10.9498    8.3914 N   0  0  0  0  0  0  0  0  0  0  0  0
   11.5509   12.2691    8.6584 C   0  0  0  0  0  0  0  0  0  0  0  0
   11.1677   13.1189    7.6977 N   0  0  0  0  0  0  0  0  0  0  0  0
   11.1196   12.5471    6.4615 C   0  0  0  0  0  0  0  0  0  0  0  0
   11.4148   11.2342    6.1267 C   0  0  0  0  0  0  0  0  0  0  0  0
   11.8200   10.3259    7.1423 C   0  0  0  0  0  0  0  0  0  0  0  0
   12.1241    9.1352    7.0705 O   0  0  0  0  0  0  0  0  0  0  0  0
   11.2371   11.0812    4.7727 N   0  0  0  0  0  0  0  0  0  0  0  0
   10.8397   12.2855    4.2993 C   0  0  0  0  0  0  0  0  0  0  0  0
   10.7586   13.2107    5.3138 N   0  0  0  0  0  0  0  0  0  0  0  0
  1  2  1  0  0  0  0
  1  6  1  0  0  0  0
  2  3  2  0  0  0  0
  3  4  1  0  0  0  0
  4  5  2  0  0  0  0
  4 10  1  0  0  0  0
  5  6  1  0  0  0  0
  5  8  1  0  0  0  0
  6  7  2  0  0  0  0
  8  9  1  0  0  0  0
  9 10  2  0  0  0  0
M  END
>  <CHROM.1>
11.40306989,11.56951639,6.60485266,0.38135349,-1.26935071,1.02332060

>  <Name>
ligand

>  <RI>
0

>  <Rbt.Current_Directory>
/home/itssahil/PROJECTS/Mol_Feturizer/New_Systems/rnas/2EEU

>  <Rbt.Executable>
rbdock ($Id: //depot/dev/client3/rdock/2013.1/src/exe/rbdock.cxx#4 $)

>  <Rbt.Library>
libRbt.so (2013.1, Build901 2013/11/27)

>  <Rbt.Parameter_File>
/export/apps/rDock/src/rDock_2013.1_src/data/scripts/dock_solv.prm

>  <Rbt.Receptor>
prm/blind_docking_100.prm

>  <SCORE>
-18.6011

>  <SCORE.INTER>
-18.6011

>  <SCORE.INTER.CONST>
1

>  <SCORE.INTER.POLAR>
0

>  <SCORE.INTER.ROT>
0

>  <SCORE.INTER.SOLV>
3.54844

>  <SCORE.INTER.VDW>
-17.1836

>  <SCORE.INTER.norm>
-1.86011

>  <SCORE.INTRA>
0

>  <SCORE.INTRA.DIHEDRAL>
0

>  <SCORE.INTRA.DIHEDRAL.0>
0

>  <SCORE.INTRA.POLAR>
0

>  <SCORE.INTRA.POLAR.0>
0

>  <SCORE.INTRA.REPUL>
0

>  <SCORE.INTRA.REPUL.0>
0

>  <SCORE.INTRA.SOLV>
0

>  <SCORE.INTRA.SOLV.lig_0>
-4.28148

>  <SCORE.INTRA.VDW>
0

>  <SCORE.INTRA.VDW.0>
0

>  <SCORE.INTRA.norm>
0

>  <SCORE.RESTR>
0

>  <SCORE.RESTR.CAVITY>
0

>  <SCORE.RESTR.norm>
0

>  <SCORE.SYSTEM>
0

>  <SCORE.SYSTEM.CONST>
0

>  <SCORE.SYSTEM.DIHEDRAL>
0

>  <SCORE.SYSTEM.SOLV>
0

>  <SCORE.SYSTEM.norm>
0

>  <SCORE.heavy>
10

>  <SCORE.norm>
-1.86011

>  <RMSD>
0.884

$$$$
ligand
 OpenBabel11021811423D
libRbt.so/2013.1/901 2013/11/27
 10 11  0  0  0  0  0  0  0  0999 V2000
   11.8529   10.9496    8.3911 N   0  0  0  0  0  0  0  0  0  0  0  0
   11.5321   12.2645    8.6626 C   0  0  0  0  0  0  0  0  0  0  0  0
   11.1459   13.1150    7.7036 N   0  0  0  0  0  0  0  0  0  0  0  0
   11.1103   12.5486    6.4645 C   0  0  0  0  0  0  0  0  0  0  0  0
   11.4204   11.2403    6.1253 C   0  0  0  0  0  0  0  0  0  0  0  0
   11.8289   10.3313    7.1388 C   0  0  0  0  0  0  0  0  0  0  0  0
   12.1453    9.1440    7.0633 O   0  0  0  0  0  0  0  0  0  0  0  0
   11.2518   11.0920    4.7696 N   0  0  0  0  0  0  0  0  0  0  0  0
   10.8451   12.2945    4.2996 C   0  0  0  0  0  0  0  0  0  0  0  0
   10.7493   13.2141    5.3180 N   0  0  0  0  0  0  0  0  0  0  0  0
  1  2  1  0  0  0  0
  1  6  1  0  0  0  0
  2  3  2  0  0  0  0
  3  4  1  0  0  0  0
  4  5  2  0  0  0  0
  4 10  1  0  0  0  0
  5  6  1  0  0  0  0
  5  8  1  0  0  0  0
  6  7  2  0  0  0  0
  8  9  1  0  0  0  0
  9 10  2  0  0  0  0
M  END
>  <CHROM.1>
11.40272041,11.57324619,6.60492554,0.41421795,-1.26363121,1.05938410

>  <Name>
ligand

>  <RI>
0

>  <Rbt.Current_Directory>
/home/itssahil/PROJECTS/Mol_Feturizer/New_Systems/rnas/2EEU

>  <Rbt.Executable>
rbdock ($Id: //depot/dev/client3/rdock/2013.1/src/exe/rbdock.cxx#4 $)

>  <Rbt.Library>
libRbt.so (2013.1, Build901 2013/11/27)

>  <Rbt.Parameter_File>
/export/apps/rDock/src/rDock_2013.1_src/data/scripts/dock_solv.prm

>  <Rbt.Receptor>
prm/blind_docking_100.prm

>  <SCORE>
-18.5978

>  <SCORE.INTER>
-18.5978

>  <SCORE.INTER.CONST>
1

>  <SCORE.INTER.POLAR>
0

>  <SCORE.INTER.ROT>
0

>  <SCORE.INTER.SOLV>
3.52955

>  <SCORE.INTER.VDW>
-17.175

>  <SCORE.INTER.norm>
-1.85978

>  <SCORE.INTRA>
0

>  <SCORE.INTRA.DIHEDRAL>
0

>  <SCORE.INTRA.DIHEDRAL.0>
0

>  <SCORE.INTRA.POLAR>
0

>  <SCORE.INTRA.POLAR.0>
0

>  <SCORE.INTRA.REPUL>
0

>  <SCORE.INTRA.REPUL.0>
0

>  <SCORE.INTRA.SOLV>
0

>  <SCORE.INTRA.SOLV.lig_0>
-4.28148

>  <SCORE.INTRA.VDW>
0

>  <SCORE.INTRA.VDW.0>
0

>  <SCORE.INTRA.norm>
0

>  <SCORE.RESTR>
0

>  <SCORE.RESTR.CAVITY>
0

>  <SCORE.RESTR.norm>
0

>  <SCORE.SYSTEM>
0

>  <SCORE.SYSTEM.CONST>
0

>  <SCORE.SYSTEM.DIHEDRAL>
0

>  <SCORE.SYSTEM.SOLV>
0

>  <SCORE.SYSTEM.norm>
0

>  <SCORE.heavy>
10

>  <SCORE.norm>
-1.85978

>  <RMSD>
0.884

$$$$
ligand
 OpenBabel11021811423D
libRbt.so/2013.1/901 2013/11/27
 10 11  0  0  0  0  0  0  0  0999 V2000
   11.8600   10.9509    8.3913 N   0  0  0  0  0  0  0  0  0  0  0  0
   11.5512   12.2697    8.6578 C   0  0  0  0  0  0  0  0  0  0  0  0
   11.1673   13.1186    7.6965 N   0  0  0  0  0  0  0  0  0  0  0  0
   11.1212   12.5465    6.4604 C   0  0  0  0  0  0  0  0  0  0  0  0
   11.4191   11.2341    6.1261 C   0  0  0  0  0  0  0  0  0  0  0  0
   11.8250   10.3268    7.1422 C   0  0  0  0  0  0  0  0  0  0  0  0
   12.1314    9.1365    7.0710 O   0  0  0  0  0  0  0  0  0  0  0  0
   11.2428   11.0805    4.7720 N   0  0  0  0  0  0  0  0  0  0  0  0
   10.8437   12.2840    4.2980 C   0  0  0  0  0  0  0  0  0  0  0  0
   10.7601   13.2092    5.3123 N   0  0  0  0  0  0  0  0  0  0  0  0
  1  2  1  0  0  0  0
  1  6  1  0  0  0  0
  2  3  2  0  0  0  0
  3  4  1  0  0  0  0
  4  5  2  0  0  0  0
  4 10  1  0  0  0  0
  5  6  1  0  0  0  0
  5  8  1  0  0  0  0
  6  7  2  0  0  0  0
  8  9  1  0  0  0  0
  9 10  2  0  0  0  0
M  END
>  <CHROM.1>
11.40636021,11.56946367,6.60419756,0.38700738,-1.26825683,1.02852933

>  <Name>
ligand

>  <RI>
0

>  <Rbt.Current_Directory>
/home/itssahil/PROJECTS/Mol_Feturizer/New_Systems/rnas/2EEU

>  <Rbt.Executable>
rbdock ($Id: //depot/dev/client3/rdock/2013.1/src/exe/rbdock.cxx#4 $)

>  <Rbt.Library>
libRbt.so (2013.1, Build901 2013/11/27)

>  <Rbt.Parameter_File>
/export/apps/rDock/src/rDock_2013.1_src/data/scripts/dock_solv.prm

>  <Rbt.Receptor>
prm/blind_docking_100.prm

>  <SCORE>
-18.5998

>  <SCORE.INTER>
-18.5998

>  <SCORE.INTER.CONST>
1

>  <SCORE.INTER.POLAR>
0

>  <SCORE.INTER.ROT>
0

>  <SCORE.INTER.SOLV>
3.54092

>  <SCORE.INTER.VDW>
-17.1802

>  <SCORE.INTER.norm>
-1.85998

>  <SCORE.INTRA>
0

>  <SCORE.INTRA.DIHEDRAL>
0

>  <SCORE.INTRA.DIHEDRAL.0>
0

>  <SCORE.INTRA.POLAR>
0

>  <SCORE.INTRA.POLAR.0>
0

>  <SCORE.INTRA.REPUL>
0

>  <SCORE.INTRA.REPUL.0>
0

>  <SCORE.INTRA.SOLV>
0

>  <SCORE.INTRA.SOLV.lig_0>
-4.28148

>  <SCORE.INTRA.VDW>
0

>  <SCORE.INTRA.VDW.0>
0

>  <SCORE.INTRA.norm>
0

>  <SCORE.RESTR>
0

>  <SCORE.RESTR.CAVITY>
0

>  <SCORE.RESTR.norm>
0

>  <SCORE.SYSTEM>
0

>  <SCORE.SYSTEM.CONST>
0

>  <SCORE.SYSTEM.DIHEDRAL>
0

>  <SCORE.SYSTEM.SOLV>
0

>  <SCORE.SYSTEM.norm>
0

>  <SCORE.heavy>
10

>  <SCORE.norm>
-1.85998

>  <RMSD>
0.884

$$$$
ligand
 OpenBabel11021811423D
libRbt.so/2013.1/901 2013/11/27
 10 11  0  0  0  0  0  0  0  0999 V2000
   11.7777   10.9820    8.4142 N   0  0  0  0  0  0  0  0  0  0  0  0
   11.4352   12.2947    8.6693 C   0  0  0  0  0  0  0  0  0  0  0  0
   11.0685   13.1364    7.6950 N   0  0  0  0  0  0  0  0  0  0  0  0
   11.0755   12.5636    6.4584 C   0  0  0  0  0  0  0  0  0  0  0  0
   11.4093   11.2571    6.1352 C   0  0  0  0  0  0  0  0  0  0  0  0
   11.7972   10.3574    7.1650 C   0  0  0  0  0  0  0  0  0  0  0  0
   12.1282    9.1732    7.1050 O   0  0  0  0  0  0  0  0  0  0  0  0
   11.2823   11.1003    4.7759 N   0  0  0  0  0  0  0  0  0  0  0  0
   10.8770   12.2961    4.2879 C   0  0  0  0  0  0  0  0  0  0  0  0
   10.7414   13.2195    5.2982 N   0  0  0  0  0  0  0  0  0  0  0  0
  1  2  1  0  0  0  0
  1  6  1  0  0  0  0
  2  3  2  0  0  0  0
  3  4  1  0  0  0  0
  4  5  2  0  0  0  0
  4 10  1  0  0  0  0
  5  6  1  0  0  0  0
  5  8  1  0  0  0  0
  6  7  2  0  0  0  0
  8  9  1  0  0  0  0
  9 10  2  0  0  0  0
M  END
>  <CHROM.1>
11.37390232,11.59210653,6.61236189,0.51786401,-1.26734451,1.15321028

>  <Name>
ligand

>  <RI>
0

>  <Rbt.Current_Directory>
/home/itssahil/PROJECTS/Mol_Feturizer/New_Systems/rnas/2EEU

>  <Rbt.Executable>
rbdock ($Id: //depot/dev/client3/rdock/2013.1/src/exe/rbdock.cxx#4 $)

>  <Rbt.Library>
libRbt.so (2013.1, Build901 2013/11/27)

>  <Rbt.Parameter_File>
/export/apps/rDock/src/rDock_2013.1_src/data/scripts/dock_solv.prm

>  <Rbt.Receptor>
prm/blind_docking_40.prm

>  <SCORE>
-18.5976

>  <SCORE.INTER>
-18.5976

>  <SCORE.INTER.CONST>
1

>  <SCORE.INTER.POLAR>
0

>  <SCORE.INTER.ROT>
0

>  <SCORE.INTER.SOLV>
3.56342

>  <SCORE.INTER.VDW>
-17.1862

>  <SCORE.INTER.norm>
-1.85976

>  <SCORE.INTRA>
0

>  <SCORE.INTRA.DIHEDRAL>
0

>  <SCORE.INTRA.DIHEDRAL.0>
0

>  <SCORE.INTRA.POLAR>
0

>  <SCORE.INTRA.POLAR.0>
0

>  <SCORE.INTRA.REPUL>
0

>  <SCORE.INTRA.REPUL.0>
0

>  <SCORE.INTRA.SOLV>
0

>  <SCORE.INTRA.SOLV.lig_0>
-4.28148

>  <SCORE.INTRA.VDW>
0

>  <SCORE.INTRA.VDW.0>
0

>  <SCORE.INTRA.norm>
0

>  <SCORE.RESTR>
0

>  <SCORE.RESTR.CAVITY>
0

>  <SCORE.RESTR.norm>
0

>  <SCORE.SYSTEM>
0

>  <SCORE.SYSTEM.CONST>
0

>  <SCORE.SYSTEM.DIHEDRAL>
0

>  <SCORE.SYSTEM.SOLV>
0

>  <SCORE.SYSTEM.norm>
0

>  <SCORE.heavy>
10

>  <SCORE.norm>
-1.85976

>  <RMSD>
0.884

$$$$
ligand
 OpenBabel11021811423D
libRbt.so/2013.1/901 2013/11/27
 10 11  0  0  0  0  0  0  0  0999 V2000
   11.8561   10.9491    8.3920 N   0  0  0  0  0  0  0  0  0  0  0  0
   11.5432   12.2668    8.6592 C   0  0  0  0  0  0  0  0  0  0  0  0
   11.1601   13.1160    7.6977 N   0  0  0  0  0  0  0  0  0  0  0  0
   11.1193   12.5452    6.4608 C   0  0  0  0  0  0  0  0  0  0  0  0
   11.4215   11.2340    6.1259 C   0  0  0  0  0  0  0  0  0  0  0  0
   11.8266   10.3264    7.1421 C   0  0  0  0  0  0  0  0  0  0  0  0
   12.1361    9.1371    7.0704 O   0  0  0  0  0  0  0  0  0  0  0  0
   11.2498   11.0816    4.7710 N   0  0  0  0  0  0  0  0  0  0  0  0
   10.8491   12.2847    4.2973 C   0  0  0  0  0  0  0  0  0  0  0  0
   10.7601   13.2085    5.3124 N   0  0  0  0  0  0  0  0  0  0  0  0
  1  2  1  0  0  0  0
  1  6  1  0  0  0  0
  2  3  2  0  0  0  0
  3  4  1  0  0  0  0
  4  5  2  0  0  0  0
  4 10  1  0  0  0  0
  5  6  1  0  0  0  0
  5  8  1  0  0  0  0
  6  7  2  0  0  0  0
  8  9  1  0  0  0  0
  9 10  2  0  0  0  0
M  END
>  <CHROM.1>
11.40646544,11.56873998,6.60430823,0.40016008,-1.26769815,1.04229467

>  <Name>
ligand

>  <RI>
0

>  <Rbt.Current_Directory>
/home/itssahil/PROJECTS/Mol_Feturizer/New_Systems/rnas/2EEU

>  <Rbt.Executable>
rbdock ($Id: //depot/dev/client3/rdock/2013.1/src/exe/rbdock.cxx#4 $)

>  <Rbt.Library>
libRbt.so (2013.1, Build901 2013/11/27)

>  <Rbt.Parameter_File>
/export/apps/rDock/src/rDock_2013.1_src/data/scripts/dock_solv.prm

>  <Rbt.Receptor>
prm/blind_docking_60.prm

>  <SCORE>
-18.5984

>  <SCORE.INTER>
-18.5984

>  <SCORE.INTER.CONST>
1

>  <SCORE.INTER.POLAR>
0

>  <SCORE.INTER.ROT>
0

>  <SCORE.INTER.SOLV>
3.53871

>  <SCORE.INTER.VDW>
-17.1785

>  <SCORE.INTER.norm>
-1.85984

>  <SCORE.INTRA>
0

>  <SCORE.INTRA.DIHEDRAL>
0

>  <SCORE.INTRA.DIHEDRAL.0>
0

>  <SCORE.INTRA.POLAR>
0

>  <SCORE.INTRA.POLAR.0>
0

>  <SCORE.INTRA.REPUL>
0

>  <SCORE.INTRA.REPUL.0>
0

>  <SCORE.INTRA.SOLV>
0

>  <SCORE.INTRA.SOLV.lig_0>
-4.28148

>  <SCORE.INTRA.VDW>
0

>  <SCORE.INTRA.VDW.0>
0

>  <SCORE.INTRA.norm>
0

>  <SCORE.RESTR>
0

>  <SCORE.RESTR.CAVITY>
0

>  <SCORE.RESTR.norm>
0

>  <SCORE.SYSTEM>
0

>  <SCORE.SYSTEM.CONST>
0

>  <SCORE.SYSTEM.DIHEDRAL>
0

>  <SCORE.SYSTEM.SOLV>
0

>  <SCORE.SYSTEM.norm>
0

>  <SCORE.heavy>
10

>  <SCORE.norm>
-1.85984

>  <RMSD>
0.884

$$$$
ligand
 OpenBabel11021811423D
libRbt.so/2013.1/901 2013/11/27
 10 11  0  0  0  0  0  0  0  0999 V2000
   11.7642   10.9776    8.4186 N   0  0  0  0  0  0  0  0  0  0  0  0
   11.4128   12.2881    8.6729 C   0  0  0  0  0  0  0  0  0  0  0  0
   11.0491   13.1293    7.6970 N   0  0  0  0  0  0  0  0  0  0  0  0
   11.0686   12.5584    6.4596 C   0  0  0  0  0  0  0  0  0  0  0  0
   11.4117   11.2541    6.1372 C   0  0  0  0  0  0  0  0  0  0  0  0
   11.7965   10.3550    7.1687 C   0  0  0  0  0  0  0  0  0  0  0  0
   12.1342    9.1726    7.1095 O   0  0  0  0  0  0  0  0  0  0  0  0
   11.2960   11.0986    4.7768 N   0  0  0  0  0  0  0  0  0  0  0  0
   10.8882   12.2930    4.2874 C   0  0  0  0  0  0  0  0  0  0  0  0
   10.7400   13.2142    5.2979 N   0  0  0  0  0  0  0  0  0  0  0  0
  1  2  1  0  0  0  0
  1  6  1  0  0  0  0
  2  3  2  0  0  0  0
  3  4  1  0  0  0  0
  4  5  2  0  0  0  0
  4 10  1  0  0  0  0
  5  6  1  0  0  0  0
  5  8  1  0  0  0  0
  6  7  2  0  0  0  0
  8  9  1  0  0  0  0
  9 10  2  0  0  0  0
M  END
>  <CHROM.1>
11.37092246,11.58823356,6.61453987,0.54825646,-1.26550111,1.18364449

>  <Name>
ligand

>  <RI>
0

>  <Rbt.Current_Directory>
/home/itssahil/PROJECTS/Mol_Feturizer/New_Systems/rnas/2EEU

>  <Rbt.Executable>
rbdock ($Id: //depot/dev/client3/rdock/2013.1/src/exe/rbdock.cxx#4 $)

>  <Rbt.Library>
libRbt.so (2013.1, Build901 2013/11/27)

>  <Rbt.Parameter_File>
/export/apps/rDock/src/rDock_2013.1_src/data/scripts/dock_solv.prm

>  <Rbt.Receptor>
prm/blind_docking_60.prm

>  <SCORE>
-18.5775

>  <SCORE.INTER>
-18.5775

>  <SCORE.INTER.CONST>
1

>  <SCORE.INTER.POLAR>
0

>  <SCORE.INTER.ROT>
0

>  <SCORE.INTER.SOLV>
3.5623

>  <SCORE.INTER.VDW>
-17.1724

>  <SCORE.INTER.norm>
-1.85775

>  <SCORE.INTRA>
0

>  <SCORE.INTRA.DIHEDRAL>
0

>  <SCORE.INTRA.DIHEDRAL.0>
0

>  <SCORE.INTRA.POLAR>
0

>  <SCORE.INTRA.POLAR.0>
0

>  <SCORE.INTRA.REPUL>
0

>  <SCORE.INTRA.REPUL.0>
0

>  <SCORE.INTRA.SOLV>
0

>  <SCORE.INTRA.SOLV.lig_0>
-4.28148

>  <SCORE.INTRA.VDW>
0

>  <SCORE.INTRA.VDW.0>
0

>  <SCORE.INTRA.norm>
0

>  <SCORE.RESTR>
0

>  <SCORE.RESTR.CAVITY>
0

>  <SCORE.RESTR.norm>
0

>  <SCORE.SYSTEM>
0

>  <SCORE.SYSTEM.CONST>
0

>  <SCORE.SYSTEM.DIHEDRAL>
0

>  <SCORE.SYSTEM.SOLV>
0

>  <SCORE.SYSTEM.norm>
0

>  <SCORE.heavy>
10

>  <SCORE.norm>
-1.85775

>  <RMSD>
0.884

$$$$
ligand
 OpenBabel11021811423D
libRbt.so/2013.1/901 2013/11/27
 10 11  0  0  0  0  0  0  0  0999 V2000
   11.8593   10.9502    8.3914 N   0  0  0  0  0  0  0  0  0  0  0  0
   11.5585   12.2710    8.6572 C   0  0  0  0  0  0  0  0  0  0  0  0
   11.1740   13.1202    7.6963 N   0  0  0  0  0  0  0  0  0  0  0  0
   11.1189   12.5462    6.4615 C   0  0  0  0  0  0  0  0  0  0  0  0
   11.4085   11.2317    6.1280 C   0  0  0  0  0  0  0  0  0  0  0  0
   11.8150   10.3241    7.1436 C   0  0  0  0  0  0  0  0  0  0  0  0
   12.1150    9.1322    7.0730 O   0  0  0  0  0  0  0  0  0  0  0  0
   11.2247   11.0766    4.7751 N   0  0  0  0  0  0  0  0  0  0  0  0
   10.8292   12.2813    4.3010 C   0  0  0  0  0  0  0  0  0  0  0  0
   10.7554   13.2087    5.3140 N   0  0  0  0  0  0  0  0  0  0  0  0
  1  2  1  0  0  0  0
  1  6  1  0  0  0  0
  2  3  2  0  0  0  0
  3  4  1  0  0  0  0
  4  5  2  0  0  0  0
  4 10  1  0  0  0  0
  5  6  1  0  0  0  0
  5  8  1  0  0  0  0
  6  7  2  0  0  0  0
  8  9  1  0  0  0  0
  9 10  2  0  0  0  0
M  END
>  <CHROM.1>
11.39984514,11.56795020,6.60555405,0.36374280,-1.26990174,1.00457041

>  <Name>
ligand

>  <RI>
0

>  <Rbt.Current_Directory>
/home/itssahil/PROJECTS/Mol_Feturizer/New_Systems/rnas/2EEU

>  <Rbt.Executable>
rbdock ($Id: //depot/dev/client3/rdock/2013.1/src/exe/rbdock.cxx#4 $)

>  <Rbt.Library>
libRbt.so (2013.1, Build901 2013/11/27)

>  <Rbt.Parameter_File>
/export/apps/rDock/src/rDock_2013.1_src/data/scripts/dock_solv.prm

>  <Rbt.Receptor>
prm/blind_docking_80.prm

>  <SCORE>
-18.5962

>  <SCORE.INTER>
-18.5962

>  <SCORE.INTER.CONST>
1

>  <SCORE.INTER.POLAR>
0

>  <SCORE.INTER.ROT>
0

>  <SCORE.INTER.SOLV>
3.55415

>  <SCORE.INTER.VDW>
-17.1822

>  <SCORE.INTER.norm>
-1.85962

>  <SCORE.INTRA>
0

>  <SCORE.INTRA.DIHEDRAL>
0

>  <SCORE.INTRA.DIHEDRAL.0>
0

>  <SCORE.INTRA.POLAR>
0

>  <SCORE.INTRA.POLAR.0>
0

>  <SCORE.INTRA.REPUL>
0

>  <SCORE.INTRA.REPUL.0>
0

>  <SCORE.INTRA.SOLV>
0

>  <SCORE.INTRA.SOLV.lig_0>
-4.28148

>  <SCORE.INTRA.VDW>
0

>  <SCORE.INTRA.VDW.0>
0

>  <SCORE.INTRA.norm>
0

>  <SCORE.RESTR>
0

>  <SCORE.RESTR.CAVITY>
0

>  <SCORE.RESTR.norm>
0

>  <SCORE.SYSTEM>
0

>  <SCORE.SYSTEM.CONST>
0

>  <SCORE.SYSTEM.DIHEDRAL>
0

>  <SCORE.SYSTEM.SOLV>
0

>  <SCORE.SYSTEM.norm>
0

>  <SCORE.heavy>
10

>  <SCORE.norm>
-1.85962

>  <RMSD>
0.884

$$$$
ligand
 OpenBabel11021811423D
libRbt.so/2013.1/901 2013/11/27
 10 11  0  0  0  0  0  0  0  0999 V2000
   11.8870   11.0398    8.3819 N   0  0  0  0  0  0  0  0  0  0  0  0
   11.5893   12.3653    8.6269 C   0  0  0  0  0  0  0  0  0  0  0  0
   11.1997   13.1985    7.6541 N   0  0  0  0  0  0  0  0  0  0  0  0
   11.1362   12.6034    6.4296 C   0  0  0  0  0  0  0  0  0  0  0  0
   11.4221   11.2831    6.1170 C   0  0  0  0  0  0  0  0  0  0  0  0
   11.8340   10.3925    7.1454 C   0  0  0  0  0  0  0  0  0  0  0  0
   12.1322    9.1992    7.0933 O   0  0  0  0  0  0  0  0  0  0  0  0
   11.2296   11.1050    4.7681 N   0  0  0  0  0  0  0  0  0  0  0  0
   10.8325   12.3019    4.2759 C   0  0  0  0  0  0  0  0  0  0  0  0
   10.7661   13.2466    5.2733 N   0  0  0  0  0  0  0  0  0  0  0  0
  1  2  1  0  0  0  0
  1  6  1  0  0  0  0
  2  3  2  0  0  0  0
  3  4  1  0  0  0  0
  4  5  2  0  0  0  0
  4 10  1  0  0  0  0
  5  6  1  0  0  0  0
  5  8  1  0  0  0  0
  6  7  2  0  0  0  0
  8  9  1  0  0  0  0
  9 10  2  0  0  0  0
M  END
>  <CHROM.1>
11.41690337,11.62746199,6.58870062,0.34383205,-1.26739688,0.96841228

>  <Name>
ligand

>  <RI>
0

>  <Rbt.Current_Directory>
/home/itssahil/PROJECTS/Mol_Feturizer/New_Systems/rnas/2EEU

>  <Rbt.Executable>
rbdock ($Id: //depot/dev/client3/rdock/2013.1/src/exe/rbdock.cxx#4 $)

>  <Rbt.Library>
libRbt.so (2013.1, Build901 2013/11/27)

>  <Rbt.Parameter_File>
/export/apps/rDock/src/rDock_2013.1_src/data/scripts/dock_solv.prm

>  <Rbt.Receptor>
prm/pocket_docking_3.prm

>  <SCORE>
-18.5131

>  <SCORE.INTER>
-18.5131

>  <SCORE.INTER.CONST>
1

>  <SCORE.INTER.POLAR>
0

>  <SCORE.INTER.ROT>
0

>  <SCORE.INTER.SOLV>
3.53321

>  <SCORE.INTER.VDW>
-17.1198

>  <SCORE.INTER.norm>
-1.85131

>  <SCORE.INTRA>
0

>  <SCORE.INTRA.DIHEDRAL>
0

>  <SCORE.INTRA.DIHEDRAL.0>
0

>  <SCORE.INTRA.POLAR>
0

>  <SCORE.INTRA.POLAR.0>
0

>  <SCORE.INTRA.REPUL>
0

>  <SCORE.INTRA.REPUL.0>
0

>  <SCORE.INTRA.SOLV>
0

>  <SCORE.INTRA.SOLV.lig_0>
-4.28148

>  <SCORE.INTRA.VDW>
0

>  <SCORE.INTRA.VDW.0>
0

>  <SCORE.INTRA.norm>
0

>  <SCORE.RESTR>
0

>  <SCORE.RESTR.CAVITY>
0

>  <SCORE.RESTR.norm>
0

>  <SCORE.SYSTEM>
0

>  <SCORE.SYSTEM.CONST>
0

>  <SCORE.SYSTEM.DIHEDRAL>
0

>  <SCORE.SYSTEM.SOLV>
0

>  <SCORE.SYSTEM.norm>
0

>  <SCORE.heavy>
10

>  <SCORE.norm>
-1.85131

>  <RMSD>
0.884

$$$$
ligand
 OpenBabel11021811423D
libRbt.so/2013.1/901 2013/11/27
 10 11  0  0  0  0  0  0  0  0999 V2000
   11.8592   10.9503    8.3921 N   0  0  0  0  0  0  0  0  0  0  0  0
   11.5503   12.2693    8.6574 C   0  0  0  0  0  0  0  0  0  0  0  0
   11.1673   13.1176    7.6951 N   0  0  0  0  0  0  0  0  0  0  0  0
   11.1223   12.5445    6.4594 C   0  0  0  0  0  0  0  0  0  0  0  0
   11.4203   11.2318    6.1264 C   0  0  0  0  0  0  0  0  0  0  0  0
   11.8253   10.3252    7.1435 C   0  0  0  0  0  0  0  0  0  0  0  0
   12.1316    9.1349    7.0734 O   0  0  0  0  0  0  0  0  0  0  0  0
   11.2452   11.0772    4.7722 N   0  0  0  0  0  0  0  0  0  0  0  0
   10.8466   12.2805    4.2970 C   0  0  0  0  0  0  0  0  0  0  0  0
   10.7622   13.2064    5.3105 N   0  0  0  0  0  0  0  0  0  0  0  0
  1  2  1  0  0  0  0
  1  6  1  0  0  0  0
  2  3  2  0  0  0  0
  3  4  1  0  0  0  0
  4  5  2  0  0  0  0
  4 10  1  0  0  0  0
  5  6  1  0  0  0  0
  5  8  1  0  0  0  0
  6  7  2  0  0  0  0
  8  9  1  0  0  0  0
  9 10  2  0  0  0  0
M  END
>  <CHROM.1>
11.40719525,11.56756993,6.60418685,0.38929101,-1.26879179,1.02996716

>  <Name>
ligand

>  <RI>
0

>  <Rbt.Current_Directory>
/home/itssahil/PROJECTS/Mol_Feturizer/New_Systems/rnas/2EEU

>  <Rbt.Executable>
rbdock ($Id: //depot/dev/client3/rdock/2013.1/src/exe/rbdock.cxx#4 $)

>  <Rbt.Library>
libRbt.so (2013.1, Build901 2013/11/27)

>  <Rbt.Parameter_File>
/export/apps/rDock/src/rDock_2013.1_src/data/scripts/dock_solv.prm

>  <Rbt.Receptor>
prm/pocket_docking_3.prm

>  <SCORE>
-18.5981

>  <SCORE.INTER>
-18.5981

>  <SCORE.INTER.CONST>
1

>  <SCORE.INTER.POLAR>
0

>  <SCORE.INTER.ROT>
0

>  <SCORE.INTER.SOLV>
3.54127

>  <SCORE.INTER.VDW>
-17.1791

>  <SCORE.INTER.norm>
-1.85981

>  <SCORE.INTRA>
0

>  <SCORE.INTRA.DIHEDRAL>
0

>  <SCORE.INTRA.DIHEDRAL.0>
0

>  <SCORE.INTRA.POLAR>
0

>  <SCORE.INTRA.POLAR.0>
0

>  <SCORE.INTRA.REPUL>
0

>  <SCORE.INTRA.REPUL.0>
0

>  <SCORE.INTRA.SOLV>
0

>  <SCORE.INTRA.SOLV.lig_0>
-4.28148

>  <SCORE.INTRA.VDW>
0

>  <SCORE.INTRA.VDW.0>
0

>  <SCORE.INTRA.norm>
0

>  <SCORE.RESTR>
0

>  <SCORE.RESTR.CAVITY>
0

>  <SCORE.RESTR.norm>
0

>  <SCORE.SYSTEM>
0

>  <SCORE.SYSTEM.CONST>
0

>  <SCORE.SYSTEM.DIHEDRAL>
0

>  <SCORE.SYSTEM.SOLV>
0

>  <SCORE.SYSTEM.norm>
0

>  <SCORE.heavy>
10

>  <SCORE.norm>
-1.85981

>  <RMSD>
0.884

$$$$
ligand
 OpenBabel11021811423D
libRbt.so/2013.1/901 2013/11/27
 10 11  0  0  0  0  0  0  0  0999 V2000
   11.8549   10.9494    8.3909 N   0  0  0  0  0  0  0  0  0  0  0  0
   11.5471   12.2679    8.6597 C   0  0  0  0  0  0  0  0  0  0  0  0
   11.1625   13.1185    7.7001 N   0  0  0  0  0  0  0  0  0  0  0  0
   11.1148   12.5482    6.4632 C   0  0  0  0  0  0  0  0  0  0  0  0
   11.4116   11.2361    6.1267 C   0  0  0  0  0  0  0  0  0  0  0  0
   11.8182   10.3271    7.1410 C   0  0  0  0  0  0  0  0  0  0  0  0
   12.1239    9.1368    7.0677 O   0  0  0  0  0  0  0  0  0  0  0  0
   11.2337   11.0845    4.7726 N   0  0  0  0  0  0  0  0  0  0  0  0
   10.8346   12.2889    4.3008 C   0  0  0  0  0  0  0  0  0  0  0  0
   10.7527   13.2128    5.3165 N   0  0  0  0  0  0  0  0  0  0  0  0
  1  2  1  0  0  0  0
  1  6  1  0  0  0  0
  2  3  2  0  0  0  0
  3  4  1  0  0  0  0
  4  5  2  0  0  0  0
  4 10  1  0  0  0  0
  5  6  1  0  0  0  0
  5  8  1  0  0  0  0
  6  7  2  0  0  0  0
  8  9  1  0  0  0  0
  9 10  2  0  0  0  0
M  END
>  <CHROM.1>
11.39956455,11.57079272,6.60529969,0.38284137,-1.26811459,1.02599476

>  <Name>
ligand

>  <RI>
0

>  <Rbt.Current_Directory>
/home/itssahil/PROJECTS/Mol_Feturizer/New_Systems/rnas/2EEU

>  <Rbt.Executable>
rbdock ($Id: //depot/dev/client3/rdock/2013.1/src/exe/rbdock.cxx#4 $)

>  <Rbt.Library>
libRbt.so (2013.1, Build901 2013/11/27)

>  <Rbt.Parameter_File>
/export/apps/rDock/src/rDock_2013.1_src/data/scripts/dock_solv.prm

>  <Rbt.Receptor>
prm/pocket_docking_3.prm

>  <SCORE>
-18.6002

>  <SCORE.INTER>
-18.6002

>  <SCORE.INTER.CONST>
1

>  <SCORE.INTER.POLAR>
0

>  <SCORE.INTER.ROT>
0

>  <SCORE.INTER.SOLV>
3.54826

>  <SCORE.INTER.VDW>
-17.1829

>  <SCORE.INTER.norm>
-1.86002

>  <SCORE.INTRA>
0

>  <SCORE.INTRA.DIHEDRAL>
0

>  <SCORE.INTRA.DIHEDRAL.0>
0

>  <SCORE.INTRA.POLAR>
0

>  <SCORE.INTRA.POLAR.0>
0

>  <SCORE.INTRA.REPUL>
0

>  <SCORE.INTRA.REPUL.0>
0

>  <SCORE.INTRA.SOLV>
0

>  <SCORE.INTRA.SOLV.lig_0>
-4.28148

>  <SCORE.INTRA.VDW>
0

>  <SCORE.INTRA.VDW.0>
0

>  <SCORE.INTRA.norm>
0

>  <SCORE.RESTR>
0

>  <SCORE.RESTR.CAVITY>
0

>  <SCORE.RESTR.norm>
0

>  <SCORE.SYSTEM>
0

>  <SCORE.SYSTEM.CONST>
0

>  <SCORE.SYSTEM.DIHEDRAL>
0

>  <SCORE.SYSTEM.SOLV>
0

>  <SCORE.SYSTEM.norm>
0

>  <SCORE.heavy>
10

>  <SCORE.norm>
-1.86002

>  <RMSD>
0.884

$$$$
ligand
 OpenBabel11021811423D
libRbt.so/2013.1/901 2013/11/27
 10 11  0  0  0  0  0  0  0  0999 V2000
   11.8580   10.9531    8.3901 N   0  0  0  0  0  0  0  0  0  0  0  0
   11.5557   12.2734    8.6566 C   0  0  0  0  0  0  0  0  0  0  0  0
   11.1689   13.1224    7.6966 N   0  0  0  0  0  0  0  0  0  0  0  0
   11.1128   12.5486    6.4616 C   0  0  0  0  0  0  0  0  0  0  0  0
   11.4037   11.2346    6.1274 C   0  0  0  0  0  0  0  0  0  0  0  0
   11.8127   10.3272    7.1422 C   0  0  0  0  0  0  0  0  0  0  0  0
   12.1142    9.1358    7.0709 O   0  0  0  0  0  0  0  0  0  0  0  0
   11.2183   11.0796    4.7747 N   0  0  0  0  0  0  0  0  0  0  0  0
   10.8205   12.2840    4.3015 C   0  0  0  0  0  0  0  0  0  0  0  0
   10.7469   13.2110    5.3149 N   0  0  0  0  0  0  0  0  0  0  0  0
  1  2  1  0  0  0  0
  1  6  1  0  0  0  0
  2  3  2  0  0  0  0
  3  4  1  0  0  0  0
  4  5  2  0  0  0  0
  4 10  1  0  0  0  0
  5  6  1  0  0  0  0
  5  8  1  0  0  0  0
  6  7  2  0  0  0  0
  8  9  1  0  0  0  0
  9 10  2  0  0  0  0
M  END
>  <CHROM.1>
11.39524927,11.57070565,6.60506685,0.36227101,-1.26806568,1.00343775

>  <Name>
ligand

>  <RI>
0

>  <Rbt.Current_Directory>
/home/itssahil/PROJECTS/Mol_Feturizer/New_Systems/rnas/2EEU

>  <Rbt.Executable>
rbdock ($Id: //depot/dev/client3/rdock/2013.1/src/exe/rbdock.cxx#4 $)

>  <Rbt.Library>
libRbt.so (2013.1, Build901 2013/11/27)

>  <Rbt.Parameter_File>
/export/apps/rDock/src/rDock_2013.1_src/data/scripts/dock_solv.prm

>  <Rbt.Receptor>
prm/pocket_docking_5.prm

>  <SCORE>
-18.591

>  <SCORE.INTER>
-18.591

>  <SCORE.INTER.CONST>
1

>  <SCORE.INTER.POLAR>
0

>  <SCORE.INTER.ROT>
0

>  <SCORE.INTER.SOLV>
3.55276

>  <SCORE.INTER.VDW>
-17.1782

>  <SCORE.INTER.norm>
-1.8591

>  <SCORE.INTRA>
0

>  <SCORE.INTRA.DIHEDRAL>
0

>  <SCORE.INTRA.DIHEDRAL.0>
0

>  <SCORE.INTRA.POLAR>
0

>  <SCORE.INTRA.POLAR.0>
0

>  <SCORE.INTRA.REPUL>
0

>  <SCORE.INTRA.REPUL.0>
0

>  <SCORE.INTRA.SOLV>
0

>  <SCORE.INTRA.SOLV.lig_0>
-4.28148

>  <SCORE.INTRA.VDW>
0

>  <SCORE.INTRA.VDW.0>
0

>  <SCORE.INTRA.norm>
0

>  <SCORE.RESTR>
0

>  <SCORE.RESTR.CAVITY>
0

>  <SCORE.RESTR.norm>
0

>  <SCORE.SYSTEM>
0

>  <SCORE.SYSTEM.CONST>
0

>  <SCORE.SYSTEM.DIHEDRAL>
0

>  <SCORE.SYSTEM.SOLV>
0

>  <SCORE.SYSTEM.norm>
0

>  <SCORE.heavy>
10

>  <SCORE.norm>
-1.8591

>  <RMSD>
0.884

$$$$
ligand
 OpenBabel11021811423D
libRbt.so/2013.1/901 2013/11/27
 10 11  0  0  0  0  0  0  0  0999 V2000
   11.8572   10.9503    8.3908 N   0  0  0  0  0  0  0  0  0  0  0  0
   11.5458   12.2682    8.6590 C   0  0  0  0  0  0  0  0  0  0  0  0
   11.1613   13.1178    7.6985 N   0  0  0  0  0  0  0  0  0  0  0  0
   11.1174   12.5474    6.4616 C   0  0  0  0  0  0  0  0  0  0  0  0
   11.4179   11.2360    6.1257 C   0  0  0  0  0  0  0  0  0  0  0  0
   11.8245   10.3279    7.1409 C   0  0  0  0  0  0  0  0  0  0  0  0
   12.1330    9.1383    7.0682 O   0  0  0  0  0  0  0  0  0  0  0  0
   11.2433   11.0840    4.7712 N   0  0  0  0  0  0  0  0  0  0  0  0
   10.8424   12.2875    4.2986 C   0  0  0  0  0  0  0  0  0  0  0  0
   10.7562   13.2111    5.3141 N   0  0  0  0  0  0  0  0  0  0  0  0
  1  2  1  0  0  0  0
  1  6  1  0  0  0  0
  2  3  2  0  0  0  0
  3  4  1  0  0  0  0
  4  5  2  0  0  0  0
  4 10  1  0  0  0  0
  5  6  1  0  0  0  0
  5  8  1  0  0  0  0
  6  7  2  0  0  0  0
  8  9  1  0  0  0  0
  9 10  2  0  0  0  0
M  END
>  <CHROM.1>
11.40416154,11.57064652,6.60423378,0.39277701,-1.26724141,1.03545969

>  <Name>
ligand

>  <RI>
0

>  <Rbt.Current_Directory>
/home/itssahil/PROJECTS/Mol_Feturizer/New_Systems/rnas/2EEU

>  <Rbt.Executable>
rbdock ($Id: //depot/dev/client3/rdock/2013.1/src/exe/rbdock.cxx#4 $)

>  <Rbt.Library>
libRbt.so (2013.1, Build901 2013/11/27)

>  <Rbt.Parameter_File>
/export/apps/rDock/src/rDock_2013.1_src/data/scripts/dock_solv.prm

>  <Rbt.Receptor>
prm/pocket_docking_5.prm

>  <SCORE>
-18.5997

>  <SCORE.INTER>
-18.5997

>  <SCORE.INTER.CONST>
1

>  <SCORE.INTER.POLAR>
0

>  <SCORE.INTER.ROT>
0

>  <SCORE.INTER.SOLV>
3.54014

>  <SCORE.INTER.VDW>
-17.1798

>  <SCORE.INTER.norm>
-1.85997

>  <SCORE.INTRA>
0

>  <SCORE.INTRA.DIHEDRAL>
0

>  <SCORE.INTRA.DIHEDRAL.0>
0

>  <SCORE.INTRA.POLAR>
0

>  <SCORE.INTRA.POLAR.0>
0

>  <SCORE.INTRA.REPUL>
0

>  <SCORE.INTRA.REPUL.0>
0

>  <SCORE.INTRA.SOLV>
0

>  <SCORE.INTRA.SOLV.lig_0>
-4.28148

>  <SCORE.INTRA.VDW>
0

>  <SCORE.INTRA.VDW.0>
0

>  <SCORE.INTRA.norm>
0

>  <SCORE.RESTR>
0

>  <SCORE.RESTR.CAVITY>
0

>  <SCORE.RESTR.norm>
0

>  <SCORE.SYSTEM>
0

>  <SCORE.SYSTEM.CONST>
0

>  <SCORE.SYSTEM.DIHEDRAL>
0

>  <SCORE.SYSTEM.SOLV>
0

>  <SCORE.SYSTEM.norm>
0

>  <SCORE.heavy>
10

>  <SCORE.norm>
-1.85997

>  <RMSD>
0.884

$$$$
ligand
 OpenBabel11021811423D
libRbt.so/2013.1/901 2013/11/27
 10 11  0  0  0  0  0  0  0  0999 V2000
   11.7960   10.9856    8.4071 N   0  0  0  0  0  0  0  0  0  0  0  0
   11.4468   12.2956    8.6665 C   0  0  0  0  0  0  0  0  0  0  0  0
   11.0675   13.1362    7.6960 N   0  0  0  0  0  0  0  0  0  0  0  0
   11.0693   12.5652    6.4586 C   0  0  0  0  0  0  0  0  0  0  0  0
   11.4092   11.2613    6.1312 C   0  0  0  0  0  0  0  0  0  0  0  0
   11.8106   10.3628    7.1569 C   0  0  0  0  0  0  0  0  0  0  0  0
   12.1489    9.1809    7.0928 O   0  0  0  0  0  0  0  0  0  0  0  0
   11.2735   11.1055    4.7726 N   0  0  0  0  0  0  0  0  0  0  0  0
   10.8568   12.2993    4.2893 C   0  0  0  0  0  0  0  0  0  0  0  0
   10.7224   13.2204    5.3018 N   0  0  0  0  0  0  0  0  0  0  0  0
  1  2  1  0  0  0  0
  1  6  1  0  0  0  0
  2  3  2  0  0  0  0
  3  4  1  0  0  0  0
  4  5  2  0  0  0  0
  4 10  1  0  0  0  0
  5  6  1  0  0  0  0
  5  8  1  0  0  0  0
  6  7  2  0  0  0  0
  8  9  1  0  0  0  0
  9 10  2  0  0  0  0
M  END
>  <CHROM.1>
11.37512693,11.59543842,6.60903794,0.50491855,-1.25837067,1.14225341

>  <Name>
ligand

>  <RI>
0

>  <Rbt.Current_Directory>
/home/itssahil/PROJECTS/Mol_Feturizer/New_Systems/rnas/2EEU

>  <Rbt.Executable>
rbdock ($Id: //depot/dev/client3/rdock/2013.1/src/exe/rbdock.cxx#4 $)

>  <Rbt.Library>
libRbt.so (2013.1, Build901 2013/11/27)

>  <Rbt.Parameter_File>
/export/apps/rDock/src/rDock_2013.1_src/data/scripts/dock_solv.prm

>  <Rbt.Receptor>
prm/pocket_docking_6.prm

>  <SCORE>
-18.5942

>  <SCORE.INTER>
-18.5942

>  <SCORE.INTER.CONST>
1

>  <SCORE.INTER.POLAR>
0

>  <SCORE.INTER.ROT>
0

>  <SCORE.INTER.SOLV>
3.53339

>  <SCORE.INTER.VDW>
-17.174

>  <SCORE.INTER.norm>
-1.85942

>  <SCORE.INTRA>
0

>  <SCORE.INTRA.DIHEDRAL>
0

>  <SCORE.INTRA.DIHEDRAL.0>
0

>  <SCORE.INTRA.POLAR>
0

>  <SCORE.INTRA.POLAR.0>
0

>  <SCORE.INTRA.REPUL>
0

>  <SCORE.INTRA.REPUL.0>
0

>  <SCORE.INTRA.SOLV>
0

>  <SCORE.INTRA.SOLV.lig_0>
-4.28148

>  <SCORE.INTRA.VDW>
0

>  <SCORE.INTRA.VDW.0>
0

>  <SCORE.INTRA.norm>
0

>  <SCORE.RESTR>
0

>  <SCORE.RESTR.CAVITY>
0

>  <SCORE.RESTR.norm>
0

>  <SCORE.SYSTEM>
0

>  <SCORE.SYSTEM.CONST>
0

>  <SCORE.SYSTEM.DIHEDRAL>
0

>  <SCORE.SYSTEM.SOLV>
0

>  <SCORE.SYSTEM.norm>
0

>  <SCORE.heavy>
10

>  <SCORE.norm>
-1.85942

>  <RMSD>
0.884

$$$$
ligand
 OpenBabel11021811423D
libRbt.so/2013.1/901 2013/11/27
 10 11  0  0  0  0  0  0  0  0999 V2000
   11.8618   11.3088    8.4201 N   0  0  0  0  0  0  0  0  0  0  0  0
   11.5812   12.6516    8.5740 C   0  0  0  0  0  0  0  0  0  0  0  0
   11.2078   13.4228    7.5454 N   0  0  0  0  0  0  0  0  0  0  0  0
   11.1419   12.7479    6.3632 C   0  0  0  0  0  0  0  0  0  0  0  0
   11.4111   11.4058    6.1413 C   0  0  0  0  0  0  0  0  0  0  0  0
   11.8058   10.5808    7.2294 C   0  0  0  0  0  0  0  0  0  0  0  0
   12.0878    9.3828    7.2590 O   0  0  0  0  0  0  0  0  0  0  0  0
   11.2226   11.1404    4.8062 N   0  0  0  0  0  0  0  0  0  0  0  0
   10.8443   12.3068    4.2328 C   0  0  0  0  0  0  0  0  0  0  0  0
   10.7862   13.3171    5.1643 N   0  0  0  0  0  0  0  0  0  0  0  0
  1  2  1  0  0  0  0
  1  6  1  0  0  0  0
  2  3  2  0  0  0  0
  3  4  1  0  0  0  0
  4  5  2  0  0  0  0
  4 10  1  0  0  0  0
  5  6  1  0  0  0  0
  5  8  1  0  0  0  0
  6  7  2  0  0  0  0
  8  9  1  0  0  0  0
  9 10  2  0  0  0  0
M  END
>  <CHROM.1>
11.40840077,11.78112134,6.58886323,0.33029478,-1.28141715,0.88841909

>  <Name>
ligand

>  <RI>
0

>  <Rbt.Current_Directory>
/home/itssahil/PROJECTS/Mol_Feturizer/New_Systems/rnas/2EEU

>  <Rbt.Executable>
rbdock ($Id: //depot/dev/client3/rdock/2013.1/src/exe/rbdock.cxx#4 $)

>  <Rbt.Library>
libRbt.so (2013.1, Build901 2013/11/27)

>  <Rbt.Parameter_File>
/export/apps/rDock/src/rDock_2013.1_src/data/scripts/dock_solv.prm

>  <Rbt.Receptor>
prm/pocket_docking_7.prm

>  <SCORE>
-18.4334

>  <SCORE.INTER>
-18.4334

>  <SCORE.INTER.CONST>
1

>  <SCORE.INTER.POLAR>
0

>  <SCORE.INTER.ROT>
0

>  <SCORE.INTER.SOLV>
3.53081

>  <SCORE.INTER.VDW>
-17.0659

>  <SCORE.INTER.norm>
-1.84334

>  <SCORE.INTRA>
0

>  <SCORE.INTRA.DIHEDRAL>
0

>  <SCORE.INTRA.DIHEDRAL.0>
0

>  <SCORE.INTRA.POLAR>
0

>  <SCORE.INTRA.POLAR.0>
0

>  <SCORE.INTRA.REPUL>
0

>  <SCORE.INTRA.REPUL.0>
0

>  <SCORE.INTRA.SOLV>
0

>  <SCORE.INTRA.SOLV.lig_0>
-4.28148

>  <SCORE.INTRA.VDW>
0

>  <SCORE.INTRA.VDW.0>
0

>  <SCORE.INTRA.norm>
0

>  <SCORE.RESTR>
0

>  <SCORE.RESTR.CAVITY>
0

>  <SCORE.RESTR.norm>
0

>  <SCORE.SYSTEM>
0

>  <SCORE.SYSTEM.CONST>
0

>  <SCORE.SYSTEM.DIHEDRAL>
0

>  <SCORE.SYSTEM.SOLV>
0

>  <SCORE.SYSTEM.norm>
0

>  <SCORE.heavy>
10

>  <SCORE.norm>
-1.84334

>  <RMSD>
0.884

$$$$
ligand
 OpenBabel11021811423D
libRbt.so/2013.1/901 2013/11/27
 10 11  0  0  0  0  0  0  0  0999 V2000
   11.8364   11.0281    8.4115 N   0  0  0  0  0  0  0  0  0  0  0  0
   11.5090   12.3506    8.6335 C   0  0  0  0  0  0  0  0  0  0  0  0
   11.1256   13.1646    7.6422 N   0  0  0  0  0  0  0  0  0  0  0  0
   11.1001   12.5538    6.4241 C   0  0  0  0  0  0  0  0  0  0  0  0
   11.4172   11.2354    6.1341 C   0  0  0  0  0  0  0  0  0  0  0  0
   11.8227   10.3651    7.1823 C   0  0  0  0  0  0  0  0  0  0  0  0
   12.1440    9.1771    7.1514 O   0  0  0  0  0  0  0  0  0  0  0  0
   11.2578   11.0377    4.7836 N   0  0  0  0  0  0  0  0  0  0  0  0
   10.8496   12.2210    4.2682 C   0  0  0  0  0  0  0  0  0  0  0  0
   10.7438   13.1761    5.2521 N   0  0  0  0  0  0  0  0  0  0  0  0
  1  2  1  0  0  0  0
  1  6  1  0  0  0  0
  2  3  2  0  0  0  0
  3  4  1  0  0  0  0
  4  5  2  0  0  0  0
  4 10  1  0  0  0  0
  5  6  1  0  0  0  0
  5  8  1  0  0  0  0
  6  7  2  0  0  0  0
  8  9  1  0  0  0  0
  9 10  2  0  0  0  0
M  END
>  <CHROM.1>
11.39521463,11.58529750,6.60133433,0.43862515,-1.26337162,1.04665403

>  <Name>
ligand

>  <RI>
0

>  <Rbt.Current_Directory>
/home/itssahil/PROJECTS/Mol_Feturizer/New_Systems/rnas/2EEU

>  <Rbt.Executable>
rbdock ($Id: //depot/dev/client3/rdock/2013.1/src/exe/rbdock.cxx#4 $)

>  <Rbt.Library>
libRbt.so (2013.1, Build901 2013/11/27)

>  <Rbt.Parameter_File>
/export/apps/rDock/src/rDock_2013.1_src/data/scripts/dock_solv.prm

>  <Rbt.Receptor>
prm/pocket_docking_7.prm

>  <SCORE>
-18.5142

>  <SCORE.INTER>
-18.5142

>  <SCORE.INTER.CONST>
1

>  <SCORE.INTER.POLAR>
0

>  <SCORE.INTER.ROT>
0

>  <SCORE.INTER.SOLV>
3.51338

>  <SCORE.INTER.VDW>
-17.1139

>  <SCORE.INTER.norm>
-1.85142

>  <SCORE.INTRA>
0

>  <SCORE.INTRA.DIHEDRAL>
0

>  <SCORE.INTRA.DIHEDRAL.0>
0

>  <SCORE.INTRA.POLAR>
0

>  <SCORE.INTRA.POLAR.0>
0

>  <SCORE.INTRA.REPUL>
0

>  <SCORE.INTRA.REPUL.0>
0

>  <SCORE.INTRA.SOLV>
0

>  <SCORE.INTRA.SOLV.lig_0>
-4.28148

>  <SCORE.INTRA.VDW>
0

>  <SCORE.INTRA.VDW.0>
0

>  <SCORE.INTRA.norm>
0

>  <SCORE.RESTR>
0

>  <SCORE.RESTR.CAVITY>
0

>  <SCORE.RESTR.norm>
0

>  <SCORE.SYSTEM>
0

>  <SCORE.SYSTEM.CONST>
0

>  <SCORE.SYSTEM.DIHEDRAL>
0

>  <SCORE.SYSTEM.SOLV>
0

>  <SCORE.SYSTEM.norm>
0

>  <SCORE.heavy>
10

>  <SCORE.norm>
-1.85142

>  <RMSD>
0.884

$$$$
ligand
 OpenBabel11021811423D
libRbt.so/2013.1/901 2013/11/27
 10 11  0  0  0  0  0  0  0  0999 V2000
   11.8533   10.9489    8.3914 N   0  0  0  0  0  0  0  0  0  0  0  0
   11.5455   12.2677    8.6593 C   0  0  0  0  0  0  0  0  0  0  0  0
   11.1624   13.1180    7.6989 N   0  0  0  0  0  0  0  0  0  0  0  0
   11.1160   12.5472    6.4622 C   0  0  0  0  0  0  0  0  0  0  0  0
   11.4128   11.2349    6.1265 C   0  0  0  0  0  0  0  0  0  0  0  0
   11.8179   10.3262    7.1416 C   0  0  0  0  0  0  0  0  0  0  0  0
   12.1233    9.1358    7.0692 O   0  0  0  0  0  0  0  0  0  0  0  0
   11.2365   11.0829    4.7722 N   0  0  0  0  0  0  0  0  0  0  0  0
   10.8383   12.2872    4.2995 C   0  0  0  0  0  0  0  0  0  0  0  0
   10.7554   13.2114    5.3147 N   0  0  0  0  0  0  0  0  0  0  0  0
  1  2  1  0  0  0  0
  1  6  1  0  0  0  0
  2  3  2  0  0  0  0
  3  4  1  0  0  0  0
  4  5  2  0  0  0  0
  4 10  1  0  0  0  0
  5  6  1  0  0  0  0
  5  8  1  0  0  0  0
  6  7  2  0  0  0  0
  8  9  1  0  0  0  0
  9 10  2  0  0  0  0
M  END
>  <CHROM.1>
11.40028937,11.56978637,6.60493439,0.38574648,-1.26897753,1.02838009

>  <Name>
ligand

>  <RI>
0

>  <Rbt.Current_Directory>
/home/itssahil/PROJECTS/Mol_Feturizer/New_Systems/rnas/2EEU

>  <Rbt.Executable>
rbdock ($Id: //depot/dev/client3/rdock/2013.1/src/exe/rbdock.cxx#4 $)

>  <Rbt.Library>
libRbt.so (2013.1, Build901 2013/11/27)

>  <Rbt.Parameter_File>
/export/apps/rDock/src/rDock_2013.1_src/data/scripts/dock_solv.prm

>  <Rbt.Receptor>
prm/blind_docking_100.prm

>  <SCORE>
-18.6004

>  <SCORE.INTER>
-18.6004

>  <SCORE.INTER.CONST>
1

>  <SCORE.INTER.POLAR>
0

>  <SCORE.INTER.ROT>
0

>  <SCORE.INTER.SOLV>
3.55018

>  <SCORE.INTER.VDW>
-17.1836

>  <SCORE.INTER.norm>
-1.86004

>  <SCORE.INTRA>
0

>  <SCORE.INTRA.DIHEDRAL>
0

>  <SCORE.INTRA.DIHEDRAL.0>
0

>  <SCORE.INTRA.POLAR>
0

>  <SCORE.INTRA.POLAR.0>
0

>  <SCORE.INTRA.REPUL>
0

>  <SCORE.INTRA.REPUL.0>
0

>  <SCORE.INTRA.SOLV>
0

>  <SCORE.INTRA.SOLV.lig_0>
-4.28148

>  <SCORE.INTRA.VDW>
0

>  <SCORE.INTRA.VDW.0>
0

>  <SCORE.INTRA.norm>
0

>  <SCORE.RESTR>
0

>  <SCORE.RESTR.CAVITY>
0

>  <SCORE.RESTR.norm>
0

>  <SCORE.SYSTEM>
0

>  <SCORE.SYSTEM.CONST>
0

>  <SCORE.SYSTEM.DIHEDRAL>
0

>  <SCORE.SYSTEM.SOLV>
0

>  <SCORE.SYSTEM.norm>
0

>  <SCORE.heavy>
10

>  <SCORE.norm>
-1.86004

>  <RMSD>
0.885

$$$$
ligand
 OpenBabel11021811423D
libRbt.so/2013.1/901 2013/11/27
 10 11  0  0  0  0  0  0  0  0999 V2000
   11.8574   10.9496    8.3921 N   0  0  0  0  0  0  0  0  0  0  0  0
   11.5502   12.2690    8.6573 C   0  0  0  0  0  0  0  0  0  0  0  0
   11.1692   13.1180    7.6949 N   0  0  0  0  0  0  0  0  0  0  0  0
   11.1243   12.5452    6.4591 C   0  0  0  0  0  0  0  0  0  0  0  0
   11.4206   11.2321    6.1261 C   0  0  0  0  0  0  0  0  0  0  0  0
   11.8235   10.3248    7.1433 C   0  0  0  0  0  0  0  0  0  0  0  0
   12.1281    9.1340    7.0733 O   0  0  0  0  0  0  0  0  0  0  0  0
   11.2463   11.0780    4.7717 N   0  0  0  0  0  0  0  0  0  0  0  0
   10.8498   12.2818    4.2964 C   0  0  0  0  0  0  0  0  0  0  0  0
   10.7660   13.2078    5.3100 N   0  0  0  0  0  0  0  0  0  0  0  0
  1  2  1  0  0  0  0
  1  6  1  0  0  0  0
  2  3  2  0  0  0  0
  3  4  1  0  0  0  0
  4  5  2  0  0  0  0
  4 10  1  0  0  0  0
  5  6  1  0  0  0  0
  5  8  1  0  0  0  0
  6  7  2  0  0  0  0
  8  9  1  0  0  0  0
  9 10  2  0  0  0  0
M  END
>  <CHROM.1>
11.40764460,11.56781925,6.60390896,0.38896838,-1.27042985,1.02980008

>  <Name>
ligand

>  <RI>
0

>  <Rbt.Current_Directory>
/home/itssahil/PROJECTS/Mol_Feturizer/New_Systems/rnas/2EEU

>  <Rbt.Executable>
rbdock ($Id: //depot/dev/client3/rdock/2013.1/src/exe/rbdock.cxx#4 $)

>  <Rbt.Library>
libRbt.so (2013.1, Build901 2013/11/27)

>  <Rbt.Parameter_File>
/export/apps/rDock/src/rDock_2013.1_src/data/scripts/dock_solv.prm

>  <Rbt.Receptor>
prm/pocket_docking_3.prm

>  <SCORE>
-18.5998

>  <SCORE.INTER>
-18.5998

>  <SCORE.INTER.CONST>
1

>  <SCORE.INTER.POLAR>
0

>  <SCORE.INTER.ROT>
0

>  <SCORE.INTER.SOLV>
3.54674

>  <SCORE.INTER.VDW>
-17.1821

>  <SCORE.INTER.norm>
-1.85998

>  <SCORE.INTRA>
0

>  <SCORE.INTRA.DIHEDRAL>
0

>  <SCORE.INTRA.DIHEDRAL.0>
0

>  <SCORE.INTRA.POLAR>
0

>  <SCORE.INTRA.POLAR.0>
0

>  <SCORE.INTRA.REPUL>
0

>  <SCORE.INTRA.REPUL.0>
0

>  <SCORE.INTRA.SOLV>
0

>  <SCORE.INTRA.SOLV.lig_0>
-4.28148

>  <SCORE.INTRA.VDW>
0

>  <SCORE.INTRA.VDW.0>
0

>  <SCORE.INTRA.norm>
0

>  <SCORE.RESTR>
0

>  <SCORE.RESTR.CAVITY>
0

>  <SCORE.RESTR.norm>
0

>  <SCORE.SYSTEM>
0

>  <SCORE.SYSTEM.CONST>
0

>  <SCORE.SYSTEM.DIHEDRAL>
0

>  <SCORE.SYSTEM.SOLV>
0

>  <SCORE.SYSTEM.norm>
0

>  <SCORE.heavy>
10

>  <SCORE.norm>
-1.85998

>  <RMSD>
0.885

$$$$
ligand
 OpenBabel11021811423D
libRbt.so/2013.1/901 2013/11/27
 10 11  0  0  0  0  0  0  0  0999 V2000
   11.8489   10.9481    8.3904 N   0  0  0  0  0  0  0  0  0  0  0  0
   11.5303   12.2633    8.6628 C   0  0  0  0  0  0  0  0  0  0  0  0
   11.1458   13.1153    7.7044 N   0  0  0  0  0  0  0  0  0  0  0  0
   11.1096   12.5499    6.4649 C   0  0  0  0  0  0  0  0  0  0  0  0
   11.4175   11.2413    6.1248 C   0  0  0  0  0  0  0  0  0  0  0  0
   11.8242   10.3308    7.1377 C   0  0  0  0  0  0  0  0  0  0  0  0
   12.1385    9.1430    7.0613 O   0  0  0  0  0  0  0  0  0  0  0  0
   11.2490   11.0942    4.7689 N   0  0  0  0  0  0  0  0  0  0  0  0
   10.8445   12.2979    4.2997 C   0  0  0  0  0  0  0  0  0  0  0  0
   10.7500   13.2168    5.3188 N   0  0  0  0  0  0  0  0  0  0  0  0
  1  2  1  0  0  0  0
  1  6  1  0  0  0  0
  2  3  2  0  0  0  0
  3  4  1  0  0  0  0
  4  5  2  0  0  0  0
  4 10  1  0  0  0  0
  5  6  1  0  0  0  0
  5  8  1  0  0  0  0
  6  7  2  0  0  0  0
  8  9  1  0  0  0  0
  9 10  2  0  0  0  0
M  END
>  <CHROM.1>
11.40026863,11.57387462,6.60463357,0.41219663,-1.26526222,1.05821408

>  <Name>
ligand

>  <RI>
0

>  <Rbt.Current_Directory>
/home/itssahil/PROJECTS/Mol_Feturizer/New_Systems/rnas/2EEU

>  <Rbt.Executable>
rbdock ($Id: //depot/dev/client3/rdock/2013.1/src/exe/rbdock.cxx#4 $)

>  <Rbt.Library>
libRbt.so (2013.1, Build901 2013/11/27)

>  <Rbt.Parameter_File>
/export/apps/rDock/src/rDock_2013.1_src/data/scripts/dock_solv.prm

>  <Rbt.Receptor>
prm/pocket_docking_4.prm

>  <SCORE>
-18.5999

>  <SCORE.INTER>
-18.5999

>  <SCORE.INTER.CONST>
1

>  <SCORE.INTER.POLAR>
0

>  <SCORE.INTER.ROT>
0

>  <SCORE.INTER.SOLV>
3.53853

>  <SCORE.INTER.VDW>
-17.1795

>  <SCORE.INTER.norm>
-1.85999

>  <SCORE.INTRA>
0

>  <SCORE.INTRA.DIHEDRAL>
0

>  <SCORE.INTRA.DIHEDRAL.0>
0

>  <SCORE.INTRA.POLAR>
0

>  <SCORE.INTRA.POLAR.0>
0

>  <SCORE.INTRA.REPUL>
0

>  <SCORE.INTRA.REPUL.0>
0

>  <SCORE.INTRA.SOLV>
0

>  <SCORE.INTRA.SOLV.lig_0>
-4.28148

>  <SCORE.INTRA.VDW>
0

>  <SCORE.INTRA.VDW.0>
0

>  <SCORE.INTRA.norm>
0

>  <SCORE.RESTR>
0

>  <SCORE.RESTR.CAVITY>
0

>  <SCORE.RESTR.norm>
0

>  <SCORE.SYSTEM>
0

>  <SCORE.SYSTEM.CONST>
0

>  <SCORE.SYSTEM.DIHEDRAL>
0

>  <SCORE.SYSTEM.SOLV>
0

>  <SCORE.SYSTEM.norm>
0

>  <SCORE.heavy>
10

>  <SCORE.norm>
-1.85999

>  <RMSD>
0.885

$$$$
ligand
 OpenBabel11021811423D
libRbt.so/2013.1/901 2013/11/27
 10 11  0  0  0  0  0  0  0  0999 V2000
   11.8538   10.9473    8.3880 N   0  0  0  0  0  0  0  0  0  0  0  0
   11.5518   12.2666    8.6597 C   0  0  0  0  0  0  0  0  0  0  0  0
   11.1651   13.1194    7.7030 N   0  0  0  0  0  0  0  0  0  0  0  0
   11.1091   12.5506    6.4658 C   0  0  0  0  0  0  0  0  0  0  0  0
   11.3997   11.2379    6.1264 C   0  0  0  0  0  0  0  0  0  0  0  0
   11.8085   10.3264    7.1376 C   0  0  0  0  0  0  0  0  0  0  0  0
   12.1098    9.1352    7.0615 O   0  0  0  0  0  0  0  0  0  0  0  0
   11.2144   11.0883    4.7730 N   0  0  0  0  0  0  0  0  0  0  0  0
   10.8169   12.2946    4.3046 C   0  0  0  0  0  0  0  0  0  0  0  0
   10.7433   13.2176    5.3216 N   0  0  0  0  0  0  0  0  0  0  0  0
  1  2  1  0  0  0  0
  1  6  1  0  0  0  0
  2  3  2  0  0  0  0
  3  4  1  0  0  0  0
  4  5  2  0  0  0  0
  4 10  1  0  0  0  0
  5  6  1  0  0  0  0
  5  8  1  0  0  0  0
  6  7  2  0  0  0  0
  8  9  1  0  0  0  0
  9 10  2  0  0  0  0
M  END
>  <CHROM.1>
11.39131313,11.57209693,6.60534187,0.36214111,-1.26825043,1.00728859

>  <Name>
ligand

>  <RI>
0

>  <Rbt.Current_Directory>
/home/itssahil/PROJECTS/Mol_Feturizer/New_Systems/rnas/2EEU

>  <Rbt.Executable>
rbdock ($Id: //depot/dev/client3/rdock/2013.1/src/exe/rbdock.cxx#4 $)

>  <Rbt.Library>
libRbt.so (2013.1, Build901 2013/11/27)

>  <Rbt.Parameter_File>
/export/apps/rDock/src/rDock_2013.1_src/data/scripts/dock_solv.prm

>  <Rbt.Receptor>
prm/pocket_docking_4.prm

>  <SCORE>
-18.5902

>  <SCORE.INTER>
-18.5902

>  <SCORE.INTER.CONST>
1

>  <SCORE.INTER.POLAR>
0

>  <SCORE.INTER.ROT>
0

>  <SCORE.INTER.SOLV>
3.55979

>  <SCORE.INTER.VDW>
-17.18

>  <SCORE.INTER.norm>
-1.85902

>  <SCORE.INTRA>
0

>  <SCORE.INTRA.DIHEDRAL>
0

>  <SCORE.INTRA.DIHEDRAL.0>
0

>  <SCORE.INTRA.POLAR>
0

>  <SCORE.INTRA.POLAR.0>
0

>  <SCORE.INTRA.REPUL>
0

>  <SCORE.INTRA.REPUL.0>
0

>  <SCORE.INTRA.SOLV>
0

>  <SCORE.INTRA.SOLV.lig_0>
-4.28148

>  <SCORE.INTRA.VDW>
0

>  <SCORE.INTRA.VDW.0>
0

>  <SCORE.INTRA.norm>
0

>  <SCORE.RESTR>
0

>  <SCORE.RESTR.CAVITY>
0

>  <SCORE.RESTR.norm>
0

>  <SCORE.SYSTEM>
0

>  <SCORE.SYSTEM.CONST>
0

>  <SCORE.SYSTEM.DIHEDRAL>
0

>  <SCORE.SYSTEM.SOLV>
0

>  <SCORE.SYSTEM.norm>
0

>  <SCORE.heavy>
10

>  <SCORE.norm>
-1.85902

>  <RMSD>
0.885

$$$$
ligand
 OpenBabel11021811423D
libRbt.so/2013.1/901 2013/11/27
 10 11  0  0  0  0  0  0  0  0999 V2000
   11.8441   10.9461    8.3911 N   0  0  0  0  0  0  0  0  0  0  0  0
   11.5093   12.2568    8.6664 C   0  0  0  0  0  0  0  0  0  0  0  0
   11.1213   13.1080    7.7088 N   0  0  0  0  0  0  0  0  0  0  0  0
   11.0989   12.5470    6.4670 C   0  0  0  0  0  0  0  0  0  0  0  0
   11.4234   11.2432    6.1239 C   0  0  0  0  0  0  0  0  0  0  0  0
   11.8339   10.3334    7.1359 C   0  0  0  0  0  0  0  0  0  0  0  0
   12.1618    9.1495    7.0571 O   0  0  0  0  0  0  0  0  0  0  0  0
   11.2649   11.0994    4.7665 N   0  0  0  0  0  0  0  0  0  0  0  0
   10.8500   12.3003    4.2993 C   0  0  0  0  0  0  0  0  0  0  0  0
   10.7390   13.2142    5.3211 N   0  0  0  0  0  0  0  0  0  0  0  0
  1  2  1  0  0  0  0
  1  6  1  0  0  0  0
  2  3  2  0  0  0  0
  3  4  1  0  0  0  0
  4  5  2  0  0  0  0
  4 10  1  0  0  0  0
  5  6  1  0  0  0  0
  5  8  1  0  0  0  0
  6  7  2  0  0  0  0
  8  9  1  0  0  0  0
  9 10  2  0  0  0  0
M  END
>  <CHROM.1>
11.39950933,11.57373816,6.60487455,0.44728143,-1.25845169,1.09540381

>  <Name>
ligand

>  <RI>
0

>  <Rbt.Current_Directory>
/home/itssahil/PROJECTS/Mol_Feturizer/New_Systems/rnas/2EEU

>  <Rbt.Executable>
rbdock ($Id: //depot/dev/client3/rdock/2013.1/src/exe/rbdock.cxx#4 $)

>  <Rbt.Library>
libRbt.so (2013.1, Build901 2013/11/27)

>  <Rbt.Parameter_File>
/export/apps/rDock/src/rDock_2013.1_src/data/scripts/dock_solv.prm

>  <Rbt.Receptor>
prm/pocket_docking_5.prm

>  <SCORE>
-18.5855

>  <SCORE.INTER>
-18.5855

>  <SCORE.INTER.CONST>
1

>  <SCORE.INTER.POLAR>
0

>  <SCORE.INTER.ROT>
0

>  <SCORE.INTER.SOLV>
3.51782

>  <SCORE.INTER.VDW>
-17.163

>  <SCORE.INTER.norm>
-1.85855

>  <SCORE.INTRA>
0

>  <SCORE.INTRA.DIHEDRAL>
0

>  <SCORE.INTRA.DIHEDRAL.0>
0

>  <SCORE.INTRA.POLAR>
0

>  <SCORE.INTRA.POLAR.0>
0

>  <SCORE.INTRA.REPUL>
0

>  <SCORE.INTRA.REPUL.0>
0

>  <SCORE.INTRA.SOLV>
0

>  <SCORE.INTRA.SOLV.lig_0>
-4.28148

>  <SCORE.INTRA.VDW>
0

>  <SCORE.INTRA.VDW.0>
0

>  <SCORE.INTRA.norm>
0

>  <SCORE.RESTR>
0

>  <SCORE.RESTR.CAVITY>
0

>  <SCORE.RESTR.norm>
0

>  <SCORE.SYSTEM>
0

>  <SCORE.SYSTEM.CONST>
0

>  <SCORE.SYSTEM.DIHEDRAL>
0

>  <SCORE.SYSTEM.SOLV>
0

>  <SCORE.SYSTEM.norm>
0

>  <SCORE.heavy>
10

>  <SCORE.norm>
-1.85855

>  <RMSD>
0.885

$$$$
ligand
 OpenBabel11021811423D
libRbt.so/2013.1/901 2013/11/27
 10 11  0  0  0  0  0  0  0  0999 V2000
   11.8147   11.0306    8.3939 N   0  0  0  0  0  0  0  0  0  0  0  0
   11.4905   12.3477    8.6503 C   0  0  0  0  0  0  0  0  0  0  0  0
   11.1198   13.1911    7.6789 N   0  0  0  0  0  0  0  0  0  0  0  0
   11.1031   12.6152    6.4438 C   0  0  0  0  0  0  0  0  0  0  0  0
   11.4176   11.3042    6.1195 C   0  0  0  0  0  0  0  0  0  0  0  0
   11.8097   10.4028    7.1462 C   0  0  0  0  0  0  0  0  0  0  0  0
   12.1265    9.2147    7.0847 O   0  0  0  0  0  0  0  0  0  0  0  0
   11.2700   11.1455    4.7625 N   0  0  0  0  0  0  0  0  0  0  0  0
   10.8714   12.3446    4.2771 C   0  0  0  0  0  0  0  0  0  0  0  0
   10.7603   13.2720    5.2867 N   0  0  0  0  0  0  0  0  0  0  0  0
  1  2  1  0  0  0  0
  1  6  1  0  0  0  0
  2  3  2  0  0  0  0
  3  4  1  0  0  0  0
  4  5  2  0  0  0  0
  4 10  1  0  0  0  0
  5  6  1  0  0  0  0
  5  8  1  0  0  0  0
  6  7  2  0  0  0  0
  8  9  1  0  0  0  0
  9 10  2  0  0  0  0
M  END
>  <CHROM.1>
11.39264220,11.64077116,6.59622406,0.45913492,-1.27149981,1.09458000

>  <Name>
ligand

>  <RI>
0

>  <Rbt.Current_Directory>
/home/itssahil/PROJECTS/Mol_Feturizer/New_Systems/rnas/2EEU

>  <Rbt.Executable>
rbdock ($Id: //depot/dev/client3/rdock/2013.1/src/exe/rbdock.cxx#4 $)

>  <Rbt.Library>
libRbt.so (2013.1, Build901 2013/11/27)

>  <Rbt.Parameter_File>
/export/apps/rDock/src/rDock_2013.1_src/data/scripts/dock_solv.prm

>  <Rbt.Receptor>
prm/pocket_docking_7.prm

>  <SCORE>
-18.5821

>  <SCORE.INTER>
-18.5821

>  <SCORE.INTER.CONST>
1

>  <SCORE.INTER.POLAR>
0

>  <SCORE.INTER.ROT>
0

>  <SCORE.INTER.SOLV>
3.55752

>  <SCORE.INTER.VDW>
-17.1739

>  <SCORE.INTER.norm>
-1.85821

>  <SCORE.INTRA>
0

>  <SCORE.INTRA.DIHEDRAL>
0

>  <SCORE.INTRA.DIHEDRAL.0>
0

>  <SCORE.INTRA.POLAR>
0

>  <SCORE.INTRA.POLAR.0>
0

>  <SCORE.INTRA.REPUL>
0

>  <SCORE.INTRA.REPUL.0>
0

>  <SCORE.INTRA.SOLV>
0

>  <SCORE.INTRA.SOLV.lig_0>
-4.28148

>  <SCORE.INTRA.VDW>
0

>  <SCORE.INTRA.VDW.0>
0

>  <SCORE.INTRA.norm>
0

>  <SCORE.RESTR>
0

>  <SCORE.RESTR.CAVITY>
0

>  <SCORE.RESTR.norm>
0

>  <SCORE.SYSTEM>
0

>  <SCORE.SYSTEM.CONST>
0

>  <SCORE.SYSTEM.DIHEDRAL>
0

>  <SCORE.SYSTEM.SOLV>
0

>  <SCORE.SYSTEM.norm>
0

>  <SCORE.heavy>
10

>  <SCORE.norm>
-1.85821

>  <RMSD>
0.885

$$$$
ligand
 OpenBabel11021811423D
libRbt.so/2013.1/901 2013/11/27
 10 11  0  0  0  0  0  0  0  0999 V2000
   11.8500   10.9487    8.3905 N   0  0  0  0  0  0  0  0  0  0  0  0
   11.5351   12.2650    8.6621 C   0  0  0  0  0  0  0  0  0  0  0  0
   11.1506   13.1168    7.7035 N   0  0  0  0  0  0  0  0  0  0  0  0
   11.1105   12.5501    6.4647 C   0  0  0  0  0  0  0  0  0  0  0  0
   11.4146   11.2404    6.1254 C   0  0  0  0  0  0  0  0  0  0  0  0
   11.8212   10.3301    7.1386 C   0  0  0  0  0  0  0  0  0  0  0  0
   12.1326    9.1414    7.0629 O   0  0  0  0  0  0  0  0  0  0  0  0
   11.2430   11.0922    4.7701 N   0  0  0  0  0  0  0  0  0  0  0  0
   10.8404   12.2962    4.3003 C   0  0  0  0  0  0  0  0  0  0  0  0
   10.7502   13.2165    5.3185 N   0  0  0  0  0  0  0  0  0  0  0  0
  1  2  1  0  0  0  0
  1  6  1  0  0  0  0
  2  3  2  0  0  0  0
  3  4  1  0  0  0  0
  4  5  2  0  0  0  0
  4 10  1  0  0  0  0
  5  6  1  0  0  0  0
  5  8  1  0  0  0  0
  6  7  2  0  0  0  0
  8  9  1  0  0  0  0
  9 10  2  0  0  0  0
M  END
>  <CHROM.1>
11.39916024,11.57352689,6.60491191,0.40236004,-1.26632278,1.04768412

>  <Name>
ligand

>  <RI>
0

>  <Rbt.Current_Directory>
/home/itssahil/PROJECTS/Mol_Feturizer/New_Systems/rnas/2EEU

>  <Rbt.Executable>
rbdock ($Id: //depot/dev/client3/rdock/2013.1/src/exe/rbdock.cxx#4 $)

>  <Rbt.Library>
libRbt.so (2013.1, Build901 2013/11/27)

>  <Rbt.Parameter_File>
/export/apps/rDock/src/rDock_2013.1_src/data/scripts/dock_solv.prm

>  <Rbt.Receptor>
prm/pocket_docking_7.prm

>  <SCORE>
-18.6012

>  <SCORE.INTER>
-18.6012

>  <SCORE.INTER.CONST>
1

>  <SCORE.INTER.POLAR>
0

>  <SCORE.INTER.ROT>
0

>  <SCORE.INTER.SOLV>
3.54309

>  <SCORE.INTER.VDW>
-17.1818

>  <SCORE.INTER.norm>
-1.86012

>  <SCORE.INTRA>
0

>  <SCORE.INTRA.DIHEDRAL>
0

>  <SCORE.INTRA.DIHEDRAL.0>
0

>  <SCORE.INTRA.POLAR>
0

>  <SCORE.INTRA.POLAR.0>
0

>  <SCORE.INTRA.REPUL>
0

>  <SCORE.INTRA.REPUL.0>
0

>  <SCORE.INTRA.SOLV>
0

>  <SCORE.INTRA.SOLV.lig_0>
-4.28148

>  <SCORE.INTRA.VDW>
0

>  <SCORE.INTRA.VDW.0>
0

>  <SCORE.INTRA.norm>
0

>  <SCORE.RESTR>
0

>  <SCORE.RESTR.CAVITY>
0

>  <SCORE.RESTR.norm>
0

>  <SCORE.SYSTEM>
0

>  <SCORE.SYSTEM.CONST>
0

>  <SCORE.SYSTEM.DIHEDRAL>
0

>  <SCORE.SYSTEM.SOLV>
0

>  <SCORE.SYSTEM.norm>
0

>  <SCORE.heavy>
10

>  <SCORE.norm>
-1.86012

>  <RMSD>
0.885

$$$$
ligand
 OpenBabel11021811423D
libRbt.so/2013.1/901 2013/11/27
 10 11  0  0  0  0  0  0  0  0999 V2000
   11.8520   10.9500    8.3902 N   0  0  0  0  0  0  0  0  0  0  0  0
   11.5256   12.2634    8.6627 C   0  0  0  0  0  0  0  0  0  0  0  0
   11.1391   13.1139    7.7039 N   0  0  0  0  0  0  0  0  0  0  0  0
   11.1093   12.5493    6.4639 C   0  0  0  0  0  0  0  0  0  0  0  0
   11.4251   11.2426    6.1236 C   0  0  0  0  0  0  0  0  0  0  0  0
   11.8339   10.3336    7.1370 C   0  0  0  0  0  0  0  0  0  0  0  0
   12.1548    9.1475    7.0606 O   0  0  0  0  0  0  0  0  0  0  0  0
   11.2610   11.0957    4.7672 N   0  0  0  0  0  0  0  0  0  0  0  0
   10.8514   12.2975    4.2978 C   0  0  0  0  0  0  0  0  0  0  0  0
   10.7491   13.2151    5.3173 N   0  0  0  0  0  0  0  0  0  0  0  0
  1  2  1  0  0  0  0
  1  6  1  0  0  0  0
  2  3  2  0  0  0  0
  3  4  1  0  0  0  0
  4  5  2  0  0  0  0
  4 10  1  0  0  0  0
  5  6  1  0  0  0  0
  5  8  1  0  0  0  0
  6  7  2  0  0  0  0
  8  9  1  0  0  0  0
  9 10  2  0  0  0  0
M  END
>  <CHROM.1>
11.40477889,11.57475725,6.60368869,0.42851757,-1.26187432,1.07451270

>  <Name>
ligand

>  <RI>
0

>  <Rbt.Current_Directory>
/home/itssahil/PROJECTS/Mol_Feturizer/New_Systems/rnas/2EEU

>  <Rbt.Executable>
rbdock ($Id: //depot/dev/client3/rdock/2013.1/src/exe/rbdock.cxx#4 $)

>  <Rbt.Library>
libRbt.so (2013.1, Build901 2013/11/27)

>  <Rbt.Parameter_File>
/export/apps/rDock/src/rDock_2013.1_src/data/scripts/dock_solv.prm

>  <Rbt.Receptor>
prm/pocket_docking_8.prm

>  <SCORE>
-18.5929

>  <SCORE.INTER>
-18.5929

>  <SCORE.INTER.CONST>
1

>  <SCORE.INTER.POLAR>
0

>  <SCORE.INTER.ROT>
0

>  <SCORE.INTER.SOLV>
3.52238

>  <SCORE.INTER.VDW>
-17.1694

>  <SCORE.INTER.norm>
-1.85929

>  <SCORE.INTRA>
0

>  <SCORE.INTRA.DIHEDRAL>
0

>  <SCORE.INTRA.DIHEDRAL.0>
0

>  <SCORE.INTRA.POLAR>
0

>  <SCORE.INTRA.POLAR.0>
0

>  <SCORE.INTRA.REPUL>
0

>  <SCORE.INTRA.REPUL.0>
0

>  <SCORE.INTRA.SOLV>
0

>  <SCORE.INTRA.SOLV.lig_0>
-4.28148

>  <SCORE.INTRA.VDW>
0

>  <SCORE.INTRA.VDW.0>
0

>  <SCORE.INTRA.norm>
0

>  <SCORE.RESTR>
0

>  <SCORE.RESTR.CAVITY>
0

>  <SCORE.RESTR.norm>
0

>  <SCORE.SYSTEM>
0

>  <SCORE.SYSTEM.CONST>
0

>  <SCORE.SYSTEM.DIHEDRAL>
0

>  <SCORE.SYSTEM.SOLV>
0

>  <SCORE.SYSTEM.norm>
0

>  <SCORE.heavy>
10

>  <SCORE.norm>
-1.85929

>  <RMSD>
0.885

$$$$
ligand
 OpenBabel11021811423D
libRbt.so/2013.1/901 2013/11/27
 10 11  0  0  0  0  0  0  0  0999 V2000
   11.8573   10.9496    8.3917 N   0  0  0  0  0  0  0  0  0  0  0  0
   11.5499   12.2689    8.6571 C   0  0  0  0  0  0  0  0  0  0  0  0
   11.1689   13.1181    7.6948 N   0  0  0  0  0  0  0  0  0  0  0  0
   11.1241   12.5455    6.4589 C   0  0  0  0  0  0  0  0  0  0  0  0
   11.4206   11.2325    6.1257 C   0  0  0  0  0  0  0  0  0  0  0  0
   11.8235   10.3250    7.1429 C   0  0  0  0  0  0  0  0  0  0  0  0
   12.1283    9.1343    7.0727 O   0  0  0  0  0  0  0  0  0  0  0  0
   11.2465   11.0785    4.7714 N   0  0  0  0  0  0  0  0  0  0  0  0
   10.8498   12.2824    4.2962 C   0  0  0  0  0  0  0  0  0  0  0  0
   10.7658   13.2082    5.3099 N   0  0  0  0  0  0  0  0  0  0  0  0
  1  2  1  0  0  0  0
  1  6  1  0  0  0  0
  2  3  2  0  0  0  0
  3  4  1  0  0  0  0
  4  5  2  0  0  0  0
  4 10  1  0  0  0  0
  5  6  1  0  0  0  0
  5  8  1  0  0  0  0
  6  7  2  0  0  0  0
  8  9  1  0  0  0  0
  9 10  2  0  0  0  0
M  END
>  <CHROM.1>
11.40757525,11.56807020,6.60361868,0.38938737,-1.27036051,1.03037109

>  <Name>
ligand

>  <RI>
0

>  <Rbt.Current_Directory>
/home/itssahil/PROJECTS/Mol_Feturizer/New_Systems/rnas/2EEU

>  <Rbt.Executable>
rbdock ($Id: //depot/dev/client3/rdock/2013.1/src/exe/rbdock.cxx#4 $)

>  <Rbt.Library>
libRbt.so (2013.1, Build901 2013/11/27)

>  <Rbt.Parameter_File>
/export/apps/rDock/src/rDock_2013.1_src/data/scripts/dock_solv.prm

>  <Rbt.Receptor>
prm/pocket_docking_8.prm

>  <SCORE>
-18.5996

>  <SCORE.INTER>
-18.5996

>  <SCORE.INTER.CONST>
1

>  <SCORE.INTER.POLAR>
0

>  <SCORE.INTER.ROT>
0

>  <SCORE.INTER.SOLV>
3.54678

>  <SCORE.INTER.VDW>
-17.182

>  <SCORE.INTER.norm>
-1.85996

>  <SCORE.INTRA>
0

>  <SCORE.INTRA.DIHEDRAL>
0

>  <SCORE.INTRA.DIHEDRAL.0>
0

>  <SCORE.INTRA.POLAR>
0

>  <SCORE.INTRA.POLAR.0>
0

>  <SCORE.INTRA.REPUL>
0

>  <SCORE.INTRA.REPUL.0>
0

>  <SCORE.INTRA.SOLV>
0

>  <SCORE.INTRA.SOLV.lig_0>
-4.28148

>  <SCORE.INTRA.VDW>
0

>  <SCORE.INTRA.VDW.0>
0

>  <SCORE.INTRA.norm>
0

>  <SCORE.RESTR>
0

>  <SCORE.RESTR.CAVITY>
0

>  <SCORE.RESTR.norm>
0

>  <SCORE.SYSTEM>
0

>  <SCORE.SYSTEM.CONST>
0

>  <SCORE.SYSTEM.DIHEDRAL>
0

>  <SCORE.SYSTEM.SOLV>
0

>  <SCORE.SYSTEM.norm>
0

>  <SCORE.heavy>
10

>  <SCORE.norm>
-1.85996

>  <RMSD>
0.885

$$$$
ligand
 OpenBabel11021811423D
libRbt.so/2013.1/901 2013/11/27
 10 11  0  0  0  0  0  0  0  0999 V2000
   11.8416   10.9467    8.3901 N   0  0  0  0  0  0  0  0  0  0  0  0
   11.5220   12.2613    8.6645 C   0  0  0  0  0  0  0  0  0  0  0  0
   11.1384   13.1149    7.7072 N   0  0  0  0  0  0  0  0  0  0  0  0
   11.1042   12.5517    6.4666 C   0  0  0  0  0  0  0  0  0  0  0  0
   11.4132   11.2439    6.1244 C   0  0  0  0  0  0  0  0  0  0  0  0
   11.8189   10.3318    7.1363 C   0  0  0  0  0  0  0  0  0  0  0  0
   12.1339    9.1442    7.0581 O   0  0  0  0  0  0  0  0  0  0  0  0
   11.2466   11.0993    4.7681 N   0  0  0  0  0  0  0  0  0  0  0  0
   10.8422   12.3036    4.3006 C   0  0  0  0  0  0  0  0  0  0  0  0
   10.7458   13.2206    5.3212 N   0  0  0  0  0  0  0  0  0  0  0  0
  1  2  1  0  0  0  0
  1  6  1  0  0  0  0
  2  3  2  0  0  0  0
  3  4  1  0  0  0  0
  4  5  2  0  0  0  0
  4 10  1  0  0  0  0
  5  6  1  0  0  0  0
  5  8  1  0  0  0  0
  6  7  2  0  0  0  0
  8  9  1  0  0  0  0
  9 10  2  0  0  0  0
M  END
>  <CHROM.1>
11.39509418,11.57560914,6.60488322,0.41695676,-1.26553089,1.06460075

>  <Name>
ligand

>  <RI>
0

>  <Rbt.Current_Directory>
/home/itssahil/PROJECTS/Mol_Feturizer/New_Systems/rnas/2EEU

>  <Rbt.Executable>
rbdock ($Id: //depot/dev/client3/rdock/2013.1/src/exe/rbdock.cxx#4 $)

>  <Rbt.Library>
libRbt.so (2013.1, Build901 2013/11/27)

>  <Rbt.Parameter_File>
/export/apps/rDock/src/rDock_2013.1_src/data/scripts/dock_solv.prm

>  <Rbt.Receptor>
prm/pocket_docking_3.prm

>  <SCORE>
-18.6

>  <SCORE.INTER>
-18.6

>  <SCORE.INTER.CONST>
1

>  <SCORE.INTER.POLAR>
0

>  <SCORE.INTER.ROT>
0

>  <SCORE.INTER.SOLV>
3.54592

>  <SCORE.INTER.VDW>
-17.182

>  <SCORE.INTER.norm>
-1.86

>  <SCORE.INTRA>
0

>  <SCORE.INTRA.DIHEDRAL>
0

>  <SCORE.INTRA.DIHEDRAL.0>
0

>  <SCORE.INTRA.POLAR>
0

>  <SCORE.INTRA.POLAR.0>
0

>  <SCORE.INTRA.REPUL>
0

>  <SCORE.INTRA.REPUL.0>
0

>  <SCORE.INTRA.SOLV>
0

>  <SCORE.INTRA.SOLV.lig_0>
-4.28148

>  <SCORE.INTRA.VDW>
0

>  <SCORE.INTRA.VDW.0>
0

>  <SCORE.INTRA.norm>
0

>  <SCORE.RESTR>
0

>  <SCORE.RESTR.CAVITY>
0

>  <SCORE.RESTR.norm>
0

>  <SCORE.SYSTEM>
0

>  <SCORE.SYSTEM.CONST>
0

>  <SCORE.SYSTEM.DIHEDRAL>
0

>  <SCORE.SYSTEM.SOLV>
0

>  <SCORE.SYSTEM.norm>
0

>  <SCORE.heavy>
10

>  <SCORE.norm>
-1.86

>  <RMSD>
0.886

$$$$
ligand
 OpenBabel11021811423D
libRbt.so/2013.1/901 2013/11/27
 10 11  0  0  0  0  0  0  0  0999 V2000
   11.8488   10.9476    8.3904 N   0  0  0  0  0  0  0  0  0  0  0  0
   11.5347   12.2643    8.6609 C   0  0  0  0  0  0  0  0  0  0  0  0
   11.1523   13.1160    7.7014 N   0  0  0  0  0  0  0  0  0  0  0  0
   11.1134   12.5487    6.4628 C   0  0  0  0  0  0  0  0  0  0  0  0
   11.4168   11.2386    6.1246 C   0  0  0  0  0  0  0  0  0  0  0  0
   11.8212   10.3284    7.1387 C   0  0  0  0  0  0  0  0  0  0  0  0
   12.1316    9.1395    7.0640 O   0  0  0  0  0  0  0  0  0  0  0  0
   11.2469   11.0900    4.7691 N   0  0  0  0  0  0  0  0  0  0  0  0
   10.8460   12.2942    4.2982 C   0  0  0  0  0  0  0  0  0  0  0  0
   10.7552   13.2150    5.3159 N   0  0  0  0  0  0  0  0  0  0  0  0
  1  2  1  0  0  0  0
  1  6  1  0  0  0  0
  2  3  2  0  0  0  0
  3  4  1  0  0  0  0
  4  5  2  0  0  0  0
  4 10  1  0  0  0  0
  5  6  1  0  0  0  0
  5  8  1  0  0  0  0
  6  7  2  0  0  0  0
  8  9  1  0  0  0  0
  9 10  2  0  0  0  0
M  END
>  <CHROM.1>
11.40098489,11.57202519,6.60390367,0.40483801,-1.26776342,1.04960649

>  <Name>
ligand

>  <RI>
0

>  <Rbt.Current_Directory>
/home/itssahil/PROJECTS/Mol_Feturizer/New_Systems/rnas/2EEU

>  <Rbt.Executable>
rbdock ($Id: //depot/dev/client3/rdock/2013.1/src/exe/rbdock.cxx#4 $)

>  <Rbt.Library>
libRbt.so (2013.1, Build901 2013/11/27)

>  <Rbt.Parameter_File>
/export/apps/rDock/src/rDock_2013.1_src/data/scripts/dock_solv.prm

>  <Rbt.Receptor>
prm/pocket_docking_4.prm

>  <SCORE>
-18.6008

>  <SCORE.INTER>
-18.6008

>  <SCORE.INTER.CONST>
1

>  <SCORE.INTER.POLAR>
0

>  <SCORE.INTER.ROT>
0

>  <SCORE.INTER.SOLV>
3.5463

>  <SCORE.INTER.VDW>
-17.1826

>  <SCORE.INTER.norm>
-1.86008

>  <SCORE.INTRA>
0

>  <SCORE.INTRA.DIHEDRAL>
0

>  <SCORE.INTRA.DIHEDRAL.0>
0

>  <SCORE.INTRA.POLAR>
0

>  <SCORE.INTRA.POLAR.0>
0

>  <SCORE.INTRA.REPUL>
0

>  <SCORE.INTRA.REPUL.0>
0

>  <SCORE.INTRA.SOLV>
0

>  <SCORE.INTRA.SOLV.lig_0>
-4.28148

>  <SCORE.INTRA.VDW>
0

>  <SCORE.INTRA.VDW.0>
0

>  <SCORE.INTRA.norm>
0

>  <SCORE.RESTR>
0

>  <SCORE.RESTR.CAVITY>
0

>  <SCORE.RESTR.norm>
0

>  <SCORE.SYSTEM>
0

>  <SCORE.SYSTEM.CONST>
0

>  <SCORE.SYSTEM.DIHEDRAL>
0

>  <SCORE.SYSTEM.SOLV>
0

>  <SCORE.SYSTEM.norm>
0

>  <SCORE.heavy>
10

>  <SCORE.norm>
-1.86008

>  <RMSD>
0.886

$$$$
ligand
 OpenBabel11021811423D
libRbt.so/2013.1/901 2013/11/27
 10 11  0  0  0  0  0  0  0  0999 V2000
   11.8469   10.9488    8.3903 N   0  0  0  0  0  0  0  0  0  0  0  0
   11.5194   12.2619    8.6621 C   0  0  0  0  0  0  0  0  0  0  0  0
   11.1368   13.1130    7.7021 N   0  0  0  0  0  0  0  0  0  0  0  0
   11.1122   12.5490    6.4617 C   0  0  0  0  0  0  0  0  0  0  0  0
   11.4295   11.2425    6.1221 C   0  0  0  0  0  0  0  0  0  0  0  0
   11.8341   10.3330    7.1367 C   0  0  0  0  0  0  0  0  0  0  0  0
   12.1554    9.1470    7.0611 O   0  0  0  0  0  0  0  0  0  0  0  0
   11.2712   11.0962    4.7649 N   0  0  0  0  0  0  0  0  0  0  0  0
   10.8634   12.2982    4.2944 C   0  0  0  0  0  0  0  0  0  0  0  0
   10.7569   13.2154    5.3139 N   0  0  0  0  0  0  0  0  0  0  0  0
  1  2  1  0  0  0  0
  1  6  1  0  0  0  0
  2  3  2  0  0  0  0
  3  4  1  0  0  0  0
  4  5  2  0  0  0  0
  4 10  1  0  0  0  0
  5  6  1  0  0  0  0
  5  8  1  0  0  0  0
  6  7  2  0  0  0  0
  8  9  1  0  0  0  0
  9 10  2  0  0  0  0
M  END
>  <CHROM.1>
11.40718558,11.57437795,6.60222670,0.44081568,-1.26380524,1.08673220

>  <Name>
ligand

>  <RI>
0

>  <Rbt.Current_Directory>
/home/itssahil/PROJECTS/Mol_Feturizer/New_Systems/rnas/2EEU

>  <Rbt.Executable>
rbdock ($Id: //depot/dev/client3/rdock/2013.1/src/exe/rbdock.cxx#4 $)

>  <Rbt.Library>
libRbt.so (2013.1, Build901 2013/11/27)

>  <Rbt.Parameter_File>
/export/apps/rDock/src/rDock_2013.1_src/data/scripts/dock_solv.prm

>  <Rbt.Receptor>
prm/pocket_docking_4.prm

>  <SCORE>
-18.589

>  <SCORE.INTER>
-18.589

>  <SCORE.INTER.CONST>
1

>  <SCORE.INTER.POLAR>
0

>  <SCORE.INTER.ROT>
0

>  <SCORE.INTER.SOLV>
3.52729

>  <SCORE.INTER.VDW>
-17.1684

>  <SCORE.INTER.norm>
-1.8589

>  <SCORE.INTRA>
0

>  <SCORE.INTRA.DIHEDRAL>
0

>  <SCORE.INTRA.DIHEDRAL.0>
0

>  <SCORE.INTRA.POLAR>
0

>  <SCORE.INTRA.POLAR.0>
0

>  <SCORE.INTRA.REPUL>
0

>  <SCORE.INTRA.REPUL.0>
0

>  <SCORE.INTRA.SOLV>
0

>  <SCORE.INTRA.SOLV.lig_0>
-4.28148

>  <SCORE.INTRA.VDW>
0

>  <SCORE.INTRA.VDW.0>
0

>  <SCORE.INTRA.norm>
0

>  <SCORE.RESTR>
0

>  <SCORE.RESTR.CAVITY>
0

>  <SCORE.RESTR.norm>
0

>  <SCORE.SYSTEM>
0

>  <SCORE.SYSTEM.CONST>
0

>  <SCORE.SYSTEM.DIHEDRAL>
0

>  <SCORE.SYSTEM.SOLV>
0

>  <SCORE.SYSTEM.norm>
0

>  <SCORE.heavy>
10

>  <SCORE.norm>
-1.8589

>  <RMSD>
0.886

$$$$
ligand
 OpenBabel11021811423D
libRbt.so/2013.1/901 2013/11/27
 10 11  0  0  0  0  0  0  0  0999 V2000
   11.8570   10.9478    8.3897 N   0  0  0  0  0  0  0  0  0  0  0  0
   11.5557   12.2684    8.6561 C   0  0  0  0  0  0  0  0  0  0  0  0
   11.1744   13.1188    7.6950 N   0  0  0  0  0  0  0  0  0  0  0  0
   11.1228   12.5462    6.4594 C   0  0  0  0  0  0  0  0  0  0  0  0
   11.4130   11.2320    6.1253 C   0  0  0  0  0  0  0  0  0  0  0  0
   11.8162   10.3232    7.1411 C   0  0  0  0  0  0  0  0  0  0  0  0
   12.1161    9.1313    7.0700 O   0  0  0  0  0  0  0  0  0  0  0  0
   11.2332   11.0785    4.7717 N   0  0  0  0  0  0  0  0  0  0  0  0
   10.8395   12.2839    4.2978 C   0  0  0  0  0  0  0  0  0  0  0  0
   10.7629   13.2101    5.3116 N   0  0  0  0  0  0  0  0  0  0  0  0
  1  2  1  0  0  0  0
  1  6  1  0  0  0  0
  2  3  2  0  0  0  0
  3  4  1  0  0  0  0
  4  5  2  0  0  0  0
  4 10  1  0  0  0  0
  5  6  1  0  0  0  0
  5  8  1  0  0  0  0
  6  7  2  0  0  0  0
  8  9  1  0  0  0  0
  9 10  2  0  0  0  0
M  END
>  <CHROM.1>
11.40304657,11.56775542,6.60321703,0.37182231,-1.27172833,1.01341781

>  <Name>
ligand

>  <RI>
0

>  <Rbt.Current_Directory>
/home/itssahil/PROJECTS/Mol_Feturizer/New_Systems/rnas/2EEU

>  <Rbt.Executable>
rbdock ($Id: //depot/dev/client3/rdock/2013.1/src/exe/rbdock.cxx#4 $)

>  <Rbt.Library>
libRbt.so (2013.1, Build901 2013/11/27)

>  <Rbt.Parameter_File>
/export/apps/rDock/src/rDock_2013.1_src/data/scripts/dock_solv.prm

>  <Rbt.Receptor>
prm/pocket_docking_8.prm

>  <SCORE>
-18.5988

>  <SCORE.INTER>
-18.5988

>  <SCORE.INTER.CONST>
1

>  <SCORE.INTER.POLAR>
0

>  <SCORE.INTER.ROT>
0

>  <SCORE.INTER.SOLV>
3.55805

>  <SCORE.INTER.VDW>
-17.1852

>  <SCORE.INTER.norm>
-1.85988

>  <SCORE.INTRA>
0

>  <SCORE.INTRA.DIHEDRAL>
0

>  <SCORE.INTRA.DIHEDRAL.0>
0

>  <SCORE.INTRA.POLAR>
0

>  <SCORE.INTRA.POLAR.0>
0

>  <SCORE.INTRA.REPUL>
0

>  <SCORE.INTRA.REPUL.0>
0

>  <SCORE.INTRA.SOLV>
0

>  <SCORE.INTRA.SOLV.lig_0>
-4.28148

>  <SCORE.INTRA.VDW>
0

>  <SCORE.INTRA.VDW.0>
0

>  <SCORE.INTRA.norm>
0

>  <SCORE.RESTR>
0

>  <SCORE.RESTR.CAVITY>
0

>  <SCORE.RESTR.norm>
0

>  <SCORE.SYSTEM>
0

>  <SCORE.SYSTEM.CONST>
0

>  <SCORE.SYSTEM.DIHEDRAL>
0

>  <SCORE.SYSTEM.SOLV>
0

>  <SCORE.SYSTEM.norm>
0

>  <SCORE.heavy>
10

>  <SCORE.norm>
-1.85988

>  <RMSD>
0.886

$$$$
ligand
 OpenBabel11021811423D
libRbt.so/2013.1/901 2013/11/27
 10 11  0  0  0  0  0  0  0  0999 V2000
   11.8456   10.9461    8.3910 N   0  0  0  0  0  0  0  0  0  0  0  0
   11.5307   12.2625    8.6617 C   0  0  0  0  0  0  0  0  0  0  0  0
   11.1484   13.1143    7.7022 N   0  0  0  0  0  0  0  0  0  0  0  0
   11.1106   12.5473    6.4634 C   0  0  0  0  0  0  0  0  0  0  0  0
   11.4150   11.2375    6.1250 C   0  0  0  0  0  0  0  0  0  0  0  0
   11.8192   10.3272    7.1391 C   0  0  0  0  0  0  0  0  0  0  0  0
   12.1303    9.1385    7.0643 O   0  0  0  0  0  0  0  0  0  0  0  0
   11.2460   11.0891    4.7693 N   0  0  0  0  0  0  0  0  0  0  0  0
   10.8448   12.2932    4.2986 C   0  0  0  0  0  0  0  0  0  0  0  0
   10.7528   13.2137    5.3164 N   0  0  0  0  0  0  0  0  0  0  0  0
  1  2  1  0  0  0  0
  1  6  1  0  0  0  0
  2  3  2  0  0  0  0
  3  4  1  0  0  0  0
  4  5  2  0  0  0  0
  4 10  1  0  0  0  0
  5  6  1  0  0  0  0
  5  8  1  0  0  0  0
  6  7  2  0  0  0  0
  8  9  1  0  0  0  0
  9 10  2  0  0  0  0
M  END
>  <CHROM.1>
11.39863874,11.57073768,6.60442247,0.40759306,-1.26762782,1.05250297

>  <Name>
ligand

>  <RI>
0

>  <Rbt.Current_Directory>
/home/itssahil/PROJECTS/Mol_Feturizer/New_Systems/rnas/2EEU

>  <Rbt.Executable>
rbdock ($Id: //depot/dev/client3/rdock/2013.1/src/exe/rbdock.cxx#4 $)

>  <Rbt.Library>
libRbt.so (2013.1, Build901 2013/11/27)

>  <Rbt.Parameter_File>
/export/apps/rDock/src/rDock_2013.1_src/data/scripts/dock_solv.prm

>  <Rbt.Receptor>
prm/pocket_docking_8.prm

>  <SCORE>
-18.5996

>  <SCORE.INTER>
-18.5996

>  <SCORE.INTER.CONST>
1

>  <SCORE.INTER.POLAR>
0

>  <SCORE.INTER.ROT>
0

>  <SCORE.INTER.SOLV>
3.5481

>  <SCORE.INTER.VDW>
-17.1824

>  <SCORE.INTER.norm>
-1.85996

>  <SCORE.INTRA>
0

>  <SCORE.INTRA.DIHEDRAL>
0

>  <SCORE.INTRA.DIHEDRAL.0>
0

>  <SCORE.INTRA.POLAR>
0

>  <SCORE.INTRA.POLAR.0>
0

>  <SCORE.INTRA.REPUL>
0

>  <SCORE.INTRA.REPUL.0>
0

>  <SCORE.INTRA.SOLV>
0

>  <SCORE.INTRA.SOLV.lig_0>
-4.28148

>  <SCORE.INTRA.VDW>
0

>  <SCORE.INTRA.VDW.0>
0

>  <SCORE.INTRA.norm>
0

>  <SCORE.RESTR>
0

>  <SCORE.RESTR.CAVITY>
0

>  <SCORE.RESTR.norm>
0

>  <SCORE.SYSTEM>
0

>  <SCORE.SYSTEM.CONST>
0

>  <SCORE.SYSTEM.DIHEDRAL>
0

>  <SCORE.SYSTEM.SOLV>
0

>  <SCORE.SYSTEM.norm>
0

>  <SCORE.heavy>
10

>  <SCORE.norm>
-1.85996

>  <RMSD>
0.886

$$$$
ligand
 OpenBabel11021811423D
libRbt.so/2013.1/901 2013/11/27
 10 11  0  0  0  0  0  0  0  0999 V2000
   11.8413   10.9464    8.3904 N   0  0  0  0  0  0  0  0  0  0  0  0
   11.5271   12.2631    8.6609 C   0  0  0  0  0  0  0  0  0  0  0  0
   11.1459   13.1151    7.7013 N   0  0  0  0  0  0  0  0  0  0  0  0
   11.1081   12.5482    6.4625 C   0  0  0  0  0  0  0  0  0  0  0  0
   11.4117   11.2382    6.1242 C   0  0  0  0  0  0  0  0  0  0  0  0
   11.8149   10.3276    7.1385 C   0  0  0  0  0  0  0  0  0  0  0  0
   12.1252    9.1386    7.0638 O   0  0  0  0  0  0  0  0  0  0  0  0
   11.2431   11.0899    4.7685 N   0  0  0  0  0  0  0  0  0  0  0  0
   10.8429   12.2943    4.2976 C   0  0  0  0  0  0  0  0  0  0  0  0
   10.7512   13.2148    5.3153 N   0  0  0  0  0  0  0  0  0  0  0  0
  1  2  1  0  0  0  0
  1  6  1  0  0  0  0
  2  3  2  0  0  0  0
  3  4  1  0  0  0  0
  4  5  2  0  0  0  0
  4 10  1  0  0  0  0
  5  6  1  0  0  0  0
  5  8  1  0  0  0  0
  6  7  2  0  0  0  0
  8  9  1  0  0  0  0
  9 10  2  0  0  0  0
M  END
>  <CHROM.1>
11.39539561,11.57141503,6.60361174,0.40751092,-1.26841562,1.05241497

>  <Name>
ligand

>  <RI>
0

>  <Rbt.Current_Directory>
/home/itssahil/PROJECTS/Mol_Feturizer/New_Systems/rnas/2EEU

>  <Rbt.Executable>
rbdock ($Id: //depot/dev/client3/rdock/2013.1/src/exe/rbdock.cxx#4 $)

>  <Rbt.Library>
libRbt.so (2013.1, Build901 2013/11/27)

>  <Rbt.Parameter_File>
/export/apps/rDock/src/rDock_2013.1_src/data/scripts/dock_solv.prm

>  <Rbt.Receptor>
prm/blind_docking_100.prm

>  <SCORE>
-18.5987

>  <SCORE.INTER>
-18.5987

>  <SCORE.INTER.CONST>
1

>  <SCORE.INTER.POLAR>
0

>  <SCORE.INTER.ROT>
0

>  <SCORE.INTER.SOLV>
3.5545

>  <SCORE.INTER.VDW>
-17.1839

>  <SCORE.INTER.norm>
-1.85987

>  <SCORE.INTRA>
0

>  <SCORE.INTRA.DIHEDRAL>
0

>  <SCORE.INTRA.DIHEDRAL.0>
0

>  <SCORE.INTRA.POLAR>
0

>  <SCORE.INTRA.POLAR.0>
0

>  <SCORE.INTRA.REPUL>
0

>  <SCORE.INTRA.REPUL.0>
0

>  <SCORE.INTRA.SOLV>
0

>  <SCORE.INTRA.SOLV.lig_0>
-4.28148

>  <SCORE.INTRA.VDW>
0

>  <SCORE.INTRA.VDW.0>
0

>  <SCORE.INTRA.norm>
0

>  <SCORE.RESTR>
0

>  <SCORE.RESTR.CAVITY>
0

>  <SCORE.RESTR.norm>
0

>  <SCORE.SYSTEM>
0

>  <SCORE.SYSTEM.CONST>
0

>  <SCORE.SYSTEM.DIHEDRAL>
0

>  <SCORE.SYSTEM.SOLV>
0

>  <SCORE.SYSTEM.norm>
0

>  <SCORE.heavy>
10

>  <SCORE.norm>
-1.85987

>  <RMSD>
0.887

$$$$
ligand
 OpenBabel11021811423D
libRbt.so/2013.1/901 2013/11/27
 10 11  0  0  0  0  0  0  0  0999 V2000
   11.8501   10.9476    8.3915 N   0  0  0  0  0  0  0  0  0  0  0  0
   11.5409   12.2666    8.6566 C   0  0  0  0  0  0  0  0  0  0  0  0
   11.1602   13.1154    7.6938 N   0  0  0  0  0  0  0  0  0  0  0  0
   11.1178   12.5427    6.4578 C   0  0  0  0  0  0  0  0  0  0  0  0
   11.4162   11.2301    6.1250 C   0  0  0  0  0  0  0  0  0  0  0  0
   11.8187   10.3230    7.1426 C   0  0  0  0  0  0  0  0  0  0  0  0
   12.1249    9.1327    7.0728 O   0  0  0  0  0  0  0  0  0  0  0  0
   11.2440   11.0760    4.7704 N   0  0  0  0  0  0  0  0  0  0  0  0
   10.8467   12.2794    4.2947 C   0  0  0  0  0  0  0  0  0  0  0  0
   10.7604   13.2051    5.3083 N   0  0  0  0  0  0  0  0  0  0  0  0
  1  2  1  0  0  0  0
  1  6  1  0  0  0  0
  2  3  2  0  0  0  0
  3  4  1  0  0  0  0
  4  5  2  0  0  0  0
  4 10  1  0  0  0  0
  5  6  1  0  0  0  0
  5  8  1  0  0  0  0
  6  7  2  0  0  0  0
  8  9  1  0  0  0  0
  9 10  2  0  0  0  0
M  END
>  <CHROM.1>
11.40210460,11.56565809,6.60284101,0.39519011,-1.27012520,1.03592788

>  <Name>
ligand

>  <RI>
0

>  <Rbt.Current_Directory>
/home/itssahil/PROJECTS/Mol_Feturizer/New_Systems/rnas/2EEU

>  <Rbt.Executable>
rbdock ($Id: //depot/dev/client3/rdock/2013.1/src/exe/rbdock.cxx#4 $)

>  <Rbt.Library>
libRbt.so (2013.1, Build901 2013/11/27)

>  <Rbt.Parameter_File>
/export/apps/rDock/src/rDock_2013.1_src/data/scripts/dock_solv.prm

>  <Rbt.Receptor>
prm/blind_docking_60.prm

>  <SCORE>
-18.5943

>  <SCORE.INTER>
-18.5943

>  <SCORE.INTER.CONST>
1

>  <SCORE.INTER.POLAR>
0

>  <SCORE.INTER.ROT>
0

>  <SCORE.INTER.SOLV>
3.55159

>  <SCORE.INTER.VDW>
-17.18

>  <SCORE.INTER.norm>
-1.85943

>  <SCORE.INTRA>
0

>  <SCORE.INTRA.DIHEDRAL>
0

>  <SCORE.INTRA.DIHEDRAL.0>
0

>  <SCORE.INTRA.POLAR>
0

>  <SCORE.INTRA.POLAR.0>
0

>  <SCORE.INTRA.REPUL>
0

>  <SCORE.INTRA.REPUL.0>
0

>  <SCORE.INTRA.SOLV>
0

>  <SCORE.INTRA.SOLV.lig_0>
-4.28148

>  <SCORE.INTRA.VDW>
0

>  <SCORE.INTRA.VDW.0>
0

>  <SCORE.INTRA.norm>
0

>  <SCORE.RESTR>
0

>  <SCORE.RESTR.CAVITY>
0

>  <SCORE.RESTR.norm>
0

>  <SCORE.SYSTEM>
0

>  <SCORE.SYSTEM.CONST>
0

>  <SCORE.SYSTEM.DIHEDRAL>
0

>  <SCORE.SYSTEM.SOLV>
0

>  <SCORE.SYSTEM.norm>
0

>  <SCORE.heavy>
10

>  <SCORE.norm>
-1.85943

>  <RMSD>
0.887

$$$$
ligand
 OpenBabel11021811423D
libRbt.so/2013.1/901 2013/11/27
 10 11  0  0  0  0  0  0  0  0999 V2000
   11.8389   10.9468    8.3896 N   0  0  0  0  0  0  0  0  0  0  0  0
   11.5075   12.2582    8.6649 C   0  0  0  0  0  0  0  0  0  0  0  0
   11.1218   13.1105    7.7073 N   0  0  0  0  0  0  0  0  0  0  0  0
   11.0982   12.5496    6.4655 C   0  0  0  0  0  0  0  0  0  0  0  0
   11.4193   11.2450    6.1224 C   0  0  0  0  0  0  0  0  0  0  0  0
   11.8273   10.3341    7.1344 C   0  0  0  0  0  0  0  0  0  0  0  0
   12.1522    9.1493    7.0556 O   0  0  0  0  0  0  0  0  0  0  0  0
   11.2606   11.1017    4.7649 N   0  0  0  0  0  0  0  0  0  0  0  0
   10.8489   12.3036    4.2977 C   0  0  0  0  0  0  0  0  0  0  0  0
   10.7402   13.2178    5.3196 N   0  0  0  0  0  0  0  0  0  0  0  0
  1  2  1  0  0  0  0
  1  6  1  0  0  0  0
  2  3  2  0  0  0  0
  3  4  1  0  0  0  0
  4  5  2  0  0  0  0
  4 10  1  0  0  0  0
  5  6  1  0  0  0  0
  5  8  1  0  0  0  0
  6  7  2  0  0  0  0
  8  9  1  0  0  0  0
  9 10  2  0  0  0  0
M  END
>  <CHROM.1>
11.39623149,11.57555658,6.60335918,0.44384772,-1.26082880,1.09216714

>  <Name>
ligand

>  <RI>
0

>  <Rbt.Current_Directory>
/home/itssahil/PROJECTS/Mol_Feturizer/New_Systems/rnas/2EEU

>  <Rbt.Executable>
rbdock ($Id: //depot/dev/client3/rdock/2013.1/src/exe/rbdock.cxx#4 $)

>  <Rbt.Library>
libRbt.so (2013.1, Build901 2013/11/27)

>  <Rbt.Parameter_File>
/export/apps/rDock/src/rDock_2013.1_src/data/scripts/dock_solv.prm

>  <Rbt.Receptor>
prm/pocket_docking_3.prm

>  <SCORE>
-18.5887

>  <SCORE.INTER>
-18.5887

>  <SCORE.INTER.CONST>
1

>  <SCORE.INTER.POLAR>
0

>  <SCORE.INTER.ROT>
0

>  <SCORE.INTER.SOLV>
3.53014

>  <SCORE.INTER.VDW>
-17.1691

>  <SCORE.INTER.norm>
-1.85887

>  <SCORE.INTRA>
0

>  <SCORE.INTRA.DIHEDRAL>
0

>  <SCORE.INTRA.DIHEDRAL.0>
0

>  <SCORE.INTRA.POLAR>
0

>  <SCORE.INTRA.POLAR.0>
0

>  <SCORE.INTRA.REPUL>
0

>  <SCORE.INTRA.REPUL.0>
0

>  <SCORE.INTRA.SOLV>
0

>  <SCORE.INTRA.SOLV.lig_0>
-4.28148

>  <SCORE.INTRA.VDW>
0

>  <SCORE.INTRA.VDW.0>
0

>  <SCORE.INTRA.norm>
0

>  <SCORE.RESTR>
0

>  <SCORE.RESTR.CAVITY>
0

>  <SCORE.RESTR.norm>
0

>  <SCORE.SYSTEM>
0

>  <SCORE.SYSTEM.CONST>
0

>  <SCORE.SYSTEM.DIHEDRAL>
0

>  <SCORE.SYSTEM.SOLV>
0

>  <SCORE.SYSTEM.norm>
0

>  <SCORE.heavy>
10

>  <SCORE.norm>
-1.85887

>  <RMSD>
0.887

$$$$
ligand
 OpenBabel11021811423D
libRbt.so/2013.1/901 2013/11/27
 10 11  0  0  0  0  0  0  0  0999 V2000
   11.8035   11.0285    8.3949 N   0  0  0  0  0  0  0  0  0  0  0  0
   11.4710   12.3433    8.6527 C   0  0  0  0  0  0  0  0  0  0  0  0
   11.1003   13.1868    7.6816 N   0  0  0  0  0  0  0  0  0  0  0  0
   11.0925   12.6137    6.4451 C   0  0  0  0  0  0  0  0  0  0  0  0
   11.4156   11.3051    6.1193 C   0  0  0  0  0  0  0  0  0  0  0  0
   11.8079   10.4035    7.1458 C   0  0  0  0  0  0  0  0  0  0  0  0
   12.1314    9.2174    7.0831 O   0  0  0  0  0  0  0  0  0  0  0  0
   11.2753   11.1487    4.7613 N   0  0  0  0  0  0  0  0  0  0  0  0
   10.8724   12.3468    4.2767 C   0  0  0  0  0  0  0  0  0  0  0  0
   10.7516   13.2712    5.2879 N   0  0  0  0  0  0  0  0  0  0  0  0
  1  2  1  0  0  0  0
  1  6  1  0  0  0  0
  2  3  2  0  0  0  0
  3  4  1  0  0  0  0
  4  5  2  0  0  0  0
  4 10  1  0  0  0  0
  5  6  1  0  0  0  0
  5  8  1  0  0  0  0
  6  7  2  0  0  0  0
  8  9  1  0  0  0  0
  9 10  2  0  0  0  0
M  END
>  <CHROM.1>
11.38664639,11.64049579,6.59666554,0.48153965,-1.26874587,1.11823037

>  <Name>
ligand

>  <RI>
0

>  <Rbt.Current_Directory>
/home/itssahil/PROJECTS/Mol_Feturizer/New_Systems/rnas/2EEU

>  <Rbt.Executable>
rbdock ($Id: //depot/dev/client3/rdock/2013.1/src/exe/rbdock.cxx#4 $)

>  <Rbt.Library>
libRbt.so (2013.1, Build901 2013/11/27)

>  <Rbt.Parameter_File>
/export/apps/rDock/src/rDock_2013.1_src/data/scripts/dock_solv.prm

>  <Rbt.Receptor>
prm/pocket_docking_4.prm

>  <SCORE>
-18.5719

>  <SCORE.INTER>
-18.5719

>  <SCORE.INTER.CONST>
1

>  <SCORE.INTER.POLAR>
0

>  <SCORE.INTER.ROT>
0

>  <SCORE.INTER.SOLV>
3.55528

>  <SCORE.INTER.VDW>
-17.1663

>  <SCORE.INTER.norm>
-1.85719

>  <SCORE.INTRA>
0

>  <SCORE.INTRA.DIHEDRAL>
0

>  <SCORE.INTRA.DIHEDRAL.0>
0

>  <SCORE.INTRA.POLAR>
0

>  <SCORE.INTRA.POLAR.0>
0

>  <SCORE.INTRA.REPUL>
0

>  <SCORE.INTRA.REPUL.0>
0

>  <SCORE.INTRA.SOLV>
0

>  <SCORE.INTRA.SOLV.lig_0>
-4.28148

>  <SCORE.INTRA.VDW>
0

>  <SCORE.INTRA.VDW.0>
0

>  <SCORE.INTRA.norm>
0

>  <SCORE.RESTR>
0

>  <SCORE.RESTR.CAVITY>
0

>  <SCORE.RESTR.norm>
0

>  <SCORE.SYSTEM>
0

>  <SCORE.SYSTEM.CONST>
0

>  <SCORE.SYSTEM.DIHEDRAL>
0

>  <SCORE.SYSTEM.SOLV>
0

>  <SCORE.SYSTEM.norm>
0

>  <SCORE.heavy>
10

>  <SCORE.norm>
-1.85719

>  <RMSD>
0.887

$$$$
ligand
 OpenBabel11021811423D
libRbt.so/2013.1/901 2013/11/27
 10 11  0  0  0  0  0  0  0  0999 V2000
   11.7733   10.9805    8.4120 N   0  0  0  0  0  0  0  0  0  0  0  0
   11.4193   12.2899    8.6680 C   0  0  0  0  0  0  0  0  0  0  0  0
   11.0503   13.1306    7.6937 N   0  0  0  0  0  0  0  0  0  0  0  0
   11.0675   12.5603    6.4560 C   0  0  0  0  0  0  0  0  0  0  0  0
   11.4130   11.2570    6.1319 C   0  0  0  0  0  0  0  0  0  0  0  0
   11.8034   10.3585    7.1618 C   0  0  0  0  0  0  0  0  0  0  0  0
   12.1440    9.1770    7.1010 O   0  0  0  0  0  0  0  0  0  0  0  0
   11.2935   11.1019    4.7717 N   0  0  0  0  0  0  0  0  0  0  0  0
   10.8810   12.2954    4.2842 C   0  0  0  0  0  0  0  0  0  0  0  0
   10.7335   13.2158    5.2956 N   0  0  0  0  0  0  0  0  0  0  0  0
  1  2  1  0  0  0  0
  1  6  1  0  0  0  0
  2  3  2  0  0  0  0
  3  4  1  0  0  0  0
  4  5  2  0  0  0  0
  4 10  1  0  0  0  0
  5  6  1  0  0  0  0
  5  8  1  0  0  0  0
  6  7  2  0  0  0  0
  8  9  1  0  0  0  0
  9 10  2  0  0  0  0
M  END
>  <CHROM.1>
11.37286159,11.59084522,6.60951017,0.54205390,-1.26187560,1.17819081

>  <Name>
ligand

>  <RI>
0

>  <Rbt.Current_Directory>
/home/itssahil/PROJECTS/Mol_Feturizer/New_Systems/rnas/2EEU

>  <Rbt.Executable>
rbdock ($Id: //depot/dev/client3/rdock/2013.1/src/exe/rbdock.cxx#4 $)

>  <Rbt.Library>
libRbt.so (2013.1, Build901 2013/11/27)

>  <Rbt.Parameter_File>
/export/apps/rDock/src/rDock_2013.1_src/data/scripts/dock_solv.prm

>  <Rbt.Receptor>
prm/pocket_docking_5.prm

>  <SCORE>
-18.5763

>  <SCORE.INTER>
-18.5763

>  <SCORE.INTER.CONST>
1

>  <SCORE.INTER.POLAR>
0

>  <SCORE.INTER.ROT>
0

>  <SCORE.INTER.SOLV>
3.55024

>  <SCORE.INTER.VDW>
-17.1676

>  <SCORE.INTER.norm>
-1.85763

>  <SCORE.INTRA>
0

>  <SCORE.INTRA.DIHEDRAL>
0

>  <SCORE.INTRA.DIHEDRAL.0>
0

>  <SCORE.INTRA.POLAR>
0

>  <SCORE.INTRA.POLAR.0>
0

>  <SCORE.INTRA.REPUL>
0

>  <SCORE.INTRA.REPUL.0>
0

>  <SCORE.INTRA.SOLV>
0

>  <SCORE.INTRA.SOLV.lig_0>
-4.28148

>  <SCORE.INTRA.VDW>
0

>  <SCORE.INTRA.VDW.0>
0

>  <SCORE.INTRA.norm>
0

>  <SCORE.RESTR>
0

>  <SCORE.RESTR.CAVITY>
0

>  <SCORE.RESTR.norm>
0

>  <SCORE.SYSTEM>
0

>  <SCORE.SYSTEM.CONST>
0

>  <SCORE.SYSTEM.DIHEDRAL>
0

>  <SCORE.SYSTEM.SOLV>
0

>  <SCORE.SYSTEM.norm>
0

>  <SCORE.heavy>
10

>  <SCORE.norm>
-1.85763

>  <RMSD>
0.887

$$$$
ligand
 OpenBabel11021811423D
libRbt.so/2013.1/901 2013/11/27
 10 11  0  0  0  0  0  0  0  0999 V2000
   11.8376   10.9435    8.3906 N   0  0  0  0  0  0  0  0  0  0  0  0
   11.5098   12.2559    8.6658 C   0  0  0  0  0  0  0  0  0  0  0  0
   11.1268   13.1092    7.7081 N   0  0  0  0  0  0  0  0  0  0  0  0
   11.1019   12.5483    6.4663 C   0  0  0  0  0  0  0  0  0  0  0  0
   11.4194   11.2428    6.1233 C   0  0  0  0  0  0  0  0  0  0  0  0
   11.8246   10.3308    7.1355 C   0  0  0  0  0  0  0  0  0  0  0  0
   12.1461    9.1451    7.0568 O   0  0  0  0  0  0  0  0  0  0  0  0
   11.2607   11.0999    4.7658 N   0  0  0  0  0  0  0  0  0  0  0  0
   10.8525   12.3030    4.2985 C   0  0  0  0  0  0  0  0  0  0  0  0
   10.7461   13.2175    5.3203 N   0  0  0  0  0  0  0  0  0  0  0  0
  1  2  1  0  0  0  0
  1  6  1  0  0  0  0
  2  3  2  0  0  0  0
  3  4  1  0  0  0  0
  4  5  2  0  0  0  0
  4 10  1  0  0  0  0
  5  6  1  0  0  0  0
  5  8  1  0  0  0  0
  6  7  2  0  0  0  0
  8  9  1  0  0  0  0
  9 10  2  0  0  0  0
M  END
>  <CHROM.1>
11.39715763,11.57343984,6.60426542,0.44023368,-1.26345589,1.08868483

>  <Name>
ligand

>  <RI>
0

>  <Rbt.Current_Directory>
/home/itssahil/PROJECTS/Mol_Feturizer/New_Systems/rnas/2EEU

>  <Rbt.Executable>
rbdock ($Id: //depot/dev/client3/rdock/2013.1/src/exe/rbdock.cxx#4 $)

>  <Rbt.Library>
libRbt.so (2013.1, Build901 2013/11/27)

>  <Rbt.Parameter_File>
/export/apps/rDock/src/rDock_2013.1_src/data/scripts/dock_solv.prm

>  <Rbt.Receptor>
prm/pocket_docking_6.prm

>  <SCORE>
-18.5928

>  <SCORE.INTER>
-18.5928

>  <SCORE.INTER.CONST>
1

>  <SCORE.INTER.POLAR>
0

>  <SCORE.INTER.ROT>
0

>  <SCORE.INTER.SOLV>
3.53806

>  <SCORE.INTER.VDW>
-17.1746

>  <SCORE.INTER.norm>
-1.85928

>  <SCORE.INTRA>
0

>  <SCORE.INTRA.DIHEDRAL>
0

>  <SCORE.INTRA.DIHEDRAL.0>
0

>  <SCORE.INTRA.POLAR>
0

>  <SCORE.INTRA.POLAR.0>
0

>  <SCORE.INTRA.REPUL>
0

>  <SCORE.INTRA.REPUL.0>
0

>  <SCORE.INTRA.SOLV>
0

>  <SCORE.INTRA.SOLV.lig_0>
-4.28148

>  <SCORE.INTRA.VDW>
0

>  <SCORE.INTRA.VDW.0>
0

>  <SCORE.INTRA.norm>
0

>  <SCORE.RESTR>
0

>  <SCORE.RESTR.CAVITY>
0

>  <SCORE.RESTR.norm>
0

>  <SCORE.SYSTEM>
0

>  <SCORE.SYSTEM.CONST>
0

>  <SCORE.SYSTEM.DIHEDRAL>
0

>  <SCORE.SYSTEM.SOLV>
0

>  <SCORE.SYSTEM.norm>
0

>  <SCORE.heavy>
10

>  <SCORE.norm>
-1.85928

>  <RMSD>
0.887

$$$$
ligand
 OpenBabel11021811423D
libRbt.so/2013.1/901 2013/11/27
 10 11  0  0  0  0  0  0  0  0999 V2000
   11.8469   10.9465    8.3904 N   0  0  0  0  0  0  0  0  0  0  0  0
   11.5384   12.2650    8.6588 C   0  0  0  0  0  0  0  0  0  0  0  0
   11.1593   13.1166    7.6979 N   0  0  0  0  0  0  0  0  0  0  0  0
   11.1176   12.5474    6.4603 C   0  0  0  0  0  0  0  0  0  0  0  0
   11.4154   11.2354    6.1242 C   0  0  0  0  0  0  0  0  0  0  0  0
   11.8163   10.3253    7.1398 C   0  0  0  0  0  0  0  0  0  0  0  0
   12.1217    9.1349    7.0671 O   0  0  0  0  0  0  0  0  0  0  0  0
   11.2445   11.0851    4.7690 N   0  0  0  0  0  0  0  0  0  0  0  0
   10.8485   12.2902    4.2962 C   0  0  0  0  0  0  0  0  0  0  0  0
   10.7618   13.2131    5.3123 N   0  0  0  0  0  0  0  0  0  0  0  0
  1  2  1  0  0  0  0
  1  6  1  0  0  0  0
  2  3  2  0  0  0  0
  3  4  1  0  0  0  0
  4  5  2  0  0  0  0
  4 10  1  0  0  0  0
  5  6  1  0  0  0  0
  5  8  1  0  0  0  0
  6  7  2  0  0  0  0
  8  9  1  0  0  0  0
  9 10  2  0  0  0  0
M  END
>  <CHROM.1>
11.40115079,11.56969423,6.60298855,0.39686456,-1.27123910,1.04025884

>  <Name>
ligand

>  <RI>
0

>  <Rbt.Current_Directory>
/home/itssahil/PROJECTS/Mol_Feturizer/New_Systems/rnas/2EEU

>  <Rbt.Executable>
rbdock ($Id: //depot/dev/client3/rdock/2013.1/src/exe/rbdock.cxx#4 $)

>  <Rbt.Library>
libRbt.so (2013.1, Build901 2013/11/27)

>  <Rbt.Parameter_File>
/export/apps/rDock/src/rDock_2013.1_src/data/scripts/dock_solv.prm

>  <Rbt.Receptor>
prm/pocket_docking_7.prm

>  <SCORE>
-18.601

>  <SCORE.INTER>
-18.601

>  <SCORE.INTER.CONST>
1

>  <SCORE.INTER.POLAR>
0

>  <SCORE.INTER.ROT>
0

>  <SCORE.INTER.SOLV>
3.55807

>  <SCORE.INTER.VDW>
-17.1867

>  <SCORE.INTER.norm>
-1.8601

>  <SCORE.INTRA>
0

>  <SCORE.INTRA.DIHEDRAL>
0

>  <SCORE.INTRA.DIHEDRAL.0>
0

>  <SCORE.INTRA.POLAR>
0

>  <SCORE.INTRA.POLAR.0>
0

>  <SCORE.INTRA.REPUL>
0

>  <SCORE.INTRA.REPUL.0>
0

>  <SCORE.INTRA.SOLV>
0

>  <SCORE.INTRA.SOLV.lig_0>
-4.28148

>  <SCORE.INTRA.VDW>
0

>  <SCORE.INTRA.VDW.0>
0

>  <SCORE.INTRA.norm>
0

>  <SCORE.RESTR>
0

>  <SCORE.RESTR.CAVITY>
0

>  <SCORE.RESTR.norm>
0

>  <SCORE.SYSTEM>
0

>  <SCORE.SYSTEM.CONST>
0

>  <SCORE.SYSTEM.DIHEDRAL>
0

>  <SCORE.SYSTEM.SOLV>
0

>  <SCORE.SYSTEM.norm>
0

>  <SCORE.heavy>
10

>  <SCORE.norm>
-1.8601

>  <RMSD>
0.887

$$$$
ligand
 OpenBabel11021811423D
libRbt.so/2013.1/901 2013/11/27
 10 11  0  0  0  0  0  0  0  0999 V2000
   11.8425   10.9454    8.3909 N   0  0  0  0  0  0  0  0  0  0  0  0
   11.5166   12.2589    8.6633 C   0  0  0  0  0  0  0  0  0  0  0  0
   11.1361   13.1111    7.7036 N   0  0  0  0  0  0  0  0  0  0  0  0
   11.1116   12.5480    6.4628 C   0  0  0  0  0  0  0  0  0  0  0  0
   11.4273   11.2413    6.1225 C   0  0  0  0  0  0  0  0  0  0  0  0
   11.8299   10.3305    7.1369 C   0  0  0  0  0  0  0  0  0  0  0  0
   12.1495    9.1441    7.0607 O   0  0  0  0  0  0  0  0  0  0  0  0
   11.2698   11.0961    4.7652 N   0  0  0  0  0  0  0  0  0  0  0  0
   10.8641   12.2990    4.2952 C   0  0  0  0  0  0  0  0  0  0  0  0
   10.7581   13.2156    5.3152 N   0  0  0  0  0  0  0  0  0  0  0  0
  1  2  1  0  0  0  0
  1  6  1  0  0  0  0
  2  3  2  0  0  0  0
  3  4  1  0  0  0  0
  4  5  2  0  0  0  0
  4 10  1  0  0  0  0
  5  6  1  0  0  0  0
  5  8  1  0  0  0  0
  6  7  2  0  0  0  0
  8  9  1  0  0  0  0
  9 10  2  0  0  0  0
M  END
>  <CHROM.1>
11.40508155,11.57284924,6.60288430,0.44092022,-1.26542552,1.08750300

>  <Name>
ligand

>  <RI>
0

>  <Rbt.Current_Directory>
/home/itssahil/PROJECTS/Mol_Feturizer/New_Systems/rnas/2EEU

>  <Rbt.Executable>
rbdock ($Id: //depot/dev/client3/rdock/2013.1/src/exe/rbdock.cxx#4 $)

>  <Rbt.Library>
libRbt.so (2013.1, Build901 2013/11/27)

>  <Rbt.Parameter_File>
/export/apps/rDock/src/rDock_2013.1_src/data/scripts/dock_solv.prm

>  <Rbt.Receptor>
prm/pocket_docking_8.prm

>  <SCORE>
-18.5911

>  <SCORE.INTER>
-18.5911

>  <SCORE.INTER.CONST>
1

>  <SCORE.INTER.POLAR>
0

>  <SCORE.INTER.ROT>
0

>  <SCORE.INTER.SOLV>
3.53558

>  <SCORE.INTER.VDW>
-17.1726

>  <SCORE.INTER.norm>
-1.85911

>  <SCORE.INTRA>
0

>  <SCORE.INTRA.DIHEDRAL>
0

>  <SCORE.INTRA.DIHEDRAL.0>
0

>  <SCORE.INTRA.POLAR>
0

>  <SCORE.INTRA.POLAR.0>
0

>  <SCORE.INTRA.REPUL>
0

>  <SCORE.INTRA.REPUL.0>
0

>  <SCORE.INTRA.SOLV>
0

>  <SCORE.INTRA.SOLV.lig_0>
-4.28148

>  <SCORE.INTRA.VDW>
0

>  <SCORE.INTRA.VDW.0>
0

>  <SCORE.INTRA.norm>
0

>  <SCORE.RESTR>
0

>  <SCORE.RESTR.CAVITY>
0

>  <SCORE.RESTR.norm>
0

>  <SCORE.SYSTEM>
0

>  <SCORE.SYSTEM.CONST>
0

>  <SCORE.SYSTEM.DIHEDRAL>
0

>  <SCORE.SYSTEM.SOLV>
0

>  <SCORE.SYSTEM.norm>
0

>  <SCORE.heavy>
10

>  <SCORE.norm>
-1.85911

>  <RMSD>
0.887

$$$$
ligand
 OpenBabel11021811423D
libRbt.so/2013.1/901 2013/11/27
 10 11  0  0  0  0  0  0  0  0999 V2000
   11.8404   10.9454    8.3901 N   0  0  0  0  0  0  0  0  0  0  0  0
   11.5184   12.2597    8.6633 C   0  0  0  0  0  0  0  0  0  0  0  0
   11.1372   13.1128    7.7046 N   0  0  0  0  0  0  0  0  0  0  0  0
   11.1080   12.5496    6.4639 C   0  0  0  0  0  0  0  0  0  0  0  0
   11.4196   11.2422    6.1228 C   0  0  0  0  0  0  0  0  0  0  0  0
   11.8228   10.3305    7.1361 C   0  0  0  0  0  0  0  0  0  0  0  0
   12.1394    9.1433    7.0591 O   0  0  0  0  0  0  0  0  0  0  0  0
   11.2580   11.0974    4.7659 N   0  0  0  0  0  0  0  0  0  0  0  0
   10.8539   12.3012    4.2970 C   0  0  0  0  0  0  0  0  0  0  0  0
   10.7529   13.2181    5.3172 N   0  0  0  0  0  0  0  0  0  0  0  0
  1  2  1  0  0  0  0
  1  6  1  0  0  0  0
  2  3  2  0  0  0  0
  3  4  1  0  0  0  0
  4  5  2  0  0  0  0
  4 10  1  0  0  0  0
  5  6  1  0  0  0  0
  5  8  1  0  0  0  0
  6  7  2  0  0  0  0
  8  9  1  0  0  0  0
  9 10  2  0  0  0  0
M  END
>  <CHROM.1>
11.39950165,11.57384555,6.60323199,0.42899253,-1.26624386,1.07608052

>  <Name>
ligand

>  <RI>
0

>  <Rbt.Current_Directory>
/home/itssahil/PROJECTS/Mol_Feturizer/New_Systems/rnas/2EEU

>  <Rbt.Executable>
rbdock ($Id: //depot/dev/client3/rdock/2013.1/src/exe/rbdock.cxx#4 $)

>  <Rbt.Library>
libRbt.so (2013.1, Build901 2013/11/27)

>  <Rbt.Parameter_File>
/export/apps/rDock/src/rDock_2013.1_src/data/scripts/dock_solv.prm

>  <Rbt.Receptor>
prm/pocket_docking_8.prm

>  <SCORE>
-18.5971

>  <SCORE.INTER>
-18.5971

>  <SCORE.INTER.CONST>
1

>  <SCORE.INTER.POLAR>
0

>  <SCORE.INTER.ROT>
0

>  <SCORE.INTER.SOLV>
3.54432

>  <SCORE.INTER.VDW>
-17.1795

>  <SCORE.INTER.norm>
-1.85971

>  <SCORE.INTRA>
0

>  <SCORE.INTRA.DIHEDRAL>
0

>  <SCORE.INTRA.DIHEDRAL.0>
0

>  <SCORE.INTRA.POLAR>
0

>  <SCORE.INTRA.POLAR.0>
0

>  <SCORE.INTRA.REPUL>
0

>  <SCORE.INTRA.REPUL.0>
0

>  <SCORE.INTRA.SOLV>
0

>  <SCORE.INTRA.SOLV.lig_0>
-4.28148

>  <SCORE.INTRA.VDW>
0

>  <SCORE.INTRA.VDW.0>
0

>  <SCORE.INTRA.norm>
0

>  <SCORE.RESTR>
0

>  <SCORE.RESTR.CAVITY>
0

>  <SCORE.RESTR.norm>
0

>  <SCORE.SYSTEM>
0

>  <SCORE.SYSTEM.CONST>
0

>  <SCORE.SYSTEM.DIHEDRAL>
0

>  <SCORE.SYSTEM.SOLV>
0

>  <SCORE.SYSTEM.norm>
0

>  <SCORE.heavy>
10

>  <SCORE.norm>
-1.85971

>  <RMSD>
0.887

$$$$
ligand
 OpenBabel11021811423D
libRbt.so/2013.1/901 2013/11/27
 10 11  0  0  0  0  0  0  0  0999 V2000
   11.8302   10.9396    8.3915 N   0  0  0  0  0  0  0  0  0  0  0  0
   11.4922   12.2488    8.6701 C   0  0  0  0  0  0  0  0  0  0  0  0
   11.1045   13.1021    7.7142 N   0  0  0  0  0  0  0  0  0  0  0  0
   11.0859   12.5447    6.4707 C   0  0  0  0  0  0  0  0  0  0  0  0
   11.4137   11.2426    6.1244 C   0  0  0  0  0  0  0  0  0  0  0  0
   11.8239   10.3307    7.1346 C   0  0  0  0  0  0  0  0  0  0  0  0
   12.1543    9.1476    7.0529 O   0  0  0  0  0  0  0  0  0  0  0  0
   11.2584   11.1026    4.7662 N   0  0  0  0  0  0  0  0  0  0  0  0
   10.8421   12.3040    4.3017 C   0  0  0  0  0  0  0  0  0  0  0  0
   10.7271   13.2147    5.3260 N   0  0  0  0  0  0  0  0  0  0  0  0
  1  2  1  0  0  0  0
  1  6  1  0  0  0  0
  2  3  2  0  0  0  0
  3  4  1  0  0  0  0
  4  5  2  0  0  0  0
  4 10  1  0  0  0  0
  5  6  1  0  0  0  0
  5  8  1  0  0  0  0
  6  7  2  0  0  0  0
  8  9  1  0  0  0  0
  9 10  2  0  0  0  0
M  END
>  <CHROM.1>
11.38815680,11.57167666,6.60627770,0.45640980,-1.25764969,1.10707295

>  <Name>
ligand

>  <RI>
0

>  <Rbt.Current_Directory>
/home/itssahil/PROJECTS/Mol_Feturizer/New_Systems/rnas/2EEU

>  <Rbt.Executable>
rbdock ($Id: //depot/dev/client3/rdock/2013.1/src/exe/rbdock.cxx#4 $)

>  <Rbt.Library>
libRbt.so (2013.1, Build901 2013/11/27)

>  <Rbt.Parameter_File>
/export/apps/rDock/src/rDock_2013.1_src/data/scripts/dock_solv.prm

>  <Rbt.Receptor>
prm/pocket_docking_8.prm

>  <SCORE>
-18.5805

>  <SCORE.INTER>
-18.5805

>  <SCORE.INTER.CONST>
1

>  <SCORE.INTER.POLAR>
0

>  <SCORE.INTER.ROT>
0

>  <SCORE.INTER.SOLV>
3.52987

>  <SCORE.INTER.VDW>
-17.1636

>  <SCORE.INTER.norm>
-1.85805

>  <SCORE.INTRA>
0

>  <SCORE.INTRA.DIHEDRAL>
0

>  <SCORE.INTRA.DIHEDRAL.0>
0

>  <SCORE.INTRA.POLAR>
0

>  <SCORE.INTRA.POLAR.0>
0

>  <SCORE.INTRA.REPUL>
0

>  <SCORE.INTRA.REPUL.0>
0

>  <SCORE.INTRA.SOLV>
0

>  <SCORE.INTRA.SOLV.lig_0>
-4.28148

>  <SCORE.INTRA.VDW>
0

>  <SCORE.INTRA.VDW.0>
0

>  <SCORE.INTRA.norm>
0

>  <SCORE.RESTR>
0

>  <SCORE.RESTR.CAVITY>
0

>  <SCORE.RESTR.norm>
0

>  <SCORE.SYSTEM>
0

>  <SCORE.SYSTEM.CONST>
0

>  <SCORE.SYSTEM.DIHEDRAL>
0

>  <SCORE.SYSTEM.SOLV>
0

>  <SCORE.SYSTEM.norm>
0

>  <SCORE.heavy>
10

>  <SCORE.norm>
-1.85805

>  <RMSD>
0.887

$$$$
ligand
 OpenBabel11021811423D
libRbt.so/2013.1/901 2013/11/27
 10 11  0  0  0  0  0  0  0  0999 V2000
   11.8425   10.9450    8.3913 N   0  0  0  0  0  0  0  0  0  0  0  0
   11.5306   12.2626    8.6597 C   0  0  0  0  0  0  0  0  0  0  0  0
   11.1543   13.1147    7.6982 N   0  0  0  0  0  0  0  0  0  0  0  0
   11.1190   12.5468    6.4598 C   0  0  0  0  0  0  0  0  0  0  0  0
   11.4204   11.2358    6.1235 C   0  0  0  0  0  0  0  0  0  0  0  0
   11.8184   10.3252    7.1398 C   0  0  0  0  0  0  0  0  0  0  0  0
   12.1262    9.1354    7.0670 O   0  0  0  0  0  0  0  0  0  0  0  0
   11.2557   11.0867    4.7674 N   0  0  0  0  0  0  0  0  0  0  0  0
   10.8597   12.2916    4.2943 C   0  0  0  0  0  0  0  0  0  0  0  0
   10.7671   13.2133    5.3110 N   0  0  0  0  0  0  0  0  0  0  0  0
  1  2  1  0  0  0  0
  1  6  1  0  0  0  0
  2  3  2  0  0  0  0
  3  4  1  0  0  0  0
  4  5  2  0  0  0  0
  4 10  1  0  0  0  0
  5  6  1  0  0  0  0
  5  8  1  0  0  0  0
  6  7  2  0  0  0  0
  8  9  1  0  0  0  0
  9 10  2  0  0  0  0
M  END
>  <CHROM.1>
11.40350932,11.56946685,6.60259404,0.41253854,-1.27195462,1.05637202

>  <Name>
ligand

>  <RI>
0

>  <Rbt.Current_Directory>
/home/itssahil/PROJECTS/Mol_Feturizer/New_Systems/rnas/2EEU

>  <Rbt.Executable>
rbdock ($Id: //depot/dev/client3/rdock/2013.1/src/exe/rbdock.cxx#4 $)

>  <Rbt.Library>
libRbt.so (2013.1, Build901 2013/11/27)

>  <Rbt.Parameter_File>
/export/apps/rDock/src/rDock_2013.1_src/data/scripts/dock_solv.prm

>  <Rbt.Receptor>
prm/blind_docking_100.prm

>  <SCORE>
-18.5996

>  <SCORE.INTER>
-18.5996

>  <SCORE.INTER.CONST>
1

>  <SCORE.INTER.POLAR>
0

>  <SCORE.INTER.ROT>
0

>  <SCORE.INTER.SOLV>
3.55807

>  <SCORE.INTER.VDW>
-17.1857

>  <SCORE.INTER.norm>
-1.85996

>  <SCORE.INTRA>
0

>  <SCORE.INTRA.DIHEDRAL>
0

>  <SCORE.INTRA.DIHEDRAL.0>
0

>  <SCORE.INTRA.POLAR>
0

>  <SCORE.INTRA.POLAR.0>
0

>  <SCORE.INTRA.REPUL>
0

>  <SCORE.INTRA.REPUL.0>
0

>  <SCORE.INTRA.SOLV>
0

>  <SCORE.INTRA.SOLV.lig_0>
-4.28148

>  <SCORE.INTRA.VDW>
0

>  <SCORE.INTRA.VDW.0>
0

>  <SCORE.INTRA.norm>
0

>  <SCORE.RESTR>
0

>  <SCORE.RESTR.CAVITY>
0

>  <SCORE.RESTR.norm>
0

>  <SCORE.SYSTEM>
0

>  <SCORE.SYSTEM.CONST>
0

>  <SCORE.SYSTEM.DIHEDRAL>
0

>  <SCORE.SYSTEM.SOLV>
0

>  <SCORE.SYSTEM.norm>
0

>  <SCORE.heavy>
10

>  <SCORE.norm>
-1.85996

>  <RMSD>
0.888

$$$$
ligand
 OpenBabel11021811423D
libRbt.so/2013.1/901 2013/11/27
 10 11  0  0  0  0  0  0  0  0999 V2000
   11.8160   11.0192    8.3883 N   0  0  0  0  0  0  0  0  0  0  0  0
   11.4985   12.3367    8.6510 C   0  0  0  0  0  0  0  0  0  0  0  0
   11.1296   13.1859    7.6841 N   0  0  0  0  0  0  0  0  0  0  0  0
   11.1076   12.6154    6.4466 C   0  0  0  0  0  0  0  0  0  0  0  0
   11.4153   11.3043    6.1160 C   0  0  0  0  0  0  0  0  0  0  0  0
   11.8054   10.3967    7.1380 C   0  0  0  0  0  0  0  0  0  0  0  0
   12.1165    9.2075    7.0707 O   0  0  0  0  0  0  0  0  0  0  0  0
   11.2640   11.1521    4.7586 N   0  0  0  0  0  0  0  0  0  0  0  0
   10.8700   12.3551    4.2792 C   0  0  0  0  0  0  0  0  0  0  0  0
   10.7654   13.2787    5.2930 N   0  0  0  0  0  0  0  0  0  0  0  0
  1  2  1  0  0  0  0
  1  6  1  0  0  0  0
  2  3  2  0  0  0  0
  3  4  1  0  0  0  0
  4  5  2  0  0  0  0
  4 10  1  0  0  0  0
  5  6  1  0  0  0  0
  5  8  1  0  0  0  0
  6  7  2  0  0  0  0
  8  9  1  0  0  0  0
  9 10  2  0  0  0  0
M  END
>  <CHROM.1>
11.39293314,11.63897106,6.59416152,0.44523633,-1.27463725,1.08555244

>  <Name>
ligand

>  <RI>
0

>  <Rbt.Current_Directory>
/home/itssahil/PROJECTS/Mol_Feturizer/New_Systems/rnas/2EEU

>  <Rbt.Executable>
rbdock ($Id: //depot/dev/client3/rdock/2013.1/src/exe/rbdock.cxx#4 $)

>  <Rbt.Library>
libRbt.so (2013.1, Build901 2013/11/27)

>  <Rbt.Parameter_File>
/export/apps/rDock/src/rDock_2013.1_src/data/scripts/dock_solv.prm

>  <Rbt.Receptor>
prm/blind_docking_40.prm

>  <SCORE>
-18.5828

>  <SCORE.INTER>
-18.5828

>  <SCORE.INTER.CONST>
1

>  <SCORE.INTER.POLAR>
0

>  <SCORE.INTER.ROT>
0

>  <SCORE.INTER.SOLV>
3.57235

>  <SCORE.INTER.VDW>
-17.1793

>  <SCORE.INTER.norm>
-1.85828

>  <SCORE.INTRA>
0

>  <SCORE.INTRA.DIHEDRAL>
0

>  <SCORE.INTRA.DIHEDRAL.0>
0

>  <SCORE.INTRA.POLAR>
0

>  <SCORE.INTRA.POLAR.0>
0

>  <SCORE.INTRA.REPUL>
0

>  <SCORE.INTRA.REPUL.0>
0

>  <SCORE.INTRA.SOLV>
0

>  <SCORE.INTRA.SOLV.lig_0>
-4.28148

>  <SCORE.INTRA.VDW>
0

>  <SCORE.INTRA.VDW.0>
0

>  <SCORE.INTRA.norm>
0

>  <SCORE.RESTR>
0

>  <SCORE.RESTR.CAVITY>
0

>  <SCORE.RESTR.norm>
0

>  <SCORE.SYSTEM>
0

>  <SCORE.SYSTEM.CONST>
0

>  <SCORE.SYSTEM.DIHEDRAL>
0

>  <SCORE.SYSTEM.SOLV>
0

>  <SCORE.SYSTEM.norm>
0

>  <SCORE.heavy>
10

>  <SCORE.norm>
-1.85828

>  <RMSD>
0.888

$$$$
ligand
 OpenBabel11021811423D
libRbt.so/2013.1/901 2013/11/27
 10 11  0  0  0  0  0  0  0  0999 V2000
   11.8403   10.9451    8.3901 N   0  0  0  0  0  0  0  0  0  0  0  0
   11.5235   12.2610    8.6616 C   0  0  0  0  0  0  0  0  0  0  0  0
   11.1445   13.1140    7.7020 N   0  0  0  0  0  0  0  0  0  0  0  0
   11.1119   12.5490    6.4622 C   0  0  0  0  0  0  0  0  0  0  0  0
   11.4183   11.2399    6.1229 C   0  0  0  0  0  0  0  0  0  0  0  0
   11.8191   10.3283    7.1372 C   0  0  0  0  0  0  0  0  0  0  0  0
   12.1312    9.1398    7.0617 O   0  0  0  0  0  0  0  0  0  0  0  0
   11.2548   11.0935    4.7663 N   0  0  0  0  0  0  0  0  0  0  0  0
   10.8547   12.2982    4.2959 C   0  0  0  0  0  0  0  0  0  0  0  0
   10.7582   13.2170    5.3148 N   0  0  0  0  0  0  0  0  0  0  0  0
  1  2  1  0  0  0  0
  1  6  1  0  0  0  0
  2  3  2  0  0  0  0
  3  4  1  0  0  0  0
  4  5  2  0  0  0  0
  4 10  1  0  0  0  0
  5  6  1  0  0  0  0
  5  8  1  0  0  0  0
  6  7  2  0  0  0  0
  8  9  1  0  0  0  0
  9 10  2  0  0  0  0
M  END
>  <CHROM.1>
11.39993740,11.57235849,6.60276335,0.42008045,-1.26904061,1.06600427

>  <Name>
ligand

>  <RI>
0

>  <Rbt.Current_Directory>
/home/itssahil/PROJECTS/Mol_Feturizer/New_Systems/rnas/2EEU

>  <Rbt.Executable>
rbdock ($Id: //depot/dev/client3/rdock/2013.1/src/exe/rbdock.cxx#4 $)

>  <Rbt.Library>
libRbt.so (2013.1, Build901 2013/11/27)

>  <Rbt.Parameter_File>
/export/apps/rDock/src/rDock_2013.1_src/data/scripts/dock_solv.prm

>  <Rbt.Receptor>
prm/pocket_docking_5.prm

>  <SCORE>
-18.5995

>  <SCORE.INTER>
-18.5995

>  <SCORE.INTER.CONST>
1

>  <SCORE.INTER.POLAR>
0

>  <SCORE.INTER.ROT>
0

>  <SCORE.INTER.SOLV>
3.55287

>  <SCORE.INTER.VDW>
-17.1839

>  <SCORE.INTER.norm>
-1.85995

>  <SCORE.INTRA>
0

>  <SCORE.INTRA.DIHEDRAL>
0

>  <SCORE.INTRA.DIHEDRAL.0>
0

>  <SCORE.INTRA.POLAR>
0

>  <SCORE.INTRA.POLAR.0>
0

>  <SCORE.INTRA.REPUL>
0

>  <SCORE.INTRA.REPUL.0>
0

>  <SCORE.INTRA.SOLV>
0

>  <SCORE.INTRA.SOLV.lig_0>
-4.28148

>  <SCORE.INTRA.VDW>
0

>  <SCORE.INTRA.VDW.0>
0

>  <SCORE.INTRA.norm>
0

>  <SCORE.RESTR>
0

>  <SCORE.RESTR.CAVITY>
0

>  <SCORE.RESTR.norm>
0

>  <SCORE.SYSTEM>
0

>  <SCORE.SYSTEM.CONST>
0

>  <SCORE.SYSTEM.DIHEDRAL>
0

>  <SCORE.SYSTEM.SOLV>
0

>  <SCORE.SYSTEM.norm>
0

>  <SCORE.heavy>
10

>  <SCORE.norm>
-1.85995

>  <RMSD>
0.888

$$$$
ligand
 OpenBabel11021811423D
libRbt.so/2013.1/901 2013/11/27
 10 11  0  0  0  0  0  0  0  0999 V2000
   11.8383   10.9437    8.3907 N   0  0  0  0  0  0  0  0  0  0  0  0
   11.5173   12.2585    8.6625 C   0  0  0  0  0  0  0  0  0  0  0  0
   11.1390   13.1115    7.7025 N   0  0  0  0  0  0  0  0  0  0  0  0
   11.1117   12.5476    6.4620 C   0  0  0  0  0  0  0  0  0  0  0  0
   11.4225   11.2396    6.1224 C   0  0  0  0  0  0  0  0  0  0  0  0
   11.8226   10.3280    7.1371 C   0  0  0  0  0  0  0  0  0  0  0  0
   12.1379    9.1404    7.0614 O   0  0  0  0  0  0  0  0  0  0  0  0
   11.2635   11.0941    4.7653 N   0  0  0  0  0  0  0  0  0  0  0  0
   10.8617   12.2981    4.2948 C   0  0  0  0  0  0  0  0  0  0  0  0
   10.7597   13.2158    5.3142 N   0  0  0  0  0  0  0  0  0  0  0  0
  1  2  1  0  0  0  0
  1  6  1  0  0  0  0
  2  3  2  0  0  0  0
  3  4  1  0  0  0  0
  4  5  2  0  0  0  0
  4 10  1  0  0  0  0
  5  6  1  0  0  0  0
  5  8  1  0  0  0  0
  6  7  2  0  0  0  0
  8  9  1  0  0  0  0
  9 10  2  0  0  0  0
M  END
>  <CHROM.1>
11.40180110,11.57154987,6.60256700,0.43319452,-1.26822182,1.07947915

>  <Name>
ligand

>  <RI>
0

>  <Rbt.Current_Directory>
/home/itssahil/PROJECTS/Mol_Feturizer/New_Systems/rnas/2EEU

>  <Rbt.Executable>
rbdock ($Id: //depot/dev/client3/rdock/2013.1/src/exe/rbdock.cxx#4 $)

>  <Rbt.Library>
libRbt.so (2013.1, Build901 2013/11/27)

>  <Rbt.Parameter_File>
/export/apps/rDock/src/rDock_2013.1_src/data/scripts/dock_solv.prm

>  <Rbt.Receptor>
prm/pocket_docking_7.prm

>  <SCORE>
-18.5951

>  <SCORE.INTER>
-18.5951

>  <SCORE.INTER.CONST>
1

>  <SCORE.INTER.POLAR>
0

>  <SCORE.INTER.ROT>
0

>  <SCORE.INTER.SOLV>
3.54868

>  <SCORE.INTER.VDW>
-17.1796

>  <SCORE.INTER.norm>
-1.85951

>  <SCORE.INTRA>
0

>  <SCORE.INTRA.DIHEDRAL>
0

>  <SCORE.INTRA.DIHEDRAL.0>
0

>  <SCORE.INTRA.POLAR>
0

>  <SCORE.INTRA.POLAR.0>
0

>  <SCORE.INTRA.REPUL>
0

>  <SCORE.INTRA.REPUL.0>
0

>  <SCORE.INTRA.SOLV>
0

>  <SCORE.INTRA.SOLV.lig_0>
-4.28148

>  <SCORE.INTRA.VDW>
0

>  <SCORE.INTRA.VDW.0>
0

>  <SCORE.INTRA.norm>
0

>  <SCORE.RESTR>
0

>  <SCORE.RESTR.CAVITY>
0

>  <SCORE.RESTR.norm>
0

>  <SCORE.SYSTEM>
0

>  <SCORE.SYSTEM.CONST>
0

>  <SCORE.SYSTEM.DIHEDRAL>
0

>  <SCORE.SYSTEM.SOLV>
0

>  <SCORE.SYSTEM.norm>
0

>  <SCORE.heavy>
10

>  <SCORE.norm>
-1.85951

>  <RMSD>
0.888

$$$$
ligand
 OpenBabel11021811423D
libRbt.so/2013.1/901 2013/11/27
 10 11  0  0  0  0  0  0  0  0999 V2000
   11.8370   10.9427    8.3914 N   0  0  0  0  0  0  0  0  0  0  0  0
   11.5109   12.2560    8.6646 C   0  0  0  0  0  0  0  0  0  0  0  0
   11.1307   13.1089    7.7054 N   0  0  0  0  0  0  0  0  0  0  0  0
   11.1067   12.5466    6.4642 C   0  0  0  0  0  0  0  0  0  0  0  0
   11.4226   11.2401    6.1231 C   0  0  0  0  0  0  0  0  0  0  0  0
   11.8248   10.3286    7.1370 C   0  0  0  0  0  0  0  0  0  0  0  0
   12.1444    9.1423    7.0601 O   0  0  0  0  0  0  0  0  0  0  0  0
   11.2656   11.0959    4.7656 N   0  0  0  0  0  0  0  0  0  0  0  0
   10.8600   12.2992    4.2963 C   0  0  0  0  0  0  0  0  0  0  0  0
   10.7536   13.2150    5.3169 N   0  0  0  0  0  0  0  0  0  0  0  0
  1  2  1  0  0  0  0
  1  6  1  0  0  0  0
  2  3  2  0  0  0  0
  3  4  1  0  0  0  0
  4  5  2  0  0  0  0
  4 10  1  0  0  0  0
  5  6  1  0  0  0  0
  5  8  1  0  0  0  0
  6  7  2  0  0  0  0
  8  9  1  0  0  0  0
  9 10  2  0  0  0  0
M  END
>  <CHROM.1>
11.40014952,11.57138417,6.60369180,0.44197468,-1.26558143,1.08920003

>  <Name>
ligand

>  <RI>
0

>  <Rbt.Current_Directory>
/home/itssahil/PROJECTS/Mol_Feturizer/New_Systems/rnas/2EEU

>  <Rbt.Executable>
rbdock ($Id: //depot/dev/client3/rdock/2013.1/src/exe/rbdock.cxx#4 $)

>  <Rbt.Library>
libRbt.so (2013.1, Build901 2013/11/27)

>  <Rbt.Parameter_File>
/export/apps/rDock/src/rDock_2013.1_src/data/scripts/dock_solv.prm

>  <Rbt.Receptor>
prm/pocket_docking_8.prm

>  <SCORE>
-18.5923

>  <SCORE.INTER>
-18.5923

>  <SCORE.INTER.CONST>
1

>  <SCORE.INTER.POLAR>
0

>  <SCORE.INTER.ROT>
0

>  <SCORE.INTER.SOLV>
3.54179

>  <SCORE.INTER.VDW>
-17.1755

>  <SCORE.INTER.norm>
-1.85923

>  <SCORE.INTRA>
0

>  <SCORE.INTRA.DIHEDRAL>
0

>  <SCORE.INTRA.DIHEDRAL.0>
0

>  <SCORE.INTRA.POLAR>
0

>  <SCORE.INTRA.POLAR.0>
0

>  <SCORE.INTRA.REPUL>
0

>  <SCORE.INTRA.REPUL.0>
0

>  <SCORE.INTRA.SOLV>
0

>  <SCORE.INTRA.SOLV.lig_0>
-4.28148

>  <SCORE.INTRA.VDW>
0

>  <SCORE.INTRA.VDW.0>
0

>  <SCORE.INTRA.norm>
0

>  <SCORE.RESTR>
0

>  <SCORE.RESTR.CAVITY>
0

>  <SCORE.RESTR.norm>
0

>  <SCORE.SYSTEM>
0

>  <SCORE.SYSTEM.CONST>
0

>  <SCORE.SYSTEM.DIHEDRAL>
0

>  <SCORE.SYSTEM.SOLV>
0

>  <SCORE.SYSTEM.norm>
0

>  <SCORE.heavy>
10

>  <SCORE.norm>
-1.85923

>  <RMSD>
0.888

$$$$
ligand
 OpenBabel11021811423D
libRbt.so/2013.1/901 2013/11/27
 10 11  0  0  0  0  0  0  0  0999 V2000
   11.8080   11.0071    8.4090 N   0  0  0  0  0  0  0  0  0  0  0  0
   11.4684   12.3244    8.6434 C   0  0  0  0  0  0  0  0  0  0  0  0
   11.0846   13.1462    7.6586 N   0  0  0  0  0  0  0  0  0  0  0  0
   11.0718   12.5487    6.4338 C   0  0  0  0  0  0  0  0  0  0  0  0
   11.4015   11.2362    6.1313 C   0  0  0  0  0  0  0  0  0  0  0  0
   11.8075   10.3577    7.1724 C   0  0  0  0  0  0  0  0  0  0  0  0
   12.1388    9.1728    7.1306 O   0  0  0  0  0  0  0  0  0  0  0  0
   11.2523   11.0522    4.7778 N   0  0  0  0  0  0  0  0  0  0  0  0
   10.8376   12.2377    4.2727 C   0  0  0  0  0  0  0  0  0  0  0  0
   10.7178   13.1810    5.2665 N   0  0  0  0  0  0  0  0  0  0  0  0
  1  2  1  0  0  0  0
  1  6  1  0  0  0  0
  2  3  2  0  0  0  0
  3  4  1  0  0  0  0
  4  5  2  0  0  0  0
  4 10  1  0  0  0  0
  5  6  1  0  0  0  0
  5  8  1  0  0  0  0
  6  7  2  0  0  0  0
  8  9  1  0  0  0  0
  9 10  2  0  0  0  0
M  END
>  <CHROM.1>
11.37372172,11.58073509,6.60220875,0.46984102,-1.25928073,1.08741729

>  <Name>
ligand

>  <RI>
0

>  <Rbt.Current_Directory>
/home/itssahil/PROJECTS/Mol_Feturizer/New_Systems/rnas/2EEU

>  <Rbt.Executable>
rbdock ($Id: //depot/dev/client3/rdock/2013.1/src/exe/rbdock.cxx#4 $)

>  <Rbt.Library>
libRbt.so (2013.1, Build901 2013/11/27)

>  <Rbt.Parameter_File>
/export/apps/rDock/src/rDock_2013.1_src/data/scripts/dock_solv.prm

>  <Rbt.Receptor>
prm/blind_docking_40.prm

>  <SCORE>
-18.546

>  <SCORE.INTER>
-18.546

>  <SCORE.INTER.CONST>
1

>  <SCORE.INTER.POLAR>
0

>  <SCORE.INTER.ROT>
0

>  <SCORE.INTER.SOLV>
3.52933

>  <SCORE.INTER.VDW>
-17.1404

>  <SCORE.INTER.norm>
-1.8546

>  <SCORE.INTRA>
0

>  <SCORE.INTRA.DIHEDRAL>
0

>  <SCORE.INTRA.DIHEDRAL.0>
0

>  <SCORE.INTRA.POLAR>
0

>  <SCORE.INTRA.POLAR.0>
0

>  <SCORE.INTRA.REPUL>
0

>  <SCORE.INTRA.REPUL.0>
0

>  <SCORE.INTRA.SOLV>
0

>  <SCORE.INTRA.SOLV.lig_0>
-4.28148

>  <SCORE.INTRA.VDW>
0

>  <SCORE.INTRA.VDW.0>
0

>  <SCORE.INTRA.norm>
0

>  <SCORE.RESTR>
0

>  <SCORE.RESTR.CAVITY>
0

>  <SCORE.RESTR.norm>
0

>  <SCORE.SYSTEM>
0

>  <SCORE.SYSTEM.CONST>
0

>  <SCORE.SYSTEM.DIHEDRAL>
0

>  <SCORE.SYSTEM.SOLV>
0

>  <SCORE.SYSTEM.norm>
0

>  <SCORE.heavy>
10

>  <SCORE.norm>
-1.8546

>  <RMSD>
0.889

$$$$
ligand
 OpenBabel11021811423D
libRbt.so/2013.1/901 2013/11/27
 10 11  0  0  0  0  0  0  0  0999 V2000
   11.8913   10.9411    8.3796 N   0  0  0  0  0  0  0  0  0  0  0  0
   11.5776   12.2580    8.6500 C   0  0  0  0  0  0  0  0  0  0  0  0
   11.1814   13.1059    7.6928 N   0  0  0  0  0  0  0  0  0  0  0  0
   11.1284   12.5348    6.4565 C   0  0  0  0  0  0  0  0  0  0  0  0
   11.4305   11.2244    6.1184 C   0  0  0  0  0  0  0  0  0  0  0  0
   11.8495   10.3181    7.1302 C   0  0  0  0  0  0  0  0  0  0  0  0
   12.1617    9.1297    7.0552 O   0  0  0  0  0  0  0  0  0  0  0  0
   11.2441   11.0712    4.7656 N   0  0  0  0  0  0  0  0  0  0  0  0
   10.8347   12.2731    4.2962 C   0  0  0  0  0  0  0  0  0  0  0  0
   10.7544   13.1968    5.3121 N   0  0  0  0  0  0  0  0  0  0  0  0
  1  2  1  0  0  0  0
  1  6  1  0  0  0  0
  2  3  2  0  0  0  0
  3  4  1  0  0  0  0
  4  5  2  0  0  0  0
  4 10  1  0  0  0  0
  5  6  1  0  0  0  0
  5  8  1  0  0  0  0
  6  7  2  0  0  0  0
  8  9  1  0  0  0  0
  9 10  2  0  0  0  0
M  END
>  <CHROM.1>
11.41990194,11.55915500,6.59690713,0.37327543,-1.25947573,1.01649380

>  <Name>
ligand

>  <RI>
0

>  <Rbt.Current_Directory>
/home/itssahil/PROJECTS/Mol_Feturizer/New_Systems/rnas/2EEU

>  <Rbt.Executable>
rbdock ($Id: //depot/dev/client3/rdock/2013.1/src/exe/rbdock.cxx#4 $)

>  <Rbt.Library>
libRbt.so (2013.1, Build901 2013/11/27)

>  <Rbt.Parameter_File>
/export/apps/rDock/src/rDock_2013.1_src/data/scripts/dock_solv.prm

>  <Rbt.Receptor>
prm/blind_docking_60.prm

>  <SCORE>
-18.5999

>  <SCORE.INTER>
-18.5999

>  <SCORE.INTER.CONST>
1

>  <SCORE.INTER.POLAR>
0

>  <SCORE.INTER.ROT>
0

>  <SCORE.INTER.SOLV>
3.50465

>  <SCORE.INTER.VDW>
-17.1682

>  <SCORE.INTER.norm>
-1.85999

>  <SCORE.INTRA>
0

>  <SCORE.INTRA.DIHEDRAL>
0

>  <SCORE.INTRA.DIHEDRAL.0>
0

>  <SCORE.INTRA.POLAR>
0

>  <SCORE.INTRA.POLAR.0>
0

>  <SCORE.INTRA.REPUL>
0

>  <SCORE.INTRA.REPUL.0>
0

>  <SCORE.INTRA.SOLV>
0

>  <SCORE.INTRA.SOLV.lig_0>
-4.28148

>  <SCORE.INTRA.VDW>
0

>  <SCORE.INTRA.VDW.0>
0

>  <SCORE.INTRA.norm>
0

>  <SCORE.RESTR>
0

>  <SCORE.RESTR.CAVITY>
0

>  <SCORE.RESTR.norm>
0

>  <SCORE.SYSTEM>
0

>  <SCORE.SYSTEM.CONST>
0

>  <SCORE.SYSTEM.DIHEDRAL>
0

>  <SCORE.SYSTEM.SOLV>
0

>  <SCORE.SYSTEM.norm>
0

>  <SCORE.heavy>
10

>  <SCORE.norm>
-1.85999

>  <RMSD>
0.889

$$$$
ligand
 OpenBabel11021811423D
libRbt.so/2013.1/901 2013/11/27
 10 11  0  0  0  0  0  0  0  0999 V2000
   11.8401   10.9420    8.3888 N   0  0  0  0  0  0  0  0  0  0  0  0
   11.5145   12.2553    8.6625 C   0  0  0  0  0  0  0  0  0  0  0  0
   11.1344   13.1086    7.7035 N   0  0  0  0  0  0  0  0  0  0  0  0
   11.1101   12.5466    6.4621 C   0  0  0  0  0  0  0  0  0  0  0  0
   11.4256   11.2402    6.1207 C   0  0  0  0  0  0  0  0  0  0  0  0
   11.8276   10.3283    7.1342 C   0  0  0  0  0  0  0  0  0  0  0  0
   12.1470    9.1419    7.0569 O   0  0  0  0  0  0  0  0  0  0  0  0
   11.2684   11.0964    4.7631 N   0  0  0  0  0  0  0  0  0  0  0  0
   10.8631   12.2999    4.2942 C   0  0  0  0  0  0  0  0  0  0  0  0
   10.7570   13.2155    5.3150 N   0  0  0  0  0  0  0  0  0  0  0  0
  1  2  1  0  0  0  0
  1  6  1  0  0  0  0
  2  3  2  0  0  0  0
  3  4  1  0  0  0  0
  4  5  2  0  0  0  0
  4 10  1  0  0  0  0
  5  6  1  0  0  0  0
  5  8  1  0  0  0  0
  6  7  2  0  0  0  0
  8  9  1  0  0  0  0
  9 10  2  0  0  0  0
M  END
>  <CHROM.1>
11.40328471,11.57131689,6.60132509,0.44123614,-1.26576581,1.08878250

>  <Name>
ligand

>  <RI>
0

>  <Rbt.Current_Directory>
/home/itssahil/PROJECTS/Mol_Feturizer/New_Systems/rnas/2EEU

>  <Rbt.Executable>
rbdock ($Id: //depot/dev/client3/rdock/2013.1/src/exe/rbdock.cxx#4 $)

>  <Rbt.Library>
libRbt.so (2013.1, Build901 2013/11/27)

>  <Rbt.Parameter_File>
/export/apps/rDock/src/rDock_2013.1_src/data/scripts/dock_solv.prm

>  <Rbt.Receptor>
prm/pocket_docking_3.prm

>  <SCORE>
-18.5883

>  <SCORE.INTER>
-18.5883

>  <SCORE.INTER.CONST>
1

>  <SCORE.INTER.POLAR>
0

>  <SCORE.INTER.ROT>
0

>  <SCORE.INTER.SOLV>
3.5404

>  <SCORE.INTER.VDW>
-17.1724

>  <SCORE.INTER.norm>
-1.85883

>  <SCORE.INTRA>
0

>  <SCORE.INTRA.DIHEDRAL>
0

>  <SCORE.INTRA.DIHEDRAL.0>
0

>  <SCORE.INTRA.POLAR>
0

>  <SCORE.INTRA.POLAR.0>
0

>  <SCORE.INTRA.REPUL>
0

>  <SCORE.INTRA.REPUL.0>
0

>  <SCORE.INTRA.SOLV>
0

>  <SCORE.INTRA.SOLV.lig_0>
-4.28148

>  <SCORE.INTRA.VDW>
0

>  <SCORE.INTRA.VDW.0>
0

>  <SCORE.INTRA.norm>
0

>  <SCORE.RESTR>
0

>  <SCORE.RESTR.CAVITY>
0

>  <SCORE.RESTR.norm>
0

>  <SCORE.SYSTEM>
0

>  <SCORE.SYSTEM.CONST>
0

>  <SCORE.SYSTEM.DIHEDRAL>
0

>  <SCORE.SYSTEM.SOLV>
0

>  <SCORE.SYSTEM.norm>
0

>  <SCORE.heavy>
10

>  <SCORE.norm>
-1.85883

>  <RMSD>
0.889

$$$$
ligand
 OpenBabel11021811423D
libRbt.so/2013.1/901 2013/11/27
 10 11  0  0  0  0  0  0  0  0999 V2000
   11.9249   11.3182    8.4029 N   0  0  0  0  0  0  0  0  0  0  0  0
   11.6864   12.6700    8.5492 C   0  0  0  0  0  0  0  0  0  0  0  0
   11.3062   13.4405    7.5226 N   0  0  0  0  0  0  0  0  0  0  0  0
   11.1886   12.7553    6.3504 C   0  0  0  0  0  0  0  0  0  0  0  0
   11.4139   11.4039    6.1364 C   0  0  0  0  0  0  0  0  0  0  0  0
   11.8155   10.5796    7.2225 C   0  0  0  0  0  0  0  0  0  0  0  0
   12.0646    9.3745    7.2579 O   0  0  0  0  0  0  0  0  0  0  0  0
   11.1810   11.1299    4.8101 N   0  0  0  0  0  0  0  0  0  0  0  0
   10.8197   12.3004    4.2341 C   0  0  0  0  0  0  0  0  0  0  0  0
   10.8158   13.3216    5.1554 N   0  0  0  0  0  0  0  0  0  0  0  0
  1  2  1  0  0  0  0
  1  6  1  0  0  0  0
  2  3  2  0  0  0  0
  3  4  1  0  0  0  0
  4  5  2  0  0  0  0
  4 10  1  0  0  0  0
  5  6  1  0  0  0  0
  5  8  1  0  0  0  0
  6  7  2  0  0  0  0
  8  9  1  0  0  0  0
  9 10  2  0  0  0  0
M  END
>  <CHROM.1>
11.43411500,11.78385853,6.57957419,0.19165439,-1.28296979,0.74453967

>  <Name>
ligand

>  <RI>
0

>  <Rbt.Current_Directory>
/home/itssahil/PROJECTS/Mol_Feturizer/New_Systems/rnas/2EEU

>  <Rbt.Executable>
rbdock ($Id: //depot/dev/client3/rdock/2013.1/src/exe/rbdock.cxx#4 $)

>  <Rbt.Library>
libRbt.so (2013.1, Build901 2013/11/27)

>  <Rbt.Parameter_File>
/export/apps/rDock/src/rDock_2013.1_src/data/scripts/dock_solv.prm

>  <Rbt.Receptor>
prm/pocket_docking_4.prm

>  <SCORE>
-18.4808

>  <SCORE.INTER>
-18.4808

>  <SCORE.INTER.CONST>
1

>  <SCORE.INTER.POLAR>
0

>  <SCORE.INTER.ROT>
0

>  <SCORE.INTER.SOLV>
3.54906

>  <SCORE.INTER.VDW>
-17.1036

>  <SCORE.INTER.norm>
-1.84808

>  <SCORE.INTRA>
0

>  <SCORE.INTRA.DIHEDRAL>
0

>  <SCORE.INTRA.DIHEDRAL.0>
0

>  <SCORE.INTRA.POLAR>
0

>  <SCORE.INTRA.POLAR.0>
0

>  <SCORE.INTRA.REPUL>
0

>  <SCORE.INTRA.REPUL.0>
0

>  <SCORE.INTRA.SOLV>
0

>  <SCORE.INTRA.SOLV.lig_0>
-4.28148

>  <SCORE.INTRA.VDW>
0

>  <SCORE.INTRA.VDW.0>
0

>  <SCORE.INTRA.norm>
0

>  <SCORE.RESTR>
0

>  <SCORE.RESTR.CAVITY>
0

>  <SCORE.RESTR.norm>
0

>  <SCORE.SYSTEM>
0

>  <SCORE.SYSTEM.CONST>
0

>  <SCORE.SYSTEM.DIHEDRAL>
0

>  <SCORE.SYSTEM.SOLV>
0

>  <SCORE.SYSTEM.norm>
0

>  <SCORE.heavy>
10

>  <SCORE.norm>
-1.84808

>  <RMSD>
0.889

$$$$
ligand
 OpenBabel11021811423D
libRbt.so/2013.1/901 2013/11/27
 10 11  0  0  0  0  0  0  0  0999 V2000
   11.8349   10.9436    8.3891 N   0  0  0  0  0  0  0  0  0  0  0  0
   11.5219   12.2599    8.6630 C   0  0  0  0  0  0  0  0  0  0  0  0
   11.1429   13.1151    7.7052 N   0  0  0  0  0  0  0  0  0  0  0  0
   11.1062   12.5518    6.4648 C   0  0  0  0  0  0  0  0  0  0  0  0
   11.4086   11.2423    6.1231 C   0  0  0  0  0  0  0  0  0  0  0  0
   11.8094   10.3284    7.1354 C   0  0  0  0  0  0  0  0  0  0  0  0
   12.1184    9.1393    7.0577 O   0  0  0  0  0  0  0  0  0  0  0  0
   11.2417   11.0981    4.7668 N   0  0  0  0  0  0  0  0  0  0  0  0
   10.8435   12.3043    4.2988 C   0  0  0  0  0  0  0  0  0  0  0  0
   10.7515   13.2221    5.3191 N   0  0  0  0  0  0  0  0  0  0  0  0
  1  2  1  0  0  0  0
  1  6  1  0  0  0  0
  2  3  2  0  0  0  0
  3  4  1  0  0  0  0
  4  5  2  0  0  0  0
  4 10  1  0  0  0  0
  5  6  1  0  0  0  0
  5  8  1  0  0  0  0
  6  7  2  0  0  0  0
  8  9  1  0  0  0  0
  9 10  2  0  0  0  0
M  END
>  <CHROM.1>
11.39210072,11.57420809,6.60348291,0.40947483,-1.27009045,1.05715693

>  <Name>
ligand

>  <RI>
0

>  <Rbt.Current_Directory>
/home/itssahil/PROJECTS/Mol_Feturizer/New_Systems/rnas/2EEU

>  <Rbt.Executable>
rbdock ($Id: //depot/dev/client3/rdock/2013.1/src/exe/rbdock.cxx#4 $)

>  <Rbt.Library>
libRbt.so (2013.1, Build901 2013/11/27)

>  <Rbt.Parameter_File>
/export/apps/rDock/src/rDock_2013.1_src/data/scripts/dock_solv.prm

>  <Rbt.Receptor>
prm/pocket_docking_4.prm

>  <SCORE>
-18.6013

>  <SCORE.INTER>
-18.6013

>  <SCORE.INTER.CONST>
1

>  <SCORE.INTER.POLAR>
0

>  <SCORE.INTER.ROT>
0

>  <SCORE.INTER.SOLV>
3.56557

>  <SCORE.INTER.VDW>
-17.1894

>  <SCORE.INTER.norm>
-1.86013

>  <SCORE.INTRA>
0

>  <SCORE.INTRA.DIHEDRAL>
0

>  <SCORE.INTRA.DIHEDRAL.0>
0

>  <SCORE.INTRA.POLAR>
0

>  <SCORE.INTRA.POLAR.0>
0

>  <SCORE.INTRA.REPUL>
0

>  <SCORE.INTRA.REPUL.0>
0

>  <SCORE.INTRA.SOLV>
0

>  <SCORE.INTRA.SOLV.lig_0>
-4.28148

>  <SCORE.INTRA.VDW>
0

>  <SCORE.INTRA.VDW.0>
0

>  <SCORE.INTRA.norm>
0

>  <SCORE.RESTR>
0

>  <SCORE.RESTR.CAVITY>
0

>  <SCORE.RESTR.norm>
0

>  <SCORE.SYSTEM>
0

>  <SCORE.SYSTEM.CONST>
0

>  <SCORE.SYSTEM.DIHEDRAL>
0

>  <SCORE.SYSTEM.SOLV>
0

>  <SCORE.SYSTEM.norm>
0

>  <SCORE.heavy>
10

>  <SCORE.norm>
-1.86013

>  <RMSD>
0.889

$$$$
ligand
 OpenBabel11021811423D
libRbt.so/2013.1/901 2013/11/27
 10 11  0  0  0  0  0  0  0  0999 V2000
   11.8338   10.9437    8.3902 N   0  0  0  0  0  0  0  0  0  0  0  0
   11.5209   12.2603    8.6627 C   0  0  0  0  0  0  0  0  0  0  0  0
   11.1438   13.1149    7.7038 N   0  0  0  0  0  0  0  0  0  0  0  0
   11.1088   12.5508    6.4637 C   0  0  0  0  0  0  0  0  0  0  0  0
   11.4113   11.2410    6.1234 C   0  0  0  0  0  0  0  0  0  0  0  0
   11.8101   10.3276    7.1369 C   0  0  0  0  0  0  0  0  0  0  0  0
   12.1187    9.1383    7.0604 O   0  0  0  0  0  0  0  0  0  0  0  0
   11.2465   11.0960    4.7669 N   0  0  0  0  0  0  0  0  0  0  0  0
   10.8495   12.3020    4.2974 C   0  0  0  0  0  0  0  0  0  0  0  0
   10.7563   13.2205    5.3169 N   0  0  0  0  0  0  0  0  0  0  0  0
  1  2  1  0  0  0  0
  1  6  1  0  0  0  0
  2  3  2  0  0  0  0
  3  4  1  0  0  0  0
  4  5  2  0  0  0  0
  4 10  1  0  0  0  0
  5  6  1  0  0  0  0
  5  8  1  0  0  0  0
  6  7  2  0  0  0  0
  8  9  1  0  0  0  0
  9 10  2  0  0  0  0
M  END
>  <CHROM.1>
11.39411253,11.57324307,6.60347617,0.41349130,-1.27123092,1.06032238

>  <Name>
ligand

>  <RI>
0

>  <Rbt.Current_Directory>
/home/itssahil/PROJECTS/Mol_Feturizer/New_Systems/rnas/2EEU

>  <Rbt.Executable>
rbdock ($Id: //depot/dev/client3/rdock/2013.1/src/exe/rbdock.cxx#4 $)

>  <Rbt.Library>
libRbt.so (2013.1, Build901 2013/11/27)

>  <Rbt.Parameter_File>
/export/apps/rDock/src/rDock_2013.1_src/data/scripts/dock_solv.prm

>  <Rbt.Receptor>
prm/pocket_docking_4.prm

>  <SCORE>
-18.6026

>  <SCORE.INTER>
-18.6026

>  <SCORE.INTER.CONST>
1

>  <SCORE.INTER.POLAR>
0

>  <SCORE.INTER.ROT>
0

>  <SCORE.INTER.SOLV>
3.5668

>  <SCORE.INTER.VDW>
-17.1907

>  <SCORE.INTER.norm>
-1.86026

>  <SCORE.INTRA>
0

>  <SCORE.INTRA.DIHEDRAL>
0

>  <SCORE.INTRA.DIHEDRAL.0>
0

>  <SCORE.INTRA.POLAR>
0

>  <SCORE.INTRA.POLAR.0>
0

>  <SCORE.INTRA.REPUL>
0

>  <SCORE.INTRA.REPUL.0>
0

>  <SCORE.INTRA.SOLV>
0

>  <SCORE.INTRA.SOLV.lig_0>
-4.28148

>  <SCORE.INTRA.VDW>
0

>  <SCORE.INTRA.VDW.0>
0

>  <SCORE.INTRA.norm>
0

>  <SCORE.RESTR>
0

>  <SCORE.RESTR.CAVITY>
0

>  <SCORE.RESTR.norm>
0

>  <SCORE.SYSTEM>
0

>  <SCORE.SYSTEM.CONST>
0

>  <SCORE.SYSTEM.DIHEDRAL>
0

>  <SCORE.SYSTEM.SOLV>
0

>  <SCORE.SYSTEM.norm>
0

>  <SCORE.heavy>
10

>  <SCORE.norm>
-1.86026

>  <RMSD>
0.889

$$$$
ligand
 OpenBabel11021811423D
libRbt.so/2013.1/901 2013/11/27
 10 11  0  0  0  0  0  0  0  0999 V2000
   11.8448   10.9476    8.3901 N   0  0  0  0  0  0  0  0  0  0  0  0
   11.5343   12.2658    8.6574 C   0  0  0  0  0  0  0  0  0  0  0  0
   11.1570   13.1169    7.6953 N   0  0  0  0  0  0  0  0  0  0  0  0
   11.1193   12.5474    6.4577 C   0  0  0  0  0  0  0  0  0  0  0  0
   11.4193   11.2356    6.1227 C   0  0  0  0  0  0  0  0  0  0  0  0
   11.8183   10.3261    7.1396 C   0  0  0  0  0  0  0  0  0  0  0  0
   12.1250    9.1360    7.0679 O   0  0  0  0  0  0  0  0  0  0  0  0
   11.2522   11.0849    4.7671 N   0  0  0  0  0  0  0  0  0  0  0  0
   10.8564   12.2895    4.2930 C   0  0  0  0  0  0  0  0  0  0  0  0
   10.7660   13.2126    5.3086 N   0  0  0  0  0  0  0  0  0  0  0  0
  1  2  1  0  0  0  0
  1  6  1  0  0  0  0
  2  3  2  0  0  0  0
  3  4  1  0  0  0  0
  4  5  2  0  0  0  0
  4 10  1  0  0  0  0
  5  6  1  0  0  0  0
  5  8  1  0  0  0  0
  6  7  2  0  0  0  0
  8  9  1  0  0  0  0
  9 10  2  0  0  0  0
M  END
>  <CHROM.1>
11.40336047,11.56999254,6.60135769,0.40653622,-1.27177980,1.04929894

>  <Name>
ligand

>  <RI>
0

>  <Rbt.Current_Directory>
/home/itssahil/PROJECTS/Mol_Feturizer/New_Systems/rnas/2EEU

>  <Rbt.Executable>
rbdock ($Id: //depot/dev/client3/rdock/2013.1/src/exe/rbdock.cxx#4 $)

>  <Rbt.Library>
libRbt.so (2013.1, Build901 2013/11/27)

>  <Rbt.Parameter_File>
/export/apps/rDock/src/rDock_2013.1_src/data/scripts/dock_solv.prm

>  <Rbt.Receptor>
prm/pocket_docking_6.prm

>  <SCORE>
-18.5986

>  <SCORE.INTER>
-18.5986

>  <SCORE.INTER.CONST>
1

>  <SCORE.INTER.POLAR>
0

>  <SCORE.INTER.ROT>
0

>  <SCORE.INTER.SOLV>
3.55748

>  <SCORE.INTER.VDW>
-17.1849

>  <SCORE.INTER.norm>
-1.85986

>  <SCORE.INTRA>
0

>  <SCORE.INTRA.DIHEDRAL>
0

>  <SCORE.INTRA.DIHEDRAL.0>
0

>  <SCORE.INTRA.POLAR>
0

>  <SCORE.INTRA.POLAR.0>
0

>  <SCORE.INTRA.REPUL>
0

>  <SCORE.INTRA.REPUL.0>
0

>  <SCORE.INTRA.SOLV>
0

>  <SCORE.INTRA.SOLV.lig_0>
-4.28148

>  <SCORE.INTRA.VDW>
0

>  <SCORE.INTRA.VDW.0>
0

>  <SCORE.INTRA.norm>
0

>  <SCORE.RESTR>
0

>  <SCORE.RESTR.CAVITY>
0

>  <SCORE.RESTR.norm>
0

>  <SCORE.SYSTEM>
0

>  <SCORE.SYSTEM.CONST>
0

>  <SCORE.SYSTEM.DIHEDRAL>
0

>  <SCORE.SYSTEM.SOLV>
0

>  <SCORE.SYSTEM.norm>
0

>  <SCORE.heavy>
10

>  <SCORE.norm>
-1.85986

>  <RMSD>
0.889

$$$$
ligand
 OpenBabel11021811423D
libRbt.so/2013.1/901 2013/11/27
 10 11  0  0  0  0  0  0  0  0999 V2000
   11.8326   10.9406    8.3906 N   0  0  0  0  0  0  0  0  0  0  0  0
   11.5092   12.2543    8.6646 C   0  0  0  0  0  0  0  0  0  0  0  0
   11.1304   13.1085    7.7059 N   0  0  0  0  0  0  0  0  0  0  0  0
   11.1050   12.5470    6.4644 C   0  0  0  0  0  0  0  0  0  0  0  0
   11.4182   11.2401    6.1225 C   0  0  0  0  0  0  0  0  0  0  0  0
   11.8189   10.3273    7.1358 C   0  0  0  0  0  0  0  0  0  0  0  0
   12.1363    9.1403    7.0581 O   0  0  0  0  0  0  0  0  0  0  0  0
   11.2605   11.0970    4.7650 N   0  0  0  0  0  0  0  0  0  0  0  0
   10.8572   12.3012    4.2965 C   0  0  0  0  0  0  0  0  0  0  0  0
   10.7529   13.2167    5.3176 N   0  0  0  0  0  0  0  0  0  0  0  0
  1  2  1  0  0  0  0
  1  6  1  0  0  0  0
  2  3  2  0  0  0  0
  3  4  1  0  0  0  0
  4  5  2  0  0  0  0
  4 10  1  0  0  0  0
  5  6  1  0  0  0  0
  5  8  1  0  0  0  0
  6  7  2  0  0  0  0
  8  9  1  0  0  0  0
  9 10  2  0  0  0  0
M  END
>  <CHROM.1>
11.39655333,11.57112229,6.60330437,0.43817699,-1.26717505,1.08614313

>  <Name>
ligand

>  <RI>
0

>  <Rbt.Current_Directory>
/home/itssahil/PROJECTS/Mol_Feturizer/New_Systems/rnas/2EEU

>  <Rbt.Executable>
rbdock ($Id: //depot/dev/client3/rdock/2013.1/src/exe/rbdock.cxx#4 $)

>  <Rbt.Library>
libRbt.so (2013.1, Build901 2013/11/27)

>  <Rbt.Parameter_File>
/export/apps/rDock/src/rDock_2013.1_src/data/scripts/dock_solv.prm

>  <Rbt.Receptor>
prm/pocket_docking_6.prm

>  <SCORE>
-18.5941

>  <SCORE.INTER>
-18.5941

>  <SCORE.INTER.CONST>
1

>  <SCORE.INTER.POLAR>
0

>  <SCORE.INTER.ROT>
0

>  <SCORE.INTER.SOLV>
3.55184

>  <SCORE.INTER.VDW>
-17.18

>  <SCORE.INTER.norm>
-1.85941

>  <SCORE.INTRA>
0

>  <SCORE.INTRA.DIHEDRAL>
0

>  <SCORE.INTRA.DIHEDRAL.0>
0

>  <SCORE.INTRA.POLAR>
0

>  <SCORE.INTRA.POLAR.0>
0

>  <SCORE.INTRA.REPUL>
0

>  <SCORE.INTRA.REPUL.0>
0

>  <SCORE.INTRA.SOLV>
0

>  <SCORE.INTRA.SOLV.lig_0>
-4.28148

>  <SCORE.INTRA.VDW>
0

>  <SCORE.INTRA.VDW.0>
0

>  <SCORE.INTRA.norm>
0

>  <SCORE.RESTR>
0

>  <SCORE.RESTR.CAVITY>
0

>  <SCORE.RESTR.norm>
0

>  <SCORE.SYSTEM>
0

>  <SCORE.SYSTEM.CONST>
0

>  <SCORE.SYSTEM.DIHEDRAL>
0

>  <SCORE.SYSTEM.SOLV>
0

>  <SCORE.SYSTEM.norm>
0

>  <SCORE.heavy>
10

>  <SCORE.norm>
-1.85941

>  <RMSD>
0.889

$$$$
ligand
 OpenBabel11021811423D
libRbt.so/2013.1/901 2013/11/27
 10 11  0  0  0  0  0  0  0  0999 V2000
   11.8273   10.9377    8.3917 N   0  0  0  0  0  0  0  0  0  0  0  0
   11.5017   12.2511    8.6647 C   0  0  0  0  0  0  0  0  0  0  0  0
   11.1257   13.1051    7.7048 N   0  0  0  0  0  0  0  0  0  0  0  0
   11.1055   12.5437    6.4631 C   0  0  0  0  0  0  0  0  0  0  0  0
   11.4212   11.2372    6.1222 C   0  0  0  0  0  0  0  0  0  0  0  0
   11.8189   10.3245    7.1368 C   0  0  0  0  0  0  0  0  0  0  0  0
   12.1376    9.1379    7.0601 O   0  0  0  0  0  0  0  0  0  0  0  0
   11.2688   11.0941    4.7640 N   0  0  0  0  0  0  0  0  0  0  0  0
   10.8661   12.2981    4.2942 C   0  0  0  0  0  0  0  0  0  0  0  0
   10.7571   13.2134    5.3150 N   0  0  0  0  0  0  0  0  0  0  0  0
  1  2  1  0  0  0  0
  1  6  1  0  0  0  0
  2  3  2  0  0  0  0
  3  4  1  0  0  0  0
  4  5  2  0  0  0  0
  4 10  1  0  0  0  0
  5  6  1  0  0  0  0
  5  8  1  0  0  0  0
  6  7  2  0  0  0  0
  8  9  1  0  0  0  0
  9 10  2  0  0  0  0
M  END
>  <CHROM.1>
11.39743866,11.56810670,6.60290602,0.45077030,-1.26811265,1.09831964

>  <Name>
ligand

>  <RI>
0

>  <Rbt.Current_Directory>
/home/itssahil/PROJECTS/Mol_Feturizer/New_Systems/rnas/2EEU

>  <Rbt.Executable>
rbdock ($Id: //depot/dev/client3/rdock/2013.1/src/exe/rbdock.cxx#4 $)

>  <Rbt.Library>
libRbt.so (2013.1, Build901 2013/11/27)

>  <Rbt.Parameter_File>
/export/apps/rDock/src/rDock_2013.1_src/data/scripts/dock_solv.prm

>  <Rbt.Receptor>
prm/blind_docking_40.prm

>  <SCORE>
-18.5884

>  <SCORE.INTER>
-18.5884

>  <SCORE.INTER.CONST>
1

>  <SCORE.INTER.POLAR>
0

>  <SCORE.INTER.ROT>
0

>  <SCORE.INTER.SOLV>
3.55467

>  <SCORE.INTER.VDW>
-17.1772

>  <SCORE.INTER.norm>
-1.85884

>  <SCORE.INTRA>
0

>  <SCORE.INTRA.DIHEDRAL>
0

>  <SCORE.INTRA.DIHEDRAL.0>
0

>  <SCORE.INTRA.POLAR>
0

>  <SCORE.INTRA.POLAR.0>
0

>  <SCORE.INTRA.REPUL>
0

>  <SCORE.INTRA.REPUL.0>
0

>  <SCORE.INTRA.SOLV>
0

>  <SCORE.INTRA.SOLV.lig_0>
-4.28148

>  <SCORE.INTRA.VDW>
0

>  <SCORE.INTRA.VDW.0>
0

>  <SCORE.INTRA.norm>
0

>  <SCORE.RESTR>
0

>  <SCORE.RESTR.CAVITY>
0

>  <SCORE.RESTR.norm>
0

>  <SCORE.SYSTEM>
0

>  <SCORE.SYSTEM.CONST>
0

>  <SCORE.SYSTEM.DIHEDRAL>
0

>  <SCORE.SYSTEM.SOLV>
0

>  <SCORE.SYSTEM.norm>
0

>  <SCORE.heavy>
10

>  <SCORE.norm>
-1.85884

>  <RMSD>
0.890

$$$$
ligand
 OpenBabel11021811423D
libRbt.so/2013.1/901 2013/11/27
 10 11  0  0  0  0  0  0  0  0999 V2000
   11.8333   10.9430    8.3906 N   0  0  0  0  0  0  0  0  0  0  0  0
   11.5190   12.2596    8.6611 C   0  0  0  0  0  0  0  0  0  0  0  0
   11.1448   13.1136    7.7004 N   0  0  0  0  0  0  0  0  0  0  0  0
   11.1141   12.5486    6.4606 C   0  0  0  0  0  0  0  0  0  0  0  0
   11.4182   11.2386    6.1222 C   0  0  0  0  0  0  0  0  0  0  0  0
   11.8139   10.3261    7.1376 C   0  0  0  0  0  0  0  0  0  0  0  0
   12.1232    9.1368    7.0630 O   0  0  0  0  0  0  0  0  0  0  0  0
   11.2579   11.0926    4.7652 N   0  0  0  0  0  0  0  0  0  0  0  0
   10.8622   12.2982    4.2936 C   0  0  0  0  0  0  0  0  0  0  0  0
   10.7652   13.2174    5.3122 N   0  0  0  0  0  0  0  0  0  0  0  0
  1  2  1  0  0  0  0
  1  6  1  0  0  0  0
  2  3  2  0  0  0  0
  3  4  1  0  0  0  0
  4  5  2  0  0  0  0
  4 10  1  0  0  0  0
  5  6  1  0  0  0  0
  5  8  1  0  0  0  0
  6  7  2  0  0  0  0
  8  9  1  0  0  0  0
  9 10  2  0  0  0  0
M  END
>  <CHROM.1>
11.39931487,11.57119082,6.60198055,0.42392510,-1.27254643,1.06961692

>  <Name>
ligand

>  <RI>
0

>  <Rbt.Current_Directory>
/home/itssahil/PROJECTS/Mol_Feturizer/New_Systems/rnas/2EEU

>  <Rbt.Executable>
rbdock ($Id: //depot/dev/client3/rdock/2013.1/src/exe/rbdock.cxx#4 $)

>  <Rbt.Library>
libRbt.so (2013.1, Build901 2013/11/27)

>  <Rbt.Parameter_File>
/export/apps/rDock/src/rDock_2013.1_src/data/scripts/dock_solv.prm

>  <Rbt.Receptor>
prm/blind_docking_40.prm

>  <SCORE>
-18.5991

>  <SCORE.INTER>
-18.5991

>  <SCORE.INTER.CONST>
1

>  <SCORE.INTER.POLAR>
0

>  <SCORE.INTER.ROT>
0

>  <SCORE.INTER.SOLV>
3.56588

>  <SCORE.INTER.VDW>
-17.1881

>  <SCORE.INTER.norm>
-1.85991

>  <SCORE.INTRA>
0

>  <SCORE.INTRA.DIHEDRAL>
0

>  <SCORE.INTRA.DIHEDRAL.0>
0

>  <SCORE.INTRA.POLAR>
0

>  <SCORE.INTRA.POLAR.0>
0

>  <SCORE.INTRA.REPUL>
0

>  <SCORE.INTRA.REPUL.0>
0

>  <SCORE.INTRA.SOLV>
0

>  <SCORE.INTRA.SOLV.lig_0>
-4.28148

>  <SCORE.INTRA.VDW>
0

>  <SCORE.INTRA.VDW.0>
0

>  <SCORE.INTRA.norm>
0

>  <SCORE.RESTR>
0

>  <SCORE.RESTR.CAVITY>
0

>  <SCORE.RESTR.norm>
0

>  <SCORE.SYSTEM>
0

>  <SCORE.SYSTEM.CONST>
0

>  <SCORE.SYSTEM.DIHEDRAL>
0

>  <SCORE.SYSTEM.SOLV>
0

>  <SCORE.SYSTEM.norm>
0

>  <SCORE.heavy>
10

>  <SCORE.norm>
-1.85991

>  <RMSD>
0.890

$$$$
ligand
 OpenBabel11021811423D
libRbt.so/2013.1/901 2013/11/27
 10 11  0  0  0  0  0  0  0  0999 V2000
   11.8302   10.9423    8.3901 N   0  0  0  0  0  0  0  0  0  0  0  0
   11.5108   12.2573    8.6628 C   0  0  0  0  0  0  0  0  0  0  0  0
   11.1339   13.1115    7.7033 N   0  0  0  0  0  0  0  0  0  0  0  0
   11.1061   12.5486    6.4625 C   0  0  0  0  0  0  0  0  0  0  0  0
   11.4153   11.2404    6.1220 C   0  0  0  0  0  0  0  0  0  0  0  0
   11.8139   10.3276    7.1360 C   0  0  0  0  0  0  0  0  0  0  0  0
   12.1278    9.1396    7.0596 O   0  0  0  0  0  0  0  0  0  0  0  0
   11.2565   11.0961    4.7647 N   0  0  0  0  0  0  0  0  0  0  0  0
   10.8564   12.3010    4.2950 C   0  0  0  0  0  0  0  0  0  0  0  0
   10.7553   13.2180    5.3151 N   0  0  0  0  0  0  0  0  0  0  0  0
  1  2  1  0  0  0  0
  1  6  1  0  0  0  0
  2  3  2  0  0  0  0
  3  4  1  0  0  0  0
  4  5  2  0  0  0  0
  4 10  1  0  0  0  0
  5  6  1  0  0  0  0
  5  8  1  0  0  0  0
  6  7  2  0  0  0  0
  8  9  1  0  0  0  0
  9 10  2  0  0  0  0
M  END
>  <CHROM.1>
11.39492731,11.57203480,6.60234525,0.43183754,-1.26949143,1.07891959

>  <Name>
ligand

>  <RI>
0

>  <Rbt.Current_Directory>
/home/itssahil/PROJECTS/Mol_Feturizer/New_Systems/rnas/2EEU

>  <Rbt.Executable>
rbdock ($Id: //depot/dev/client3/rdock/2013.1/src/exe/rbdock.cxx#4 $)

>  <Rbt.Library>
libRbt.so (2013.1, Build901 2013/11/27)

>  <Rbt.Parameter_File>
/export/apps/rDock/src/rDock_2013.1_src/data/scripts/dock_solv.prm

>  <Rbt.Receptor>
prm/pocket_docking_4.prm

>  <SCORE>
-18.5966

>  <SCORE.INTER>
-18.5966

>  <SCORE.INTER.CONST>
1

>  <SCORE.INTER.POLAR>
0

>  <SCORE.INTER.ROT>
0

>  <SCORE.INTER.SOLV>
3.56105

>  <SCORE.INTER.VDW>
-17.1847

>  <SCORE.INTER.norm>
-1.85966

>  <SCORE.INTRA>
0

>  <SCORE.INTRA.DIHEDRAL>
0

>  <SCORE.INTRA.DIHEDRAL.0>
0

>  <SCORE.INTRA.POLAR>
0

>  <SCORE.INTRA.POLAR.0>
0

>  <SCORE.INTRA.REPUL>
0

>  <SCORE.INTRA.REPUL.0>
0

>  <SCORE.INTRA.SOLV>
0

>  <SCORE.INTRA.SOLV.lig_0>
-4.28148

>  <SCORE.INTRA.VDW>
0

>  <SCORE.INTRA.VDW.0>
0

>  <SCORE.INTRA.norm>
0

>  <SCORE.RESTR>
0

>  <SCORE.RESTR.CAVITY>
0

>  <SCORE.RESTR.norm>
0

>  <SCORE.SYSTEM>
0

>  <SCORE.SYSTEM.CONST>
0

>  <SCORE.SYSTEM.DIHEDRAL>
0

>  <SCORE.SYSTEM.SOLV>
0

>  <SCORE.SYSTEM.norm>
0

>  <SCORE.heavy>
10

>  <SCORE.norm>
-1.85966

>  <RMSD>
0.890

$$$$
ligand
 OpenBabel11021811423D
libRbt.so/2013.1/901 2013/11/27
 10 11  0  0  0  0  0  0  0  0999 V2000
   11.8398   10.9337    8.3970 N   0  0  0  0  0  0  0  0  0  0  0  0
   11.5381   12.2554    8.6569 C   0  0  0  0  0  0  0  0  0  0  0  0
   11.1635   13.1028    7.6906 N   0  0  0  0  0  0  0  0  0  0  0  0
   11.1191   12.5260    6.4567 C   0  0  0  0  0  0  0  0  0  0  0  0
   11.4102   11.2104    6.1290 C   0  0  0  0  0  0  0  0  0  0  0  0
   11.8062   10.3047    7.1504 C   0  0  0  0  0  0  0  0  0  0  0  0
   12.1055    9.1123    7.0853 O   0  0  0  0  0  0  0  0  0  0  0  0
   11.2387   11.0524    4.7747 N   0  0  0  0  0  0  0  0  0  0  0  0
   10.8490   12.2564    4.2942 C   0  0  0  0  0  0  0  0  0  0  0  0
   10.7669   13.1862    5.3044 N   0  0  0  0  0  0  0  0  0  0  0  0
  1  2  1  0  0  0  0
  1  6  1  0  0  0  0
  2  3  2  0  0  0  0
  3  4  1  0  0  0  0
  4  5  2  0  0  0  0
  4 10  1  0  0  0  0
  5  6  1  0  0  0  0
  5  8  1  0  0  0  0
  6  7  2  0  0  0  0
  8  9  1  0  0  0  0
  9 10  2  0  0  0  0
M  END
>  <CHROM.1>
11.39754087,11.54777480,6.60560279,0.38831723,-1.27574960,1.02572389

>  <Name>
ligand

>  <RI>
0

>  <Rbt.Current_Directory>
/home/itssahil/PROJECTS/Mol_Feturizer/New_Systems/rnas/2EEU

>  <Rbt.Executable>
rbdock ($Id: //depot/dev/client3/rdock/2013.1/src/exe/rbdock.cxx#4 $)

>  <Rbt.Library>
libRbt.so (2013.1, Build901 2013/11/27)

>  <Rbt.Parameter_File>
/export/apps/rDock/src/rDock_2013.1_src/data/scripts/dock_solv.prm

>  <Rbt.Receptor>
prm/pocket_docking_7.prm

>  <SCORE>
-18.5743

>  <SCORE.INTER>
-18.5743

>  <SCORE.INTER.CONST>
1

>  <SCORE.INTER.POLAR>
0

>  <SCORE.INTER.ROT>
0

>  <SCORE.INTER.SOLV>
3.57353

>  <SCORE.INTER.VDW>
-17.1741

>  <SCORE.INTER.norm>
-1.85743

>  <SCORE.INTRA>
0

>  <SCORE.INTRA.DIHEDRAL>
0

>  <SCORE.INTRA.DIHEDRAL.0>
0

>  <SCORE.INTRA.POLAR>
0

>  <SCORE.INTRA.POLAR.0>
0

>  <SCORE.INTRA.REPUL>
0

>  <SCORE.INTRA.REPUL.0>
0

>  <SCORE.INTRA.SOLV>
0

>  <SCORE.INTRA.SOLV.lig_0>
-4.28148

>  <SCORE.INTRA.VDW>
0

>  <SCORE.INTRA.VDW.0>
0

>  <SCORE.INTRA.norm>
0

>  <SCORE.RESTR>
0

>  <SCORE.RESTR.CAVITY>
0

>  <SCORE.RESTR.norm>
0

>  <SCORE.SYSTEM>
0

>  <SCORE.SYSTEM.CONST>
0

>  <SCORE.SYSTEM.DIHEDRAL>
0

>  <SCORE.SYSTEM.SOLV>
0

>  <SCORE.SYSTEM.norm>
0

>  <SCORE.heavy>
10

>  <SCORE.norm>
-1.85743

>  <RMSD>
0.890

$$$$
ligand
 OpenBabel11021811423D
libRbt.so/2013.1/901 2013/11/27
 10 11  0  0  0  0  0  0  0  0999 V2000
   11.8175   11.0189    8.3870 N   0  0  0  0  0  0  0  0  0  0  0  0
   11.4969   12.3361    8.6479 C   0  0  0  0  0  0  0  0  0  0  0  0
   11.1250   13.1828    7.6799 N   0  0  0  0  0  0  0  0  0  0  0  0
   11.1034   12.6103    6.4434 C   0  0  0  0  0  0  0  0  0  0  0  0
   11.4141   11.2995    6.1146 C   0  0  0  0  0  0  0  0  0  0  0  0
   11.8075   10.3945    7.1377 C   0  0  0  0  0  0  0  0  0  0  0  0
   12.1215    9.2060    7.0720 O   0  0  0  0  0  0  0  0  0  0  0  0
   11.2621   11.1447    4.7576 N   0  0  0  0  0  0  0  0  0  0  0  0
   10.8646   12.3460    4.2766 C   0  0  0  0  0  0  0  0  0  0  0  0
   10.7585   13.2709    5.2891 N   0  0  0  0  0  0  0  0  0  0  0  0
  1  2  1  0  0  0  0
  1  6  1  0  0  0  0
  2  3  2  0  0  0  0
  3  4  1  0  0  0  0
  4  5  2  0  0  0  0
  4 10  1  0  0  0  0
  5  6  1  0  0  0  0
  5  8  1  0  0  0  0
  6  7  2  0  0  0  0
  8  9  1  0  0  0  0
  9 10  2  0  0  0  0
M  END
>  <CHROM.1>
11.39135128,11.63482645,6.59225887,0.44679987,-1.27197124,1.08546874

>  <Name>
ligand

>  <RI>
0

>  <Rbt.Current_Directory>
/home/itssahil/PROJECTS/Mol_Feturizer/New_Systems/rnas/2EEU

>  <Rbt.Executable>
rbdock ($Id: //depot/dev/client3/rdock/2013.1/src/exe/rbdock.cxx#4 $)

>  <Rbt.Library>
libRbt.so (2013.1, Build901 2013/11/27)

>  <Rbt.Parameter_File>
/export/apps/rDock/src/rDock_2013.1_src/data/scripts/dock_solv.prm

>  <Rbt.Receptor>
prm/pocket_docking_8.prm

>  <SCORE>
-18.5803

>  <SCORE.INTER>
-18.5803

>  <SCORE.INTER.CONST>
1

>  <SCORE.INTER.POLAR>
0

>  <SCORE.INTER.ROT>
0

>  <SCORE.INTER.SOLV>
3.56522

>  <SCORE.INTER.VDW>
-17.1753

>  <SCORE.INTER.norm>
-1.85803

>  <SCORE.INTRA>
0

>  <SCORE.INTRA.DIHEDRAL>
0

>  <SCORE.INTRA.DIHEDRAL.0>
0

>  <SCORE.INTRA.POLAR>
0

>  <SCORE.INTRA.POLAR.0>
0

>  <SCORE.INTRA.REPUL>
0

>  <SCORE.INTRA.REPUL.0>
0

>  <SCORE.INTRA.SOLV>
0

>  <SCORE.INTRA.SOLV.lig_0>
-4.28148

>  <SCORE.INTRA.VDW>
0

>  <SCORE.INTRA.VDW.0>
0

>  <SCORE.INTRA.norm>
0

>  <SCORE.RESTR>
0

>  <SCORE.RESTR.CAVITY>
0

>  <SCORE.RESTR.norm>
0

>  <SCORE.SYSTEM>
0

>  <SCORE.SYSTEM.CONST>
0

>  <SCORE.SYSTEM.DIHEDRAL>
0

>  <SCORE.SYSTEM.SOLV>
0

>  <SCORE.SYSTEM.norm>
0

>  <SCORE.heavy>
10

>  <SCORE.norm>
-1.85803

>  <RMSD>
0.890

$$$$
ligand
 OpenBabel11021811423D
libRbt.so/2013.1/901 2013/11/27
 10 11  0  0  0  0  0  0  0  0999 V2000
   11.8332   10.9404    8.3919 N   0  0  0  0  0  0  0  0  0  0  0  0
   11.5020   12.2528    8.6632 C   0  0  0  0  0  0  0  0  0  0  0  0
   11.1261   13.1050    7.7015 N   0  0  0  0  0  0  0  0  0  0  0  0
   11.1119   12.5429    6.4601 C   0  0  0  0  0  0  0  0  0  0  0  0
   11.4333   11.2373    6.1209 C   0  0  0  0  0  0  0  0  0  0  0  0
   11.8309   10.3266    7.1373 C   0  0  0  0  0  0  0  0  0  0  0  0
   12.1541    9.1411    7.0623 O   0  0  0  0  0  0  0  0  0  0  0  0
   11.2858   11.0930    4.7623 N   0  0  0  0  0  0  0  0  0  0  0  0
   10.8805   12.2953    4.2905 C   0  0  0  0  0  0  0  0  0  0  0  0
   10.7649   13.2107    5.3106 N   0  0  0  0  0  0  0  0  0  0  0  0
  1  2  1  0  0  0  0
  1  6  1  0  0  0  0
  2  3  2  0  0  0  0
  3  4  1  0  0  0  0
  4  5  2  0  0  0  0
  4 10  1  0  0  0  0
  5  6  1  0  0  0  0
  5  8  1  0  0  0  0
  6  7  2  0  0  0  0
  8  9  1  0  0  0  0
  9 10  2  0  0  0  0
M  END
>  <CHROM.1>
11.40684594,11.56839676,6.60139020,0.46580329,-1.26641003,1.11215085

>  <Name>
ligand

>  <RI>
0

>  <Rbt.Current_Directory>
/home/itssahil/PROJECTS/Mol_Feturizer/New_Systems/rnas/2EEU

>  <Rbt.Executable>
rbdock ($Id: //depot/dev/client3/rdock/2013.1/src/exe/rbdock.cxx#4 $)

>  <Rbt.Library>
libRbt.so (2013.1, Build901 2013/11/27)

>  <Rbt.Parameter_File>
/export/apps/rDock/src/rDock_2013.1_src/data/scripts/dock_solv.prm

>  <Rbt.Receptor>
prm/pocket_docking_8.prm

>  <SCORE>
-18.5739

>  <SCORE.INTER>
-18.5739

>  <SCORE.INTER.CONST>
1

>  <SCORE.INTER.POLAR>
0

>  <SCORE.INTER.ROT>
0

>  <SCORE.INTER.SOLV>
3.53891

>  <SCORE.INTER.VDW>
-17.1623

>  <SCORE.INTER.norm>
-1.85739

>  <SCORE.INTRA>
0

>  <SCORE.INTRA.DIHEDRAL>
0

>  <SCORE.INTRA.DIHEDRAL.0>
0

>  <SCORE.INTRA.POLAR>
0

>  <SCORE.INTRA.POLAR.0>
0

>  <SCORE.INTRA.REPUL>
0

>  <SCORE.INTRA.REPUL.0>
0

>  <SCORE.INTRA.SOLV>
0

>  <SCORE.INTRA.SOLV.lig_0>
-4.28148

>  <SCORE.INTRA.VDW>
0

>  <SCORE.INTRA.VDW.0>
0

>  <SCORE.INTRA.norm>
0

>  <SCORE.RESTR>
0

>  <SCORE.RESTR.CAVITY>
0

>  <SCORE.RESTR.norm>
0

>  <SCORE.SYSTEM>
0

>  <SCORE.SYSTEM.CONST>
0

>  <SCORE.SYSTEM.DIHEDRAL>
0

>  <SCORE.SYSTEM.SOLV>
0

>  <SCORE.SYSTEM.norm>
0

>  <SCORE.heavy>
10

>  <SCORE.norm>
-1.85739

>  <RMSD>
0.890

$$$$
ligand
 OpenBabel11021811423D
libRbt.so/2013.1/901 2013/11/27
 10 11  0  0  0  0  0  0  0  0999 V2000
   11.8260   10.9387    8.3913 N   0  0  0  0  0  0  0  0  0  0  0  0
   11.5069   12.2536    8.6647 C   0  0  0  0  0  0  0  0  0  0  0  0
   11.1307   13.1085    7.7056 N   0  0  0  0  0  0  0  0  0  0  0  0
   11.1034   12.5464    6.4644 C   0  0  0  0  0  0  0  0  0  0  0  0
   11.4124   11.2384    6.1232 C   0  0  0  0  0  0  0  0  0  0  0  0
   11.8102   10.3248    7.1369 C   0  0  0  0  0  0  0  0  0  0  0  0
   12.1237    9.1368    7.0598 O   0  0  0  0  0  0  0  0  0  0  0  0
   11.2542   11.0951    4.7657 N   0  0  0  0  0  0  0  0  0  0  0  0
   10.8547   12.3004    4.2966 C   0  0  0  0  0  0  0  0  0  0  0  0
   10.7534   13.2167    5.3173 N   0  0  0  0  0  0  0  0  0  0  0  0
  1  2  1  0  0  0  0
  1  6  1  0  0  0  0
  2  3  2  0  0  0  0
  3  4  1  0  0  0  0
  4  5  2  0  0  0  0
  4 10  1  0  0  0  0
  5  6  1  0  0  0  0
  5  8  1  0  0  0  0
  6  7  2  0  0  0  0
  8  9  1  0  0  0  0
  9 10  2  0  0  0  0
M  END
>  <CHROM.1>
11.39184089,11.56971542,6.60378358,0.43285504,-1.26998994,1.08054339

>  <Name>
ligand

>  <RI>
0

>  <Rbt.Current_Directory>
/home/itssahil/PROJECTS/Mol_Feturizer/New_Systems/rnas/2EEU

>  <Rbt.Executable>
rbdock ($Id: //depot/dev/client3/rdock/2013.1/src/exe/rbdock.cxx#4 $)

>  <Rbt.Library>
libRbt.so (2013.1, Build901 2013/11/27)

>  <Rbt.Parameter_File>
/export/apps/rDock/src/rDock_2013.1_src/data/scripts/dock_solv.prm

>  <Rbt.Receptor>
prm/pocket_docking_8.prm

>  <SCORE>
-18.5963

>  <SCORE.INTER>
-18.5963

>  <SCORE.INTER.CONST>
1

>  <SCORE.INTER.POLAR>
0

>  <SCORE.INTER.ROT>
0

>  <SCORE.INTER.SOLV>
3.56614

>  <SCORE.INTER.VDW>
-17.1863

>  <SCORE.INTER.norm>
-1.85963

>  <SCORE.INTRA>
0

>  <SCORE.INTRA.DIHEDRAL>
0

>  <SCORE.INTRA.DIHEDRAL.0>
0

>  <SCORE.INTRA.POLAR>
0

>  <SCORE.INTRA.POLAR.0>
0

>  <SCORE.INTRA.REPUL>
0

>  <SCORE.INTRA.REPUL.0>
0

>  <SCORE.INTRA.SOLV>
0

>  <SCORE.INTRA.SOLV.lig_0>
-4.28148

>  <SCORE.INTRA.VDW>
0

>  <SCORE.INTRA.VDW.0>
0

>  <SCORE.INTRA.norm>
0

>  <SCORE.RESTR>
0

>  <SCORE.RESTR.CAVITY>
0

>  <SCORE.RESTR.norm>
0

>  <SCORE.SYSTEM>
0

>  <SCORE.SYSTEM.CONST>
0

>  <SCORE.SYSTEM.DIHEDRAL>
0

>  <SCORE.SYSTEM.SOLV>
0

>  <SCORE.SYSTEM.norm>
0

>  <SCORE.heavy>
10

>  <SCORE.norm>
-1.85963

>  <RMSD>
0.890

$$$$
ligand
 OpenBabel11021811423D
libRbt.so/2013.1/901 2013/11/27
 10 11  0  0  0  0  0  0  0  0999 V2000
   11.8280   10.9400    8.3902 N   0  0  0  0  0  0  0  0  0  0  0  0
   11.5126   12.2561    8.6622 C   0  0  0  0  0  0  0  0  0  0  0  0
   11.1388   13.1111    7.7022 N   0  0  0  0  0  0  0  0  0  0  0  0
   11.1098   12.5478    6.4616 C   0  0  0  0  0  0  0  0  0  0  0  0
   11.4151   11.2385    6.1217 C   0  0  0  0  0  0  0  0  0  0  0  0
   11.8104   10.3248    7.1364 C   0  0  0  0  0  0  0  0  0  0  0  0
   12.1205    9.1359    7.0605 O   0  0  0  0  0  0  0  0  0  0  0  0
   11.2564   11.0942    4.7644 N   0  0  0  0  0  0  0  0  0  0  0  0
   10.8603   12.3001    4.2941 C   0  0  0  0  0  0  0  0  0  0  0  0
   10.7616   13.2179    5.3138 N   0  0  0  0  0  0  0  0  0  0  0  0
  1  2  1  0  0  0  0
  1  6  1  0  0  0  0
  2  3  2  0  0  0  0
  3  4  1  0  0  0  0
  4  5  2  0  0  0  0
  4 10  1  0  0  0  0
  5  6  1  0  0  0  0
  5  8  1  0  0  0  0
  6  7  2  0  0  0  0
  8  9  1  0  0  0  0
  9 10  2  0  0  0  0
M  END
>  <CHROM.1>
11.39549902,11.57038509,6.60198540,0.42820887,-1.27246042,1.07505384

>  <Name>
ligand

>  <RI>
0

>  <Rbt.Current_Directory>
/home/itssahil/PROJECTS/Mol_Feturizer/New_Systems/rnas/2EEU

>  <Rbt.Executable>
rbdock ($Id: //depot/dev/client3/rdock/2013.1/src/exe/rbdock.cxx#4 $)

>  <Rbt.Library>
libRbt.so (2013.1, Build901 2013/11/27)

>  <Rbt.Parameter_File>
/export/apps/rDock/src/rDock_2013.1_src/data/scripts/dock_solv.prm

>  <Rbt.Receptor>
prm/blind_docking_60.prm

>  <SCORE>
-18.5975

>  <SCORE.INTER>
-18.5975

>  <SCORE.INTER.CONST>
1

>  <SCORE.INTER.POLAR>
0

>  <SCORE.INTER.ROT>
0

>  <SCORE.INTER.SOLV>
3.57072

>  <SCORE.INTER.VDW>
-17.1886

>  <SCORE.INTER.norm>
-1.85975

>  <SCORE.INTRA>
0

>  <SCORE.INTRA.DIHEDRAL>
0

>  <SCORE.INTRA.DIHEDRAL.0>
0

>  <SCORE.INTRA.POLAR>
0

>  <SCORE.INTRA.POLAR.0>
0

>  <SCORE.INTRA.REPUL>
0

>  <SCORE.INTRA.REPUL.0>
0

>  <SCORE.INTRA.SOLV>
0

>  <SCORE.INTRA.SOLV.lig_0>
-4.28148

>  <SCORE.INTRA.VDW>
0

>  <SCORE.INTRA.VDW.0>
0

>  <SCORE.INTRA.norm>
0

>  <SCORE.RESTR>
0

>  <SCORE.RESTR.CAVITY>
0

>  <SCORE.RESTR.norm>
0

>  <SCORE.SYSTEM>
0

>  <SCORE.SYSTEM.CONST>
0

>  <SCORE.SYSTEM.DIHEDRAL>
0

>  <SCORE.SYSTEM.SOLV>
0

>  <SCORE.SYSTEM.norm>
0

>  <SCORE.heavy>
10

>  <SCORE.norm>
-1.85975

>  <RMSD>
0.891

$$$$
ligand
 OpenBabel11021811423D
libRbt.so/2013.1/901 2013/11/27
 10 11  0  0  0  0  0  0  0  0999 V2000
   11.8369   10.9470    8.3892 N   0  0  0  0  0  0  0  0  0  0  0  0
   11.5264   12.2652    8.6564 C   0  0  0  0  0  0  0  0  0  0  0  0
   11.1511   13.1168    7.6940 N   0  0  0  0  0  0  0  0  0  0  0  0
   11.1154   12.5478    6.4561 C   0  0  0  0  0  0  0  0  0  0  0  0
   11.4155   11.2361    6.1211 C   0  0  0  0  0  0  0  0  0  0  0  0
   11.8124   10.3260    7.1383 C   0  0  0  0  0  0  0  0  0  0  0  0
   12.1188    9.1358    7.0667 O   0  0  0  0  0  0  0  0  0  0  0  0
   11.2508   11.0860    4.7651 N   0  0  0  0  0  0  0  0  0  0  0  0
   10.8562   12.2909    4.2908 C   0  0  0  0  0  0  0  0  0  0  0  0
   10.7644   13.2136    5.3066 N   0  0  0  0  0  0  0  0  0  0  0  0
  1  2  1  0  0  0  0
  1  6  1  0  0  0  0
  2  3  2  0  0  0  0
  3  4  1  0  0  0  0
  4  5  2  0  0  0  0
  4 10  1  0  0  0  0
  5  6  1  0  0  0  0
  5  8  1  0  0  0  0
  6  7  2  0  0  0  0
  8  9  1  0  0  0  0
  9 10  2  0  0  0  0
M  END
>  <CHROM.1>
11.39886406,11.57026828,6.59987093,0.41116242,-1.27297529,1.05412656

>  <Name>
ligand

>  <RI>
0

>  <Rbt.Current_Directory>
/home/itssahil/PROJECTS/Mol_Feturizer/New_Systems/rnas/2EEU

>  <Rbt.Executable>
rbdock ($Id: //depot/dev/client3/rdock/2013.1/src/exe/rbdock.cxx#4 $)

>  <Rbt.Library>
libRbt.so (2013.1, Build901 2013/11/27)

>  <Rbt.Parameter_File>
/export/apps/rDock/src/rDock_2013.1_src/data/scripts/dock_solv.prm

>  <Rbt.Receptor>
prm/pocket_docking_4.prm

>  <SCORE>
-18.5968

>  <SCORE.INTER>
-18.5968

>  <SCORE.INTER.CONST>
1

>  <SCORE.INTER.POLAR>
0

>  <SCORE.INTER.ROT>
0

>  <SCORE.INTER.SOLV>
3.56678

>  <SCORE.INTER.VDW>
-17.1868

>  <SCORE.INTER.norm>
-1.85968

>  <SCORE.INTRA>
0

>  <SCORE.INTRA.DIHEDRAL>
0

>  <SCORE.INTRA.DIHEDRAL.0>
0

>  <SCORE.INTRA.POLAR>
0

>  <SCORE.INTRA.POLAR.0>
0

>  <SCORE.INTRA.REPUL>
0

>  <SCORE.INTRA.REPUL.0>
0

>  <SCORE.INTRA.SOLV>
0

>  <SCORE.INTRA.SOLV.lig_0>
-4.28148

>  <SCORE.INTRA.VDW>
0

>  <SCORE.INTRA.VDW.0>
0

>  <SCORE.INTRA.norm>
0

>  <SCORE.RESTR>
0

>  <SCORE.RESTR.CAVITY>
0

>  <SCORE.RESTR.norm>
0

>  <SCORE.SYSTEM>
0

>  <SCORE.SYSTEM.CONST>
0

>  <SCORE.SYSTEM.DIHEDRAL>
0

>  <SCORE.SYSTEM.SOLV>
0

>  <SCORE.SYSTEM.norm>
0

>  <SCORE.heavy>
10

>  <SCORE.norm>
-1.85968

>  <RMSD>
0.891

$$$$
ligand
 OpenBabel11021811423D
libRbt.so/2013.1/901 2013/11/27
 10 11  0  0  0  0  0  0  0  0999 V2000
   11.8661   10.9454    8.3820 N   0  0  0  0  0  0  0  0  0  0  0  0
   11.5707   12.2671    8.6495 C   0  0  0  0  0  0  0  0  0  0  0  0
   11.1865   13.1183    7.6903 N   0  0  0  0  0  0  0  0  0  0  0  0
   11.1257   12.5453    6.4553 C   0  0  0  0  0  0  0  0  0  0  0  0
   11.4095   11.2300    6.1201 C   0  0  0  0  0  0  0  0  0  0  0  0
   11.8158   10.3203    7.1339 C   0  0  0  0  0  0  0  0  0  0  0  0
   12.1114    9.1274    7.0616 O   0  0  0  0  0  0  0  0  0  0  0  0
   11.2212   11.0765    4.7676 N   0  0  0  0  0  0  0  0  0  0  0  0
   10.8286   12.2829    4.2955 C   0  0  0  0  0  0  0  0  0  0  0  0
   10.7611   13.2099    5.3093 N   0  0  0  0  0  0  0  0  0  0  0  0
  1  2  1  0  0  0  0
  1  6  1  0  0  0  0
  2  3  2  0  0  0  0
  3  4  1  0  0  0  0
  4  5  2  0  0  0  0
  4 10  1  0  0  0  0
  5  6  1  0  0  0  0
  5  8  1  0  0  0  0
  6  7  2  0  0  0  0
  8  9  1  0  0  0  0
  9 10  2  0  0  0  0
M  END
>  <CHROM.1>
11.40353912,11.56598119,6.59787927,0.34878634,-1.27127994,0.99094026

>  <Name>
ligand

>  <RI>
0

>  <Rbt.Current_Directory>
/home/itssahil/PROJECTS/Mol_Feturizer/New_Systems/rnas/2EEU

>  <Rbt.Executable>
rbdock ($Id: //depot/dev/client3/rdock/2013.1/src/exe/rbdock.cxx#4 $)

>  <Rbt.Library>
libRbt.so (2013.1, Build901 2013/11/27)

>  <Rbt.Parameter_File>
/export/apps/rDock/src/rDock_2013.1_src/data/scripts/dock_solv.prm

>  <Rbt.Receptor>
prm/pocket_docking_5.prm

>  <SCORE>
-18.5848

>  <SCORE.INTER>
-18.5848

>  <SCORE.INTER.CONST>
1

>  <SCORE.INTER.POLAR>
0

>  <SCORE.INTER.ROT>
0

>  <SCORE.INTER.SOLV>
3.56208

>  <SCORE.INTER.VDW>
-17.1772

>  <SCORE.INTER.norm>
-1.85848

>  <SCORE.INTRA>
0

>  <SCORE.INTRA.DIHEDRAL>
0

>  <SCORE.INTRA.DIHEDRAL.0>
0

>  <SCORE.INTRA.POLAR>
0

>  <SCORE.INTRA.POLAR.0>
0

>  <SCORE.INTRA.REPUL>
0

>  <SCORE.INTRA.REPUL.0>
0

>  <SCORE.INTRA.SOLV>
0

>  <SCORE.INTRA.SOLV.lig_0>
-4.28148

>  <SCORE.INTRA.VDW>
0

>  <SCORE.INTRA.VDW.0>
0

>  <SCORE.INTRA.norm>
0

>  <SCORE.RESTR>
0

>  <SCORE.RESTR.CAVITY>
0

>  <SCORE.RESTR.norm>
0

>  <SCORE.SYSTEM>
0

>  <SCORE.SYSTEM.CONST>
0

>  <SCORE.SYSTEM.DIHEDRAL>
0

>  <SCORE.SYSTEM.SOLV>
0

>  <SCORE.SYSTEM.norm>
0

>  <SCORE.heavy>
10

>  <SCORE.norm>
-1.85848

>  <RMSD>
0.891

$$$$
ligand
 OpenBabel11021811423D
libRbt.so/2013.1/901 2013/11/27
 10 11  0  0  0  0  0  0  0  0999 V2000
   11.8290   10.9402    8.3911 N   0  0  0  0  0  0  0  0  0  0  0  0
   11.5122   12.2562    8.6624 C   0  0  0  0  0  0  0  0  0  0  0  0
   11.1384   13.1104    7.7018 N   0  0  0  0  0  0  0  0  0  0  0  0
   11.1107   12.5465    6.4614 C   0  0  0  0  0  0  0  0  0  0  0  0
   11.4174   11.2374    6.1223 C   0  0  0  0  0  0  0  0  0  0  0  0
   11.8128   10.3245    7.1376 C   0  0  0  0  0  0  0  0  0  0  0  0
   12.1241    9.1358    7.0624 O   0  0  0  0  0  0  0  0  0  0  0  0
   11.2598   11.0924    4.7649 N   0  0  0  0  0  0  0  0  0  0  0  0
   10.8629   12.2978    4.2938 C   0  0  0  0  0  0  0  0  0  0  0  0
   10.7627   13.2158    5.3131 N   0  0  0  0  0  0  0  0  0  0  0  0
  1  2  1  0  0  0  0
  1  6  1  0  0  0  0
  2  3  2  0  0  0  0
  3  4  1  0  0  0  0
  4  5  2  0  0  0  0
  4 10  1  0  0  0  0
  5  6  1  0  0  0  0
  5  8  1  0  0  0  0
  6  7  2  0  0  0  0
  8  9  1  0  0  0  0
  9 10  2  0  0  0  0
M  END
>  <CHROM.1>
11.39720146,11.56946421,6.60239436,0.43172439,-1.27199622,1.07800209

>  <Name>
ligand

>  <RI>
0

>  <Rbt.Current_Directory>
/home/itssahil/PROJECTS/Mol_Feturizer/New_Systems/rnas/2EEU

>  <Rbt.Executable>
rbdock ($Id: //depot/dev/client3/rdock/2013.1/src/exe/rbdock.cxx#4 $)

>  <Rbt.Library>
libRbt.so (2013.1, Build901 2013/11/27)

>  <Rbt.Parameter_File>
/export/apps/rDock/src/rDock_2013.1_src/data/scripts/dock_solv.prm

>  <Rbt.Receptor>
prm/pocket_docking_5.prm

>  <SCORE>
-18.5963

>  <SCORE.INTER>
-18.5963

>  <SCORE.INTER.CONST>
1

>  <SCORE.INTER.POLAR>
0

>  <SCORE.INTER.ROT>
0

>  <SCORE.INTER.SOLV>
3.56685

>  <SCORE.INTER.VDW>
-17.1865

>  <SCORE.INTER.norm>
-1.85963

>  <SCORE.INTRA>
0

>  <SCORE.INTRA.DIHEDRAL>
0

>  <SCORE.INTRA.DIHEDRAL.0>
0

>  <SCORE.INTRA.POLAR>
0

>  <SCORE.INTRA.POLAR.0>
0

>  <SCORE.INTRA.REPUL>
0

>  <SCORE.INTRA.REPUL.0>
0

>  <SCORE.INTRA.SOLV>
0

>  <SCORE.INTRA.SOLV.lig_0>
-4.28148

>  <SCORE.INTRA.VDW>
0

>  <SCORE.INTRA.VDW.0>
0

>  <SCORE.INTRA.norm>
0

>  <SCORE.RESTR>
0

>  <SCORE.RESTR.CAVITY>
0

>  <SCORE.RESTR.norm>
0

>  <SCORE.SYSTEM>
0

>  <SCORE.SYSTEM.CONST>
0

>  <SCORE.SYSTEM.DIHEDRAL>
0

>  <SCORE.SYSTEM.SOLV>
0

>  <SCORE.SYSTEM.norm>
0

>  <SCORE.heavy>
10

>  <SCORE.norm>
-1.85963

>  <RMSD>
0.891

$$$$
ligand
 OpenBabel11021811423D
libRbt.so/2013.1/901 2013/11/27
 10 11  0  0  0  0  0  0  0  0999 V2000
   11.8357   10.9466    8.3891 N   0  0  0  0  0  0  0  0  0  0  0  0
   11.5209   12.2638    8.6566 C   0  0  0  0  0  0  0  0  0  0  0  0
   11.1401   13.1136    7.6948 N   0  0  0  0  0  0  0  0  0  0  0  0
   11.1037   12.5441    6.4572 C   0  0  0  0  0  0  0  0  0  0  0  0
   11.4079   11.2334    6.1219 C   0  0  0  0  0  0  0  0  0  0  0  0
   11.8106   10.3251    7.1385 C   0  0  0  0  0  0  0  0  0  0  0  0
   12.1213    9.1361    7.0666 O   0  0  0  0  0  0  0  0  0  0  0  0
   11.2406   11.0822    4.7664 N   0  0  0  0  0  0  0  0  0  0  0  0
   10.8404   12.2854    4.2926 C   0  0  0  0  0  0  0  0  0  0  0  0
   10.7475   13.2081    5.3083 N   0  0  0  0  0  0  0  0  0  0  0  0
  1  2  1  0  0  0  0
  1  6  1  0  0  0  0
  2  3  2  0  0  0  0
  3  4  1  0  0  0  0
  4  5  2  0  0  0  0
  4 10  1  0  0  0  0
  5  6  1  0  0  0  0
  5  8  1  0  0  0  0
  6  7  2  0  0  0  0
  8  9  1  0  0  0  0
  9 10  2  0  0  0  0
M  END
>  <CHROM.1>
11.39114007,11.56765317,6.60059939,0.41060671,-1.26854292,1.05324551

>  <Name>
ligand

>  <RI>
0

>  <Rbt.Current_Directory>
/home/itssahil/PROJECTS/Mol_Feturizer/New_Systems/rnas/2EEU

>  <Rbt.Executable>
rbdock ($Id: //depot/dev/client3/rdock/2013.1/src/exe/rbdock.cxx#4 $)

>  <Rbt.Library>
libRbt.so (2013.1, Build901 2013/11/27)

>  <Rbt.Parameter_File>
/export/apps/rDock/src/rDock_2013.1_src/data/scripts/dock_solv.prm

>  <Rbt.Receptor>
prm/blind_docking_60.prm

>  <SCORE>
-18.5872

>  <SCORE.INTER>
-18.5872

>  <SCORE.INTER.CONST>
1

>  <SCORE.INTER.POLAR>
0

>  <SCORE.INTER.ROT>
0

>  <SCORE.INTER.SOLV>
3.55957

>  <SCORE.INTER.VDW>
-17.178

>  <SCORE.INTER.norm>
-1.85872

>  <SCORE.INTRA>
0

>  <SCORE.INTRA.DIHEDRAL>
0

>  <SCORE.INTRA.DIHEDRAL.0>
0

>  <SCORE.INTRA.POLAR>
0

>  <SCORE.INTRA.POLAR.0>
0

>  <SCORE.INTRA.REPUL>
0

>  <SCORE.INTRA.REPUL.0>
0

>  <SCORE.INTRA.SOLV>
0

>  <SCORE.INTRA.SOLV.lig_0>
-4.28148

>  <SCORE.INTRA.VDW>
0

>  <SCORE.INTRA.VDW.0>
0

>  <SCORE.INTRA.norm>
0

>  <SCORE.RESTR>
0

>  <SCORE.RESTR.CAVITY>
0

>  <SCORE.RESTR.norm>
0

>  <SCORE.SYSTEM>
0

>  <SCORE.SYSTEM.CONST>
0

>  <SCORE.SYSTEM.DIHEDRAL>
0

>  <SCORE.SYSTEM.SOLV>
0

>  <SCORE.SYSTEM.norm>
0

>  <SCORE.heavy>
10

>  <SCORE.norm>
-1.85872

>  <RMSD>
0.892

$$$$
ligand
 OpenBabel11021811423D
libRbt.so/2013.1/901 2013/11/27
 10 11  0  0  0  0  0  0  0  0999 V2000
   11.8934   10.9403    8.3762 N   0  0  0  0  0  0  0  0  0  0  0  0
   11.5776   12.2566    8.6471 C   0  0  0  0  0  0  0  0  0  0  0  0
   11.1848   13.1055    7.6894 N   0  0  0  0  0  0  0  0  0  0  0  0
   11.1375   12.5361    6.4521 C   0  0  0  0  0  0  0  0  0  0  0  0
   11.4420   11.2263    6.1135 C   0  0  0  0  0  0  0  0  0  0  0  0
   11.8574   10.3190    7.1258 C   0  0  0  0  0  0  0  0  0  0  0  0
   12.1707    9.1309    7.0505 O   0  0  0  0  0  0  0  0  0  0  0  0
   11.2615   11.0749    4.7597 N   0  0  0  0  0  0  0  0  0  0  0  0
   10.8532   12.2771    4.2902 C   0  0  0  0  0  0  0  0  0  0  0  0
   10.7679   13.1993    5.3070 N   0  0  0  0  0  0  0  0  0  0  0  0
  1  2  1  0  0  0  0
  1  6  1  0  0  0  0
  2  3  2  0  0  0  0
  3  4  1  0  0  0  0
  4  5  2  0  0  0  0
  4 10  1  0  0  0  0
  5  6  1  0  0  0  0
  5  8  1  0  0  0  0
  6  7  2  0  0  0  0
  8  9  1  0  0  0  0
  9 10  2  0  0  0  0
M  END
>  <CHROM.1>
11.42912764,11.56044615,6.59239986,0.38648305,-1.26107470,1.03044120

>  <Name>
ligand

>  <RI>
0

>  <Rbt.Current_Directory>
/home/itssahil/PROJECTS/Mol_Feturizer/New_Systems/rnas/2EEU

>  <Rbt.Executable>
rbdock ($Id: //depot/dev/client3/rdock/2013.1/src/exe/rbdock.cxx#4 $)

>  <Rbt.Library>
libRbt.so (2013.1, Build901 2013/11/27)

>  <Rbt.Parameter_File>
/export/apps/rDock/src/rDock_2013.1_src/data/scripts/dock_solv.prm

>  <Rbt.Receptor>
prm/blind_docking_80.prm

>  <SCORE>
-18.5916

>  <SCORE.INTER>
-18.5916

>  <SCORE.INTER.CONST>
1

>  <SCORE.INTER.POLAR>
0

>  <SCORE.INTER.ROT>
0

>  <SCORE.INTER.SOLV>
3.50178

>  <SCORE.INTER.VDW>
-17.1617

>  <SCORE.INTER.norm>
-1.85916

>  <SCORE.INTRA>
0

>  <SCORE.INTRA.DIHEDRAL>
0

>  <SCORE.INTRA.DIHEDRAL.0>
0

>  <SCORE.INTRA.POLAR>
0

>  <SCORE.INTRA.POLAR.0>
0

>  <SCORE.INTRA.REPUL>
0

>  <SCORE.INTRA.REPUL.0>
0

>  <SCORE.INTRA.SOLV>
0

>  <SCORE.INTRA.SOLV.lig_0>
-4.28148

>  <SCORE.INTRA.VDW>
0

>  <SCORE.INTRA.VDW.0>
0

>  <SCORE.INTRA.norm>
0

>  <SCORE.RESTR>
0

>  <SCORE.RESTR.CAVITY>
0

>  <SCORE.RESTR.norm>
0

>  <SCORE.SYSTEM>
0

>  <SCORE.SYSTEM.CONST>
0

>  <SCORE.SYSTEM.DIHEDRAL>
0

>  <SCORE.SYSTEM.SOLV>
0

>  <SCORE.SYSTEM.norm>
0

>  <SCORE.heavy>
10

>  <SCORE.norm>
-1.85916

>  <RMSD>
0.892

$$$$
ligand
 OpenBabel11021811423D
libRbt.so/2013.1/901 2013/11/27
 10 11  0  0  0  0  0  0  0  0999 V2000
   11.9160   11.3252    8.4024 N   0  0  0  0  0  0  0  0  0  0  0  0
   11.6847   12.6781    8.5498 C   0  0  0  0  0  0  0  0  0  0  0  0
   11.3094   13.4516    7.5237 N   0  0  0  0  0  0  0  0  0  0  0  0
   11.1890   12.7682    6.3507 C   0  0  0  0  0  0  0  0  0  0  0  0
   11.4071   11.4158    6.1356 C   0  0  0  0  0  0  0  0  0  0  0  0
   11.8034   10.5882    7.2212 C   0  0  0  0  0  0  0  0  0  0  0  0
   12.0460    9.3818    7.2556 O   0  0  0  0  0  0  0  0  0  0  0  0
   11.1737   11.1442    4.8089 N   0  0  0  0  0  0  0  0  0  0  0  0
   10.8192   12.3173    4.2337 C   0  0  0  0  0  0  0  0  0  0  0  0
   10.8201   13.3377    5.1560 N   0  0  0  0  0  0  0  0  0  0  0  0
  1  2  1  0  0  0  0
  1  6  1  0  0  0  0
  2  3  2  0  0  0  0
  3  4  1  0  0  0  0
  4  5  2  0  0  0  0
  4 10  1  0  0  0  0
  5  6  1  0  0  0  0
  5  8  1  0  0  0  0
  6  7  2  0  0  0  0
  8  9  1  0  0  0  0
  9 10  2  0  0  0  0
M  END
>  <CHROM.1>
11.42908901,11.79518883,6.57915486,0.17919043,-1.28716094,0.73353428

>  <Name>
ligand

>  <RI>
0

>  <Rbt.Current_Directory>
/home/itssahil/PROJECTS/Mol_Feturizer/New_Systems/rnas/2EEU

>  <Rbt.Executable>
rbdock ($Id: //depot/dev/client3/rdock/2013.1/src/exe/rbdock.cxx#4 $)

>  <Rbt.Library>
libRbt.so (2013.1, Build901 2013/11/27)

>  <Rbt.Parameter_File>
/export/apps/rDock/src/rDock_2013.1_src/data/scripts/dock_solv.prm

>  <Rbt.Receptor>
prm/pocket_docking_7.prm

>  <SCORE>
-18.5027

>  <SCORE.INTER>
-18.5027

>  <SCORE.INTER.CONST>
1

>  <SCORE.INTER.POLAR>
0

>  <SCORE.INTER.ROT>
0

>  <SCORE.INTER.SOLV>
3.57022

>  <SCORE.INTER.VDW>
-17.1252

>  <SCORE.INTER.norm>
-1.85027

>  <SCORE.INTRA>
0

>  <SCORE.INTRA.DIHEDRAL>
0

>  <SCORE.INTRA.DIHEDRAL.0>
0

>  <SCORE.INTRA.POLAR>
0

>  <SCORE.INTRA.POLAR.0>
0

>  <SCORE.INTRA.REPUL>
0

>  <SCORE.INTRA.REPUL.0>
0

>  <SCORE.INTRA.SOLV>
0

>  <SCORE.INTRA.SOLV.lig_0>
-4.28148

>  <SCORE.INTRA.VDW>
0

>  <SCORE.INTRA.VDW.0>
0

>  <SCORE.INTRA.norm>
0

>  <SCORE.RESTR>
0

>  <SCORE.RESTR.CAVITY>
0

>  <SCORE.RESTR.norm>
0

>  <SCORE.SYSTEM>
0

>  <SCORE.SYSTEM.CONST>
0

>  <SCORE.SYSTEM.DIHEDRAL>
0

>  <SCORE.SYSTEM.SOLV>
0

>  <SCORE.SYSTEM.norm>
0

>  <SCORE.heavy>
10

>  <SCORE.norm>
-1.85027

>  <RMSD>
0.892

$$$$
ligand
 OpenBabel11021811423D
libRbt.so/2013.1/901 2013/11/27
 10 11  0  0  0  0  0  0  0  0999 V2000
   11.8289   10.9447    8.3878 N   0  0  0  0  0  0  0  0  0  0  0  0
   11.5136   12.2610    8.6592 C   0  0  0  0  0  0  0  0  0  0  0  0
   11.1389   13.1152    7.6989 N   0  0  0  0  0  0  0  0  0  0  0  0
   11.1088   12.5510    6.4587 C   0  0  0  0  0  0  0  0  0  0  0  0
   11.4139   11.2415    6.1195 C   0  0  0  0  0  0  0  0  0  0  0  0
   11.8101   10.3286    7.1344 C   0  0  0  0  0  0  0  0  0  0  0  0
   12.1203    9.1396    7.0591 O   0  0  0  0  0  0  0  0  0  0  0  0
   11.2539   11.0963    4.7624 N   0  0  0  0  0  0  0  0  0  0  0  0
   10.8573   12.3019    4.2916 C   0  0  0  0  0  0  0  0  0  0  0  0
   10.7595   13.2203    5.3107 N   0  0  0  0  0  0  0  0  0  0  0  0
  1  2  1  0  0  0  0
  1  6  1  0  0  0  0
  2  3  2  0  0  0  0
  3  4  1  0  0  0  0
  4  5  2  0  0  0  0
  4 10  1  0  0  0  0
  5  6  1  0  0  0  0
  5  8  1  0  0  0  0
  6  7  2  0  0  0  0
  8  9  1  0  0  0  0
  9 10  2  0  0  0  0
M  END
>  <CHROM.1>
11.39469733,11.57376443,6.59952815,0.42556931,-1.27196832,1.07183852

>  <Name>
ligand

>  <RI>
0

>  <Rbt.Current_Directory>
/home/itssahil/PROJECTS/Mol_Feturizer/New_Systems/rnas/2EEU

>  <Rbt.Executable>
rbdock ($Id: //depot/dev/client3/rdock/2013.1/src/exe/rbdock.cxx#4 $)

>  <Rbt.Library>
libRbt.so (2013.1, Build901 2013/11/27)

>  <Rbt.Parameter_File>
/export/apps/rDock/src/rDock_2013.1_src/data/scripts/dock_solv.prm

>  <Rbt.Receptor>
prm/blind_docking_40.prm

>  <SCORE>
-18.5968

>  <SCORE.INTER>
-18.5968

>  <SCORE.INTER.CONST>
1

>  <SCORE.INTER.POLAR>
0

>  <SCORE.INTER.ROT>
0

>  <SCORE.INTER.SOLV>
3.57014

>  <SCORE.INTER.VDW>
-17.1879

>  <SCORE.INTER.norm>
-1.85968

>  <SCORE.INTRA>
0

>  <SCORE.INTRA.DIHEDRAL>
0

>  <SCORE.INTRA.DIHEDRAL.0>
0

>  <SCORE.INTRA.POLAR>
0

>  <SCORE.INTRA.POLAR.0>
0

>  <SCORE.INTRA.REPUL>
0

>  <SCORE.INTRA.REPUL.0>
0

>  <SCORE.INTRA.SOLV>
0

>  <SCORE.INTRA.SOLV.lig_0>
-4.28148

>  <SCORE.INTRA.VDW>
0

>  <SCORE.INTRA.VDW.0>
0

>  <SCORE.INTRA.norm>
0

>  <SCORE.RESTR>
0

>  <SCORE.RESTR.CAVITY>
0

>  <SCORE.RESTR.norm>
0

>  <SCORE.SYSTEM>
0

>  <SCORE.SYSTEM.CONST>
0

>  <SCORE.SYSTEM.DIHEDRAL>
0

>  <SCORE.SYSTEM.SOLV>
0

>  <SCORE.SYSTEM.norm>
0

>  <SCORE.heavy>
10

>  <SCORE.norm>
-1.85968

>  <RMSD>
0.893

$$$$
ligand
 OpenBabel11021811423D
libRbt.so/2013.1/901 2013/11/27
 10 11  0  0  0  0  0  0  0  0999 V2000
   11.8288   10.9406    8.3909 N   0  0  0  0  0  0  0  0  0  0  0  0
   11.4926   12.2520    8.6605 C   0  0  0  0  0  0  0  0  0  0  0  0
   11.1130   13.1014    7.6979 N   0  0  0  0  0  0  0  0  0  0  0  0
   11.1004   12.5376    6.4572 C   0  0  0  0  0  0  0  0  0  0  0  0
   11.4268   11.2328    6.1197 C   0  0  0  0  0  0  0  0  0  0  0  0
   11.8285   10.3251    7.1371 C   0  0  0  0  0  0  0  0  0  0  0  0
   12.1563    9.1407    7.0635 O   0  0  0  0  0  0  0  0  0  0  0  0
   11.2793   11.0861    4.7613 N   0  0  0  0  0  0  0  0  0  0  0  0
   10.8690   12.2862    4.2881 C   0  0  0  0  0  0  0  0  0  0  0  0
   10.7502   13.2025    5.3070 N   0  0  0  0  0  0  0  0  0  0  0  0
  1  2  1  0  0  0  0
  1  6  1  0  0  0  0
  2  3  2  0  0  0  0
  3  4  1  0  0  0  0
  4  5  2  0  0  0  0
  4 10  1  0  0  0  0
  5  6  1  0  0  0  0
  5  8  1  0  0  0  0
  6  7  2  0  0  0  0
  8  9  1  0  0  0  0
  9 10  2  0  0  0  0
M  END
>  <CHROM.1>
11.39923948,11.56444689,6.59971655,0.47026195,-1.26267109,1.11506187

>  <Name>
ligand

>  <RI>
0

>  <Rbt.Current_Directory>
/home/itssahil/PROJECTS/Mol_Feturizer/New_Systems/rnas/2EEU

>  <Rbt.Executable>
rbdock ($Id: //depot/dev/client3/rdock/2013.1/src/exe/rbdock.cxx#4 $)

>  <Rbt.Library>
libRbt.so (2013.1, Build901 2013/11/27)

>  <Rbt.Parameter_File>
/export/apps/rDock/src/rDock_2013.1_src/data/scripts/dock_solv.prm

>  <Rbt.Receptor>
prm/pocket_docking_4.prm

>  <SCORE>
-18.5667

>  <SCORE.INTER>
-18.5667

>  <SCORE.INTER.CONST>
1

>  <SCORE.INTER.POLAR>
0

>  <SCORE.INTER.ROT>
0

>  <SCORE.INTER.SOLV>
3.5347

>  <SCORE.INTER.VDW>
-17.156

>  <SCORE.INTER.norm>
-1.85667

>  <SCORE.INTRA>
0

>  <SCORE.INTRA.DIHEDRAL>
0

>  <SCORE.INTRA.DIHEDRAL.0>
0

>  <SCORE.INTRA.POLAR>
0

>  <SCORE.INTRA.POLAR.0>
0

>  <SCORE.INTRA.REPUL>
0

>  <SCORE.INTRA.REPUL.0>
0

>  <SCORE.INTRA.SOLV>
0

>  <SCORE.INTRA.SOLV.lig_0>
-4.28148

>  <SCORE.INTRA.VDW>
0

>  <SCORE.INTRA.VDW.0>
0

>  <SCORE.INTRA.norm>
0

>  <SCORE.RESTR>
0

>  <SCORE.RESTR.CAVITY>
0

>  <SCORE.RESTR.norm>
0

>  <SCORE.SYSTEM>
0

>  <SCORE.SYSTEM.CONST>
0

>  <SCORE.SYSTEM.DIHEDRAL>
0

>  <SCORE.SYSTEM.SOLV>
0

>  <SCORE.SYSTEM.norm>
0

>  <SCORE.heavy>
10

>  <SCORE.norm>
-1.85667

>  <RMSD>
0.893

$$$$
ligand
 OpenBabel11021811423D
libRbt.so/2013.1/901 2013/11/27
 10 11  0  0  0  0  0  0  0  0999 V2000
   11.8225   10.9411    8.3892 N   0  0  0  0  0  0  0  0  0  0  0  0
   11.4752   12.2482    8.6659 C   0  0  0  0  0  0  0  0  0  0  0  0
   11.0886   13.0996    7.7079 N   0  0  0  0  0  0  0  0  0  0  0  0
   11.0812   12.5426    6.4641 C   0  0  0  0  0  0  0  0  0  0  0  0
   11.4187   11.2425    6.1195 C   0  0  0  0  0  0  0  0  0  0  0  0
   11.8277   10.3325    7.1320 C   0  0  0  0  0  0  0  0  0  0  0  0
   12.1655    9.1514    7.0520 O   0  0  0  0  0  0  0  0  0  0  0  0
   11.2728   11.1021    4.7603 N   0  0  0  0  0  0  0  0  0  0  0  0
   10.8525   12.3012    4.2936 C   0  0  0  0  0  0  0  0  0  0  0  0
   10.7257   13.2108    5.3174 N   0  0  0  0  0  0  0  0  0  0  0  0
  1  2  1  0  0  0  0
  1  6  1  0  0  0  0
  2  3  2  0  0  0  0
  3  4  1  0  0  0  0
  4  5  2  0  0  0  0
  4 10  1  0  0  0  0
  5  6  1  0  0  0  0
  5  8  1  0  0  0  0
  6  7  2  0  0  0  0
  8  9  1  0  0  0  0
  9 10  2  0  0  0  0
M  END
>  <CHROM.1>
11.38814919,11.57122253,6.60131782,0.48300394,-1.25520972,1.13269621

>  <Name>
ligand

>  <RI>
0

>  <Rbt.Current_Directory>
/home/itssahil/PROJECTS/Mol_Feturizer/New_Systems/rnas/2EEU

>  <Rbt.Executable>
rbdock ($Id: //depot/dev/client3/rdock/2013.1/src/exe/rbdock.cxx#4 $)

>  <Rbt.Library>
libRbt.so (2013.1, Build901 2013/11/27)

>  <Rbt.Parameter_File>
/export/apps/rDock/src/rDock_2013.1_src/data/scripts/dock_solv.prm

>  <Rbt.Receptor>
prm/pocket_docking_4.prm

>  <SCORE>
-18.5636

>  <SCORE.INTER>
-18.5636

>  <SCORE.INTER.CONST>
1

>  <SCORE.INTER.POLAR>
0

>  <SCORE.INTER.ROT>
0

>  <SCORE.INTER.SOLV>
3.52447

>  <SCORE.INTER.VDW>
-17.1505

>  <SCORE.INTER.norm>
-1.85636

>  <SCORE.INTRA>
0

>  <SCORE.INTRA.DIHEDRAL>
0

>  <SCORE.INTRA.DIHEDRAL.0>
0

>  <SCORE.INTRA.POLAR>
0

>  <SCORE.INTRA.POLAR.0>
0

>  <SCORE.INTRA.REPUL>
0

>  <SCORE.INTRA.REPUL.0>
0

>  <SCORE.INTRA.SOLV>
0

>  <SCORE.INTRA.SOLV.lig_0>
-4.28148

>  <SCORE.INTRA.VDW>
0

>  <SCORE.INTRA.VDW.0>
0

>  <SCORE.INTRA.norm>
0

>  <SCORE.RESTR>
0

>  <SCORE.RESTR.CAVITY>
0

>  <SCORE.RESTR.norm>
0

>  <SCORE.SYSTEM>
0

>  <SCORE.SYSTEM.CONST>
0

>  <SCORE.SYSTEM.DIHEDRAL>
0

>  <SCORE.SYSTEM.SOLV>
0

>  <SCORE.SYSTEM.norm>
0

>  <SCORE.heavy>
10

>  <SCORE.norm>
-1.85636

>  <RMSD>
0.893

$$$$
ligand
 OpenBabel11021811423D
libRbt.so/2013.1/901 2013/11/27
 10 11  0  0  0  0  0  0  0  0999 V2000
   11.9170   11.3269    8.4018 N   0  0  0  0  0  0  0  0  0  0  0  0
   11.6900   12.6808    8.5466 C   0  0  0  0  0  0  0  0  0  0  0  0
   11.3183   13.4537    7.5187 N   0  0  0  0  0  0  0  0  0  0  0  0
   11.1968   12.7685    6.3468 C   0  0  0  0  0  0  0  0  0  0  0  0
   11.4108   11.4150    6.1344 C   0  0  0  0  0  0  0  0  0  0  0  0
   11.8032   10.5881    7.2219 C   0  0  0  0  0  0  0  0  0  0  0  0
   12.0418    9.3810    7.2588 O   0  0  0  0  0  0  0  0  0  0  0  0
   11.1778   11.1418    4.8080 N   0  0  0  0  0  0  0  0  0  0  0  0
   10.8277   12.3149    4.2303 C   0  0  0  0  0  0  0  0  0  0  0  0
   10.8310   13.3370    5.1507 N   0  0  0  0  0  0  0  0  0  0  0  0
  1  2  1  0  0  0  0
  1  6  1  0  0  0  0
  2  3  2  0  0  0  0
  3  4  1  0  0  0  0
  4  5  2  0  0  0  0
  4 10  1  0  0  0  0
  5  6  1  0  0  0  0
  5  8  1  0  0  0  0
  6  7  2  0  0  0  0
  8  9  1  0  0  0  0
  9 10  2  0  0  0  0
M  END
>  <CHROM.1>
11.43349993,11.79513264,6.57729368,0.17289659,-1.29009685,0.72565770

>  <Name>
ligand

>  <RI>
0

>  <Rbt.Current_Directory>
/home/itssahil/PROJECTS/Mol_Feturizer/New_Systems/rnas/2EEU

>  <Rbt.Executable>
rbdock ($Id: //depot/dev/client3/rdock/2013.1/src/exe/rbdock.cxx#4 $)

>  <Rbt.Library>
libRbt.so (2013.1, Build901 2013/11/27)

>  <Rbt.Parameter_File>
/export/apps/rDock/src/rDock_2013.1_src/data/scripts/dock_solv.prm

>  <Rbt.Receptor>
prm/blind_docking_80.prm

>  <SCORE>
-18.5018

>  <SCORE.INTER>
-18.5018

>  <SCORE.INTER.CONST>
1

>  <SCORE.INTER.POLAR>
0

>  <SCORE.INTER.ROT>
0

>  <SCORE.INTER.SOLV>
3.57976

>  <SCORE.INTER.VDW>
-17.1278

>  <SCORE.INTER.norm>
-1.85018

>  <SCORE.INTRA>
0

>  <SCORE.INTRA.DIHEDRAL>
0

>  <SCORE.INTRA.DIHEDRAL.0>
0

>  <SCORE.INTRA.POLAR>
0

>  <SCORE.INTRA.POLAR.0>
0

>  <SCORE.INTRA.REPUL>
0

>  <SCORE.INTRA.REPUL.0>
0

>  <SCORE.INTRA.SOLV>
0

>  <SCORE.INTRA.SOLV.lig_0>
-4.28148

>  <SCORE.INTRA.VDW>
0

>  <SCORE.INTRA.VDW.0>
0

>  <SCORE.INTRA.norm>
0

>  <SCORE.RESTR>
0

>  <SCORE.RESTR.CAVITY>
0

>  <SCORE.RESTR.norm>
0

>  <SCORE.SYSTEM>
0

>  <SCORE.SYSTEM.CONST>
0

>  <SCORE.SYSTEM.DIHEDRAL>
0

>  <SCORE.SYSTEM.SOLV>
0

>  <SCORE.SYSTEM.norm>
0

>  <SCORE.heavy>
10

>  <SCORE.norm>
-1.85018

>  <RMSD>
0.894

$$$$
ligand
 OpenBabel11021811423D
libRbt.so/2013.1/901 2013/11/27
 10 11  0  0  0  0  0  0  0  0999 V2000
   11.8236   10.9433    8.3882 N   0  0  0  0  0  0  0  0  0  0  0  0
   11.4707   12.2494    8.6626 C   0  0  0  0  0  0  0  0  0  0  0  0
   11.0844   13.0986    7.7026 N   0  0  0  0  0  0  0  0  0  0  0  0
   11.0830   12.5405    6.4593 C   0  0  0  0  0  0  0  0  0  0  0  0
   11.4263   11.2413    6.1169 C   0  0  0  0  0  0  0  0  0  0  0  0
   11.8351   10.3337    7.1315 C   0  0  0  0  0  0  0  0  0  0  0  0
   12.1774    9.1537    7.0537 O   0  0  0  0  0  0  0  0  0  0  0  0
   11.2854   11.0992    4.7574 N   0  0  0  0  0  0  0  0  0  0  0  0
   10.8624   12.2964    4.2882 C   0  0  0  0  0  0  0  0  0  0  0  0
   10.7291   13.2065    5.3108 N   0  0  0  0  0  0  0  0  0  0  0  0
  1  2  1  0  0  0  0
  1  6  1  0  0  0  0
  2  3  2  0  0  0  0
  3  4  1  0  0  0  0
  4  5  2  0  0  0  0
  4 10  1  0  0  0  0
  5  6  1  0  0  0  0
  5  8  1  0  0  0  0
  6  7  2  0  0  0  0
  8  9  1  0  0  0  0
  9 10  2  0  0  0  0
M  END
>  <CHROM.1>
11.39299684,11.57033496,6.59834360,0.49749979,-1.25337241,1.14560905

>  <Name>
ligand

>  <RI>
0

>  <Rbt.Current_Directory>
/home/itssahil/PROJECTS/Mol_Feturizer/New_Systems/rnas/2EEU

>  <Rbt.Executable>
rbdock ($Id: //depot/dev/client3/rdock/2013.1/src/exe/rbdock.cxx#4 $)

>  <Rbt.Library>
libRbt.so (2013.1, Build901 2013/11/27)

>  <Rbt.Parameter_File>
/export/apps/rDock/src/rDock_2013.1_src/data/scripts/dock_solv.prm

>  <Rbt.Receptor>
prm/blind_docking_40.prm

>  <SCORE>
-18.5494

>  <SCORE.INTER>
-18.5494

>  <SCORE.INTER.CONST>
1

>  <SCORE.INTER.POLAR>
0

>  <SCORE.INTER.ROT>
0

>  <SCORE.INTER.SOLV>
3.51408

>  <SCORE.INTER.VDW>
-17.1376

>  <SCORE.INTER.norm>
-1.85494

>  <SCORE.INTRA>
0

>  <SCORE.INTRA.DIHEDRAL>
0

>  <SCORE.INTRA.DIHEDRAL.0>
0

>  <SCORE.INTRA.POLAR>
0

>  <SCORE.INTRA.POLAR.0>
0

>  <SCORE.INTRA.REPUL>
0

>  <SCORE.INTRA.REPUL.0>
0

>  <SCORE.INTRA.SOLV>
0

>  <SCORE.INTRA.SOLV.lig_0>
-4.28148

>  <SCORE.INTRA.VDW>
0

>  <SCORE.INTRA.VDW.0>
0

>  <SCORE.INTRA.norm>
0

>  <SCORE.RESTR>
0

>  <SCORE.RESTR.CAVITY>
0

>  <SCORE.RESTR.norm>
0

>  <SCORE.SYSTEM>
0

>  <SCORE.SYSTEM.CONST>
0

>  <SCORE.SYSTEM.DIHEDRAL>
0

>  <SCORE.SYSTEM.SOLV>
0

>  <SCORE.SYSTEM.norm>
0

>  <SCORE.heavy>
10

>  <SCORE.norm>
-1.85494

>  <RMSD>
0.895

$$$$
ligand
 OpenBabel11021811423D
libRbt.so/2013.1/901 2013/11/27
 10 11  0  0  0  0  0  0  0  0999 V2000
   11.8577   10.9751    8.3755 N   0  0  0  0  0  0  0  0  0  0  0  0
   11.5115   12.2836    8.6469 C   0  0  0  0  0  0  0  0  0  0  0  0
   11.1104   13.1269    7.6876 N   0  0  0  0  0  0  0  0  0  0  0  0
   11.0873   12.5603    6.4484 C   0  0  0  0  0  0  0  0  0  0  0  0
   11.4227   11.2582    6.1092 C   0  0  0  0  0  0  0  0  0  0  0  0
   11.8471   10.3569    7.1231 C   0  0  0  0  0  0  0  0  0  0  0  0
   12.1862    9.1758    7.0476 O   0  0  0  0  0  0  0  0  0  0  0  0
   11.2587   11.1071    4.7533 N   0  0  0  0  0  0  0  0  0  0  0  0
   10.8298   12.3018    4.2831 C   0  0  0  0  0  0  0  0  0  0  0  0
   10.7151   13.2190    5.3015 N   0  0  0  0  0  0  0  0  0  0  0  0
  1  2  1  0  0  0  0
  1  6  1  0  0  0  0
  2  3  2  0  0  0  0
  3  4  1  0  0  0  0
  4  5  2  0  0  0  0
  4 10  1  0  0  0  0
  5  6  1  0  0  0  0
  5  8  1  0  0  0  0
  6  7  2  0  0  0  0
  8  9  1  0  0  0  0
  9 10  2  0  0  0  0
M  END
>  <CHROM.1>
11.39802880,11.59061056,6.58889796,0.44719782,-1.24747970,1.09100886

>  <Name>
ligand

>  <RI>
0

>  <Rbt.Current_Directory>
/home/itssahil/PROJECTS/Mol_Feturizer/New_Systems/rnas/2EEU

>  <Rbt.Executable>
rbdock ($Id: //depot/dev/client3/rdock/2013.1/src/exe/rbdock.cxx#4 $)

>  <Rbt.Library>
libRbt.so (2013.1, Build901 2013/11/27)

>  <Rbt.Parameter_File>
/export/apps/rDock/src/rDock_2013.1_src/data/scripts/dock_solv.prm

>  <Rbt.Receptor>
prm/pocket_docking_5.prm

>  <SCORE>
-18.5855

>  <SCORE.INTER>
-18.5855

>  <SCORE.INTER.CONST>
1

>  <SCORE.INTER.POLAR>
0

>  <SCORE.INTER.ROT>
0

>  <SCORE.INTER.SOLV>
3.4839

>  <SCORE.INTER.VDW>
-17.1516

>  <SCORE.INTER.norm>
-1.85855

>  <SCORE.INTRA>
0

>  <SCORE.INTRA.DIHEDRAL>
0

>  <SCORE.INTRA.DIHEDRAL.0>
0

>  <SCORE.INTRA.POLAR>
0

>  <SCORE.INTRA.POLAR.0>
0

>  <SCORE.INTRA.REPUL>
0

>  <SCORE.INTRA.REPUL.0>
0

>  <SCORE.INTRA.SOLV>
0

>  <SCORE.INTRA.SOLV.lig_0>
-4.28148

>  <SCORE.INTRA.VDW>
0

>  <SCORE.INTRA.VDW.0>
0

>  <SCORE.INTRA.norm>
0

>  <SCORE.RESTR>
0

>  <SCORE.RESTR.CAVITY>
0

>  <SCORE.RESTR.norm>
0

>  <SCORE.SYSTEM>
0

>  <SCORE.SYSTEM.CONST>
0

>  <SCORE.SYSTEM.DIHEDRAL>
0

>  <SCORE.SYSTEM.SOLV>
0

>  <SCORE.SYSTEM.norm>
0

>  <SCORE.heavy>
10

>  <SCORE.norm>
-1.85855

>  <RMSD>
0.895

$$$$
ligand
 OpenBabel11021811423D
libRbt.so/2013.1/901 2013/11/27
 10 11  0  0  0  0  0  0  0  0999 V2000
   11.8722   10.9825    8.3692 N   0  0  0  0  0  0  0  0  0  0  0  0
   11.5513   12.2982    8.6372 C   0  0  0  0  0  0  0  0  0  0  0  0
   11.1555   13.1435    7.6776 N   0  0  0  0  0  0  0  0  0  0  0  0
   11.1105   12.5712    6.4415 C   0  0  0  0  0  0  0  0  0  0  0  0
   11.4200   11.2618    6.1059 C   0  0  0  0  0  0  0  0  0  0  0  0
   11.8387   10.3584    7.1202 C   0  0  0  0  0  0  0  0  0  0  0  0
   12.1565    9.1712    7.0475 O   0  0  0  0  0  0  0  0  0  0  0  0
   11.2402   11.1068    4.7523 N   0  0  0  0  0  0  0  0  0  0  0  0
   10.8274   12.3064    4.2802 C   0  0  0  0  0  0  0  0  0  0  0  0
   10.7385   13.2305    5.2949 N   0  0  0  0  0  0  0  0  0  0  0  0
  1  2  1  0  0  0  0
  1  6  1  0  0  0  0
  2  3  2  0  0  0  0
  3  4  1  0  0  0  0
  4  5  2  0  0  0  0
  4 10  1  0  0  0  0
  5  6  1  0  0  0  0
  5  8  1  0  0  0  0
  6  7  2  0  0  0  0
  8  9  1  0  0  0  0
  9 10  2  0  0  0  0
M  END
>  <CHROM.1>
11.40576193,11.59697807,6.58402877,0.39314578,-1.25786789,1.03459772

>  <Name>
ligand

>  <RI>
0

>  <Rbt.Current_Directory>
/home/itssahil/PROJECTS/Mol_Feturizer/New_Systems/rnas/2EEU

>  <Rbt.Executable>
rbdock ($Id: //depot/dev/client3/rdock/2013.1/src/exe/rbdock.cxx#4 $)

>  <Rbt.Library>
libRbt.so (2013.1, Build901 2013/11/27)

>  <Rbt.Parameter_File>
/export/apps/rDock/src/rDock_2013.1_src/data/scripts/dock_solv.prm

>  <Rbt.Receptor>
prm/pocket_docking_3.prm

>  <SCORE>
-18.5685

>  <SCORE.INTER>
-18.5685

>  <SCORE.INTER.CONST>
1

>  <SCORE.INTER.POLAR>
0

>  <SCORE.INTER.ROT>
0

>  <SCORE.INTER.SOLV>
3.51424

>  <SCORE.INTER.VDW>
-17.1504

>  <SCORE.INTER.norm>
-1.85685

>  <SCORE.INTRA>
0

>  <SCORE.INTRA.DIHEDRAL>
0

>  <SCORE.INTRA.DIHEDRAL.0>
0

>  <SCORE.INTRA.POLAR>
0

>  <SCORE.INTRA.POLAR.0>
0

>  <SCORE.INTRA.REPUL>
0

>  <SCORE.INTRA.REPUL.0>
0

>  <SCORE.INTRA.SOLV>
0

>  <SCORE.INTRA.SOLV.lig_0>
-4.28148

>  <SCORE.INTRA.VDW>
0

>  <SCORE.INTRA.VDW.0>
0

>  <SCORE.INTRA.norm>
0

>  <SCORE.RESTR>
0

>  <SCORE.RESTR.CAVITY>
0

>  <SCORE.RESTR.norm>
0

>  <SCORE.SYSTEM>
0

>  <SCORE.SYSTEM.CONST>
0

>  <SCORE.SYSTEM.DIHEDRAL>
0

>  <SCORE.SYSTEM.SOLV>
0

>  <SCORE.SYSTEM.norm>
0

>  <SCORE.heavy>
10

>  <SCORE.norm>
-1.85685

>  <RMSD>
0.896

$$$$
ligand
 OpenBabel11021811423D
libRbt.so/2013.1/901 2013/11/27
 10 11  0  0  0  0  0  0  0  0999 V2000
   11.8523   10.9311    8.3862 N   0  0  0  0  0  0  0  0  0  0  0  0
   11.5650   12.2555    8.6488 C   0  0  0  0  0  0  0  0  0  0  0  0
   11.1914   13.1069    7.6855 N   0  0  0  0  0  0  0  0  0  0  0  0
   11.1324   12.5310    6.4517 C   0  0  0  0  0  0  0  0  0  0  0  0
   11.4086   11.2128    6.1215 C   0  0  0  0  0  0  0  0  0  0  0  0
   11.8036   10.3030    7.1396 C   0  0  0  0  0  0  0  0  0  0  0  0
   12.0910    9.1079    7.0719 O   0  0  0  0  0  0  0  0  0  0  0  0
   11.2257   11.0570    4.7685 N   0  0  0  0  0  0  0  0  0  0  0  0
   10.8439   12.2649    4.2913 C   0  0  0  0  0  0  0  0  0  0  0  0
   10.7780   13.1950    5.3023 N   0  0  0  0  0  0  0  0  0  0  0  0
  1  2  1  0  0  0  0
  1  6  1  0  0  0  0
  2  3  2  0  0  0  0
  3  4  1  0  0  0  0
  4  5  2  0  0  0  0
  4 10  1  0  0  0  0
  5  6  1  0  0  0  0
  5  8  1  0  0  0  0
  6  7  2  0  0  0  0
  8  9  1  0  0  0  0
  9 10  2  0  0  0  0
M  END
>  <CHROM.1>
11.40269568,11.55010664,6.59829130,0.34922599,-1.27982240,0.98868133

>  <Name>
ligand

>  <RI>
0

>  <Rbt.Current_Directory>
/home/itssahil/PROJECTS/Mol_Feturizer/New_Systems/rnas/2EEU

>  <Rbt.Executable>
rbdock ($Id: //depot/dev/client3/rdock/2013.1/src/exe/rbdock.cxx#4 $)

>  <Rbt.Library>
libRbt.so (2013.1, Build901 2013/11/27)

>  <Rbt.Parameter_File>
/export/apps/rDock/src/rDock_2013.1_src/data/scripts/dock_solv.prm

>  <Rbt.Receptor>
prm/pocket_docking_5.prm

>  <SCORE>
-18.5718

>  <SCORE.INTER>
-18.5718

>  <SCORE.INTER.CONST>
1

>  <SCORE.INTER.POLAR>
0

>  <SCORE.INTER.ROT>
0

>  <SCORE.INTER.SOLV>
3.58968

>  <SCORE.INTER.VDW>
-17.1778

>  <SCORE.INTER.norm>
-1.85718

>  <SCORE.INTRA>
0

>  <SCORE.INTRA.DIHEDRAL>
0

>  <SCORE.INTRA.DIHEDRAL.0>
0

>  <SCORE.INTRA.POLAR>
0

>  <SCORE.INTRA.POLAR.0>
0

>  <SCORE.INTRA.REPUL>
0

>  <SCORE.INTRA.REPUL.0>
0

>  <SCORE.INTRA.SOLV>
0

>  <SCORE.INTRA.SOLV.lig_0>
-4.28148

>  <SCORE.INTRA.VDW>
0

>  <SCORE.INTRA.VDW.0>
0

>  <SCORE.INTRA.norm>
0

>  <SCORE.RESTR>
0

>  <SCORE.RESTR.CAVITY>
0

>  <SCORE.RESTR.norm>
0

>  <SCORE.SYSTEM>
0

>  <SCORE.SYSTEM.CONST>
0

>  <SCORE.SYSTEM.DIHEDRAL>
0

>  <SCORE.SYSTEM.SOLV>
0

>  <SCORE.SYSTEM.norm>
0

>  <SCORE.heavy>
10

>  <SCORE.norm>
-1.85718

>  <RMSD>
0.896

$$$$
ligand
 OpenBabel11021811423D
libRbt.so/2013.1/901 2013/11/27
 10 11  0  0  0  0  0  0  0  0999 V2000
   11.8443   11.0173    8.3886 N   0  0  0  0  0  0  0  0  0  0  0  0
   11.4752   12.3251    8.6315 C   0  0  0  0  0  0  0  0  0  0  0  0
   11.0749   13.1449    7.6517 N   0  0  0  0  0  0  0  0  0  0  0  0
   11.0773   12.5558    6.4228 C   0  0  0  0  0  0  0  0  0  0  0  0
   11.4365   11.2530    6.1119 C   0  0  0  0  0  0  0  0  0  0  0  0
   11.8601   10.3765    7.1476 C   0  0  0  0  0  0  0  0  0  0  0  0
   12.2175    9.1995    7.0983 O   0  0  0  0  0  0  0  0  0  0  0  0
   11.2935   11.0750    4.7568 N   0  0  0  0  0  0  0  0  0  0  0  0
   10.8535   12.2545    4.2592 C   0  0  0  0  0  0  0  0  0  0  0  0
   10.7113   13.1881    5.2592 N   0  0  0  0  0  0  0  0  0  0  0  0
  1  2  1  0  0  0  0
  1  6  1  0  0  0  0
  2  3  2  0  0  0  0
  3  4  1  0  0  0  0
  4  5  2  0  0  0  0
  4 10  1  0  0  0  0
  5  6  1  0  0  0  0
  5  8  1  0  0  0  0
  6  7  2  0  0  0  0
  8  9  1  0  0  0  0
  9 10  2  0  0  0  0
M  END
>  <CHROM.1>
11.40028766,11.59356492,6.58508443,0.50588603,-1.24025195,1.12848644

>  <Name>
ligand

>  <RI>
0

>  <Rbt.Current_Directory>
/home/itssahil/PROJECTS/Mol_Feturizer/New_Systems/rnas/2EEU

>  <Rbt.Executable>
rbdock ($Id: //depot/dev/client3/rdock/2013.1/src/exe/rbdock.cxx#4 $)

>  <Rbt.Library>
libRbt.so (2013.1, Build901 2013/11/27)

>  <Rbt.Parameter_File>
/export/apps/rDock/src/rDock_2013.1_src/data/scripts/dock_solv.prm

>  <Rbt.Receptor>
prm/blind_docking_100.prm

>  <SCORE>
-18.5042

>  <SCORE.INTER>
-18.5042

>  <SCORE.INTER.CONST>
1

>  <SCORE.INTER.POLAR>
0

>  <SCORE.INTER.ROT>
0

>  <SCORE.INTER.SOLV>
3.44821

>  <SCORE.INTER.VDW>
-17.0856

>  <SCORE.INTER.norm>
-1.85042

>  <SCORE.INTRA>
0

>  <SCORE.INTRA.DIHEDRAL>
0

>  <SCORE.INTRA.DIHEDRAL.0>
0

>  <SCORE.INTRA.POLAR>
0

>  <SCORE.INTRA.POLAR.0>
0

>  <SCORE.INTRA.REPUL>
0

>  <SCORE.INTRA.REPUL.0>
0

>  <SCORE.INTRA.SOLV>
0

>  <SCORE.INTRA.SOLV.lig_0>
-4.28148

>  <SCORE.INTRA.VDW>
0

>  <SCORE.INTRA.VDW.0>
0

>  <SCORE.INTRA.norm>
0

>  <SCORE.RESTR>
0

>  <SCORE.RESTR.CAVITY>
0

>  <SCORE.RESTR.norm>
0

>  <SCORE.SYSTEM>
0

>  <SCORE.SYSTEM.CONST>
0

>  <SCORE.SYSTEM.DIHEDRAL>
0

>  <SCORE.SYSTEM.SOLV>
0

>  <SCORE.SYSTEM.norm>
0

>  <SCORE.heavy>
10

>  <SCORE.norm>
-1.85042

>  <RMSD>
0.897

$$$$
ligand
 OpenBabel11021811423D
libRbt.so/2013.1/901 2013/11/27
 10 11  0  0  0  0  0  0  0  0999 V2000
   11.8115   11.0238    8.3999 N   0  0  0  0  0  0  0  0  0  0  0  0
   11.4892   12.3466    8.6275 C   0  0  0  0  0  0  0  0  0  0  0  0
   11.1080   13.1660    7.6397 N   0  0  0  0  0  0  0  0  0  0  0  0
   11.0792   12.5602    6.4192 C   0  0  0  0  0  0  0  0  0  0  0  0
   11.3912   11.2418    6.1237 C   0  0  0  0  0  0  0  0  0  0  0  0
   11.7943   10.3658    7.1680 C   0  0  0  0  0  0  0  0  0  0  0  0
   12.1112    9.1767    7.1322 O   0  0  0  0  0  0  0  0  0  0  0  0
   11.2300   11.0500    4.7726 N   0  0  0  0  0  0  0  0  0  0  0  0
   10.8257   12.2368    4.2622 C   0  0  0  0  0  0  0  0  0  0  0  0
   10.7243   13.1885    5.2500 N   0  0  0  0  0  0  0  0  0  0  0  0
  1  2  1  0  0  0  0
  1  6  1  0  0  0  0
  2  3  2  0  0  0  0
  3  4  1  0  0  0  0
  4  5  2  0  0  0  0
  4 10  1  0  0  0  0
  5  6  1  0  0  0  0
  5  8  1  0  0  0  0
  6  7  2  0  0  0  0
  8  9  1  0  0  0  0
  9 10  2  0  0  0  0
M  END
>  <CHROM.1>
11.37090208,11.58984848,6.59233655,0.43004832,-1.26616720,1.04245875

>  <Name>
ligand

>  <RI>
0

>  <Rbt.Current_Directory>
/home/itssahil/PROJECTS/Mol_Feturizer/New_Systems/rnas/2EEU

>  <Rbt.Executable>
rbdock ($Id: //depot/dev/client3/rdock/2013.1/src/exe/rbdock.cxx#4 $)

>  <Rbt.Library>
libRbt.so (2013.1, Build901 2013/11/27)

>  <Rbt.Parameter_File>
/export/apps/rDock/src/rDock_2013.1_src/data/scripts/dock_solv.prm

>  <Rbt.Receptor>
prm/pocket_docking_3.prm

>  <SCORE>
-18.5629

>  <SCORE.INTER>
-18.5629

>  <SCORE.INTER.CONST>
1

>  <SCORE.INTER.POLAR>
0

>  <SCORE.INTER.ROT>
0

>  <SCORE.INTER.SOLV>
3.55591

>  <SCORE.INTER.VDW>
-17.1606

>  <SCORE.INTER.norm>
-1.85629

>  <SCORE.INTRA>
0

>  <SCORE.INTRA.DIHEDRAL>
0

>  <SCORE.INTRA.DIHEDRAL.0>
0

>  <SCORE.INTRA.POLAR>
0

>  <SCORE.INTRA.POLAR.0>
0

>  <SCORE.INTRA.REPUL>
0

>  <SCORE.INTRA.REPUL.0>
0

>  <SCORE.INTRA.SOLV>
0

>  <SCORE.INTRA.SOLV.lig_0>
-4.28148

>  <SCORE.INTRA.VDW>
0

>  <SCORE.INTRA.VDW.0>
0

>  <SCORE.INTRA.norm>
0

>  <SCORE.RESTR>
0

>  <SCORE.RESTR.CAVITY>
0

>  <SCORE.RESTR.norm>
0

>  <SCORE.SYSTEM>
0

>  <SCORE.SYSTEM.CONST>
0

>  <SCORE.SYSTEM.DIHEDRAL>
0

>  <SCORE.SYSTEM.SOLV>
0

>  <SCORE.SYSTEM.norm>
0

>  <SCORE.heavy>
10

>  <SCORE.norm>
-1.85629

>  <RMSD>
0.897

$$$$
ligand
 OpenBabel11021811423D
libRbt.so/2013.1/901 2013/11/27
 10 11  0  0  0  0  0  0  0  0999 V2000
   11.8114   11.0375    8.3868 N   0  0  0  0  0  0  0  0  0  0  0  0
   11.4727   12.3531    8.6320 C   0  0  0  0  0  0  0  0  0  0  0  0
   11.0921   13.1838    7.6536 N   0  0  0  0  0  0  0  0  0  0  0  0
   11.0813   12.5971    6.4236 C   0  0  0  0  0  0  0  0  0  0  0  0
   11.4102   11.2870    6.1104 C   0  0  0  0  0  0  0  0  0  0  0  0
   11.8129   10.3989    7.1446 C   0  0  0  0  0  0  0  0  0  0  0  0
   12.1429    9.2140    7.0932 O   0  0  0  0  0  0  0  0  0  0  0  0
   11.2637   11.1149    4.7549 N   0  0  0  0  0  0  0  0  0  0  0  0
   10.8515   12.3052    4.2594 C   0  0  0  0  0  0  0  0  0  0  0  0
   10.7306   13.2400    5.2610 N   0  0  0  0  0  0  0  0  0  0  0  0
  1  2  1  0  0  0  0
  1  6  1  0  0  0  0
  2  3  2  0  0  0  0
  3  4  1  0  0  0  0
  4  5  2  0  0  0  0
  4 10  1  0  0  0  0
  5  6  1  0  0  0  0
  5  8  1  0  0  0  0
  6  7  2  0  0  0  0
  8  9  1  0  0  0  0
  9 10  2  0  0  0  0
M  END
>  <CHROM.1>
11.38173921,11.62734378,6.58421732,0.47455090,-1.26131956,1.10063779

>  <Name>
ligand

>  <RI>
0

>  <Rbt.Current_Directory>
/home/itssahil/PROJECTS/Mol_Feturizer/New_Systems/rnas/2EEU

>  <Rbt.Executable>
rbdock ($Id: //depot/dev/client3/rdock/2013.1/src/exe/rbdock.cxx#4 $)

>  <Rbt.Library>
libRbt.so (2013.1, Build901 2013/11/27)

>  <Rbt.Parameter_File>
/export/apps/rDock/src/rDock_2013.1_src/data/scripts/dock_solv.prm

>  <Rbt.Receptor>
prm/pocket_docking_6.prm

>  <SCORE>
-18.5806

>  <SCORE.INTER>
-18.5806

>  <SCORE.INTER.CONST>
1

>  <SCORE.INTER.POLAR>
0

>  <SCORE.INTER.ROT>
0

>  <SCORE.INTER.SOLV>
3.53716

>  <SCORE.INTER.VDW>
-17.1661

>  <SCORE.INTER.norm>
-1.85806

>  <SCORE.INTRA>
0

>  <SCORE.INTRA.DIHEDRAL>
0

>  <SCORE.INTRA.DIHEDRAL.0>
0

>  <SCORE.INTRA.POLAR>
0

>  <SCORE.INTRA.POLAR.0>
0

>  <SCORE.INTRA.REPUL>
0

>  <SCORE.INTRA.REPUL.0>
0

>  <SCORE.INTRA.SOLV>
0

>  <SCORE.INTRA.SOLV.lig_0>
-4.28148

>  <SCORE.INTRA.VDW>
0

>  <SCORE.INTRA.VDW.0>
0

>  <SCORE.INTRA.norm>
0

>  <SCORE.RESTR>
0

>  <SCORE.RESTR.CAVITY>
0

>  <SCORE.RESTR.norm>
0

>  <SCORE.SYSTEM>
0

>  <SCORE.SYSTEM.CONST>
0

>  <SCORE.SYSTEM.DIHEDRAL>
0

>  <SCORE.SYSTEM.SOLV>
0

>  <SCORE.SYSTEM.norm>
0

>  <SCORE.heavy>
10

>  <SCORE.norm>
-1.85806

>  <RMSD>
0.899

$$$$
ligand
 OpenBabel11021811423D
libRbt.so/2013.1/901 2013/11/27
 10 11  0  0  0  0  0  0  0  0999 V2000
   11.8445   10.9713    8.3765 N   0  0  0  0  0  0  0  0  0  0  0  0
   11.4911   12.2783    8.6461 C   0  0  0  0  0  0  0  0  0  0  0  0
   11.0985   13.1219    7.6837 N   0  0  0  0  0  0  0  0  0  0  0  0
   11.0915   12.5574    6.4433 C   0  0  0  0  0  0  0  0  0  0  0  0
   11.4349   11.2570    6.1059 C   0  0  0  0  0  0  0  0  0  0  0  0
   11.8505   10.3552    7.1231 C   0  0  0  0  0  0  0  0  0  0  0  0
   12.1941    9.1754    7.0496 O   0  0  0  0  0  0  0  0  0  0  0  0
   11.2872   11.1076    4.7478 N   0  0  0  0  0  0  0  0  0  0  0  0
   10.8600   12.3017    4.2747 C   0  0  0  0  0  0  0  0  0  0  0  0
   10.7305   13.2169    5.2933 N   0  0  0  0  0  0  0  0  0  0  0  0
  1  2  1  0  0  0  0
  1  6  1  0  0  0  0
  2  3  2  0  0  0  0
  3  4  1  0  0  0  0
  4  5  2  0  0  0  0
  4 10  1  0  0  0  0
  5  6  1  0  0  0  0
  5  8  1  0  0  0  0
  6  7  2  0  0  0  0
  8  9  1  0  0  0  0
  9 10  2  0  0  0  0
M  END
>  <CHROM.1>
11.40366510,11.58843103,6.58577786,0.48444181,-1.24981458,1.12802470

>  <Name>
ligand

>  <RI>
0

>  <Rbt.Current_Directory>
/home/itssahil/PROJECTS/Mol_Feturizer/New_Systems/rnas/2EEU

>  <Rbt.Executable>
rbdock ($Id: //depot/dev/client3/rdock/2013.1/src/exe/rbdock.cxx#4 $)

>  <Rbt.Library>
libRbt.so (2013.1, Build901 2013/11/27)

>  <Rbt.Parameter_File>
/export/apps/rDock/src/rDock_2013.1_src/data/scripts/dock_solv.prm

>  <Rbt.Receptor>
prm/pocket_docking_7.prm

>  <SCORE>
-18.5749

>  <SCORE.INTER>
-18.5749

>  <SCORE.INTER.CONST>
1

>  <SCORE.INTER.POLAR>
0

>  <SCORE.INTER.ROT>
0

>  <SCORE.INTER.SOLV>
3.48821

>  <SCORE.INTER.VDW>
-17.146

>  <SCORE.INTER.norm>
-1.85749

>  <SCORE.INTRA>
0

>  <SCORE.INTRA.DIHEDRAL>
0

>  <SCORE.INTRA.DIHEDRAL.0>
0

>  <SCORE.INTRA.POLAR>
0

>  <SCORE.INTRA.POLAR.0>
0

>  <SCORE.INTRA.REPUL>
0

>  <SCORE.INTRA.REPUL.0>
0

>  <SCORE.INTRA.SOLV>
0

>  <SCORE.INTRA.SOLV.lig_0>
-4.28148

>  <SCORE.INTRA.VDW>
0

>  <SCORE.INTRA.VDW.0>
0

>  <SCORE.INTRA.norm>
0

>  <SCORE.RESTR>
0

>  <SCORE.RESTR.CAVITY>
0

>  <SCORE.RESTR.norm>
0

>  <SCORE.SYSTEM>
0

>  <SCORE.SYSTEM.CONST>
0

>  <SCORE.SYSTEM.DIHEDRAL>
0

>  <SCORE.SYSTEM.SOLV>
0

>  <SCORE.SYSTEM.norm>
0

>  <SCORE.heavy>
10

>  <SCORE.norm>
-1.85749

>  <RMSD>
0.899

$$$$
ligand
 OpenBabel11021811423D
libRbt.so/2013.1/901 2013/11/27
 10 11  0  0  0  0  0  0  0  0999 V2000
   11.8217   11.0205    8.3807 N   0  0  0  0  0  0  0  0  0  0  0  0
   11.4863   12.3355    8.6334 C   0  0  0  0  0  0  0  0  0  0  0  0
   11.1022   13.1712    7.6606 N   0  0  0  0  0  0  0  0  0  0  0  0
   11.0844   12.5900    6.4280 C   0  0  0  0  0  0  0  0  0  0  0  0
   11.4098   11.2807    6.1074 C   0  0  0  0  0  0  0  0  0  0  0  0
   11.8161   10.3874    7.1357 C   0  0  0  0  0  0  0  0  0  0  0  0
   12.1439    9.2022    7.0774 O   0  0  0  0  0  0  0  0  0  0  0  0
   11.2564   11.1149    4.7519 N   0  0  0  0  0  0  0  0  0  0  0  0
   10.8437   12.3081    4.2637 C   0  0  0  0  0  0  0  0  0  0  0  0
   10.7291   13.2386    5.2701 N   0  0  0  0  0  0  0  0  0  0  0  0
  1  2  1  0  0  0  0
  1  6  1  0  0  0  0
  2  3  2  0  0  0  0
  3  4  1  0  0  0  0
  4  5  2  0  0  0  0
  4 10  1  0  0  0  0
  5  6  1  0  0  0  0
  5  8  1  0  0  0  0
  6  7  2  0  0  0  0
  8  9  1  0  0  0  0
  9 10  2  0  0  0  0
M  END
>  <CHROM.1>
11.38415829,11.61901306,6.58287108,0.45791962,-1.26047729,1.08924183

>  <Name>
ligand

>  <RI>
0

>  <Rbt.Current_Directory>
/home/itssahil/PROJECTS/Mol_Feturizer/New_Systems/rnas/2EEU

>  <Rbt.Executable>
rbdock ($Id: //depot/dev/client3/rdock/2013.1/src/exe/rbdock.cxx#4 $)

>  <Rbt.Library>
libRbt.so (2013.1, Build901 2013/11/27)

>  <Rbt.Parameter_File>
/export/apps/rDock/src/rDock_2013.1_src/data/scripts/dock_solv.prm

>  <Rbt.Receptor>
prm/pocket_docking_7.prm

>  <SCORE>
-18.5809

>  <SCORE.INTER>
-18.5809

>  <SCORE.INTER.CONST>
1

>  <SCORE.INTER.POLAR>
0

>  <SCORE.INTER.ROT>
0

>  <SCORE.INTER.SOLV>
3.53636

>  <SCORE.INTER.VDW>
-17.1661

>  <SCORE.INTER.norm>
-1.85809

>  <SCORE.INTRA>
0

>  <SCORE.INTRA.DIHEDRAL>
0

>  <SCORE.INTRA.DIHEDRAL.0>
0

>  <SCORE.INTRA.POLAR>
0

>  <SCORE.INTRA.POLAR.0>
0

>  <SCORE.INTRA.REPUL>
0

>  <SCORE.INTRA.REPUL.0>
0

>  <SCORE.INTRA.SOLV>
0

>  <SCORE.INTRA.SOLV.lig_0>
-4.28148

>  <SCORE.INTRA.VDW>
0

>  <SCORE.INTRA.VDW.0>
0

>  <SCORE.INTRA.norm>
0

>  <SCORE.RESTR>
0

>  <SCORE.RESTR.CAVITY>
0

>  <SCORE.RESTR.norm>
0

>  <SCORE.SYSTEM>
0

>  <SCORE.SYSTEM.CONST>
0

>  <SCORE.SYSTEM.DIHEDRAL>
0

>  <SCORE.SYSTEM.SOLV>
0

>  <SCORE.SYSTEM.norm>
0

>  <SCORE.heavy>
10

>  <SCORE.norm>
-1.85809

>  <RMSD>
0.900

$$$$
ligand
 OpenBabel11021811423D
libRbt.so/2013.1/901 2013/11/27
 10 11  0  0  0  0  0  0  0  0999 V2000
   11.8212   11.0278    8.3817 N   0  0  0  0  0  0  0  0  0  0  0  0
   11.4893   12.3444    8.6303 C   0  0  0  0  0  0  0  0  0  0  0  0
   11.1084   13.1784    7.6548 N   0  0  0  0  0  0  0  0  0  0  0  0
   11.0901   12.5938    6.4239 C   0  0  0  0  0  0  0  0  0  0  0  0
   11.4119   11.2826    6.1073 C   0  0  0  0  0  0  0  0  0  0  0  0
   11.8148   10.3911    7.1385 C   0  0  0  0  0  0  0  0  0  0  0  0
   12.1393    9.2049    7.0839 O   0  0  0  0  0  0  0  0  0  0  0  0
   11.2592   11.1134    4.7522 N   0  0  0  0  0  0  0  0  0  0  0  0
   10.8503   12.3064    4.2602 C   0  0  0  0  0  0  0  0  0  0  0  0
   10.7375   13.2401    5.2638 N   0  0  0  0  0  0  0  0  0  0  0  0
  1  2  1  0  0  0  0
  1  6  1  0  0  0  0
  2  3  2  0  0  0  0
  3  4  1  0  0  0  0
  4  5  2  0  0  0  0
  4 10  1  0  0  0  0
  5  6  1  0  0  0  0
  5  8  1  0  0  0  0
  6  7  2  0  0  0  0
  8  9  1  0  0  0  0
  9 10  2  0  0  0  0
M  END
>  <CHROM.1>
11.38687044,11.62240175,6.58178294,0.45600935,-1.26340077,1.08456700

>  <Name>
ligand

>  <RI>
0

>  <Rbt.Current_Directory>
/home/itssahil/PROJECTS/Mol_Feturizer/New_Systems/rnas/2EEU

>  <Rbt.Executable>
rbdock ($Id: //depot/dev/client3/rdock/2013.1/src/exe/rbdock.cxx#4 $)

>  <Rbt.Library>
libRbt.so (2013.1, Build901 2013/11/27)

>  <Rbt.Parameter_File>
/export/apps/rDock/src/rDock_2013.1_src/data/scripts/dock_solv.prm

>  <Rbt.Receptor>
prm/pocket_docking_8.prm

>  <SCORE>
-18.5857

>  <SCORE.INTER>
-18.5857

>  <SCORE.INTER.CONST>
1

>  <SCORE.INTER.POLAR>
0

>  <SCORE.INTER.ROT>
0

>  <SCORE.INTER.SOLV>
3.54252

>  <SCORE.INTER.VDW>
-17.1713

>  <SCORE.INTER.norm>
-1.85857

>  <SCORE.INTRA>
0

>  <SCORE.INTRA.DIHEDRAL>
0

>  <SCORE.INTRA.DIHEDRAL.0>
0

>  <SCORE.INTRA.POLAR>
0

>  <SCORE.INTRA.POLAR.0>
0

>  <SCORE.INTRA.REPUL>
0

>  <SCORE.INTRA.REPUL.0>
0

>  <SCORE.INTRA.SOLV>
0

>  <SCORE.INTRA.SOLV.lig_0>
-4.28148

>  <SCORE.INTRA.VDW>
0

>  <SCORE.INTRA.VDW.0>
0

>  <SCORE.INTRA.norm>
0

>  <SCORE.RESTR>
0

>  <SCORE.RESTR.CAVITY>
0

>  <SCORE.RESTR.norm>
0

>  <SCORE.SYSTEM>
0

>  <SCORE.SYSTEM.CONST>
0

>  <SCORE.SYSTEM.DIHEDRAL>
0

>  <SCORE.SYSTEM.SOLV>
0

>  <SCORE.SYSTEM.norm>
0

>  <SCORE.heavy>
10

>  <SCORE.norm>
-1.85857

>  <RMSD>
0.900

$$$$
ligand
 OpenBabel11021811423D
libRbt.so/2013.1/901 2013/11/27
 10 11  0  0  0  0  0  0  0  0999 V2000
   11.8973   10.9422    8.3756 N   0  0  0  0  0  0  0  0  0  0  0  0
   11.5725   12.2592    8.6318 C   0  0  0  0  0  0  0  0  0  0  0  0
   11.1696   13.0935    7.6654 N   0  0  0  0  0  0  0  0  0  0  0  0
   11.1218   12.5087    6.4353 C   0  0  0  0  0  0  0  0  0  0  0  0
   11.4350   11.1973    6.1114 C   0  0  0  0  0  0  0  0  0  0  0  0
   11.8612   10.3055    7.1329 C   0  0  0  0  0  0  0  0  0  0  0  0
   12.1833    9.1190    7.0707 O   0  0  0  0  0  0  0  0  0  0  0  0
   11.2505   11.0281    4.7602 N   0  0  0  0  0  0  0  0  0  0  0  0
   10.8312   12.2214    4.2778 C   0  0  0  0  0  0  0  0  0  0  0  0
   10.7428   13.1553    5.2837 N   0  0  0  0  0  0  0  0  0  0  0  0
  1  2  1  0  0  0  0
  1  6  1  0  0  0  0
  2  3  2  0  0  0  0
  3  4  1  0  0  0  0
  4  5  2  0  0  0  0
  4 10  1  0  0  0  0
  5  6  1  0  0  0  0
  5  8  1  0  0  0  0
  6  7  2  0  0  0  0
  8  9  1  0  0  0  0
  9 10  2  0  0  0  0
M  END
>  <CHROM.1>
11.42143499,11.53711531,6.58623441,0.38842544,-1.25253943,1.02017978

>  <Name>
ligand

>  <RI>
0

>  <Rbt.Current_Directory>
/home/itssahil/PROJECTS/Mol_Feturizer/New_Systems/rnas/2EEU

>  <Rbt.Executable>
rbdock ($Id: //depot/dev/client3/rdock/2013.1/src/exe/rbdock.cxx#4 $)

>  <Rbt.Library>
libRbt.so (2013.1, Build901 2013/11/27)

>  <Rbt.Parameter_File>
/export/apps/rDock/src/rDock_2013.1_src/data/scripts/dock_solv.prm

>  <Rbt.Receptor>
prm/blind_docking_80.prm

>  <SCORE>
-18.5788

>  <SCORE.INTER>
-18.5788

>  <SCORE.INTER.CONST>
1

>  <SCORE.INTER.POLAR>
0

>  <SCORE.INTER.ROT>
0

>  <SCORE.INTER.SOLV>
3.4788

>  <SCORE.INTER.VDW>
-17.1454

>  <SCORE.INTER.norm>
-1.85788

>  <SCORE.INTRA>
0

>  <SCORE.INTRA.DIHEDRAL>
0

>  <SCORE.INTRA.DIHEDRAL.0>
0

>  <SCORE.INTRA.POLAR>
0

>  <SCORE.INTRA.POLAR.0>
0

>  <SCORE.INTRA.REPUL>
0

>  <SCORE.INTRA.REPUL.0>
0

>  <SCORE.INTRA.SOLV>
0

>  <SCORE.INTRA.SOLV.lig_0>
-4.28148

>  <SCORE.INTRA.VDW>
0

>  <SCORE.INTRA.VDW.0>
0

>  <SCORE.INTRA.norm>
0

>  <SCORE.RESTR>
0

>  <SCORE.RESTR.CAVITY>
0

>  <SCORE.RESTR.norm>
0

>  <SCORE.SYSTEM>
0

>  <SCORE.SYSTEM.CONST>
0

>  <SCORE.SYSTEM.DIHEDRAL>
0

>  <SCORE.SYSTEM.SOLV>
0

>  <SCORE.SYSTEM.norm>
0

>  <SCORE.heavy>
10

>  <SCORE.norm>
-1.85788

>  <RMSD>
0.901

$$$$
ligand
 OpenBabel11021811423D
libRbt.so/2013.1/901 2013/11/27
 10 11  0  0  0  0  0  0  0  0999 V2000
   11.8595   10.9686    8.3710 N   0  0  0  0  0  0  0  0  0  0  0  0
   11.5142   12.2775    8.6412 C   0  0  0  0  0  0  0  0  0  0  0  0
   11.1168   13.1212    7.6808 N   0  0  0  0  0  0  0  0  0  0  0  0
   11.0966   12.5545    6.4415 C   0  0  0  0  0  0  0  0  0  0  0  0
   11.4314   11.2520    6.1034 C   0  0  0  0  0  0  0  0  0  0  0  0
   11.8518   10.3502    7.1186 C   0  0  0  0  0  0  0  0  0  0  0  0
   12.1896    9.1687    7.0442 O   0  0  0  0  0  0  0  0  0  0  0  0
   11.2712   11.1009    4.7470 N   0  0  0  0  0  0  0  0  0  0  0  0
   10.8451   12.2961    4.2755 C   0  0  0  0  0  0  0  0  0  0  0  0
   10.7285   13.2135    5.2935 N   0  0  0  0  0  0  0  0  0  0  0  0
  1  2  1  0  0  0  0
  1  6  1  0  0  0  0
  2  3  2  0  0  0  0
  3  4  1  0  0  0  0
  4  5  2  0  0  0  0
  4 10  1  0  0  0  0
  5  6  1  0  0  0  0
  5  8  1  0  0  0  0
  6  7  2  0  0  0  0
  8  9  1  0  0  0  0
  9 10  2  0  0  0  0
M  END
>  <CHROM.1>
11.40575992,11.58442349,6.58299918,0.45356968,-1.24988655,1.09695118

>  <Name>
ligand

>  <RI>
0

>  <Rbt.Current_Directory>
/home/itssahil/PROJECTS/Mol_Feturizer/New_Systems/rnas/2EEU

>  <Rbt.Executable>
rbdock ($Id: //depot/dev/client3/rdock/2013.1/src/exe/rbdock.cxx#4 $)

>  <Rbt.Library>
libRbt.so (2013.1, Build901 2013/11/27)

>  <Rbt.Parameter_File>
/export/apps/rDock/src/rDock_2013.1_src/data/scripts/dock_solv.prm

>  <Rbt.Receptor>
prm/pocket_docking_5.prm

>  <SCORE>
-18.5756

>  <SCORE.INTER>
-18.5756

>  <SCORE.INTER.CONST>
1

>  <SCORE.INTER.POLAR>
0

>  <SCORE.INTER.ROT>
0

>  <SCORE.INTER.SOLV>
3.48685

>  <SCORE.INTER.VDW>
-17.146

>  <SCORE.INTER.norm>
-1.85756

>  <SCORE.INTRA>
0

>  <SCORE.INTRA.DIHEDRAL>
0

>  <SCORE.INTRA.DIHEDRAL.0>
0

>  <SCORE.INTRA.POLAR>
0

>  <SCORE.INTRA.POLAR.0>
0

>  <SCORE.INTRA.REPUL>
0

>  <SCORE.INTRA.REPUL.0>
0

>  <SCORE.INTRA.SOLV>
0

>  <SCORE.INTRA.SOLV.lig_0>
-4.28148

>  <SCORE.INTRA.VDW>
0

>  <SCORE.INTRA.VDW.0>
0

>  <SCORE.INTRA.norm>
0

>  <SCORE.RESTR>
0

>  <SCORE.RESTR.CAVITY>
0

>  <SCORE.RESTR.norm>
0

>  <SCORE.SYSTEM>
0

>  <SCORE.SYSTEM.CONST>
0

>  <SCORE.SYSTEM.DIHEDRAL>
0

>  <SCORE.SYSTEM.SOLV>
0

>  <SCORE.SYSTEM.norm>
0

>  <SCORE.heavy>
10

>  <SCORE.norm>
-1.85756

>  <RMSD>
0.901

$$$$
ligand
 OpenBabel11021811423D
libRbt.so/2013.1/901 2013/11/27
 10 11  0  0  0  0  0  0  0  0999 V2000
   11.8388   11.0249    8.3771 N   0  0  0  0  0  0  0  0  0  0  0  0
   11.5193   12.3447    8.6253 C   0  0  0  0  0  0  0  0  0  0  0  0
   11.1381   13.1797    7.6507 N   0  0  0  0  0  0  0  0  0  0  0  0
   11.1062   12.5926    6.4212 C   0  0  0  0  0  0  0  0  0  0  0  0
   11.4153   11.2783    6.1051 C   0  0  0  0  0  0  0  0  0  0  0  0
   11.8184   10.3857    7.1353 C   0  0  0  0  0  0  0  0  0  0  0  0
   12.1330    9.1968    7.0809 O   0  0  0  0  0  0  0  0  0  0  0  0
   11.2515   11.1074    4.7515 N   0  0  0  0  0  0  0  0  0  0  0  0
   10.8487   12.3026    4.2599 C   0  0  0  0  0  0  0  0  0  0  0  0
   10.7506   13.2393    5.2623 N   0  0  0  0  0  0  0  0  0  0  0  0
  1  2  1  0  0  0  0
  1  6  1  0  0  0  0
  2  3  2  0  0  0  0
  3  4  1  0  0  0  0
  4  5  2  0  0  0  0
  4 10  1  0  0  0  0
  5  6  1  0  0  0  0
  5  8  1  0  0  0  0
  6  7  2  0  0  0  0
  8  9  1  0  0  0  0
  9 10  2  0  0  0  0
M  END
>  <CHROM.1>
11.39635795,11.61920433,6.57903120,0.42228145,-1.26697333,1.05027550

>  <Name>
ligand

>  <RI>
0

>  <Rbt.Current_Directory>
/home/itssahil/PROJECTS/Mol_Feturizer/New_Systems/rnas/2EEU

>  <Rbt.Executable>
rbdock ($Id: //depot/dev/client3/rdock/2013.1/src/exe/rbdock.cxx#4 $)

>  <Rbt.Library>
libRbt.so (2013.1, Build901 2013/11/27)

>  <Rbt.Parameter_File>
/export/apps/rDock/src/rDock_2013.1_src/data/scripts/dock_solv.prm

>  <Rbt.Receptor>
prm/pocket_docking_8.prm

>  <SCORE>
-18.5925

>  <SCORE.INTER>
-18.5925

>  <SCORE.INTER.CONST>
1

>  <SCORE.INTER.POLAR>
0

>  <SCORE.INTER.ROT>
0

>  <SCORE.INTER.SOLV>
3.54775

>  <SCORE.INTER.VDW>
-17.1776

>  <SCORE.INTER.norm>
-1.85925

>  <SCORE.INTRA>
0

>  <SCORE.INTRA.DIHEDRAL>
0

>  <SCORE.INTRA.DIHEDRAL.0>
0

>  <SCORE.INTRA.POLAR>
0

>  <SCORE.INTRA.POLAR.0>
0

>  <SCORE.INTRA.REPUL>
0

>  <SCORE.INTRA.REPUL.0>
0

>  <SCORE.INTRA.SOLV>
0

>  <SCORE.INTRA.SOLV.lig_0>
-4.28148

>  <SCORE.INTRA.VDW>
0

>  <SCORE.INTRA.VDW.0>
0

>  <SCORE.INTRA.norm>
0

>  <SCORE.RESTR>
0

>  <SCORE.RESTR.CAVITY>
0

>  <SCORE.RESTR.norm>
0

>  <SCORE.SYSTEM>
0

>  <SCORE.SYSTEM.CONST>
0

>  <SCORE.SYSTEM.DIHEDRAL>
0

>  <SCORE.SYSTEM.SOLV>
0

>  <SCORE.SYSTEM.norm>
0

>  <SCORE.heavy>
10

>  <SCORE.norm>
-1.85925

>  <RMSD>
0.901

$$$$
ligand
 OpenBabel11021811423D
libRbt.so/2013.1/901 2013/11/27
 10 11  0  0  0  0  0  0  0  0999 V2000
   11.8260   11.0277    8.3783 N   0  0  0  0  0  0  0  0  0  0  0  0
   11.5021   12.3464    8.6270 C   0  0  0  0  0  0  0  0  0  0  0  0
   11.1218   13.1815    7.6521 N   0  0  0  0  0  0  0  0  0  0  0  0
   11.0956   12.5958    6.4218 C   0  0  0  0  0  0  0  0  0  0  0  0
   11.4093   11.2827    6.1053 C   0  0  0  0  0  0  0  0  0  0  0  0
   11.8115   10.3900    7.1357 C   0  0  0  0  0  0  0  0  0  0  0  0
   12.1294    9.2020    7.0810 O   0  0  0  0  0  0  0  0  0  0  0  0
   11.2505   11.1130    4.7509 N   0  0  0  0  0  0  0  0  0  0  0  0
   10.8460   12.3077    4.2593 C   0  0  0  0  0  0  0  0  0  0  0  0
   10.7421   13.2429    5.2625 N   0  0  0  0  0  0  0  0  0  0  0  0
  1  2  1  0  0  0  0
  1  6  1  0  0  0  0
  2  3  2  0  0  0  0
  3  4  1  0  0  0  0
  4  5  2  0  0  0  0
  4 10  1  0  0  0  0
  5  6  1  0  0  0  0
  5  8  1  0  0  0  0
  6  7  2  0  0  0  0
  8  9  1  0  0  0  0
  9 10  2  0  0  0  0
M  END
>  <CHROM.1>
11.38790323,11.62299865,6.57949796,0.43640532,-1.26622969,1.06493827

>  <Name>
ligand

>  <RI>
0

>  <Rbt.Current_Directory>
/home/itssahil/PROJECTS/Mol_Feturizer/New_Systems/rnas/2EEU

>  <Rbt.Executable>
rbdock ($Id: //depot/dev/client3/rdock/2013.1/src/exe/rbdock.cxx#4 $)

>  <Rbt.Library>
libRbt.so (2013.1, Build901 2013/11/27)

>  <Rbt.Parameter_File>
/export/apps/rDock/src/rDock_2013.1_src/data/scripts/dock_solv.prm

>  <Rbt.Receptor>
prm/blind_docking_60.prm

>  <SCORE>
-18.5897

>  <SCORE.INTER>
-18.5897

>  <SCORE.INTER.CONST>
1

>  <SCORE.INTER.POLAR>
0

>  <SCORE.INTER.ROT>
0

>  <SCORE.INTER.SOLV>
3.55292

>  <SCORE.INTER.VDW>
-17.1775

>  <SCORE.INTER.norm>
-1.85897

>  <SCORE.INTRA>
0

>  <SCORE.INTRA.DIHEDRAL>
0

>  <SCORE.INTRA.DIHEDRAL.0>
0

>  <SCORE.INTRA.POLAR>
0

>  <SCORE.INTRA.POLAR.0>
0

>  <SCORE.INTRA.REPUL>
0

>  <SCORE.INTRA.REPUL.0>
0

>  <SCORE.INTRA.SOLV>
0

>  <SCORE.INTRA.SOLV.lig_0>
-4.28148

>  <SCORE.INTRA.VDW>
0

>  <SCORE.INTRA.VDW.0>
0

>  <SCORE.INTRA.norm>
0

>  <SCORE.RESTR>
0

>  <SCORE.RESTR.CAVITY>
0

>  <SCORE.RESTR.norm>
0

>  <SCORE.SYSTEM>
0

>  <SCORE.SYSTEM.CONST>
0

>  <SCORE.SYSTEM.DIHEDRAL>
0

>  <SCORE.SYSTEM.SOLV>
0

>  <SCORE.SYSTEM.norm>
0

>  <SCORE.heavy>
10

>  <SCORE.norm>
-1.85897

>  <RMSD>
0.902

$$$$
ligand
 OpenBabel11021811423D
libRbt.so/2013.1/901 2013/11/27
 10 11  0  0  0  0  0  0  0  0999 V2000
   11.8592   10.9636    8.3708 N   0  0  0  0  0  0  0  0  0  0  0  0
   11.5159   12.2731    8.6408 C   0  0  0  0  0  0  0  0  0  0  0  0
   11.1251   13.1188    7.6794 N   0  0  0  0  0  0  0  0  0  0  0  0
   11.1092   12.5534    6.4395 C   0  0  0  0  0  0  0  0  0  0  0  0
   11.4423   11.2504    6.1016 C   0  0  0  0  0  0  0  0  0  0  0  0
   11.8558   10.3466    7.1177 C   0  0  0  0  0  0  0  0  0  0  0  0
   12.1910    9.1644    7.0437 O   0  0  0  0  0  0  0  0  0  0  0  0
   11.2880   11.1011    4.7443 N   0  0  0  0  0  0  0  0  0  0  0  0
   10.8670   12.2979    4.2720 C   0  0  0  0  0  0  0  0  0  0  0  0
   10.7481   13.2146    5.2905 N   0  0  0  0  0  0  0  0  0  0  0  0
  1  2  1  0  0  0  0
  1  6  1  0  0  0  0
  2  3  2  0  0  0  0
  3  4  1  0  0  0  0
  4  5  2  0  0  0  0
  4 10  1  0  0  0  0
  5  6  1  0  0  0  0
  5  8  1  0  0  0  0
  6  7  2  0  0  0  0
  8  9  1  0  0  0  0
  9 10  2  0  0  0  0
M  END
>  <CHROM.1>
11.41527098,11.58245426,6.58137189,0.46309176,-1.25419785,1.10703366

>  <Name>
ligand

>  <RI>
0

>  <Rbt.Current_Directory>
/home/itssahil/PROJECTS/Mol_Feturizer/New_Systems/rnas/2EEU

>  <Rbt.Executable>
rbdock ($Id: //depot/dev/client3/rdock/2013.1/src/exe/rbdock.cxx#4 $)

>  <Rbt.Library>
libRbt.so (2013.1, Build901 2013/11/27)

>  <Rbt.Parameter_File>
/export/apps/rDock/src/rDock_2013.1_src/data/scripts/dock_solv.prm

>  <Rbt.Receptor>
prm/pocket_docking_3.prm

>  <SCORE>
-18.5707

>  <SCORE.INTER>
-18.5707

>  <SCORE.INTER.CONST>
1

>  <SCORE.INTER.POLAR>
0

>  <SCORE.INTER.ROT>
0

>  <SCORE.INTER.SOLV>
3.49297

>  <SCORE.INTER.VDW>
-17.1448

>  <SCORE.INTER.norm>
-1.85707

>  <SCORE.INTRA>
0

>  <SCORE.INTRA.DIHEDRAL>
0

>  <SCORE.INTRA.DIHEDRAL.0>
0

>  <SCORE.INTRA.POLAR>
0

>  <SCORE.INTRA.POLAR.0>
0

>  <SCORE.INTRA.REPUL>
0

>  <SCORE.INTRA.REPUL.0>
0

>  <SCORE.INTRA.SOLV>
0

>  <SCORE.INTRA.SOLV.lig_0>
-4.28148

>  <SCORE.INTRA.VDW>
0

>  <SCORE.INTRA.VDW.0>
0

>  <SCORE.INTRA.norm>
0

>  <SCORE.RESTR>
0

>  <SCORE.RESTR.CAVITY>
0

>  <SCORE.RESTR.norm>
0

>  <SCORE.SYSTEM>
0

>  <SCORE.SYSTEM.CONST>
0

>  <SCORE.SYSTEM.DIHEDRAL>
0

>  <SCORE.SYSTEM.SOLV>
0

>  <SCORE.SYSTEM.norm>
0

>  <SCORE.heavy>
10

>  <SCORE.norm>
-1.85707

>  <RMSD>
0.902

$$$$
ligand
 OpenBabel11021811423D
libRbt.so/2013.1/901 2013/11/27
 10 11  0  0  0  0  0  0  0  0999 V2000
   11.8185   10.9532    8.3813 N   0  0  0  0  0  0  0  0  0  0  0  0
   11.4984   12.2691    8.6487 C   0  0  0  0  0  0  0  0  0  0  0  0
   11.1265   13.1207    7.6850 N   0  0  0  0  0  0  0  0  0  0  0  0
   11.1044   12.5542    6.4456 C   0  0  0  0  0  0  0  0  0  0  0  0
   11.4146   11.2449    6.1104 C   0  0  0  0  0  0  0  0  0  0  0  0
   11.8079   10.3348    7.1290 C   0  0  0  0  0  0  0  0  0  0  0  0
   12.1216    9.1465    7.0575 O   0  0  0  0  0  0  0  0  0  0  0  0
   11.2621   11.0968    4.7528 N   0  0  0  0  0  0  0  0  0  0  0  0
   10.8649   12.3005    4.2777 C   0  0  0  0  0  0  0  0  0  0  0  0
   10.7593   13.2205    5.2946 N   0  0  0  0  0  0  0  0  0  0  0  0
  1  2  1  0  0  0  0
  1  6  1  0  0  0  0
  2  3  2  0  0  0  0
  3  4  1  0  0  0  0
  4  5  2  0  0  0  0
  4 10  1  0  0  0  0
  5  6  1  0  0  0  0
  5  8  1  0  0  0  0
  6  7  2  0  0  0  0
  8  9  1  0  0  0  0
  9 10  2  0  0  0  0
M  END
>  <CHROM.1>
11.39204639,11.57792210,6.58971123,0.44540502,-1.27212308,1.08898811

>  <Name>
ligand

>  <RI>
0

>  <Rbt.Current_Directory>
/home/itssahil/PROJECTS/Mol_Feturizer/New_Systems/rnas/2EEU

>  <Rbt.Executable>
rbdock ($Id: //depot/dev/client3/rdock/2013.1/src/exe/rbdock.cxx#4 $)

>  <Rbt.Library>
libRbt.so (2013.1, Build901 2013/11/27)

>  <Rbt.Parameter_File>
/export/apps/rDock/src/rDock_2013.1_src/data/scripts/dock_solv.prm

>  <Rbt.Receptor>
prm/pocket_docking_8.prm

>  <SCORE>
-18.58

>  <SCORE.INTER>
-18.58

>  <SCORE.INTER.CONST>
1

>  <SCORE.INTER.POLAR>
0

>  <SCORE.INTER.ROT>
0

>  <SCORE.INTER.SOLV>
3.57579

>  <SCORE.INTER.VDW>
-17.1786

>  <SCORE.INTER.norm>
-1.858

>  <SCORE.INTRA>
0

>  <SCORE.INTRA.DIHEDRAL>
0

>  <SCORE.INTRA.DIHEDRAL.0>
0

>  <SCORE.INTRA.POLAR>
0

>  <SCORE.INTRA.POLAR.0>
0

>  <SCORE.INTRA.REPUL>
0

>  <SCORE.INTRA.REPUL.0>
0

>  <SCORE.INTRA.SOLV>
0

>  <SCORE.INTRA.SOLV.lig_0>
-4.28148

>  <SCORE.INTRA.VDW>
0

>  <SCORE.INTRA.VDW.0>
0

>  <SCORE.INTRA.norm>
0

>  <SCORE.RESTR>
0

>  <SCORE.RESTR.CAVITY>
0

>  <SCORE.RESTR.norm>
0

>  <SCORE.SYSTEM>
0

>  <SCORE.SYSTEM.CONST>
0

>  <SCORE.SYSTEM.DIHEDRAL>
0

>  <SCORE.SYSTEM.SOLV>
0

>  <SCORE.SYSTEM.norm>
0

>  <SCORE.heavy>
10

>  <SCORE.norm>
-1.858

>  <RMSD>
0.902

$$$$
ligand
 OpenBabel11021811423D
libRbt.so/2013.1/901 2013/11/27
 10 11  0  0  0  0  0  0  0  0999 V2000
   11.8363   11.0087    8.3731 N   0  0  0  0  0  0  0  0  0  0  0  0
   11.5112   12.3256    8.6295 C   0  0  0  0  0  0  0  0  0  0  0  0
   11.1263   13.1650    7.6602 N   0  0  0  0  0  0  0  0  0  0  0  0
   11.0966   12.5854    6.4271 C   0  0  0  0  0  0  0  0  0  0  0  0
   11.4111   11.2744    6.1028 C   0  0  0  0  0  0  0  0  0  0  0  0
   11.8183   10.3772    7.1274 C   0  0  0  0  0  0  0  0  0  0  0  0
   12.1379    9.1899    7.0655 O   0  0  0  0  0  0  0  0  0  0  0  0
   11.2478   11.1112    4.7482 N   0  0  0  0  0  0  0  0  0  0  0  0
   10.8397   12.3077    4.2641 C   0  0  0  0  0  0  0  0  0  0  0  0
   10.7379   13.2377    5.2723 N   0  0  0  0  0  0  0  0  0  0  0  0
  1  2  1  0  0  0  0
  1  6  1  0  0  0  0
  2  3  2  0  0  0  0
  3  4  1  0  0  0  0
  4  5  2  0  0  0  0
  4 10  1  0  0  0  0
  5  6  1  0  0  0  0
  5  8  1  0  0  0  0
  6  7  2  0  0  0  0
  8  9  1  0  0  0  0
  9 10  2  0  0  0  0
M  END
>  <CHROM.1>
11.39090238,11.61228352,6.57882965,0.42859600,-1.26315889,1.06250202

>  <Name>
ligand

>  <RI>
0

>  <Rbt.Current_Directory>
/home/itssahil/PROJECTS/Mol_Feturizer/New_Systems/rnas/2EEU

>  <Rbt.Executable>
rbdock ($Id: //depot/dev/client3/rdock/2013.1/src/exe/rbdock.cxx#4 $)

>  <Rbt.Library>
libRbt.so (2013.1, Build901 2013/11/27)

>  <Rbt.Parameter_File>
/export/apps/rDock/src/rDock_2013.1_src/data/scripts/dock_solv.prm

>  <Rbt.Receptor>
prm/pocket_docking_3.prm

>  <SCORE>
-18.5825

>  <SCORE.INTER>
-18.5825

>  <SCORE.INTER.CONST>
1

>  <SCORE.INTER.POLAR>
0

>  <SCORE.INTER.ROT>
0

>  <SCORE.INTER.SOLV>
3.54365

>  <SCORE.INTER.VDW>
-17.1695

>  <SCORE.INTER.norm>
-1.85825

>  <SCORE.INTRA>
0

>  <SCORE.INTRA.DIHEDRAL>
0

>  <SCORE.INTRA.DIHEDRAL.0>
0

>  <SCORE.INTRA.POLAR>
0

>  <SCORE.INTRA.POLAR.0>
0

>  <SCORE.INTRA.REPUL>
0

>  <SCORE.INTRA.REPUL.0>
0

>  <SCORE.INTRA.SOLV>
0

>  <SCORE.INTRA.SOLV.lig_0>
-4.28148

>  <SCORE.INTRA.VDW>
0

>  <SCORE.INTRA.VDW.0>
0

>  <SCORE.INTRA.norm>
0

>  <SCORE.RESTR>
0

>  <SCORE.RESTR.CAVITY>
0

>  <SCORE.RESTR.norm>
0

>  <SCORE.SYSTEM>
0

>  <SCORE.SYSTEM.CONST>
0

>  <SCORE.SYSTEM.DIHEDRAL>
0

>  <SCORE.SYSTEM.SOLV>
0

>  <SCORE.SYSTEM.norm>
0

>  <SCORE.heavy>
10

>  <SCORE.norm>
-1.85825

>  <RMSD>
0.903

$$$$
ligand
 OpenBabel11021811423D
libRbt.so/2013.1/901 2013/11/27
 10 11  0  0  0  0  0  0  0  0999 V2000
   11.8579   10.9519    8.3782 N   0  0  0  0  0  0  0  0  0  0  0  0
   11.5448   12.2725    8.6302 C   0  0  0  0  0  0  0  0  0  0  0  0
   11.1614   13.1105    7.6592 N   0  0  0  0  0  0  0  0  0  0  0  0
   11.1204   12.5256    6.4289 C   0  0  0  0  0  0  0  0  0  0  0  0
   11.4227   11.2106    6.1090 C   0  0  0  0  0  0  0  0  0  0  0  0
   11.8281   10.3149    7.1355 C   0  0  0  0  0  0  0  0  0  0  0  0
   12.1379    9.1248    7.0775 O   0  0  0  0  0  0  0  0  0  0  0  0
   11.2508   11.0426    4.7560 N   0  0  0  0  0  0  0  0  0  0  0  0
   10.8498   12.2401    4.2686 C   0  0  0  0  0  0  0  0  0  0  0  0
   10.7608   13.1755    5.2730 N   0  0  0  0  0  0  0  0  0  0  0  0
  1  2  1  0  0  0  0
  1  6  1  0  0  0  0
  2  3  2  0  0  0  0
  3  4  1  0  0  0  0
  4  5  2  0  0  0  0
  4 10  1  0  0  0  0
  5  6  1  0  0  0  0
  5  8  1  0  0  0  0
  6  7  2  0  0  0  0
  8  9  1  0  0  0  0
  9 10  2  0  0  0  0
M  END
>  <CHROM.1>
11.40772715,11.55083524,6.58356444,0.39983248,-1.26744743,1.03046859

>  <Name>
ligand

>  <RI>
0

>  <Rbt.Current_Directory>
/home/itssahil/PROJECTS/Mol_Feturizer/New_Systems/rnas/2EEU

>  <Rbt.Executable>
rbdock ($Id: //depot/dev/client3/rdock/2013.1/src/exe/rbdock.cxx#4 $)

>  <Rbt.Library>
libRbt.so (2013.1, Build901 2013/11/27)

>  <Rbt.Parameter_File>
/export/apps/rDock/src/rDock_2013.1_src/data/scripts/dock_solv.prm

>  <Rbt.Receptor>
prm/blind_docking_40.prm

>  <SCORE>
-18.557

>  <SCORE.INTER>
-18.557

>  <SCORE.INTER.CONST>
1

>  <SCORE.INTER.POLAR>
0

>  <SCORE.INTER.ROT>
0

>  <SCORE.INTER.SOLV>
3.53965

>  <SCORE.INTER.VDW>
-17.1512

>  <SCORE.INTER.norm>
-1.8557

>  <SCORE.INTRA>
0

>  <SCORE.INTRA.DIHEDRAL>
0

>  <SCORE.INTRA.DIHEDRAL.0>
0

>  <SCORE.INTRA.POLAR>
0

>  <SCORE.INTRA.POLAR.0>
0

>  <SCORE.INTRA.REPUL>
0

>  <SCORE.INTRA.REPUL.0>
0

>  <SCORE.INTRA.SOLV>
0

>  <SCORE.INTRA.SOLV.lig_0>
-4.28148

>  <SCORE.INTRA.VDW>
0

>  <SCORE.INTRA.VDW.0>
0

>  <SCORE.INTRA.norm>
0

>  <SCORE.RESTR>
0

>  <SCORE.RESTR.CAVITY>
0

>  <SCORE.RESTR.norm>
0

>  <SCORE.SYSTEM>
0

>  <SCORE.SYSTEM.CONST>
0

>  <SCORE.SYSTEM.DIHEDRAL>
0

>  <SCORE.SYSTEM.SOLV>
0

>  <SCORE.SYSTEM.norm>
0

>  <SCORE.heavy>
10

>  <SCORE.norm>
-1.8557

>  <RMSD>
0.906

$$$$
ligand
 OpenBabel11021811423D
libRbt.so/2013.1/901 2013/11/27
 10 11  0  0  0  0  0  0  0  0999 V2000
   11.8718   10.9635    8.3727 N   0  0  0  0  0  0  0  0  0  0  0  0
   11.5808   12.2900    8.6205 C   0  0  0  0  0  0  0  0  0  0  0  0
   11.1974   13.1276    7.6491 N   0  0  0  0  0  0  0  0  0  0  0  0
   11.1329   12.5360    6.4230 C   0  0  0  0  0  0  0  0  0  0  0  0
   11.4123   11.2149    6.1076 C   0  0  0  0  0  0  0  0  0  0  0  0
   11.8176   10.3196    7.1345 C   0  0  0  0  0  0  0  0  0  0  0  0
   12.1095    9.1249    7.0799 O   0  0  0  0  0  0  0  0  0  0  0  0
   11.2213   11.0413    4.7578 N   0  0  0  0  0  0  0  0  0  0  0  0
   10.8315   12.2415    4.2680 C   0  0  0  0  0  0  0  0  0  0  0  0
   10.7684   13.1841    5.2677 N   0  0  0  0  0  0  0  0  0  0  0  0
  1  2  1  0  0  0  0
  1  6  1  0  0  0  0
  2  3  2  0  0  0  0
  3  4  1  0  0  0  0
  4  5  2  0  0  0  0
  4 10  1  0  0  0  0
  5  6  1  0  0  0  0
  5  8  1  0  0  0  0
  6  7  2  0  0  0  0
  8  9  1  0  0  0  0
  9 10  2  0  0  0  0
M  END
>  <CHROM.1>
11.40809910,11.55816649,6.58013289,0.33853514,-1.27283940,0.96585490

>  <Name>
ligand

>  <RI>
0

>  <Rbt.Current_Directory>
/home/itssahil/PROJECTS/Mol_Feturizer/New_Systems/rnas/2EEU

>  <Rbt.Executable>
rbdock ($Id: //depot/dev/client3/rdock/2013.1/src/exe/rbdock.cxx#4 $)

>  <Rbt.Library>
libRbt.so (2013.1, Build901 2013/11/27)

>  <Rbt.Parameter_File>
/export/apps/rDock/src/rDock_2013.1_src/data/scripts/dock_solv.prm

>  <Rbt.Receptor>
prm/pocket_docking_4.prm

>  <SCORE>
-18.6008

>  <SCORE.INTER>
-18.6008

>  <SCORE.INTER.CONST>
1

>  <SCORE.INTER.POLAR>
0

>  <SCORE.INTER.ROT>
0

>  <SCORE.INTER.SOLV>
3.56413

>  <SCORE.INTER.VDW>
-17.1886

>  <SCORE.INTER.norm>
-1.86008

>  <SCORE.INTRA>
0

>  <SCORE.INTRA.DIHEDRAL>
0

>  <SCORE.INTRA.DIHEDRAL.0>
0

>  <SCORE.INTRA.POLAR>
0

>  <SCORE.INTRA.POLAR.0>
0

>  <SCORE.INTRA.REPUL>
0

>  <SCORE.INTRA.REPUL.0>
0

>  <SCORE.INTRA.SOLV>
0

>  <SCORE.INTRA.SOLV.lig_0>
-4.28148

>  <SCORE.INTRA.VDW>
0

>  <SCORE.INTRA.VDW.0>
0

>  <SCORE.INTRA.norm>
0

>  <SCORE.RESTR>
0

>  <SCORE.RESTR.CAVITY>
0

>  <SCORE.RESTR.norm>
0

>  <SCORE.SYSTEM>
0

>  <SCORE.SYSTEM.CONST>
0

>  <SCORE.SYSTEM.DIHEDRAL>
0

>  <SCORE.SYSTEM.SOLV>
0

>  <SCORE.SYSTEM.norm>
0

>  <SCORE.heavy>
10

>  <SCORE.norm>
-1.86008

>  <RMSD>
0.907

$$$$
ligand
 OpenBabel11021811423D
libRbt.so/2013.1/901 2013/11/27
 10 11  0  0  0  0  0  0  0  0999 V2000
   11.8932   10.9580    8.3672 N   0  0  0  0  0  0  0  0  0  0  0  0
   11.5790   12.2784    8.6189 C   0  0  0  0  0  0  0  0  0  0  0  0
   11.1778   13.1112    7.6505 N   0  0  0  0  0  0  0  0  0  0  0  0
   11.1203   12.5213    6.4233 C   0  0  0  0  0  0  0  0  0  0  0  0
   11.4226   11.2062    6.1039 C   0  0  0  0  0  0  0  0  0  0  0  0
   11.8469   10.3160    7.1276 C   0  0  0  0  0  0  0  0  0  0  0  0
   12.1602    9.1269    7.0693 O   0  0  0  0  0  0  0  0  0  0  0  0
   11.2307   11.0323    4.7544 N   0  0  0  0  0  0  0  0  0  0  0  0
   10.8179   12.2264    4.2685 C   0  0  0  0  0  0  0  0  0  0  0  0
   10.7407   13.1654    5.2705 N   0  0  0  0  0  0  0  0  0  0  0  0
  1  2  1  0  0  0  0
  1  6  1  0  0  0  0
  2  3  2  0  0  0  0
  3  4  1  0  0  0  0
  4  5  2  0  0  0  0
  4 10  1  0  0  0  0
  5  6  1  0  0  0  0
  5  8  1  0  0  0  0
  6  7  2  0  0  0  0
  8  9  1  0  0  0  0
  9 10  2  0  0  0  0
M  END
>  <CHROM.1>
11.41356786,11.54824827,6.57731615,0.36386234,-1.25622961,0.99233299

>  <Name>
ligand

>  <RI>
0

>  <Rbt.Current_Directory>
/home/itssahil/PROJECTS/Mol_Feturizer/New_Systems/rnas/2EEU

>  <Rbt.Executable>
rbdock ($Id: //depot/dev/client3/rdock/2013.1/src/exe/rbdock.cxx#4 $)

>  <Rbt.Library>
libRbt.so (2013.1, Build901 2013/11/27)

>  <Rbt.Parameter_File>
/export/apps/rDock/src/rDock_2013.1_src/data/scripts/dock_solv.prm

>  <Rbt.Receptor>
prm/blind_docking_100.prm

>  <SCORE>
-18.5825

>  <SCORE.INTER>
-18.5825

>  <SCORE.INTER.CONST>
1

>  <SCORE.INTER.POLAR>
0

>  <SCORE.INTER.ROT>
0

>  <SCORE.INTER.SOLV>
3.50323

>  <SCORE.INTER.VDW>
-17.1561

>  <SCORE.INTER.norm>
-1.85825

>  <SCORE.INTRA>
0

>  <SCORE.INTRA.DIHEDRAL>
0

>  <SCORE.INTRA.DIHEDRAL.0>
0

>  <SCORE.INTRA.POLAR>
0

>  <SCORE.INTRA.POLAR.0>
0

>  <SCORE.INTRA.REPUL>
0

>  <SCORE.INTRA.REPUL.0>
0

>  <SCORE.INTRA.SOLV>
0

>  <SCORE.INTRA.SOLV.lig_0>
-4.28148

>  <SCORE.INTRA.VDW>
0

>  <SCORE.INTRA.VDW.0>
0

>  <SCORE.INTRA.norm>
0

>  <SCORE.RESTR>
0

>  <SCORE.RESTR.CAVITY>
0

>  <SCORE.RESTR.norm>
0

>  <SCORE.SYSTEM>
0

>  <SCORE.SYSTEM.CONST>
0

>  <SCORE.SYSTEM.DIHEDRAL>
0

>  <SCORE.SYSTEM.SOLV>
0

>  <SCORE.SYSTEM.norm>
0

>  <SCORE.heavy>
10

>  <SCORE.norm>
-1.85825

>  <RMSD>
0.908

$$$$
ligand
 OpenBabel11021811423D
libRbt.so/2013.1/901 2013/11/27
 10 11  0  0  0  0  0  0  0  0999 V2000
   11.8779   10.9804    8.3668 N   0  0  0  0  0  0  0  0  0  0  0  0
   11.5719   12.3032    8.6162 C   0  0  0  0  0  0  0  0  0  0  0  0
   11.1827   13.1386    7.6452 N   0  0  0  0  0  0  0  0  0  0  0  0
   11.1285   12.5488    6.4178 C   0  0  0  0  0  0  0  0  0  0  0  0
   11.4232   11.2314    6.1006 C   0  0  0  0  0  0  0  0  0  0  0  0
   11.8347   10.3384    7.1271 C   0  0  0  0  0  0  0  0  0  0  0  0
   12.1396    9.1470    7.0711 O   0  0  0  0  0  0  0  0  0  0  0  0
   11.2384   11.0585    4.7500 N   0  0  0  0  0  0  0  0  0  0  0  0
   10.8373   12.2554    4.2612 C   0  0  0  0  0  0  0  0  0  0  0  0
   10.7608   13.1952    5.2626 N   0  0  0  0  0  0  0  0  0  0  0  0
  1  2  1  0  0  0  0
  1  6  1  0  0  0  0
  2  3  2  0  0  0  0
  3  4  1  0  0  0  0
  4  5  2  0  0  0  0
  4 10  1  0  0  0  0
  5  6  1  0  0  0  0
  5  8  1  0  0  0  0
  6  7  2  0  0  0  0
  8  9  1  0  0  0  0
  9 10  2  0  0  0  0
M  END
>  <CHROM.1>
11.41370745,11.57362798,6.57388864,0.36784467,-1.26570058,0.99585577

>  <Name>
ligand

>  <RI>
0

>  <Rbt.Current_Directory>
/home/itssahil/PROJECTS/Mol_Feturizer/New_Systems/rnas/2EEU

>  <Rbt.Executable>
rbdock ($Id: //depot/dev/client3/rdock/2013.1/src/exe/rbdock.cxx#4 $)

>  <Rbt.Library>
libRbt.so (2013.1, Build901 2013/11/27)

>  <Rbt.Parameter_File>
/export/apps/rDock/src/rDock_2013.1_src/data/scripts/dock_solv.prm

>  <Rbt.Receptor>
prm/pocket_docking_3.prm

>  <SCORE>
-18.5686

>  <SCORE.INTER>
-18.5686

>  <SCORE.INTER.CONST>
1

>  <SCORE.INTER.POLAR>
0

>  <SCORE.INTER.ROT>
0

>  <SCORE.INTER.SOLV>
3.53508

>  <SCORE.INTER.VDW>
-17.1574

>  <SCORE.INTER.norm>
-1.85686

>  <SCORE.INTRA>
0

>  <SCORE.INTRA.DIHEDRAL>
0

>  <SCORE.INTRA.DIHEDRAL.0>
0

>  <SCORE.INTRA.POLAR>
0

>  <SCORE.INTRA.POLAR.0>
0

>  <SCORE.INTRA.REPUL>
0

>  <SCORE.INTRA.REPUL.0>
0

>  <SCORE.INTRA.SOLV>
0

>  <SCORE.INTRA.SOLV.lig_0>
-4.28148

>  <SCORE.INTRA.VDW>
0

>  <SCORE.INTRA.VDW.0>
0

>  <SCORE.INTRA.norm>
0

>  <SCORE.RESTR>
0

>  <SCORE.RESTR.CAVITY>
0

>  <SCORE.RESTR.norm>
0

>  <SCORE.SYSTEM>
0

>  <SCORE.SYSTEM.CONST>
0

>  <SCORE.SYSTEM.DIHEDRAL>
0

>  <SCORE.SYSTEM.SOLV>
0

>  <SCORE.SYSTEM.norm>
0

>  <SCORE.heavy>
10

>  <SCORE.norm>
-1.85686

>  <RMSD>
0.908

$$$$
ligand
 OpenBabel11021811423D
libRbt.so/2013.1/901 2013/11/27
 10 11  0  0  0  0  0  0  0  0999 V2000
   11.8761   10.9529    8.3634 N   0  0  0  0  0  0  0  0  0  0  0  0
   11.5881   12.2775    8.6244 C   0  0  0  0  0  0  0  0  0  0  0  0
   11.2035   13.1249    7.6620 N   0  0  0  0  0  0  0  0  0  0  0  0
   11.1345   12.5449    6.4306 C   0  0  0  0  0  0  0  0  0  0  0  0
   11.4107   11.2264    6.1020 C   0  0  0  0  0  0  0  0  0  0  0  0
   11.8173   10.3207    7.1193 C   0  0  0  0  0  0  0  0  0  0  0  0
   12.1069    9.1261    7.0527 O   0  0  0  0  0  0  0  0  0  0  0  0
   11.2156   11.0658    4.7512 N   0  0  0  0  0  0  0  0  0  0  0  0
   10.8265   12.2713    4.2738 C   0  0  0  0  0  0  0  0  0  0  0  0
   10.7679   13.2045    5.2825 N   0  0  0  0  0  0  0  0  0  0  0  0
  1  2  1  0  0  0  0
  1  6  1  0  0  0  0
  2  3  2  0  0  0  0
  3  4  1  0  0  0  0
  4  5  2  0  0  0  0
  4 10  1  0  0  0  0
  5  6  1  0  0  0  0
  5  8  1  0  0  0  0
  6  7  2  0  0  0  0
  8  9  1  0  0  0  0
  9 10  2  0  0  0  0
M  END
>  <CHROM.1>
11.40843369,11.56517764,6.57778033,0.32728862,-1.27268573,0.96451675

>  <Name>
ligand

>  <RI>
0

>  <Rbt.Current_Directory>
/home/itssahil/PROJECTS/Mol_Feturizer/New_Systems/rnas/2EEU

>  <Rbt.Executable>
rbdock ($Id: //depot/dev/client3/rdock/2013.1/src/exe/rbdock.cxx#4 $)

>  <Rbt.Library>
libRbt.so (2013.1, Build901 2013/11/27)

>  <Rbt.Parameter_File>
/export/apps/rDock/src/rDock_2013.1_src/data/scripts/dock_solv.prm

>  <Rbt.Receptor>
prm/pocket_docking_5.prm

>  <SCORE>
-18.5846

>  <SCORE.INTER>
-18.5846

>  <SCORE.INTER.CONST>
1

>  <SCORE.INTER.POLAR>
0

>  <SCORE.INTER.ROT>
0

>  <SCORE.INTER.SOLV>
3.57172

>  <SCORE.INTER.VDW>
-17.1803

>  <SCORE.INTER.norm>
-1.85846

>  <SCORE.INTRA>
0

>  <SCORE.INTRA.DIHEDRAL>
0

>  <SCORE.INTRA.DIHEDRAL.0>
0

>  <SCORE.INTRA.POLAR>
0

>  <SCORE.INTRA.POLAR.0>
0

>  <SCORE.INTRA.REPUL>
0

>  <SCORE.INTRA.REPUL.0>
0

>  <SCORE.INTRA.SOLV>
0

>  <SCORE.INTRA.SOLV.lig_0>
-4.28148

>  <SCORE.INTRA.VDW>
0

>  <SCORE.INTRA.VDW.0>
0

>  <SCORE.INTRA.norm>
0

>  <SCORE.RESTR>
0

>  <SCORE.RESTR.CAVITY>
0

>  <SCORE.RESTR.norm>
0

>  <SCORE.SYSTEM>
0

>  <SCORE.SYSTEM.CONST>
0

>  <SCORE.SYSTEM.DIHEDRAL>
0

>  <SCORE.SYSTEM.SOLV>
0

>  <SCORE.SYSTEM.norm>
0

>  <SCORE.heavy>
10

>  <SCORE.norm>
-1.85846

>  <RMSD>
0.908

$$$$
ligand
 OpenBabel11021811423D
libRbt.so/2013.1/901 2013/11/27
 10 11  0  0  0  0  0  0  0  0999 V2000
   11.8812   10.9681    8.3735 N   0  0  0  0  0  0  0  0  0  0  0  0
   11.5832   12.2942    8.6146 C   0  0  0  0  0  0  0  0  0  0  0  0
   11.1921   13.1241    7.6396 N   0  0  0  0  0  0  0  0  0  0  0  0
   11.1274   12.5252    6.4172 C   0  0  0  0  0  0  0  0  0  0  0  0
   11.4136   11.2040    6.1083 C   0  0  0  0  0  0  0  0  0  0  0  0
   11.8271   10.3168    7.1391 C   0  0  0  0  0  0  0  0  0  0  0  0
   12.1258    9.1235    7.0904 O   0  0  0  0  0  0  0  0  0  0  0  0
   11.2196   11.0216    4.7602 N   0  0  0  0  0  0  0  0  0  0  0  0
   10.8214   12.2167    4.2647 C   0  0  0  0  0  0  0  0  0  0  0  0
   10.7557   13.1646    5.2592 N   0  0  0  0  0  0  0  0  0  0  0  0
  1  2  1  0  0  0  0
  1  6  1  0  0  0  0
  2  3  2  0  0  0  0
  3  4  1  0  0  0  0
  4  5  2  0  0  0  0
  4 10  1  0  0  0  0
  5  6  1  0  0  0  0
  5  8  1  0  0  0  0
  6  7  2  0  0  0  0
  8  9  1  0  0  0  0
  9 10  2  0  0  0  0
M  END
>  <CHROM.1>
11.40875288,11.54984455,6.57898614,0.34151658,-1.26637735,0.96304491

>  <Name>
ligand

>  <RI>
0

>  <Rbt.Current_Directory>
/home/itssahil/PROJECTS/Mol_Feturizer/New_Systems/rnas/2EEU

>  <Rbt.Executable>
rbdock ($Id: //depot/dev/client3/rdock/2013.1/src/exe/rbdock.cxx#4 $)

>  <Rbt.Library>
libRbt.so (2013.1, Build901 2013/11/27)

>  <Rbt.Parameter_File>
/export/apps/rDock/src/rDock_2013.1_src/data/scripts/dock_solv.prm

>  <Rbt.Receptor>
prm/pocket_docking_6.prm

>  <SCORE>
-18.5886

>  <SCORE.INTER>
-18.5886

>  <SCORE.INTER.CONST>
1

>  <SCORE.INTER.POLAR>
0

>  <SCORE.INTER.ROT>
0

>  <SCORE.INTER.SOLV>
3.53998

>  <SCORE.INTER.VDW>
-17.1724

>  <SCORE.INTER.norm>
-1.85886

>  <SCORE.INTRA>
0

>  <SCORE.INTRA.DIHEDRAL>
0

>  <SCORE.INTRA.DIHEDRAL.0>
0

>  <SCORE.INTRA.POLAR>
0

>  <SCORE.INTRA.POLAR.0>
0

>  <SCORE.INTRA.REPUL>
0

>  <SCORE.INTRA.REPUL.0>
0

>  <SCORE.INTRA.SOLV>
0

>  <SCORE.INTRA.SOLV.lig_0>
-4.28148

>  <SCORE.INTRA.VDW>
0

>  <SCORE.INTRA.VDW.0>
0

>  <SCORE.INTRA.norm>
0

>  <SCORE.RESTR>
0

>  <SCORE.RESTR.CAVITY>
0

>  <SCORE.RESTR.norm>
0

>  <SCORE.SYSTEM>
0

>  <SCORE.SYSTEM.CONST>
0

>  <SCORE.SYSTEM.DIHEDRAL>
0

>  <SCORE.SYSTEM.SOLV>
0

>  <SCORE.SYSTEM.norm>
0

>  <SCORE.heavy>
10

>  <SCORE.norm>
-1.85886

>  <RMSD>
0.908

$$$$
ligand
 OpenBabel11021811423D
libRbt.so/2013.1/901 2013/11/27
 10 11  0  0  0  0  0  0  0  0999 V2000
   11.8019   11.0150    8.3800 N   0  0  0  0  0  0  0  0  0  0  0  0
   11.4524   12.3271    8.6289 C   0  0  0  0  0  0  0  0  0  0  0  0
   11.0769   13.1610    7.6512 N   0  0  0  0  0  0  0  0  0  0  0  0
   11.0827   12.5812    6.4179 C   0  0  0  0  0  0  0  0  0  0  0  0
   11.4232   11.2749    6.1009 C   0  0  0  0  0  0  0  0  0  0  0  0
   11.8205   10.3835    7.1343 C   0  0  0  0  0  0  0  0  0  0  0  0
   12.1585    9.2010    7.0797 O   0  0  0  0  0  0  0  0  0  0  0  0
   11.2921   11.1096    4.7430 N   0  0  0  0  0  0  0  0  0  0  0  0
   10.8776   12.3001    4.2498 C   0  0  0  0  0  0  0  0  0  0  0  0
   10.7402   13.2284    5.2553 N   0  0  0  0  0  0  0  0  0  0  0  0
  1  2  1  0  0  0  0
  1  6  1  0  0  0  0
  2  3  2  0  0  0  0
  3  4  1  0  0  0  0
  4  5  2  0  0  0  0
  4 10  1  0  0  0  0
  5  6  1  0  0  0  0
  5  8  1  0  0  0  0
  6  7  2  0  0  0  0
  8  9  1  0  0  0  0
  9 10  2  0  0  0  0
M  END
>  <CHROM.1>
11.38756659,11.61240021,6.57623152,0.51462516,-1.26024325,1.14443180

>  <Name>
ligand

>  <RI>
0

>  <Rbt.Current_Directory>
/home/itssahil/PROJECTS/Mol_Feturizer/New_Systems/rnas/2EEU

>  <Rbt.Executable>
rbdock ($Id: //depot/dev/client3/rdock/2013.1/src/exe/rbdock.cxx#4 $)

>  <Rbt.Library>
libRbt.so (2013.1, Build901 2013/11/27)

>  <Rbt.Parameter_File>
/export/apps/rDock/src/rDock_2013.1_src/data/scripts/dock_solv.prm

>  <Rbt.Receptor>
prm/pocket_docking_4.prm

>  <SCORE>
-18.5433

>  <SCORE.INTER>
-18.5433

>  <SCORE.INTER.CONST>
1

>  <SCORE.INTER.POLAR>
0

>  <SCORE.INTER.ROT>
0

>  <SCORE.INTER.SOLV>
3.53779

>  <SCORE.INTER.VDW>
-17.1415

>  <SCORE.INTER.norm>
-1.85433

>  <SCORE.INTRA>
0

>  <SCORE.INTRA.DIHEDRAL>
0

>  <SCORE.INTRA.DIHEDRAL.0>
0

>  <SCORE.INTRA.POLAR>
0

>  <SCORE.INTRA.POLAR.0>
0

>  <SCORE.INTRA.REPUL>
0

>  <SCORE.INTRA.REPUL.0>
0

>  <SCORE.INTRA.SOLV>
0

>  <SCORE.INTRA.SOLV.lig_0>
-4.28148

>  <SCORE.INTRA.VDW>
0

>  <SCORE.INTRA.VDW.0>
0

>  <SCORE.INTRA.norm>
0

>  <SCORE.RESTR>
0

>  <SCORE.RESTR.CAVITY>
0

>  <SCORE.RESTR.norm>
0

>  <SCORE.SYSTEM>
0

>  <SCORE.SYSTEM.CONST>
0

>  <SCORE.SYSTEM.DIHEDRAL>
0

>  <SCORE.SYSTEM.SOLV>
0

>  <SCORE.SYSTEM.norm>
0

>  <SCORE.heavy>
10

>  <SCORE.norm>
-1.85433

>  <RMSD>
0.909

$$$$
ligand
 OpenBabel11021811423D
libRbt.so/2013.1/901 2013/11/27
 10 11  0  0  0  0  0  0  0  0999 V2000
   11.9166   10.9488    8.3504 N   0  0  0  0  0  0  0  0  0  0  0  0
   11.5917   12.2619    8.6255 C   0  0  0  0  0  0  0  0  0  0  0  0
   11.1880   13.1097    7.6713 N   0  0  0  0  0  0  0  0  0  0  0  0
   11.1396   12.5425    6.4330 C   0  0  0  0  0  0  0  0  0  0  0  0
   11.4529   11.2358    6.0904 C   0  0  0  0  0  0  0  0  0  0  0  0
   11.8799   10.3298    7.0989 C   0  0  0  0  0  0  0  0  0  0  0  0
   12.2022    9.1443    7.0197 O   0  0  0  0  0  0  0  0  0  0  0  0
   11.2676   11.0858    4.7370 N   0  0  0  0  0  0  0  0  0  0  0  0
   10.8477   12.2857    4.2719 C   0  0  0  0  0  0  0  0  0  0  0  0
   10.7597   13.2052    5.2910 N   0  0  0  0  0  0  0  0  0  0  0  0
  1  2  1  0  0  0  0
  1  6  1  0  0  0  0
  2  3  2  0  0  0  0
  3  4  1  0  0  0  0
  4  5  2  0  0  0  0
  4 10  1  0  0  0  0
  5  6  1  0  0  0  0
  5  8  1  0  0  0  0
  6  7  2  0  0  0  0
  8  9  1  0  0  0  0
  9 10  2  0  0  0  0
M  END
>  <CHROM.1>
11.43952551,11.56888272,6.57001163,0.38713573,-1.25202754,1.03313037

>  <Name>
ligand

>  <RI>
0

>  <Rbt.Current_Directory>
/home/itssahil/PROJECTS/Mol_Feturizer/New_Systems/rnas/2EEU

>  <Rbt.Executable>
rbdock ($Id: //depot/dev/client3/rdock/2013.1/src/exe/rbdock.cxx#4 $)

>  <Rbt.Library>
libRbt.so (2013.1, Build901 2013/11/27)

>  <Rbt.Parameter_File>
/export/apps/rDock/src/rDock_2013.1_src/data/scripts/dock_solv.prm

>  <Rbt.Receptor>
prm/pocket_docking_7.prm

>  <SCORE>
-18.5785

>  <SCORE.INTER>
-18.5785

>  <SCORE.INTER.CONST>
1

>  <SCORE.INTER.POLAR>
0

>  <SCORE.INTER.ROT>
0

>  <SCORE.INTER.SOLV>
3.4725

>  <SCORE.INTER.VDW>
-17.1432

>  <SCORE.INTER.norm>
-1.85785

>  <SCORE.INTRA>
0

>  <SCORE.INTRA.DIHEDRAL>
0

>  <SCORE.INTRA.DIHEDRAL.0>
0

>  <SCORE.INTRA.POLAR>
0

>  <SCORE.INTRA.POLAR.0>
0

>  <SCORE.INTRA.REPUL>
0

>  <SCORE.INTRA.REPUL.0>
0

>  <SCORE.INTRA.SOLV>
0

>  <SCORE.INTRA.SOLV.lig_0>
-4.28148

>  <SCORE.INTRA.VDW>
0

>  <SCORE.INTRA.VDW.0>
0

>  <SCORE.INTRA.norm>
0

>  <SCORE.RESTR>
0

>  <SCORE.RESTR.CAVITY>
0

>  <SCORE.RESTR.norm>
0

>  <SCORE.SYSTEM>
0

>  <SCORE.SYSTEM.CONST>
0

>  <SCORE.SYSTEM.DIHEDRAL>
0

>  <SCORE.SYSTEM.SOLV>
0

>  <SCORE.SYSTEM.norm>
0

>  <SCORE.heavy>
10

>  <SCORE.norm>
-1.85785

>  <RMSD>
0.909

$$$$
ligand
 OpenBabel11021811423D
libRbt.so/2013.1/901 2013/11/27
 10 11  0  0  0  0  0  0  0  0999 V2000
   11.8850   10.9938    8.3523 N   0  0  0  0  0  0  0  0  0  0  0  0
   11.5663   12.3113    8.6134 C   0  0  0  0  0  0  0  0  0  0  0  0
   11.1720   13.1523    7.6493 N   0  0  0  0  0  0  0  0  0  0  0  0
   11.1262   12.5737    6.4163 C   0  0  0  0  0  0  0  0  0  0  0  0
   11.4336   11.2621    6.0874 C   0  0  0  0  0  0  0  0  0  0  0  0
   11.8506   10.3632    7.1064 C   0  0  0  0  0  0  0  0  0  0  0  0
   12.1665    9.1752    7.0400 O   0  0  0  0  0  0  0  0  0  0  0  0
   11.2537   11.1003    4.7347 N   0  0  0  0  0  0  0  0  0  0  0  0
   10.8430   12.2982    4.2563 C   0  0  0  0  0  0  0  0  0  0  0  0
   10.7555   13.2277    5.2662 N   0  0  0  0  0  0  0  0  0  0  0  0
  1  2  1  0  0  0  0
  1  6  1  0  0  0  0
  2  3  2  0  0  0  0
  3  4  1  0  0  0  0
  4  5  2  0  0  0  0
  4 10  1  0  0  0  0
  5  6  1  0  0  0  0
  5  8  1  0  0  0  0
  6  7  2  0  0  0  0
  8  9  1  0  0  0  0
  9 10  2  0  0  0  0
M  END
>  <CHROM.1>
11.41984987,11.59973809,6.56383866,0.39069519,-1.25938546,1.02709425

>  <Name>
ligand

>  <RI>
0

>  <Rbt.Current_Directory>
/home/itssahil/PROJECTS/Mol_Feturizer/New_Systems/rnas/2EEU

>  <Rbt.Executable>
rbdock ($Id: //depot/dev/client3/rdock/2013.1/src/exe/rbdock.cxx#4 $)

>  <Rbt.Library>
libRbt.so (2013.1, Build901 2013/11/27)

>  <Rbt.Parameter_File>
/export/apps/rDock/src/rDock_2013.1_src/data/scripts/dock_solv.prm

>  <Rbt.Receptor>
prm/blind_docking_60.prm

>  <SCORE>
-18.571

>  <SCORE.INTER>
-18.571

>  <SCORE.INTER.CONST>
1

>  <SCORE.INTER.POLAR>
0

>  <SCORE.INTER.ROT>
0

>  <SCORE.INTER.SOLV>
3.51513

>  <SCORE.INTER.VDW>
-17.1524

>  <SCORE.INTER.norm>
-1.8571

>  <SCORE.INTRA>
0

>  <SCORE.INTRA.DIHEDRAL>
0

>  <SCORE.INTRA.DIHEDRAL.0>
0

>  <SCORE.INTRA.POLAR>
0

>  <SCORE.INTRA.POLAR.0>
0

>  <SCORE.INTRA.REPUL>
0

>  <SCORE.INTRA.REPUL.0>
0

>  <SCORE.INTRA.SOLV>
0

>  <SCORE.INTRA.SOLV.lig_0>
-4.28148

>  <SCORE.INTRA.VDW>
0

>  <SCORE.INTRA.VDW.0>
0

>  <SCORE.INTRA.norm>
0

>  <SCORE.RESTR>
0

>  <SCORE.RESTR.CAVITY>
0

>  <SCORE.RESTR.norm>
0

>  <SCORE.SYSTEM>
0

>  <SCORE.SYSTEM.CONST>
0

>  <SCORE.SYSTEM.DIHEDRAL>
0

>  <SCORE.SYSTEM.SOLV>
0

>  <SCORE.SYSTEM.norm>
0

>  <SCORE.heavy>
10

>  <SCORE.norm>
-1.8571

>  <RMSD>
0.912

$$$$
ligand
 OpenBabel11021811423D
libRbt.so/2013.1/901 2013/11/27
 10 11  0  0  0  0  0  0  0  0999 V2000
   11.9183   10.9421    8.3463 N   0  0  0  0  0  0  0  0  0  0  0  0
   11.5911   12.2538    8.6252 C   0  0  0  0  0  0  0  0  0  0  0  0
   11.1850   13.1035    7.6737 N   0  0  0  0  0  0  0  0  0  0  0  0
   11.1367   12.5395    6.4339 C   0  0  0  0  0  0  0  0  0  0  0  0
   11.4522   11.2344    6.0874 C   0  0  0  0  0  0  0  0  0  0  0  0
   11.8818   10.3264    7.0931 C   0  0  0  0  0  0  0  0  0  0  0  0
   12.2063    9.1418    7.0104 O   0  0  0  0  0  0  0  0  0  0  0  0
   11.2660   11.0877    4.7338 N   0  0  0  0  0  0  0  0  0  0  0  0
   10.8435   12.2881    4.2723 C   0  0  0  0  0  0  0  0  0  0  0  0
   10.7546   13.2046    5.2940 N   0  0  0  0  0  0  0  0  0  0  0  0
  1  2  1  0  0  0  0
  1  6  1  0  0  0  0
  2  3  2  0  0  0  0
  3  4  1  0  0  0  0
  4  5  2  0  0  0  0
  4 10  1  0  0  0  0
  5  6  1  0  0  0  0
  5  8  1  0  0  0  0
  6  7  2  0  0  0  0
  8  9  1  0  0  0  0
  9 10  2  0  0  0  0
M  END
>  <CHROM.1>
11.43856079,11.56613791,6.56795496,0.38800883,-1.24996597,1.03671039

>  <Name>
ligand

>  <RI>
0

>  <Rbt.Current_Directory>
/home/itssahil/PROJECTS/Mol_Feturizer/New_Systems/rnas/2EEU

>  <Rbt.Executable>
rbdock ($Id: //depot/dev/client3/rdock/2013.1/src/exe/rbdock.cxx#4 $)

>  <Rbt.Library>
libRbt.so (2013.1, Build901 2013/11/27)

>  <Rbt.Parameter_File>
/export/apps/rDock/src/rDock_2013.1_src/data/scripts/dock_solv.prm

>  <Rbt.Receptor>
prm/pocket_docking_8.prm

>  <SCORE>
-18.5656

>  <SCORE.INTER>
-18.5656

>  <SCORE.INTER.CONST>
1

>  <SCORE.INTER.POLAR>
0

>  <SCORE.INTER.ROT>
0

>  <SCORE.INTER.SOLV>
3.46988

>  <SCORE.INTER.VDW>
-17.1337

>  <SCORE.INTER.norm>
-1.85656

>  <SCORE.INTRA>
0

>  <SCORE.INTRA.DIHEDRAL>
0

>  <SCORE.INTRA.DIHEDRAL.0>
0

>  <SCORE.INTRA.POLAR>
0

>  <SCORE.INTRA.POLAR.0>
0

>  <SCORE.INTRA.REPUL>
0

>  <SCORE.INTRA.REPUL.0>
0

>  <SCORE.INTRA.SOLV>
0

>  <SCORE.INTRA.SOLV.lig_0>
-4.28148

>  <SCORE.INTRA.VDW>
0

>  <SCORE.INTRA.VDW.0>
0

>  <SCORE.INTRA.norm>
0

>  <SCORE.RESTR>
0

>  <SCORE.RESTR.CAVITY>
0

>  <SCORE.RESTR.norm>
0

>  <SCORE.SYSTEM>
0

>  <SCORE.SYSTEM.CONST>
0

>  <SCORE.SYSTEM.DIHEDRAL>
0

>  <SCORE.SYSTEM.SOLV>
0

>  <SCORE.SYSTEM.norm>
0

>  <SCORE.heavy>
10

>  <SCORE.norm>
-1.85656

>  <RMSD>
0.912

$$$$
ligand
 OpenBabel11021811423D
libRbt.so/2013.1/901 2013/11/27
 10 11  0  0  0  0  0  0  0  0999 V2000
   11.8996   11.2749    8.3752 N   0  0  0  0  0  0  0  0  0  0  0  0
   11.6682   12.6259    8.5390 C   0  0  0  0  0  0  0  0  0  0  0  0
   11.2958   13.4123    7.5216 N   0  0  0  0  0  0  0  0  0  0  0  0
   11.1783   12.7436    6.3399 C   0  0  0  0  0  0  0  0  0  0  0  0
   11.3967   11.3939    6.1084 C   0  0  0  0  0  0  0  0  0  0  0  0
   11.7900   10.5528    7.1846 C   0  0  0  0  0  0  0  0  0  0  0  0
   12.0322    9.3459    7.2046 O   0  0  0  0  0  0  0  0  0  0  0  0
   11.1666   11.1390    4.7778 N   0  0  0  0  0  0  0  0  0  0  0  0
   10.8138   12.3192    4.2165 C   0  0  0  0  0  0  0  0  0  0  0  0
   10.8126   13.3280    5.1514 N   0  0  0  0  0  0  0  0  0  0  0  0
  1  2  1  0  0  0  0
  1  6  1  0  0  0  0
  2  3  2  0  0  0  0
  3  4  1  0  0  0  0
  4  5  2  0  0  0  0
  4 10  1  0  0  0  0
  5  6  1  0  0  0  0
  5  8  1  0  0  0  0
  6  7  2  0  0  0  0
  8  9  1  0  0  0  0
  9 10  2  0  0  0  0
M  END
>  <CHROM.1>
11.41756907,11.76773947,6.55673491,0.18486129,-1.28922143,0.75147665

>  <Name>
ligand

>  <RI>
0

>  <Rbt.Current_Directory>
/home/itssahil/PROJECTS/Mol_Feturizer/New_Systems/rnas/2EEU

>  <Rbt.Executable>
rbdock ($Id: //depot/dev/client3/rdock/2013.1/src/exe/rbdock.cxx#4 $)

>  <Rbt.Library>
libRbt.so (2013.1, Build901 2013/11/27)

>  <Rbt.Parameter_File>
/export/apps/rDock/src/rDock_2013.1_src/data/scripts/dock_solv.prm

>  <Rbt.Receptor>
prm/blind_docking_60.prm

>  <SCORE>
-18.4814

>  <SCORE.INTER>
-18.4814

>  <SCORE.INTER.CONST>
1

>  <SCORE.INTER.POLAR>
0

>  <SCORE.INTER.ROT>
0

>  <SCORE.INTER.SOLV>
3.61923

>  <SCORE.INTER.VDW>
-17.1274

>  <SCORE.INTER.norm>
-1.84814

>  <SCORE.INTRA>
0

>  <SCORE.INTRA.DIHEDRAL>
0

>  <SCORE.INTRA.DIHEDRAL.0>
0

>  <SCORE.INTRA.POLAR>
0

>  <SCORE.INTRA.POLAR.0>
0

>  <SCORE.INTRA.REPUL>
0

>  <SCORE.INTRA.REPUL.0>
0

>  <SCORE.INTRA.SOLV>
0

>  <SCORE.INTRA.SOLV.lig_0>
-4.28148

>  <SCORE.INTRA.VDW>
0

>  <SCORE.INTRA.VDW.0>
0

>  <SCORE.INTRA.norm>
0

>  <SCORE.RESTR>
0

>  <SCORE.RESTR.CAVITY>
0

>  <SCORE.RESTR.norm>
0

>  <SCORE.SYSTEM>
0

>  <SCORE.SYSTEM.CONST>
0

>  <SCORE.SYSTEM.DIHEDRAL>
0

>  <SCORE.SYSTEM.SOLV>
0

>  <SCORE.SYSTEM.norm>
0

>  <SCORE.heavy>
10

>  <SCORE.norm>
-1.84814

>  <RMSD>
0.913

$$$$
ligand
 OpenBabel11021811423D
libRbt.so/2013.1/901 2013/11/27
 10 11  0  0  0  0  0  0  0  0999 V2000
   11.8778   10.9770    8.3526 N   0  0  0  0  0  0  0  0  0  0  0  0
   11.5802   12.2987    8.6176 C   0  0  0  0  0  0  0  0  0  0  0  0
   11.1968   13.1480    7.6564 N   0  0  0  0  0  0  0  0  0  0  0  0
   11.1392   12.5730    6.4221 C   0  0  0  0  0  0  0  0  0  0  0  0
   11.4255   11.2576    6.0894 C   0  0  0  0  0  0  0  0  0  0  0  0
   11.8309   10.3499    7.1054 C   0  0  0  0  0  0  0  0  0  0  0  0
   12.1281    9.1574    7.0355 O   0  0  0  0  0  0  0  0  0  0  0  0
   11.2400   11.1018    4.7368 N   0  0  0  0  0  0  0  0  0  0  0  0
   10.8468   12.3070    4.2621 C   0  0  0  0  0  0  0  0  0  0  0  0
   10.7760   13.2354    5.2744 N   0  0  0  0  0  0  0  0  0  0  0  0
  1  2  1  0  0  0  0
  1  6  1  0  0  0  0
  2  3  2  0  0  0  0
  3  4  1  0  0  0  0
  4  5  2  0  0  0  0
  4 10  1  0  0  0  0
  5  6  1  0  0  0  0
  5  8  1  0  0  0  0
  6  7  2  0  0  0  0
  8  9  1  0  0  0  0
  9 10  2  0  0  0  0
M  END
>  <CHROM.1>
11.41804173,11.59429936,6.56669110,0.35690650,-1.27127704,0.99720766

>  <Name>
ligand

>  <RI>
0

>  <Rbt.Current_Directory>
/home/itssahil/PROJECTS/Mol_Feturizer/New_Systems/rnas/2EEU

>  <Rbt.Executable>
rbdock ($Id: //depot/dev/client3/rdock/2013.1/src/exe/rbdock.cxx#4 $)

>  <Rbt.Library>
libRbt.so (2013.1, Build901 2013/11/27)

>  <Rbt.Parameter_File>
/export/apps/rDock/src/rDock_2013.1_src/data/scripts/dock_solv.prm

>  <Rbt.Receptor>
prm/pocket_docking_4.prm

>  <SCORE>
-18.5692

>  <SCORE.INTER>
-18.5692

>  <SCORE.INTER.CONST>
1

>  <SCORE.INTER.POLAR>
0

>  <SCORE.INTER.ROT>
0

>  <SCORE.INTER.SOLV>
3.56276

>  <SCORE.INTER.VDW>
-17.167

>  <SCORE.INTER.norm>
-1.85692

>  <SCORE.INTRA>
0

>  <SCORE.INTRA.DIHEDRAL>
0

>  <SCORE.INTRA.DIHEDRAL.0>
0

>  <SCORE.INTRA.POLAR>
0

>  <SCORE.INTRA.POLAR.0>
0

>  <SCORE.INTRA.REPUL>
0

>  <SCORE.INTRA.REPUL.0>
0

>  <SCORE.INTRA.SOLV>
0

>  <SCORE.INTRA.SOLV.lig_0>
-4.28148

>  <SCORE.INTRA.VDW>
0

>  <SCORE.INTRA.VDW.0>
0

>  <SCORE.INTRA.norm>
0

>  <SCORE.RESTR>
0

>  <SCORE.RESTR.CAVITY>
0

>  <SCORE.RESTR.norm>
0

>  <SCORE.SYSTEM>
0

>  <SCORE.SYSTEM.CONST>
0

>  <SCORE.SYSTEM.DIHEDRAL>
0

>  <SCORE.SYSTEM.SOLV>
0

>  <SCORE.SYSTEM.norm>
0

>  <SCORE.heavy>
10

>  <SCORE.norm>
-1.85692

>  <RMSD>
0.913

$$$$
ligand
 OpenBabel11021811423D
libRbt.so/2013.1/901 2013/11/27
 10 11  0  0  0  0  0  0  0  0999 V2000
   11.8614   10.9805    8.3707 N   0  0  0  0  0  0  0  0  0  0  0  0
   11.5612   12.3065    8.6100 C   0  0  0  0  0  0  0  0  0  0  0  0
   11.1737   13.1356    7.6329 N   0  0  0  0  0  0  0  0  0  0  0  0
   11.1150   12.5361    6.4104 C   0  0  0  0  0  0  0  0  0  0  0  0
   11.4038   11.2151    6.1034 C   0  0  0  0  0  0  0  0  0  0  0  0
   11.8134   10.3287    7.1364 C   0  0  0  0  0  0  0  0  0  0  0  0
   12.1134    9.1357    7.0895 O   0  0  0  0  0  0  0  0  0  0  0  0
   11.2159   11.0320    4.7545 N   0  0  0  0  0  0  0  0  0  0  0  0
   10.8188   12.2266    4.2568 C   0  0  0  0  0  0  0  0  0  0  0  0
   10.7479   13.1747    5.2506 N   0  0  0  0  0  0  0  0  0  0  0  0
  1  2  1  0  0  0  0
  1  6  1  0  0  0  0
  2  3  2  0  0  0  0
  3  4  1  0  0  0  0
  4  5  2  0  0  0  0
  4 10  1  0  0  0  0
  5  6  1  0  0  0  0
  5  8  1  0  0  0  0
  6  7  2  0  0  0  0
  8  9  1  0  0  0  0
  9 10  2  0  0  0  0
M  END
>  <CHROM.1>
11.39651730,11.56114824,6.57387318,0.35553898,-1.26814389,0.97602126

>  <Name>
ligand

>  <RI>
0

>  <Rbt.Current_Directory>
/home/itssahil/PROJECTS/Mol_Feturizer/New_Systems/rnas/2EEU

>  <Rbt.Executable>
rbdock ($Id: //depot/dev/client3/rdock/2013.1/src/exe/rbdock.cxx#4 $)

>  <Rbt.Library>
libRbt.so (2013.1, Build901 2013/11/27)

>  <Rbt.Parameter_File>
/export/apps/rDock/src/rDock_2013.1_src/data/scripts/dock_solv.prm

>  <Rbt.Receptor>
prm/pocket_docking_6.prm

>  <SCORE>
-18.5907

>  <SCORE.INTER>
-18.5907

>  <SCORE.INTER.CONST>
1

>  <SCORE.INTER.POLAR>
0

>  <SCORE.INTER.ROT>
0

>  <SCORE.INTER.SOLV>
3.55828

>  <SCORE.INTER.VDW>
-17.1799

>  <SCORE.INTER.norm>
-1.85907

>  <SCORE.INTRA>
0

>  <SCORE.INTRA.DIHEDRAL>
0

>  <SCORE.INTRA.DIHEDRAL.0>
0

>  <SCORE.INTRA.POLAR>
0

>  <SCORE.INTRA.POLAR.0>
0

>  <SCORE.INTRA.REPUL>
0

>  <SCORE.INTRA.REPUL.0>
0

>  <SCORE.INTRA.SOLV>
0

>  <SCORE.INTRA.SOLV.lig_0>
-4.28148

>  <SCORE.INTRA.VDW>
0

>  <SCORE.INTRA.VDW.0>
0

>  <SCORE.INTRA.norm>
0

>  <SCORE.RESTR>
0

>  <SCORE.RESTR.CAVITY>
0

>  <SCORE.RESTR.norm>
0

>  <SCORE.SYSTEM>
0

>  <SCORE.SYSTEM.CONST>
0

>  <SCORE.SYSTEM.DIHEDRAL>
0

>  <SCORE.SYSTEM.SOLV>
0

>  <SCORE.SYSTEM.norm>
0

>  <SCORE.heavy>
10

>  <SCORE.norm>
-1.85907

>  <RMSD>
0.913

$$$$
ligand
 OpenBabel11021811423D
libRbt.so/2013.1/901 2013/11/27
 10 11  0  0  0  0  0  0  0  0999 V2000
   11.8255   10.9546    8.3766 N   0  0  0  0  0  0  0  0  0  0  0  0
   11.4897   12.2698    8.6276 C   0  0  0  0  0  0  0  0  0  0  0  0
   11.1083   13.1049    7.6533 N   0  0  0  0  0  0  0  0  0  0  0  0
   11.0936   12.5230    6.4211 C   0  0  0  0  0  0  0  0  0  0  0  0
   11.4195   11.2135    6.1021 C   0  0  0  0  0  0  0  0  0  0  0  0
   11.8230   10.3207    7.1320 C   0  0  0  0  0  0  0  0  0  0  0  0
   12.1508    9.1355    7.0752 O   0  0  0  0  0  0  0  0  0  0  0  0
   11.2697   11.0469    4.7463 N   0  0  0  0  0  0  0  0  0  0  0  0
   10.8585   12.2398    4.2563 C   0  0  0  0  0  0  0  0  0  0  0  0
   10.7414   13.1709    5.2618 N   0  0  0  0  0  0  0  0  0  0  0  0
  1  2  1  0  0  0  0
  1  6  1  0  0  0  0
  2  3  2  0  0  0  0
  3  4  1  0  0  0  0
  4  5  2  0  0  0  0
  4 10  1  0  0  0  0
  5  6  1  0  0  0  0
  5  8  1  0  0  0  0
  6  7  2  0  0  0  0
  8  9  1  0  0  0  0
  9 10  2  0  0  0  0
M  END
>  <CHROM.1>
11.39276533,11.55208104,6.57727380,0.46526826,-1.26183352,1.09563434

>  <Name>
ligand

>  <RI>
0

>  <Rbt.Current_Directory>
/home/itssahil/PROJECTS/Mol_Feturizer/New_Systems/rnas/2EEU

>  <Rbt.Executable>
rbdock ($Id: //depot/dev/client3/rdock/2013.1/src/exe/rbdock.cxx#4 $)

>  <Rbt.Library>
libRbt.so (2013.1, Build901 2013/11/27)

>  <Rbt.Parameter_File>
/export/apps/rDock/src/rDock_2013.1_src/data/scripts/dock_solv.prm

>  <Rbt.Receptor>
prm/blind_docking_80.prm

>  <SCORE>
-18.555

>  <SCORE.INTER>
-18.555

>  <SCORE.INTER.CONST>
1

>  <SCORE.INTER.POLAR>
0

>  <SCORE.INTER.ROT>
0

>  <SCORE.INTER.SOLV>
3.54135

>  <SCORE.INTER.VDW>
-17.1505

>  <SCORE.INTER.norm>
-1.8555

>  <SCORE.INTRA>
0

>  <SCORE.INTRA.DIHEDRAL>
0

>  <SCORE.INTRA.DIHEDRAL.0>
0

>  <SCORE.INTRA.POLAR>
0

>  <SCORE.INTRA.POLAR.0>
0

>  <SCORE.INTRA.REPUL>
0

>  <SCORE.INTRA.REPUL.0>
0

>  <SCORE.INTRA.SOLV>
0

>  <SCORE.INTRA.SOLV.lig_0>
-4.28148

>  <SCORE.INTRA.VDW>
0

>  <SCORE.INTRA.VDW.0>
0

>  <SCORE.INTRA.norm>
0

>  <SCORE.RESTR>
0

>  <SCORE.RESTR.CAVITY>
0

>  <SCORE.RESTR.norm>
0

>  <SCORE.SYSTEM>
0

>  <SCORE.SYSTEM.CONST>
0

>  <SCORE.SYSTEM.DIHEDRAL>
0

>  <SCORE.SYSTEM.SOLV>
0

>  <SCORE.SYSTEM.norm>
0

>  <SCORE.heavy>
10

>  <SCORE.norm>
-1.8555

>  <RMSD>
0.916

$$$$
ligand
 OpenBabel11021811423D
libRbt.so/2013.1/901 2013/11/27
 10 11  0  0  0  0  0  0  0  0999 V2000
   11.8611   10.9750    8.3665 N   0  0  0  0  0  0  0  0  0  0  0  0
   11.5579   12.2998    8.6084 C   0  0  0  0  0  0  0  0  0  0  0  0
   11.1685   13.1301    7.6331 N   0  0  0  0  0  0  0  0  0  0  0  0
   11.1110   12.5329    6.4094 C   0  0  0  0  0  0  0  0  0  0  0  0
   11.4027   11.2131    6.0997 C   0  0  0  0  0  0  0  0  0  0  0  0
   11.8144   10.3256    7.1308 C   0  0  0  0  0  0  0  0  0  0  0  0
   12.1170    9.1333    7.0815 O   0  0  0  0  0  0  0  0  0  0  0  0
   11.2151   11.0323    4.7504 N   0  0  0  0  0  0  0  0  0  0  0  0
   10.8153   12.2270    4.2551 C   0  0  0  0  0  0  0  0  0  0  0  0
   10.7424   13.1730    5.2509 N   0  0  0  0  0  0  0  0  0  0  0  0
  1  2  1  0  0  0  0
  1  6  1  0  0  0  0
  2  3  2  0  0  0  0
  3  4  1  0  0  0  0
  4  5  2  0  0  0  0
  4 10  1  0  0  0  0
  5  6  1  0  0  0  0
  5  8  1  0  0  0  0
  6  7  2  0  0  0  0
  8  9  1  0  0  0  0
  9 10  2  0  0  0  0
M  END
>  <CHROM.1>
11.39470300,11.55819899,6.57082630,0.35936359,-1.26625546,0.98168508

>  <Name>
ligand

>  <RI>
0

>  <Rbt.Current_Directory>
/home/itssahil/PROJECTS/Mol_Feturizer/New_Systems/rnas/2EEU

>  <Rbt.Executable>
rbdock ($Id: //depot/dev/client3/rdock/2013.1/src/exe/rbdock.cxx#4 $)

>  <Rbt.Library>
libRbt.so (2013.1, Build901 2013/11/27)

>  <Rbt.Parameter_File>
/export/apps/rDock/src/rDock_2013.1_src/data/scripts/dock_solv.prm

>  <Rbt.Receptor>
prm/pocket_docking_3.prm

>  <SCORE>
-18.5778

>  <SCORE.INTER>
-18.5778

>  <SCORE.INTER.CONST>
1

>  <SCORE.INTER.POLAR>
0

>  <SCORE.INTER.ROT>
0

>  <SCORE.INTER.SOLV>
3.55611

>  <SCORE.INTER.VDW>
-17.1706

>  <SCORE.INTER.norm>
-1.85778

>  <SCORE.INTRA>
0

>  <SCORE.INTRA.DIHEDRAL>
0

>  <SCORE.INTRA.DIHEDRAL.0>
0

>  <SCORE.INTRA.POLAR>
0

>  <SCORE.INTRA.POLAR.0>
0

>  <SCORE.INTRA.REPUL>
0

>  <SCORE.INTRA.REPUL.0>
0

>  <SCORE.INTRA.SOLV>
0

>  <SCORE.INTRA.SOLV.lig_0>
-4.28148

>  <SCORE.INTRA.VDW>
0

>  <SCORE.INTRA.VDW.0>
0

>  <SCORE.INTRA.norm>
0

>  <SCORE.RESTR>
0

>  <SCORE.RESTR.CAVITY>
0

>  <SCORE.RESTR.norm>
0

>  <SCORE.SYSTEM>
0

>  <SCORE.SYSTEM.CONST>
0

>  <SCORE.SYSTEM.DIHEDRAL>
0

>  <SCORE.SYSTEM.SOLV>
0

>  <SCORE.SYSTEM.norm>
0

>  <SCORE.heavy>
10

>  <SCORE.norm>
-1.85778

>  <RMSD>
0.917

$$$$
ligand
 OpenBabel11021811423D
libRbt.so/2013.1/901 2013/11/27
 10 11  0  0  0  0  0  0  0  0999 V2000
   11.9026   11.2685    8.3671 N   0  0  0  0  0  0  0  0  0  0  0  0
   11.6507   12.6151    8.5370 C   0  0  0  0  0  0  0  0  0  0  0  0
   11.2713   13.4015    7.5222 N   0  0  0  0  0  0  0  0  0  0  0  0
   11.1689   12.7375    6.3364 C   0  0  0  0  0  0  0  0  0  0  0  0
   11.4081   11.3925    6.0987 C   0  0  0  0  0  0  0  0  0  0  0  0
   11.8089   10.5514    7.1722 C   0  0  0  0  0  0  0  0  0  0  0  0
   12.0687    9.3481    7.1868 O   0  0  0  0  0  0  0  0  0  0  0  0
   11.1877   11.1415    4.7658 N   0  0  0  0  0  0  0  0  0  0  0  0
   10.8202   12.3194    4.2091 C   0  0  0  0  0  0  0  0  0  0  0  0
   10.8000   13.3230    5.1494 N   0  0  0  0  0  0  0  0  0  0  0  0
  1  2  1  0  0  0  0
  1  6  1  0  0  0  0
  2  3  2  0  0  0  0
  3  4  1  0  0  0  0
  4  5  2  0  0  0  0
  4 10  1  0  0  0  0
  5  6  1  0  0  0  0
  5  8  1  0  0  0  0
  6  7  2  0  0  0  0
  8  9  1  0  0  0  0
  9 10  2  0  0  0  0
M  END
>  <CHROM.1>
11.42148998,11.76414802,6.54914604,0.23323086,-1.28213875,0.80327531

>  <Name>
ligand

>  <RI>
0

>  <Rbt.Current_Directory>
/home/itssahil/PROJECTS/Mol_Feturizer/New_Systems/rnas/2EEU

>  <Rbt.Executable>
rbdock ($Id: //depot/dev/client3/rdock/2013.1/src/exe/rbdock.cxx#4 $)

>  <Rbt.Library>
libRbt.so (2013.1, Build901 2013/11/27)

>  <Rbt.Parameter_File>
/export/apps/rDock/src/rDock_2013.1_src/data/scripts/dock_solv.prm

>  <Rbt.Receptor>
prm/pocket_docking_4.prm

>  <SCORE>
-18.4749

>  <SCORE.INTER>
-18.4749

>  <SCORE.INTER.CONST>
1

>  <SCORE.INTER.POLAR>
0

>  <SCORE.INTER.ROT>
0

>  <SCORE.INTER.SOLV>
3.58611

>  <SCORE.INTER.VDW>
-17.112

>  <SCORE.INTER.norm>
-1.84749

>  <SCORE.INTRA>
0

>  <SCORE.INTRA.DIHEDRAL>
0

>  <SCORE.INTRA.DIHEDRAL.0>
0

>  <SCORE.INTRA.POLAR>
0

>  <SCORE.INTRA.POLAR.0>
0

>  <SCORE.INTRA.REPUL>
0

>  <SCORE.INTRA.REPUL.0>
0

>  <SCORE.INTRA.SOLV>
0

>  <SCORE.INTRA.SOLV.lig_0>
-4.28148

>  <SCORE.INTRA.VDW>
0

>  <SCORE.INTRA.VDW.0>
0

>  <SCORE.INTRA.norm>
0

>  <SCORE.RESTR>
0

>  <SCORE.RESTR.CAVITY>
0

>  <SCORE.RESTR.norm>
0

>  <SCORE.SYSTEM>
0

>  <SCORE.SYSTEM.CONST>
0

>  <SCORE.SYSTEM.DIHEDRAL>
0

>  <SCORE.SYSTEM.SOLV>
0

>  <SCORE.SYSTEM.norm>
0

>  <SCORE.heavy>
10

>  <SCORE.norm>
-1.84749

>  <RMSD>
0.917

$$$$
ligand
 OpenBabel11021811423D
libRbt.so/2013.1/901 2013/11/27
 10 11  0  0  0  0  0  0  0  0999 V2000
   11.8614   10.9562    8.3578 N   0  0  0  0  0  0  0  0  0  0  0  0
   11.5694   12.2808    8.6141 C   0  0  0  0  0  0  0  0  0  0  0  0
   11.1858   13.1245    7.6481 N   0  0  0  0  0  0  0  0  0  0  0  0
   11.1221   12.5408    6.4182 C   0  0  0  0  0  0  0  0  0  0  0  0
   11.4026   11.2220    6.0942 C   0  0  0  0  0  0  0  0  0  0  0  0
   11.8081   10.3203    7.1154 C   0  0  0  0  0  0  0  0  0  0  0  0
   12.1009    9.1261    7.0531 O   0  0  0  0  0  0  0  0  0  0  0  0
   11.2122   11.0571    4.7433 N   0  0  0  0  0  0  0  0  0  0  0  0
   10.8217   12.2602    4.2611 C   0  0  0  0  0  0  0  0  0  0  0  0
   10.7575   13.1962    5.2669 N   0  0  0  0  0  0  0  0  0  0  0  0
  1  2  1  0  0  0  0
  1  6  1  0  0  0  0
  2  3  2  0  0  0  0
  3  4  1  0  0  0  0
  4  5  2  0  0  0  0
  4 10  1  0  0  0  0
  5  6  1  0  0  0  0
  5  8  1  0  0  0  0
  6  7  2  0  0  0  0
  8  9  1  0  0  0  0
  9 10  2  0  0  0  0
M  END
>  <CHROM.1>
11.39797326,11.56215257,6.56897485,0.34095571,-1.27245260,0.97470537

>  <Name>
ligand

>  <RI>
0

>  <Rbt.Current_Directory>
/home/itssahil/PROJECTS/Mol_Feturizer/New_Systems/rnas/2EEU

>  <Rbt.Executable>
rbdock ($Id: //depot/dev/client3/rdock/2013.1/src/exe/rbdock.cxx#4 $)

>  <Rbt.Library>
libRbt.so (2013.1, Build901 2013/11/27)

>  <Rbt.Parameter_File>
/export/apps/rDock/src/rDock_2013.1_src/data/scripts/dock_solv.prm

>  <Rbt.Receptor>
prm/pocket_docking_7.prm

>  <SCORE>
-18.5878

>  <SCORE.INTER>
-18.5878

>  <SCORE.INTER.CONST>
1

>  <SCORE.INTER.POLAR>
0

>  <SCORE.INTER.ROT>
0

>  <SCORE.INTER.SOLV>
3.58128

>  <SCORE.INTER.VDW>
-17.1856

>  <SCORE.INTER.norm>
-1.85878

>  <SCORE.INTRA>
0

>  <SCORE.INTRA.DIHEDRAL>
0

>  <SCORE.INTRA.DIHEDRAL.0>
0

>  <SCORE.INTRA.POLAR>
0

>  <SCORE.INTRA.POLAR.0>
0

>  <SCORE.INTRA.REPUL>
0

>  <SCORE.INTRA.REPUL.0>
0

>  <SCORE.INTRA.SOLV>
0

>  <SCORE.INTRA.SOLV.lig_0>
-4.28148

>  <SCORE.INTRA.VDW>
0

>  <SCORE.INTRA.VDW.0>
0

>  <SCORE.INTRA.norm>
0

>  <SCORE.RESTR>
0

>  <SCORE.RESTR.CAVITY>
0

>  <SCORE.RESTR.norm>
0

>  <SCORE.SYSTEM>
0

>  <SCORE.SYSTEM.CONST>
0

>  <SCORE.SYSTEM.DIHEDRAL>
0

>  <SCORE.SYSTEM.SOLV>
0

>  <SCORE.SYSTEM.norm>
0

>  <SCORE.heavy>
10

>  <SCORE.norm>
-1.85878

>  <RMSD>
0.919

$$$$
ligand
 OpenBabel11021811423D
libRbt.so/2013.1/901 2013/11/27
 10 11  0  0  0  0  0  0  0  0999 V2000
   11.8600   10.9636    8.3626 N   0  0  0  0  0  0  0  0  0  0  0  0
   11.5587   12.2881    8.6085 C   0  0  0  0  0  0  0  0  0  0  0  0
   11.1797   13.1242    7.6341 N   0  0  0  0  0  0  0  0  0  0  0  0
   11.1303   12.5332    6.4071 C   0  0  0  0  0  0  0  0  0  0  0  0
   11.4206   11.2140    6.0933 C   0  0  0  0  0  0  0  0  0  0  0  0
   11.8214   10.3203    7.1234 C   0  0  0  0  0  0  0  0  0  0  0  0
   12.1209    9.1274    7.0707 O   0  0  0  0  0  0  0  0  0  0  0  0
   11.2435   11.0404    4.7417 N   0  0  0  0  0  0  0  0  0  0  0  0
   10.8512   12.2386    4.2491 C   0  0  0  0  0  0  0  0  0  0  0  0
   10.7730   13.1800    5.2488 N   0  0  0  0  0  0  0  0  0  0  0  0
  1  2  1  0  0  0  0
  1  6  1  0  0  0  0
  2  3  2  0  0  0  0
  3  4  1  0  0  0  0
  4  5  2  0  0  0  0
  4 10  1  0  0  0  0
  5  6  1  0  0  0  0
  5  8  1  0  0  0  0
  6  7  2  0  0  0  0
  8  9  1  0  0  0  0
  9 10  2  0  0  0  0
M  END
>  <CHROM.1>
11.40985745,11.55687905,6.56608912,0.37677761,-1.27315473,1.00317956

>  <Name>
ligand

>  <RI>
0

>  <Rbt.Current_Directory>
/home/itssahil/PROJECTS/Mol_Feturizer/New_Systems/rnas/2EEU

>  <Rbt.Executable>
rbdock ($Id: //depot/dev/client3/rdock/2013.1/src/exe/rbdock.cxx#4 $)

>  <Rbt.Library>
libRbt.so (2013.1, Build901 2013/11/27)

>  <Rbt.Parameter_File>
/export/apps/rDock/src/rDock_2013.1_src/data/scripts/dock_solv.prm

>  <Rbt.Receptor>
prm/pocket_docking_6.prm

>  <SCORE>
-18.5668

>  <SCORE.INTER>
-18.5668

>  <SCORE.INTER.CONST>
1

>  <SCORE.INTER.POLAR>
0

>  <SCORE.INTER.ROT>
0

>  <SCORE.INTER.SOLV>
3.56763

>  <SCORE.INTER.VDW>
-17.1671

>  <SCORE.INTER.norm>
-1.85668

>  <SCORE.INTRA>
0

>  <SCORE.INTRA.DIHEDRAL>
0

>  <SCORE.INTRA.DIHEDRAL.0>
0

>  <SCORE.INTRA.POLAR>
0

>  <SCORE.INTRA.POLAR.0>
0

>  <SCORE.INTRA.REPUL>
0

>  <SCORE.INTRA.REPUL.0>
0

>  <SCORE.INTRA.SOLV>
0

>  <SCORE.INTRA.SOLV.lig_0>
-4.28148

>  <SCORE.INTRA.VDW>
0

>  <SCORE.INTRA.VDW.0>
0

>  <SCORE.INTRA.norm>
0

>  <SCORE.RESTR>
0

>  <SCORE.RESTR.CAVITY>
0

>  <SCORE.RESTR.norm>
0

>  <SCORE.SYSTEM>
0

>  <SCORE.SYSTEM.CONST>
0

>  <SCORE.SYSTEM.DIHEDRAL>
0

>  <SCORE.SYSTEM.SOLV>
0

>  <SCORE.SYSTEM.norm>
0

>  <SCORE.heavy>
10

>  <SCORE.norm>
-1.85668

>  <RMSD>
0.921

$$$$
ligand
 OpenBabel11021811423D
libRbt.so/2013.1/901 2013/11/27
 10 11  0  0  0  0  0  0  0  0999 V2000
   11.8035   11.0154    9.0098 N   0  0  0  0  0  0  0  0  0  0  0  0
   11.9741    9.8272    8.3281 C   0  0  0  0  0  0  0  0  0  0  0  0
   11.8142    9.7387    7.0019 N   0  0  0  0  0  0  0  0  0  0  0  0
   11.4706   10.9228    6.4213 C   0  0  0  0  0  0  0  0  0  0  0  0
   11.2828   12.1463    7.0463 C   0  0  0  0  0  0  0  0  0  0  0  0
   11.4532   12.2479    8.4538 C   0  0  0  0  0  0  0  0  0  0  0  0
   11.3396   13.2192    9.2017 O   0  0  0  0  0  0  0  0  0  0  0  0
   10.9443   13.0743    6.0910 N   0  0  0  0  0  0  0  0  0  0  0  0
   10.9294   12.4181    4.9070 C   0  0  0  0  0  0  0  0  0  0  0  0
   11.2479   11.0908    5.0759 N   0  0  0  0  0  0  0  0  0  0  0  0
  1  2  1  0  0  0  0
  1  6  1  0  0  0  0
  2  3  2  0  0  0  0
  3  4  1  0  0  0  0
  4  5  2  0  0  0  0
  4 10  1  0  0  0  0
  5  6  1  0  0  0  0
  5  8  1  0  0  0  0
  6  7  2  0  0  0  0
  8  9  1  0  0  0  0
  9 10  2  0  0  0  0
M  END
>  <CHROM.1>
11.42494619,11.59932346,7.19384702,-0.97774977,1.31492619,-2.12195533

>  <Name>
ligand

>  <RI>
0

>  <Rbt.Current_Directory>
/home/itssahil/PROJECTS/Mol_Feturizer/New_Systems/rnas/2EEU

>  <Rbt.Executable>
rbdock ($Id: //depot/dev/client3/rdock/2013.1/src/exe/rbdock.cxx#4 $)

>  <Rbt.Library>
libRbt.so (2013.1, Build901 2013/11/27)

>  <Rbt.Parameter_File>
/export/apps/rDock/src/rDock_2013.1_src/data/scripts/dock_solv.prm

>  <Rbt.Receptor>
prm/pocket_docking_4.prm

>  <SCORE>
-18.3273

>  <SCORE.INTER>
-18.3273

>  <SCORE.INTER.CONST>
1

>  <SCORE.INTER.POLAR>
0

>  <SCORE.INTER.ROT>
0

>  <SCORE.INTER.SOLV>
3.66871

>  <SCORE.INTER.VDW>
-17.0411

>  <SCORE.INTER.norm>
-1.83273

>  <SCORE.INTRA>
0

>  <SCORE.INTRA.DIHEDRAL>
0

>  <SCORE.INTRA.DIHEDRAL.0>
0

>  <SCORE.INTRA.POLAR>
0

>  <SCORE.INTRA.POLAR.0>
0

>  <SCORE.INTRA.REPUL>
0

>  <SCORE.INTRA.REPUL.0>
0

>  <SCORE.INTRA.SOLV>
0

>  <SCORE.INTRA.SOLV.lig_0>
-4.28148

>  <SCORE.INTRA.VDW>
0

>  <SCORE.INTRA.VDW.0>
0

>  <SCORE.INTRA.norm>
0

>  <SCORE.RESTR>
0

>  <SCORE.RESTR.CAVITY>
0

>  <SCORE.RESTR.norm>
0

>  <SCORE.SYSTEM>
0

>  <SCORE.SYSTEM.CONST>
0

>  <SCORE.SYSTEM.DIHEDRAL>
0

>  <SCORE.SYSTEM.SOLV>
0

>  <SCORE.SYSTEM.norm>
0

>  <SCORE.heavy>
10

>  <SCORE.norm>
-1.83273

>  <RMSD>
2.451

$$$$
ligand
 OpenBabel11021811423D
libRbt.so/2013.1/901 2013/11/27
 10 11  0  0  0  0  0  0  0  0999 V2000
   11.6806   11.1026    9.0082 N   0  0  0  0  0  0  0  0  0  0  0  0
   11.9073    9.9032    8.3635 C   0  0  0  0  0  0  0  0  0  0  0  0
   11.7973    9.7776    7.0352 N   0  0  0  0  0  0  0  0  0  0  0  0
   11.4431   10.9371    6.4127 C   0  0  0  0  0  0  0  0  0  0  0  0
   11.2003   12.1699    6.9993 C   0  0  0  0  0  0  0  0  0  0  0  0
   11.3175   12.3109    8.4089 C   0  0  0  0  0  0  0  0  0  0  0  0
   11.1512   13.2967    9.1272 O   0  0  0  0  0  0  0  0  0  0  0  0
   10.8714   13.0643    6.0092 N   0  0  0  0  0  0  0  0  0  0  0  0
   10.9165   12.3791    4.8427 C   0  0  0  0  0  0  0  0  0  0  0  0
   11.2643   11.0657    5.0566 N   0  0  0  0  0  0  0  0  0  0  0  0
  1  2  1  0  0  0  0
  1  6  1  0  0  0  0
  2  3  2  0  0  0  0
  3  4  1  0  0  0  0
  4  5  2  0  0  0  0
  4 10  1  0  0  0  0
  5  6  1  0  0  0  0
  5  8  1  0  0  0  0
  6  7  2  0  0  0  0
  8  9  1  0  0  0  0
  9 10  2  0  0  0  0
M  END
>  <CHROM.1>
11.35172485,11.63087770,7.16566995,-1.14936609,1.30711514,-1.98119800

>  <Name>
ligand

>  <RI>
0

>  <Rbt.Current_Directory>
/home/itssahil/PROJECTS/Mol_Feturizer/New_Systems/rnas/2EEU

>  <Rbt.Executable>
rbdock ($Id: //depot/dev/client3/rdock/2013.1/src/exe/rbdock.cxx#4 $)

>  <Rbt.Library>
libRbt.so (2013.1, Build901 2013/11/27)

>  <Rbt.Parameter_File>
/export/apps/rDock/src/rDock_2013.1_src/data/scripts/dock_solv.prm

>  <Rbt.Receptor>
prm/blind_docking_80.prm

>  <SCORE>
-18.3432

>  <SCORE.INTER>
-18.3432

>  <SCORE.INTER.CONST>
1

>  <SCORE.INTER.POLAR>
0

>  <SCORE.INTER.ROT>
0

>  <SCORE.INTER.SOLV>
3.80882

>  <SCORE.INTER.VDW>
-17.0984

>  <SCORE.INTER.norm>
-1.83432

>  <SCORE.INTRA>
0

>  <SCORE.INTRA.DIHEDRAL>
0

>  <SCORE.INTRA.DIHEDRAL.0>
0

>  <SCORE.INTRA.POLAR>
0

>  <SCORE.INTRA.POLAR.0>
0

>  <SCORE.INTRA.REPUL>
0

>  <SCORE.INTRA.REPUL.0>
0

>  <SCORE.INTRA.SOLV>
0

>  <SCORE.INTRA.SOLV.lig_0>
-4.28148

>  <SCORE.INTRA.VDW>
0

>  <SCORE.INTRA.VDW.0>
0

>  <SCORE.INTRA.norm>
0

>  <SCORE.RESTR>
0

>  <SCORE.RESTR.CAVITY>
0

>  <SCORE.RESTR.norm>
0

>  <SCORE.SYSTEM>
0

>  <SCORE.SYSTEM.CONST>
0

>  <SCORE.SYSTEM.DIHEDRAL>
0

>  <SCORE.SYSTEM.SOLV>
0

>  <SCORE.SYSTEM.norm>
0

>  <SCORE.heavy>
10

>  <SCORE.norm>
-1.83432

>  <RMSD>
2.464

$$$$
ligand
 OpenBabel11021811423D
libRbt.so/2013.1/901 2013/11/27
 10 11  0  0  0  0  0  0  0  0999 V2000
   11.6974   11.0409    8.9960 N   0  0  0  0  0  0  0  0  0  0  0  0
   11.8781    9.8358    8.3474 C   0  0  0  0  0  0  0  0  0  0  0  0
   11.7545    9.7171    7.0197 N   0  0  0  0  0  0  0  0  0  0  0  0
   11.4361   10.8895    6.4020 C   0  0  0  0  0  0  0  0  0  0  0  0
   11.2401   12.1286    6.9927 C   0  0  0  0  0  0  0  0  0  0  0  0
   11.3720   12.2623    8.4017 C   0  0  0  0  0  0  0  0  0  0  0  0
   11.2448   13.2517    9.1231 O   0  0  0  0  0  0  0  0  0  0  0  0
   10.9353   13.0360    6.0068 N   0  0  0  0  0  0  0  0  0  0  0  0
   10.9485   12.3522    4.8386 C   0  0  0  0  0  0  0  0  0  0  0  0
   11.2523   11.0271    5.0474 N   0  0  0  0  0  0  0  0  0  0  0  0
  1  2  1  0  0  0  0
  1  6  1  0  0  0  0
  2  3  2  0  0  0  0
  3  4  1  0  0  0  0
  4  5  2  0  0  0  0
  4 10  1  0  0  0  0
  5  6  1  0  0  0  0
  5  8  1  0  0  0  0
  6  7  2  0  0  0  0
  8  9  1  0  0  0  0
  9 10  2  0  0  0  0
M  END
>  <CHROM.1>
11.37400683,11.58430035,7.15696080,-1.06273291,1.33506920,-2.06305139

>  <Name>
ligand

>  <RI>
0

>  <Rbt.Current_Directory>
/home/itssahil/PROJECTS/Mol_Feturizer/New_Systems/rnas/2EEU

>  <Rbt.Executable>
rbdock ($Id: //depot/dev/client3/rdock/2013.1/src/exe/rbdock.cxx#4 $)

>  <Rbt.Library>
libRbt.so (2013.1, Build901 2013/11/27)

>  <Rbt.Parameter_File>
/export/apps/rDock/src/rDock_2013.1_src/data/scripts/dock_solv.prm

>  <Rbt.Receptor>
prm/blind_docking_80.prm

>  <SCORE>
-18.3097

>  <SCORE.INTER>
-18.3097

>  <SCORE.INTER.CONST>
1

>  <SCORE.INTER.POLAR>
0

>  <SCORE.INTER.ROT>
0

>  <SCORE.INTER.SOLV>
3.77871

>  <SCORE.INTER.VDW>
-17.066

>  <SCORE.INTER.norm>
-1.83097

>  <SCORE.INTRA>
0

>  <SCORE.INTRA.DIHEDRAL>
0

>  <SCORE.INTRA.DIHEDRAL.0>
0

>  <SCORE.INTRA.POLAR>
0

>  <SCORE.INTRA.POLAR.0>
0

>  <SCORE.INTRA.REPUL>
0

>  <SCORE.INTRA.REPUL.0>
0

>  <SCORE.INTRA.SOLV>
0

>  <SCORE.INTRA.SOLV.lig_0>
-4.28148

>  <SCORE.INTRA.VDW>
0

>  <SCORE.INTRA.VDW.0>
0

>  <SCORE.INTRA.norm>
0

>  <SCORE.RESTR>
0

>  <SCORE.RESTR.CAVITY>
0

>  <SCORE.RESTR.norm>
0

>  <SCORE.SYSTEM>
0

>  <SCORE.SYSTEM.CONST>
0

>  <SCORE.SYSTEM.DIHEDRAL>
0

>  <SCORE.SYSTEM.SOLV>
0

>  <SCORE.SYSTEM.norm>
0

>  <SCORE.heavy>
10

>  <SCORE.norm>
-1.83097

>  <RMSD>
2.466

$$$$
ligand
 OpenBabel11021811423D
libRbt.so/2013.1/901 2013/11/27
 10 11  0  0  0  0  0  0  0  0999 V2000
   11.6711   11.0774    9.0013 N   0  0  0  0  0  0  0  0  0  0  0  0
   11.8659    9.8715    8.3584 C   0  0  0  0  0  0  0  0  0  0  0  0
   11.7531    9.7470    7.0303 N   0  0  0  0  0  0  0  0  0  0  0  0
   11.4303   10.9147    6.4060 C   0  0  0  0  0  0  0  0  0  0  0  0
   11.2203   12.1544    6.9908 C   0  0  0  0  0  0  0  0  0  0  0  0
   11.3407   12.2941    8.4002 C   0  0  0  0  0  0  0  0  0  0  0  0
   11.2006   13.2851    9.1170 O   0  0  0  0  0  0  0  0  0  0  0  0
   10.9159   13.0559    5.9993 N   0  0  0  0  0  0  0  0  0  0  0  0
   10.9430   12.3680    4.8337 C   0  0  0  0  0  0  0  0  0  0  0  0
   11.2554   11.0461    5.0496 N   0  0  0  0  0  0  0  0  0  0  0  0
  1  2  1  0  0  0  0
  1  6  1  0  0  0  0
  2  3  2  0  0  0  0
  3  4  1  0  0  0  0
  4  5  2  0  0  0  0
  4 10  1  0  0  0  0
  5  6  1  0  0  0  0
  5  8  1  0  0  0  0
  6  7  2  0  0  0  0
  8  9  1  0  0  0  0
  9 10  2  0  0  0  0
M  END
>  <CHROM.1>
11.35719064,11.61173247,7.15794329,-1.10572736,1.33158283,-2.02486573

>  <Name>
ligand

>  <RI>
0

>  <Rbt.Current_Directory>
/home/itssahil/PROJECTS/Mol_Feturizer/New_Systems/rnas/2EEU

>  <Rbt.Executable>
rbdock ($Id: //depot/dev/client3/rdock/2013.1/src/exe/rbdock.cxx#4 $)

>  <Rbt.Library>
libRbt.so (2013.1, Build901 2013/11/27)

>  <Rbt.Parameter_File>
/export/apps/rDock/src/rDock_2013.1_src/data/scripts/dock_solv.prm

>  <Rbt.Receptor>
prm/blind_docking_100.prm

>  <SCORE>
-18.3531

>  <SCORE.INTER>
-18.3531

>  <SCORE.INTER.CONST>
1

>  <SCORE.INTER.POLAR>
0

>  <SCORE.INTER.ROT>
0

>  <SCORE.INTER.SOLV>
3.81182

>  <SCORE.INTER.VDW>
-17.106

>  <SCORE.INTER.norm>
-1.83531

>  <SCORE.INTRA>
0

>  <SCORE.INTRA.DIHEDRAL>
0

>  <SCORE.INTRA.DIHEDRAL.0>
0

>  <SCORE.INTRA.POLAR>
0

>  <SCORE.INTRA.POLAR.0>
0

>  <SCORE.INTRA.REPUL>
0

>  <SCORE.INTRA.REPUL.0>
0

>  <SCORE.INTRA.SOLV>
0

>  <SCORE.INTRA.SOLV.lig_0>
-4.28148

>  <SCORE.INTRA.VDW>
0

>  <SCORE.INTRA.VDW.0>
0

>  <SCORE.INTRA.norm>
0

>  <SCORE.RESTR>
0

>  <SCORE.RESTR.CAVITY>
0

>  <SCORE.RESTR.norm>
0

>  <SCORE.SYSTEM>
0

>  <SCORE.SYSTEM.CONST>
0

>  <SCORE.SYSTEM.DIHEDRAL>
0

>  <SCORE.SYSTEM.SOLV>
0

>  <SCORE.SYSTEM.norm>
0

>  <SCORE.heavy>
10

>  <SCORE.norm>
-1.83531

>  <RMSD>
2.467

$$$$
ligand
 OpenBabel11021811423D
libRbt.so/2013.1/901 2013/11/27
 10 11  0  0  0  0  0  0  0  0999 V2000
   11.6662   11.0912    8.9888 N   0  0  0  0  0  0  0  0  0  0  0  0
   11.8697    9.8885    8.3426 C   0  0  0  0  0  0  0  0  0  0  0  0
   11.7524    9.7657    7.0146 N   0  0  0  0  0  0  0  0  0  0  0  0
   11.4158   10.9315    6.3942 C   0  0  0  0  0  0  0  0  0  0  0  0
   11.1966   12.1679    6.9824 C   0  0  0  0  0  0  0  0  0  0  0  0
   11.3217   12.3059    8.3916 C   0  0  0  0  0  0  0  0  0  0  0  0
   11.1751   13.2941    9.1110 O   0  0  0  0  0  0  0  0  0  0  0  0
   10.8793   13.0685    5.9941 N   0  0  0  0  0  0  0  0  0  0  0  0
   10.9080   12.3833    4.8270 C   0  0  0  0  0  0  0  0  0  0  0  0
   11.2339   11.0639    5.0388 N   0  0  0  0  0  0  0  0  0  0  0  0
  1  2  1  0  0  0  0
  1  6  1  0  0  0  0
  2  3  2  0  0  0  0
  3  4  1  0  0  0  0
  4  5  2  0  0  0  0
  4 10  1  0  0  0  0
  5  6  1  0  0  0  0
  5  8  1  0  0  0  0
  6  7  2  0  0  0  0
  8  9  1  0  0  0  0
  9 10  2  0  0  0  0
M  END
>  <CHROM.1>
11.33930854,11.62624411,7.14786568,-1.10711183,1.32113926,-2.02148025

>  <Name>
ligand

>  <RI>
0

>  <Rbt.Current_Directory>
/home/itssahil/PROJECTS/Mol_Feturizer/New_Systems/rnas/2EEU

>  <Rbt.Executable>
rbdock ($Id: //depot/dev/client3/rdock/2013.1/src/exe/rbdock.cxx#4 $)

>  <Rbt.Library>
libRbt.so (2013.1, Build901 2013/11/27)

>  <Rbt.Parameter_File>
/export/apps/rDock/src/rDock_2013.1_src/data/scripts/dock_solv.prm

>  <Rbt.Receptor>
prm/pocket_docking_5.prm

>  <SCORE>
-18.3251

>  <SCORE.INTER>
-18.3251

>  <SCORE.INTER.CONST>
1

>  <SCORE.INTER.POLAR>
0

>  <SCORE.INTER.ROT>
0

>  <SCORE.INTER.SOLV>
3.80902

>  <SCORE.INTER.VDW>
-17.0864

>  <SCORE.INTER.norm>
-1.83251

>  <SCORE.INTRA>
0

>  <SCORE.INTRA.DIHEDRAL>
0

>  <SCORE.INTRA.DIHEDRAL.0>
0

>  <SCORE.INTRA.POLAR>
0

>  <SCORE.INTRA.POLAR.0>
0

>  <SCORE.INTRA.REPUL>
0

>  <SCORE.INTRA.REPUL.0>
0

>  <SCORE.INTRA.SOLV>
0

>  <SCORE.INTRA.SOLV.lig_0>
-4.28148

>  <SCORE.INTRA.VDW>
0

>  <SCORE.INTRA.VDW.0>
0

>  <SCORE.INTRA.norm>
0

>  <SCORE.RESTR>
0

>  <SCORE.RESTR.CAVITY>
0

>  <SCORE.RESTR.norm>
0

>  <SCORE.SYSTEM>
0

>  <SCORE.SYSTEM.CONST>
0

>  <SCORE.SYSTEM.DIHEDRAL>
0

>  <SCORE.SYSTEM.SOLV>
0

>  <SCORE.SYSTEM.norm>
0

>  <SCORE.heavy>
10

>  <SCORE.norm>
-1.83251

>  <RMSD>
2.467

$$$$
ligand
 OpenBabel11021811423D
libRbt.so/2013.1/901 2013/11/27
 10 11  0  0  0  0  0  0  0  0999 V2000
   11.8053   10.9988    8.8855 N   0  0  0  0  0  0  0  0  0  0  0  0
   11.9883    9.8128    8.2033 C   0  0  0  0  0  0  0  0  0  0  0  0
   11.8290    9.7231    6.8771 N   0  0  0  0  0  0  0  0  0  0  0  0
   11.4728   10.9037    6.2970 C   0  0  0  0  0  0  0  0  0  0  0  0
   11.2722   12.1249    6.9226 C   0  0  0  0  0  0  0  0  0  0  0  0
   11.4419   12.2278    8.3301 C   0  0  0  0  0  0  0  0  0  0  0  0
   11.3182   13.1975    9.0783 O   0  0  0  0  0  0  0  0  0  0  0  0
   10.9237   13.0496    5.9677 N   0  0  0  0  0  0  0  0  0  0  0  0
   10.9155   12.3938    4.7835 C   0  0  0  0  0  0  0  0  0  0  0  0
   11.2481   11.0699    4.9518 N   0  0  0  0  0  0  0  0  0  0  0  0
  1  2  1  0  0  0  0
  1  6  1  0  0  0  0
  2  3  2  0  0  0  0
  3  4  1  0  0  0  0
  4  5  2  0  0  0  0
  4 10  1  0  0  0  0
  5  6  1  0  0  0  0
  5  8  1  0  0  0  0
  6  7  2  0  0  0  0
  8  9  1  0  0  0  0
  9 10  2  0  0  0  0
M  END
>  <CHROM.1>
11.42020771,11.57939491,7.06983211,-0.99806798,1.30576524,-2.10193392

>  <Name>
ligand

>  <RI>
0

>  <Rbt.Current_Directory>
/home/itssahil/PROJECTS/Mol_Feturizer/New_Systems/rnas/2EEU

>  <Rbt.Executable>
rbdock ($Id: //depot/dev/client3/rdock/2013.1/src/exe/rbdock.cxx#4 $)

>  <Rbt.Library>
libRbt.so (2013.1, Build901 2013/11/27)

>  <Rbt.Parameter_File>
/export/apps/rDock/src/rDock_2013.1_src/data/scripts/dock_solv.prm

>  <Rbt.Receptor>
prm/pocket_docking_5.prm

>  <SCORE>
-18.3344

>  <SCORE.INTER>
-18.3344

>  <SCORE.INTER.CONST>
1

>  <SCORE.INTER.POLAR>
0

>  <SCORE.INTER.ROT>
0

>  <SCORE.INTER.SOLV>
3.62208

>  <SCORE.INTER.VDW>
-17.0303

>  <SCORE.INTER.norm>
-1.83344

>  <SCORE.INTRA>
0

>  <SCORE.INTRA.DIHEDRAL>
0

>  <SCORE.INTRA.DIHEDRAL.0>
0

>  <SCORE.INTRA.POLAR>
0

>  <SCORE.INTRA.POLAR.0>
0

>  <SCORE.INTRA.REPUL>
0

>  <SCORE.INTRA.REPUL.0>
0

>  <SCORE.INTRA.SOLV>
0

>  <SCORE.INTRA.SOLV.lig_0>
-4.28148

>  <SCORE.INTRA.VDW>
0

>  <SCORE.INTRA.VDW.0>
0

>  <SCORE.INTRA.norm>
0

>  <SCORE.RESTR>
0

>  <SCORE.RESTR.CAVITY>
0

>  <SCORE.RESTR.norm>
0

>  <SCORE.SYSTEM>
0

>  <SCORE.SYSTEM.CONST>
0

>  <SCORE.SYSTEM.DIHEDRAL>
0

>  <SCORE.SYSTEM.SOLV>
0

>  <SCORE.SYSTEM.norm>
0

>  <SCORE.heavy>
10

>  <SCORE.norm>
-1.83344

>  <RMSD>
2.471

$$$$
ligand
 OpenBabel11021811423D
libRbt.so/2013.1/901 2013/11/27
 10 11  0  0  0  0  0  0  0  0999 V2000
   11.7678   11.0228    8.8877 N   0  0  0  0  0  0  0  0  0  0  0  0
   11.9573    9.8378    8.2054 C   0  0  0  0  0  0  0  0  0  0  0  0
   11.8076    9.7495    6.8780 N   0  0  0  0  0  0  0  0  0  0  0  0
   11.4538   10.9303    6.2967 C   0  0  0  0  0  0  0  0  0  0  0  0
   11.2471   12.1505    6.9223 C   0  0  0  0  0  0  0  0  0  0  0  0
   11.4067   12.2520    8.3311 C   0  0  0  0  0  0  0  0  0  0  0  0
   11.2763   13.2206    9.0796 O   0  0  0  0  0  0  0  0  0  0  0  0
   10.9041   13.0758    5.9660 N   0  0  0  0  0  0  0  0  0  0  0  0
   10.9051   12.4214    4.7810 C   0  0  0  0  0  0  0  0  0  0  0  0
   11.2384   11.0977    4.9501 N   0  0  0  0  0  0  0  0  0  0  0  0
  1  2  1  0  0  0  0
  1  6  1  0  0  0  0
  2  3  2  0  0  0  0
  3  4  1  0  0  0  0
  4  5  2  0  0  0  0
  4 10  1  0  0  0  0
  5  6  1  0  0  0  0
  5  8  1  0  0  0  0
  6  7  2  0  0  0  0
  8  9  1  0  0  0  0
  9 10  2  0  0  0  0
M  END
>  <CHROM.1>
11.39478903,11.60501109,7.06997791,-1.02432820,1.30806362,-2.07541580

>  <Name>
ligand

>  <RI>
0

>  <Rbt.Current_Directory>
/home/itssahil/PROJECTS/Mol_Feturizer/New_Systems/rnas/2EEU

>  <Rbt.Executable>
rbdock ($Id: //depot/dev/client3/rdock/2013.1/src/exe/rbdock.cxx#4 $)

>  <Rbt.Library>
libRbt.so (2013.1, Build901 2013/11/27)

>  <Rbt.Parameter_File>
/export/apps/rDock/src/rDock_2013.1_src/data/scripts/dock_solv.prm

>  <Rbt.Receptor>
prm/pocket_docking_6.prm

>  <SCORE>
-18.3177

>  <SCORE.INTER>
-18.3177

>  <SCORE.INTER.CONST>
1

>  <SCORE.INTER.POLAR>
0

>  <SCORE.INTER.ROT>
0

>  <SCORE.INTER.SOLV>
3.65595

>  <SCORE.INTER.VDW>
-17.0305

>  <SCORE.INTER.norm>
-1.83177

>  <SCORE.INTRA>
0

>  <SCORE.INTRA.DIHEDRAL>
0

>  <SCORE.INTRA.DIHEDRAL.0>
0

>  <SCORE.INTRA.POLAR>
0

>  <SCORE.INTRA.POLAR.0>
0

>  <SCORE.INTRA.REPUL>
0

>  <SCORE.INTRA.REPUL.0>
0

>  <SCORE.INTRA.SOLV>
0

>  <SCORE.INTRA.SOLV.lig_0>
-4.28148

>  <SCORE.INTRA.VDW>
0

>  <SCORE.INTRA.VDW.0>
0

>  <SCORE.INTRA.norm>
0

>  <SCORE.RESTR>
0

>  <SCORE.RESTR.CAVITY>
0

>  <SCORE.RESTR.norm>
0

>  <SCORE.SYSTEM>
0

>  <SCORE.SYSTEM.CONST>
0

>  <SCORE.SYSTEM.DIHEDRAL>
0

>  <SCORE.SYSTEM.SOLV>
0

>  <SCORE.SYSTEM.norm>
0

>  <SCORE.heavy>
10

>  <SCORE.norm>
-1.83177

>  <RMSD>
2.471

$$$$
ligand
 OpenBabel11021811423D
libRbt.so/2013.1/901 2013/11/27
 10 11  0  0  0  0  0  0  0  0999 V2000
   11.6961   11.0034    8.9053 N   0  0  0  0  0  0  0  0  0  0  0  0
   11.9259    9.8318    8.2123 C   0  0  0  0  0  0  0  0  0  0  0  0
   11.8173    9.7605    6.8799 N   0  0  0  0  0  0  0  0  0  0  0  0
   11.4610   10.9438    6.3051 C   0  0  0  0  0  0  0  0  0  0  0  0
   11.2150   12.1510    6.9414 C   0  0  0  0  0  0  0  0  0  0  0  0
   11.3308   12.2344    8.3557 C   0  0  0  0  0  0  0  0  0  0  0  0
   11.1618   13.1896    9.1136 O   0  0  0  0  0  0  0  0  0  0  0  0
   10.8849   13.0845    5.9885 N   0  0  0  0  0  0  0  0  0  0  0  0
   10.9324   12.4477    4.7949 C   0  0  0  0  0  0  0  0  0  0  0  0
   11.2829   11.1274    4.9552 N   0  0  0  0  0  0  0  0  0  0  0  0
  1  2  1  0  0  0  0
  1  6  1  0  0  0  0
  2  3  2  0  0  0  0
  3  4  1  0  0  0  0
  4  5  2  0  0  0  0
  4 10  1  0  0  0  0
  5  6  1  0  0  0  0
  5  8  1  0  0  0  0
  6  7  2  0  0  0  0
  8  9  1  0  0  0  0
  9 10  2  0  0  0  0
M  END
>  <CHROM.1>
11.36748955,11.60593896,7.08573409,-1.15538768,1.30539885,-1.93443370

>  <Name>
ligand

>  <RI>
0

>  <Rbt.Current_Directory>
/home/itssahil/PROJECTS/Mol_Feturizer/New_Systems/rnas/2EEU

>  <Rbt.Executable>
rbdock ($Id: //depot/dev/client3/rdock/2013.1/src/exe/rbdock.cxx#4 $)

>  <Rbt.Library>
libRbt.so (2013.1, Build901 2013/11/27)

>  <Rbt.Parameter_File>
/export/apps/rDock/src/rDock_2013.1_src/data/scripts/dock_solv.prm

>  <Rbt.Receptor>
prm/blind_docking_40.prm

>  <SCORE>
-18.3492

>  <SCORE.INTER>
-18.3492

>  <SCORE.INTER.CONST>
1

>  <SCORE.INTER.POLAR>
0

>  <SCORE.INTER.ROT>
0

>  <SCORE.INTER.SOLV>
3.73241

>  <SCORE.INTER.VDW>
-17.0769

>  <SCORE.INTER.norm>
-1.83492

>  <SCORE.INTRA>
0

>  <SCORE.INTRA.DIHEDRAL>
0

>  <SCORE.INTRA.DIHEDRAL.0>
0

>  <SCORE.INTRA.POLAR>
0

>  <SCORE.INTRA.POLAR.0>
0

>  <SCORE.INTRA.REPUL>
0

>  <SCORE.INTRA.REPUL.0>
0

>  <SCORE.INTRA.SOLV>
0

>  <SCORE.INTRA.SOLV.lig_0>
-4.28148

>  <SCORE.INTRA.VDW>
0

>  <SCORE.INTRA.VDW.0>
0

>  <SCORE.INTRA.norm>
0

>  <SCORE.RESTR>
0

>  <SCORE.RESTR.CAVITY>
0

>  <SCORE.RESTR.norm>
0

>  <SCORE.SYSTEM>
0

>  <SCORE.SYSTEM.CONST>
0

>  <SCORE.SYSTEM.DIHEDRAL>
0

>  <SCORE.SYSTEM.SOLV>
0

>  <SCORE.SYSTEM.norm>
0

>  <SCORE.heavy>
10

>  <SCORE.norm>
-1.83492

>  <RMSD>
2.473

$$$$
ligand
 OpenBabel11021811423D
libRbt.so/2013.1/901 2013/11/27
 10 11  0  0  0  0  0  0  0  0999 V2000
   11.8233   11.1222    8.8213 N   0  0  0  0  0  0  0  0  0  0  0  0
   11.9698    9.9182    8.1621 C   0  0  0  0  0  0  0  0  0  0  0  0
   11.7790    9.8021    6.8421 N   0  0  0  0  0  0  0  0  0  0  0  0
   11.4307   10.9760    6.2436 C   0  0  0  0  0  0  0  0  0  0  0  0
   11.2660   12.2141    6.8458 C   0  0  0  0  0  0  0  0  0  0  0  0
   11.4692   12.3450    8.2465 C   0  0  0  0  0  0  0  0  0  0  0  0
   11.3796   13.3331    8.9753 O   0  0  0  0  0  0  0  0  0  0  0  0
   10.9123   13.1236    5.8783 N   0  0  0  0  0  0  0  0  0  0  0  0
   10.8657   12.4421    4.7097 C   0  0  0  0  0  0  0  0  0  0  0  0
   11.1785   11.1164    4.9003 N   0  0  0  0  0  0  0  0  0  0  0  0
  1  2  1  0  0  0  0
  1  6  1  0  0  0  0
  2  3  2  0  0  0  0
  3  4  1  0  0  0  0
  4  5  2  0  0  0  0
  4 10  1  0  0  0  0
  5  6  1  0  0  0  0
  5  8  1  0  0  0  0
  6  7  2  0  0  0  0
  8  9  1  0  0  0  0
  9 10  2  0  0  0  0
M  END
>  <CHROM.1>
11.40754689,11.66939855,7.00203467,-0.88827270,1.30804098,-2.23026651

>  <Name>
ligand

>  <RI>
0

>  <Rbt.Current_Directory>
/home/itssahil/PROJECTS/Mol_Feturizer/New_Systems/rnas/2EEU

>  <Rbt.Executable>
rbdock ($Id: //depot/dev/client3/rdock/2013.1/src/exe/rbdock.cxx#4 $)

>  <Rbt.Library>
libRbt.so (2013.1, Build901 2013/11/27)

>  <Rbt.Parameter_File>
/export/apps/rDock/src/rDock_2013.1_src/data/scripts/dock_solv.prm

>  <Rbt.Receptor>
prm/pocket_docking_4.prm

>  <SCORE>
-18.3073

>  <SCORE.INTER>
-18.3073

>  <SCORE.INTER.CONST>
1

>  <SCORE.INTER.POLAR>
0

>  <SCORE.INTER.ROT>
0

>  <SCORE.INTER.SOLV>
3.65385

>  <SCORE.INTER.VDW>
-17.0228

>  <SCORE.INTER.norm>
-1.83073

>  <SCORE.INTRA>
0

>  <SCORE.INTRA.DIHEDRAL>
0

>  <SCORE.INTRA.DIHEDRAL.0>
0

>  <SCORE.INTRA.POLAR>
0

>  <SCORE.INTRA.POLAR.0>
0

>  <SCORE.INTRA.REPUL>
0

>  <SCORE.INTRA.REPUL.0>
0

>  <SCORE.INTRA.SOLV>
0

>  <SCORE.INTRA.SOLV.lig_0>
-4.28148

>  <SCORE.INTRA.VDW>
0

>  <SCORE.INTRA.VDW.0>
0

>  <SCORE.INTRA.norm>
0

>  <SCORE.RESTR>
0

>  <SCORE.RESTR.CAVITY>
0

>  <SCORE.RESTR.norm>
0

>  <SCORE.SYSTEM>
0

>  <SCORE.SYSTEM.CONST>
0

>  <SCORE.SYSTEM.DIHEDRAL>
0

>  <SCORE.SYSTEM.SOLV>
0

>  <SCORE.SYSTEM.norm>
0

>  <SCORE.heavy>
10

>  <SCORE.norm>
-1.83073

>  <RMSD>
2.474

$$$$
ligand
 OpenBabel11021811423D
libRbt.so/2013.1/901 2013/11/27
 10 11  0  0  0  0  0  0  0  0999 V2000
   11.7583   10.9637    8.8330 N   0  0  0  0  0  0  0  0  0  0  0  0
   11.9245    9.7971    8.1139 C   0  0  0  0  0  0  0  0  0  0  0  0
   11.7665    9.7519    6.7853 N   0  0  0  0  0  0  0  0  0  0  0  0
   11.4295   10.9556    6.2423 C   0  0  0  0  0  0  0  0  0  0  0  0
   11.2464   12.1593    6.9059 C   0  0  0  0  0  0  0  0  0  0  0  0
   11.4149   12.2150    8.3162 C   0  0  0  0  0  0  0  0  0  0  0  0
   11.3045   13.1624    9.0946 O   0  0  0  0  0  0  0  0  0  0  0  0
   10.9139   13.1190    5.9803 N   0  0  0  0  0  0  0  0  0  0  0  0
   10.8980   12.5012    4.7759 C   0  0  0  0  0  0  0  0  0  0  0  0
   11.2099   11.1676    4.9027 N   0  0  0  0  0  0  0  0  0  0  0  0
  1  2  1  0  0  0  0
  1  6  1  0  0  0  0
  2  3  2  0  0  0  0
  3  4  1  0  0  0  0
  4  5  2  0  0  0  0
  4 10  1  0  0  0  0
  5  6  1  0  0  0  0
  5  8  1  0  0  0  0
  6  7  2  0  0  0  0
  8  9  1  0  0  0  0
  9 10  2  0  0  0  0
M  END
>  <CHROM.1>
11.38569122,11.60722351,7.03608241,-0.97372111,1.31986091,-2.09383222

>  <Name>
ligand

>  <RI>
0

>  <Rbt.Current_Directory>
/home/itssahil/PROJECTS/Mol_Feturizer/New_Systems/rnas/2EEU

>  <Rbt.Executable>
rbdock ($Id: //depot/dev/client3/rdock/2013.1/src/exe/rbdock.cxx#4 $)

>  <Rbt.Library>
libRbt.so (2013.1, Build901 2013/11/27)

>  <Rbt.Parameter_File>
/export/apps/rDock/src/rDock_2013.1_src/data/scripts/dock_solv.prm

>  <Rbt.Receptor>
prm/pocket_docking_7.prm

>  <SCORE>
-18.3134

>  <SCORE.INTER>
-18.3134

>  <SCORE.INTER.CONST>
1

>  <SCORE.INTER.POLAR>
0

>  <SCORE.INTER.ROT>
0

>  <SCORE.INTER.SOLV>
3.6019

>  <SCORE.INTER.VDW>
-17.0095

>  <SCORE.INTER.norm>
-1.83134

>  <SCORE.INTRA>
0

>  <SCORE.INTRA.DIHEDRAL>
0

>  <SCORE.INTRA.DIHEDRAL.0>
0

>  <SCORE.INTRA.POLAR>
0

>  <SCORE.INTRA.POLAR.0>
0

>  <SCORE.INTRA.REPUL>
0

>  <SCORE.INTRA.REPUL.0>
0

>  <SCORE.INTRA.SOLV>
0

>  <SCORE.INTRA.SOLV.lig_0>
-4.28148

>  <SCORE.INTRA.VDW>
0

>  <SCORE.INTRA.VDW.0>
0

>  <SCORE.INTRA.norm>
0

>  <SCORE.RESTR>
0

>  <SCORE.RESTR.CAVITY>
0

>  <SCORE.RESTR.norm>
0

>  <SCORE.SYSTEM>
0

>  <SCORE.SYSTEM.CONST>
0

>  <SCORE.SYSTEM.DIHEDRAL>
0

>  <SCORE.SYSTEM.SOLV>
0

>  <SCORE.SYSTEM.norm>
0

>  <SCORE.heavy>
10

>  <SCORE.norm>
-1.83134

>  <RMSD>
2.474

$$$$
ligand
 OpenBabel11021811423D
libRbt.so/2013.1/901 2013/11/27
 10 11  0  0  0  0  0  0  0  0999 V2000
   11.7205   11.0588    8.8553 N   0  0  0  0  0  0  0  0  0  0  0  0
   11.9423    9.8835    8.1661 C   0  0  0  0  0  0  0  0  0  0  0  0
   11.8090    9.8026    6.8365 N   0  0  0  0  0  0  0  0  0  0  0  0
   11.4371   10.9803    6.2604 C   0  0  0  0  0  0  0  0  0  0  0  0
   11.1980   12.1909    6.8930 C   0  0  0  0  0  0  0  0  0  0  0  0
   11.3399   12.2845    8.3042 C   0  0  0  0  0  0  0  0  0  0  0  0
   11.1811   13.2443    9.0586 O   0  0  0  0  0  0  0  0  0  0  0  0
   10.8462   13.1165    5.9401 N   0  0  0  0  0  0  0  0  0  0  0  0
   10.8740   12.4716    4.7502 C   0  0  0  0  0  0  0  0  0  0  0  0
   11.2330   11.1539    4.9128 N   0  0  0  0  0  0  0  0  0  0  0  0
  1  2  1  0  0  0  0
  1  6  1  0  0  0  0
  2  3  2  0  0  0  0
  3  4  1  0  0  0  0
  4  5  2  0  0  0  0
  4 10  1  0  0  0  0
  5  6  1  0  0  0  0
  5  8  1  0  0  0  0
  6  7  2  0  0  0  0
  8  9  1  0  0  0  0
  9 10  2  0  0  0  0
M  END
>  <CHROM.1>
11.35542178,11.64749210,7.03810251,-1.09672422,1.29436868,-1.99781310

>  <Name>
ligand

>  <RI>
0

>  <Rbt.Current_Directory>
/home/itssahil/PROJECTS/Mol_Feturizer/New_Systems/rnas/2EEU

>  <Rbt.Executable>
rbdock ($Id: //depot/dev/client3/rdock/2013.1/src/exe/rbdock.cxx#4 $)

>  <Rbt.Library>
libRbt.so (2013.1, Build901 2013/11/27)

>  <Rbt.Parameter_File>
/export/apps/rDock/src/rDock_2013.1_src/data/scripts/dock_solv.prm

>  <Rbt.Receptor>
prm/blind_docking_60.prm

>  <SCORE>
-18.3536

>  <SCORE.INTER>
-18.3536

>  <SCORE.INTER.CONST>
1

>  <SCORE.INTER.POLAR>
0

>  <SCORE.INTER.ROT>
0

>  <SCORE.INTER.SOLV>
3.67906

>  <SCORE.INTER.VDW>
-17.0621

>  <SCORE.INTER.norm>
-1.83536

>  <SCORE.INTRA>
0

>  <SCORE.INTRA.DIHEDRAL>
0

>  <SCORE.INTRA.DIHEDRAL.0>
0

>  <SCORE.INTRA.POLAR>
0

>  <SCORE.INTRA.POLAR.0>
0

>  <SCORE.INTRA.REPUL>
0

>  <SCORE.INTRA.REPUL.0>
0

>  <SCORE.INTRA.SOLV>
0

>  <SCORE.INTRA.SOLV.lig_0>
-4.28148

>  <SCORE.INTRA.VDW>
0

>  <SCORE.INTRA.VDW.0>
0

>  <SCORE.INTRA.norm>
0

>  <SCORE.RESTR>
0

>  <SCORE.RESTR.CAVITY>
0

>  <SCORE.RESTR.norm>
0

>  <SCORE.SYSTEM>
0

>  <SCORE.SYSTEM.CONST>
0

>  <SCORE.SYSTEM.DIHEDRAL>
0

>  <SCORE.SYSTEM.SOLV>
0

>  <SCORE.SYSTEM.norm>
0

>  <SCORE.heavy>
10

>  <SCORE.norm>
-1.83536

>  <RMSD>
2.476

$$$$
ligand
 OpenBabel11021811423D
libRbt.so/2013.1/901 2013/11/27
 10 11  0  0  0  0  0  0  0  0999 V2000
   11.7245   11.0434    8.8689 N   0  0  0  0  0  0  0  0  0  0  0  0
   11.9450    9.8653    8.1841 C   0  0  0  0  0  0  0  0  0  0  0  0
   11.8143    9.7802    6.8545 N   0  0  0  0  0  0  0  0  0  0  0  0
   11.4462   10.9569    6.2737 C   0  0  0  0  0  0  0  0  0  0  0  0
   11.2085   12.1701    6.9017 C   0  0  0  0  0  0  0  0  0  0  0  0
   11.3477   12.2681    8.3129 C   0  0  0  0  0  0  0  0  0  0  0  0
   11.1894   13.2308    9.0638 O   0  0  0  0  0  0  0  0  0  0  0  0
   10.8607   13.0932    5.9450 N   0  0  0  0  0  0  0  0  0  0  0  0
   10.8895   12.4444    4.7574 C   0  0  0  0  0  0  0  0  0  0  0  0
   11.2452   11.1264    4.9251 N   0  0  0  0  0  0  0  0  0  0  0  0
  1  2  1  0  0  0  0
  1  6  1  0  0  0  0
  2  3  2  0  0  0  0
  3  4  1  0  0  0  0
  4  5  2  0  0  0  0
  4 10  1  0  0  0  0
  5  6  1  0  0  0  0
  5  8  1  0  0  0  0
  6  7  2  0  0  0  0
  8  9  1  0  0  0  0
  9 10  2  0  0  0  0
M  END
>  <CHROM.1>
11.36438668,11.62682844,7.04899859,-1.10020775,1.29723393,-1.99780710

>  <Name>
ligand

>  <RI>
0

>  <Rbt.Current_Directory>
/home/itssahil/PROJECTS/Mol_Feturizer/New_Systems/rnas/2EEU

>  <Rbt.Executable>
rbdock ($Id: //depot/dev/client3/rdock/2013.1/src/exe/rbdock.cxx#4 $)

>  <Rbt.Library>
libRbt.so (2013.1, Build901 2013/11/27)

>  <Rbt.Parameter_File>
/export/apps/rDock/src/rDock_2013.1_src/data/scripts/dock_solv.prm

>  <Rbt.Receptor>
prm/pocket_docking_3.prm

>  <SCORE>
-18.3223

>  <SCORE.INTER>
-18.3223

>  <SCORE.INTER.CONST>
1

>  <SCORE.INTER.POLAR>
0

>  <SCORE.INTER.ROT>
0

>  <SCORE.INTER.SOLV>
3.68547

>  <SCORE.INTER.VDW>
-17.0434

>  <SCORE.INTER.norm>
-1.83223

>  <SCORE.INTRA>
0

>  <SCORE.INTRA.DIHEDRAL>
0

>  <SCORE.INTRA.DIHEDRAL.0>
0

>  <SCORE.INTRA.POLAR>
0

>  <SCORE.INTRA.POLAR.0>
0

>  <SCORE.INTRA.REPUL>
0

>  <SCORE.INTRA.REPUL.0>
0

>  <SCORE.INTRA.SOLV>
0

>  <SCORE.INTRA.SOLV.lig_0>
-4.28148

>  <SCORE.INTRA.VDW>
0

>  <SCORE.INTRA.VDW.0>
0

>  <SCORE.INTRA.norm>
0

>  <SCORE.RESTR>
0

>  <SCORE.RESTR.CAVITY>
0

>  <SCORE.RESTR.norm>
0

>  <SCORE.SYSTEM>
0

>  <SCORE.SYSTEM.CONST>
0

>  <SCORE.SYSTEM.DIHEDRAL>
0

>  <SCORE.SYSTEM.SOLV>
0

>  <SCORE.SYSTEM.norm>
0

>  <SCORE.heavy>
10

>  <SCORE.norm>
-1.83223

>  <RMSD>
2.476

$$$$
ligand
 OpenBabel11021811423D
libRbt.so/2013.1/901 2013/11/27
 10 11  0  0  0  0  0  0  0  0999 V2000
   11.8311   11.0606    8.7951 N   0  0  0  0  0  0  0  0  0  0  0  0
   11.9710    9.8658    8.1179 C   0  0  0  0  0  0  0  0  0  0  0  0
   11.7785    9.7703    6.7965 N   0  0  0  0  0  0  0  0  0  0  0  0
   11.4357   10.9547    6.2158 C   0  0  0  0  0  0  0  0  0  0  0  0
   11.2777   12.1846    6.8366 C   0  0  0  0  0  0  0  0  0  0  0  0
   11.4828   12.2935    8.2389 C   0  0  0  0  0  0  0  0  0  0  0  0
   11.3988   13.2711    8.9824 O   0  0  0  0  0  0  0  0  0  0  0  0
   10.9279   13.1102    5.8830 N   0  0  0  0  0  0  0  0  0  0  0  0
   10.8768   12.4464    4.7044 C   0  0  0  0  0  0  0  0  0  0  0  0
   11.1831   11.1164    4.8750 N   0  0  0  0  0  0  0  0  0  0  0  0
  1  2  1  0  0  0  0
  1  6  1  0  0  0  0
  2  3  2  0  0  0  0
  3  4  1  0  0  0  0
  4  5  2  0  0  0  0
  4 10  1  0  0  0  0
  5  6  1  0  0  0  0
  5  8  1  0  0  0  0
  6  7  2  0  0  0  0
  8  9  1  0  0  0  0
  9 10  2  0  0  0  0
M  END
>  <CHROM.1>
11.41665233,11.63686891,6.98450700,-0.87356036,1.31152537,-2.22958542

>  <Name>
ligand

>  <RI>
0

>  <Rbt.Current_Directory>
/home/itssahil/PROJECTS/Mol_Feturizer/New_Systems/rnas/2EEU

>  <Rbt.Executable>
rbdock ($Id: //depot/dev/client3/rdock/2013.1/src/exe/rbdock.cxx#4 $)

>  <Rbt.Library>
libRbt.so (2013.1, Build901 2013/11/27)

>  <Rbt.Parameter_File>
/export/apps/rDock/src/rDock_2013.1_src/data/scripts/dock_solv.prm

>  <Rbt.Receptor>
prm/pocket_docking_3.prm

>  <SCORE>
-18.3399

>  <SCORE.INTER>
-18.3399

>  <SCORE.INTER.CONST>
1

>  <SCORE.INTER.POLAR>
0

>  <SCORE.INTER.ROT>
0

>  <SCORE.INTER.SOLV>
3.60055

>  <SCORE.INTER.VDW>
-17.0268

>  <SCORE.INTER.norm>
-1.83399

>  <SCORE.INTRA>
0

>  <SCORE.INTRA.DIHEDRAL>
0

>  <SCORE.INTRA.DIHEDRAL.0>
0

>  <SCORE.INTRA.POLAR>
0

>  <SCORE.INTRA.POLAR.0>
0

>  <SCORE.INTRA.REPUL>
0

>  <SCORE.INTRA.REPUL.0>
0

>  <SCORE.INTRA.SOLV>
0

>  <SCORE.INTRA.SOLV.lig_0>
-4.28148

>  <SCORE.INTRA.VDW>
0

>  <SCORE.INTRA.VDW.0>
0

>  <SCORE.INTRA.norm>
0

>  <SCORE.RESTR>
0

>  <SCORE.RESTR.CAVITY>
0

>  <SCORE.RESTR.norm>
0

>  <SCORE.SYSTEM>
0

>  <SCORE.SYSTEM.CONST>
0

>  <SCORE.SYSTEM.DIHEDRAL>
0

>  <SCORE.SYSTEM.SOLV>
0

>  <SCORE.SYSTEM.norm>
0

>  <SCORE.heavy>
10

>  <SCORE.norm>
-1.83399

>  <RMSD>
2.478

$$$$
ligand
 OpenBabel11021811423D
libRbt.so/2013.1/901 2013/11/27
 10 11  0  0  0  0  0  0  0  0999 V2000
   11.8104   11.0702    8.7960 N   0  0  0  0  0  0  0  0  0  0  0  0
   11.9608    9.8765    8.1193 C   0  0  0  0  0  0  0  0  0  0  0  0
   11.7788    9.7809    6.7964 N   0  0  0  0  0  0  0  0  0  0  0  0
   11.4349   10.9640    6.2138 C   0  0  0  0  0  0  0  0  0  0  0  0
   11.2666   12.1928    6.8340 C   0  0  0  0  0  0  0  0  0  0  0  0
   11.4606   12.3019    8.2379 C   0  0  0  0  0  0  0  0  0  0  0  0
   11.3665   13.2787    8.9813 O   0  0  0  0  0  0  0  0  0  0  0  0
   10.9198   13.1173    5.8783 N   0  0  0  0  0  0  0  0  0  0  0  0
   10.8807   12.4539    4.6990 C   0  0  0  0  0  0  0  0  0  0  0  0
   11.1917   11.1253    4.8712 N   0  0  0  0  0  0  0  0  0  0  0  0
  1  2  1  0  0  0  0
  1  6  1  0  0  0  0
  2  3  2  0  0  0  0
  3  4  1  0  0  0  0
  4  5  2  0  0  0  0
  4 10  1  0  0  0  0
  5  6  1  0  0  0  0
  5  8  1  0  0  0  0
  6  7  2  0  0  0  0
  8  9  1  0  0  0  0
  9 10  2  0  0  0  0
M  END
>  <CHROM.1>
11.40695119,11.64562893,6.98268309,-0.90795531,1.31237201,-2.19578566

>  <Name>
ligand

>  <RI>
0

>  <Rbt.Current_Directory>
/home/itssahil/PROJECTS/Mol_Feturizer/New_Systems/rnas/2EEU

>  <Rbt.Executable>
rbdock ($Id: //depot/dev/client3/rdock/2013.1/src/exe/rbdock.cxx#4 $)

>  <Rbt.Library>
libRbt.so (2013.1, Build901 2013/11/27)

>  <Rbt.Parameter_File>
/export/apps/rDock/src/rDock_2013.1_src/data/scripts/dock_solv.prm

>  <Rbt.Receptor>
prm/blind_docking_100.prm

>  <SCORE>
-18.3482

>  <SCORE.INTER>
-18.3482

>  <SCORE.INTER.CONST>
1

>  <SCORE.INTER.POLAR>
0

>  <SCORE.INTER.ROT>
0

>  <SCORE.INTER.SOLV>
3.61597

>  <SCORE.INTER.VDW>
-17.0375

>  <SCORE.INTER.norm>
-1.83482

>  <SCORE.INTRA>
0

>  <SCORE.INTRA.DIHEDRAL>
0

>  <SCORE.INTRA.DIHEDRAL.0>
0

>  <SCORE.INTRA.POLAR>
0

>  <SCORE.INTRA.POLAR.0>
0

>  <SCORE.INTRA.REPUL>
0

>  <SCORE.INTRA.REPUL.0>
0

>  <SCORE.INTRA.SOLV>
0

>  <SCORE.INTRA.SOLV.lig_0>
-4.28148

>  <SCORE.INTRA.VDW>
0

>  <SCORE.INTRA.VDW.0>
0

>  <SCORE.INTRA.norm>
0

>  <SCORE.RESTR>
0

>  <SCORE.RESTR.CAVITY>
0

>  <SCORE.RESTR.norm>
0

>  <SCORE.SYSTEM>
0

>  <SCORE.SYSTEM.CONST>
0

>  <SCORE.SYSTEM.DIHEDRAL>
0

>  <SCORE.SYSTEM.SOLV>
0

>  <SCORE.SYSTEM.norm>
0

>  <SCORE.heavy>
10

>  <SCORE.norm>
-1.83482

>  <RMSD>
2.479

$$$$
ligand
 OpenBabel11021811423D
libRbt.so/2013.1/901 2013/11/27
 10 11  0  0  0  0  0  0  0  0999 V2000
   11.7656   10.9828    8.8189 N   0  0  0  0  0  0  0  0  0  0  0  0
   11.9390    9.8084    8.1145 C   0  0  0  0  0  0  0  0  0  0  0  0
   11.7851    9.7463    6.7860 N   0  0  0  0  0  0  0  0  0  0  0  0
   11.4444   10.9418    6.2275 C   0  0  0  0  0  0  0  0  0  0  0  0
   11.2540   12.1527    6.8759 C   0  0  0  0  0  0  0  0  0  0  0  0
   11.4182   12.2263    8.2859 C   0  0  0  0  0  0  0  0  0  0  0  0
   11.3014   13.1825    9.0524 O   0  0  0  0  0  0  0  0  0  0  0  0
   10.9201   13.0996    5.9377 N   0  0  0  0  0  0  0  0  0  0  0  0
   10.9103   12.4671    4.7409 C   0  0  0  0  0  0  0  0  0  0  0  0
   11.2278   11.1366    4.8848 N   0  0  0  0  0  0  0  0  0  0  0  0
  1  2  1  0  0  0  0
  1  6  1  0  0  0  0
  2  3  2  0  0  0  0
  3  4  1  0  0  0  0
  4  5  2  0  0  0  0
  4 10  1  0  0  0  0
  5  6  1  0  0  0  0
  5  8  1  0  0  0  0
  6  7  2  0  0  0  0
  8  9  1  0  0  0  0
  9 10  2  0  0  0  0
M  END
>  <CHROM.1>
11.39541190,11.60283556,7.01316527,-0.99257883,1.31745547,-2.08771938

>  <Name>
ligand

>  <RI>
0

>  <Rbt.Current_Directory>
/home/itssahil/PROJECTS/Mol_Feturizer/New_Systems/rnas/2EEU

>  <Rbt.Executable>
rbdock ($Id: //depot/dev/client3/rdock/2013.1/src/exe/rbdock.cxx#4 $)

>  <Rbt.Library>
libRbt.so (2013.1, Build901 2013/11/27)

>  <Rbt.Parameter_File>
/export/apps/rDock/src/rDock_2013.1_src/data/scripts/dock_solv.prm

>  <Rbt.Receptor>
prm/blind_docking_60.prm

>  <SCORE>
-18.3442

>  <SCORE.INTER>
-18.3442

>  <SCORE.INTER.CONST>
1

>  <SCORE.INTER.POLAR>
0

>  <SCORE.INTER.ROT>
0

>  <SCORE.INTER.SOLV>
3.60983

>  <SCORE.INTER.VDW>
-17.0328

>  <SCORE.INTER.norm>
-1.83442

>  <SCORE.INTRA>
0

>  <SCORE.INTRA.DIHEDRAL>
0

>  <SCORE.INTRA.DIHEDRAL.0>
0

>  <SCORE.INTRA.POLAR>
0

>  <SCORE.INTRA.POLAR.0>
0

>  <SCORE.INTRA.REPUL>
0

>  <SCORE.INTRA.REPUL.0>
0

>  <SCORE.INTRA.SOLV>
0

>  <SCORE.INTRA.SOLV.lig_0>
-4.28148

>  <SCORE.INTRA.VDW>
0

>  <SCORE.INTRA.VDW.0>
0

>  <SCORE.INTRA.norm>
0

>  <SCORE.RESTR>
0

>  <SCORE.RESTR.CAVITY>
0

>  <SCORE.RESTR.norm>
0

>  <SCORE.SYSTEM>
0

>  <SCORE.SYSTEM.CONST>
0

>  <SCORE.SYSTEM.DIHEDRAL>
0

>  <SCORE.SYSTEM.SOLV>
0

>  <SCORE.SYSTEM.norm>
0

>  <SCORE.heavy>
10

>  <SCORE.norm>
-1.83442

>  <RMSD>
2.479

$$$$
ligand
 OpenBabel11021811423D
libRbt.so/2013.1/901 2013/11/27
 10 11  0  0  0  0  0  0  0  0999 V2000
   11.7987   11.0604    8.8016 N   0  0  0  0  0  0  0  0  0  0  0  0
   11.9496    9.8688    8.1212 C   0  0  0  0  0  0  0  0  0  0  0  0
   11.7706    9.7780    6.7976 N   0  0  0  0  0  0  0  0  0  0  0  0
   11.4293   10.9634    6.2182 C   0  0  0  0  0  0  0  0  0  0  0  0
   11.2607   12.1902    6.8422 C   0  0  0  0  0  0  0  0  0  0  0  0
   11.4515   12.2943    8.2469 C   0  0  0  0  0  0  0  0  0  0  0  0
   11.3566   13.2686    8.9934 O   0  0  0  0  0  0  0  0  0  0  0  0
   10.9171   13.1184    5.8889 N   0  0  0  0  0  0  0  0  0  0  0  0
   10.8802   12.4590    4.7072 C   0  0  0  0  0  0  0  0  0  0  0  0
   11.1895   11.1295    4.8756 N   0  0  0  0  0  0  0  0  0  0  0  0
  1  2  1  0  0  0  0
  1  6  1  0  0  0  0
  2  3  2  0  0  0  0
  3  4  1  0  0  0  0
  4  5  2  0  0  0  0
  4 10  1  0  0  0  0
  5  6  1  0  0  0  0
  5  8  1  0  0  0  0
  6  7  2  0  0  0  0
  8  9  1  0  0  0  0
  9 10  2  0  0  0  0
M  END
>  <CHROM.1>
11.40018945,11.64241505,6.98933300,-0.91339221,1.31456482,-2.18710092

>  <Name>
ligand

>  <RI>
0

>  <Rbt.Current_Directory>
/home/itssahil/PROJECTS/Mol_Feturizer/New_Systems/rnas/2EEU

>  <Rbt.Executable>
rbdock ($Id: //depot/dev/client3/rdock/2013.1/src/exe/rbdock.cxx#4 $)

>  <Rbt.Library>
libRbt.so (2013.1, Build901 2013/11/27)

>  <Rbt.Parameter_File>
/export/apps/rDock/src/rDock_2013.1_src/data/scripts/dock_solv.prm

>  <Rbt.Receptor>
prm/pocket_docking_5.prm

>  <SCORE>
-18.3471

>  <SCORE.INTER>
-18.3471

>  <SCORE.INTER.CONST>
1

>  <SCORE.INTER.POLAR>
0

>  <SCORE.INTER.ROT>
0

>  <SCORE.INTER.SOLV>
3.61927

>  <SCORE.INTER.VDW>
-17.0378

>  <SCORE.INTER.norm>
-1.83471

>  <SCORE.INTRA>
0

>  <SCORE.INTRA.DIHEDRAL>
0

>  <SCORE.INTRA.DIHEDRAL.0>
0

>  <SCORE.INTRA.POLAR>
0

>  <SCORE.INTRA.POLAR.0>
0

>  <SCORE.INTRA.REPUL>
0

>  <SCORE.INTRA.REPUL.0>
0

>  <SCORE.INTRA.SOLV>
0

>  <SCORE.INTRA.SOLV.lig_0>
-4.28148

>  <SCORE.INTRA.VDW>
0

>  <SCORE.INTRA.VDW.0>
0

>  <SCORE.INTRA.norm>
0

>  <SCORE.RESTR>
0

>  <SCORE.RESTR.CAVITY>
0

>  <SCORE.RESTR.norm>
0

>  <SCORE.SYSTEM>
0

>  <SCORE.SYSTEM.CONST>
0

>  <SCORE.SYSTEM.DIHEDRAL>
0

>  <SCORE.SYSTEM.SOLV>
0

>  <SCORE.SYSTEM.norm>
0

>  <SCORE.heavy>
10

>  <SCORE.norm>
-1.83471

>  <RMSD>
2.479

$$$$
ligand
 OpenBabel11021811423D
libRbt.so/2013.1/901 2013/11/27
 10 11  0  0  0  0  0  0  0  0999 V2000
   11.7962   11.0681    8.8000 N   0  0  0  0  0  0  0  0  0  0  0  0
   11.9502    9.8755    8.1220 C   0  0  0  0  0  0  0  0  0  0  0  0
   11.7748    9.7821    6.7981 N   0  0  0  0  0  0  0  0  0  0  0  0
   11.4335   10.9660    6.2158 C   0  0  0  0  0  0  0  0  0  0  0  0
   11.2618   12.1938    6.8371 C   0  0  0  0  0  0  0  0  0  0  0  0
   11.4489   12.3006    8.2422 C   0  0  0  0  0  0  0  0  0  0  0  0
   11.3509   13.2761    8.9867 O   0  0  0  0  0  0  0  0  0  0  0  0
   10.9195   13.1198    5.8813 N   0  0  0  0  0  0  0  0  0  0  0  0
   10.8864   12.4583    4.7007 C   0  0  0  0  0  0  0  0  0  0  0  0
   11.1969   11.1295    4.8723 N   0  0  0  0  0  0  0  0  0  0  0  0
  1  2  1  0  0  0  0
  1  6  1  0  0  0  0
  2  3  2  0  0  0  0
  3  4  1  0  0  0  0
  4  5  2  0  0  0  0
  4 10  1  0  0  0  0
  5  6  1  0  0  0  0
  5  8  1  0  0  0  0
  6  7  2  0  0  0  0
  8  9  1  0  0  0  0
  9 10  2  0  0  0  0
M  END
>  <CHROM.1>
11.40158199,11.64640960,6.98563198,-0.92436342,1.31503256,-2.17827500

>  <Name>
ligand

>  <RI>
0

>  <Rbt.Current_Directory>
/home/itssahil/PROJECTS/Mol_Feturizer/New_Systems/rnas/2EEU

>  <Rbt.Executable>
rbdock ($Id: //depot/dev/client3/rdock/2013.1/src/exe/rbdock.cxx#4 $)

>  <Rbt.Library>
libRbt.so (2013.1, Build901 2013/11/27)

>  <Rbt.Parameter_File>
/export/apps/rDock/src/rDock_2013.1_src/data/scripts/dock_solv.prm

>  <Rbt.Receptor>
prm/blind_docking_60.prm

>  <SCORE>
-18.3494

>  <SCORE.INTER>
-18.3494

>  <SCORE.INTER.CONST>
1

>  <SCORE.INTER.POLAR>
0

>  <SCORE.INTER.ROT>
0

>  <SCORE.INTER.SOLV>
3.62714

>  <SCORE.INTER.VDW>
-17.042

>  <SCORE.INTER.norm>
-1.83494

>  <SCORE.INTRA>
0

>  <SCORE.INTRA.DIHEDRAL>
0

>  <SCORE.INTRA.DIHEDRAL.0>
0

>  <SCORE.INTRA.POLAR>
0

>  <SCORE.INTRA.POLAR.0>
0

>  <SCORE.INTRA.REPUL>
0

>  <SCORE.INTRA.REPUL.0>
0

>  <SCORE.INTRA.SOLV>
0

>  <SCORE.INTRA.SOLV.lig_0>
-4.28148

>  <SCORE.INTRA.VDW>
0

>  <SCORE.INTRA.VDW.0>
0

>  <SCORE.INTRA.norm>
0

>  <SCORE.RESTR>
0

>  <SCORE.RESTR.CAVITY>
0

>  <SCORE.RESTR.norm>
0

>  <SCORE.SYSTEM>
0

>  <SCORE.SYSTEM.CONST>
0

>  <SCORE.SYSTEM.DIHEDRAL>
0

>  <SCORE.SYSTEM.SOLV>
0

>  <SCORE.SYSTEM.norm>
0

>  <SCORE.heavy>
10

>  <SCORE.norm>
-1.83494

>  <RMSD>
2.480

$$$$
ligand
 OpenBabel11021811423D
libRbt.so/2013.1/901 2013/11/27
 10 11  0  0  0  0  0  0  0  0999 V2000
   11.8004   11.0629    8.7984 N   0  0  0  0  0  0  0  0  0  0  0  0
   11.9504    9.8689    8.1219 C   0  0  0  0  0  0  0  0  0  0  0  0
   11.7714    9.7738    6.7986 N   0  0  0  0  0  0  0  0  0  0  0  0
   11.4312   10.9576    6.2153 C   0  0  0  0  0  0  0  0  0  0  0  0
   11.2636   12.1866    6.8351 C   0  0  0  0  0  0  0  0  0  0  0  0
   11.4543   12.2952    8.2395 C   0  0  0  0  0  0  0  0  0  0  0  0
   11.3601   13.2721    8.9827 O   0  0  0  0  0  0  0  0  0  0  0  0
   10.9208   13.1118    5.8787 N   0  0  0  0  0  0  0  0  0  0  0  0
   10.8835   12.4486    4.6992 C   0  0  0  0  0  0  0  0  0  0  0  0
   11.1917   11.1194    4.8720 N   0  0  0  0  0  0  0  0  0  0  0  0
  1  2  1  0  0  0  0
  1  6  1  0  0  0  0
  2  3  2  0  0  0  0
  3  4  1  0  0  0  0
  4  5  2  0  0  0  0
  4 10  1  0  0  0  0
  5  6  1  0  0  0  0
  5  8  1  0  0  0  0
  6  7  2  0  0  0  0
  8  9  1  0  0  0  0
  9 10  2  0  0  0  0
M  END
>  <CHROM.1>
11.40255641,11.63918585,6.98411366,-0.91178741,1.31530712,-2.19199626

>  <Name>
ligand

>  <RI>
0

>  <Rbt.Current_Directory>
/home/itssahil/PROJECTS/Mol_Feturizer/New_Systems/rnas/2EEU

>  <Rbt.Executable>
rbdock ($Id: //depot/dev/client3/rdock/2013.1/src/exe/rbdock.cxx#4 $)

>  <Rbt.Library>
libRbt.so (2013.1, Build901 2013/11/27)

>  <Rbt.Parameter_File>
/export/apps/rDock/src/rDock_2013.1_src/data/scripts/dock_solv.prm

>  <Rbt.Receptor>
prm/pocket_docking_4.prm

>  <SCORE>
-18.3487

>  <SCORE.INTER>
-18.3487

>  <SCORE.INTER.CONST>
1

>  <SCORE.INTER.POLAR>
0

>  <SCORE.INTER.ROT>
0

>  <SCORE.INTER.SOLV>
3.62167

>  <SCORE.INTER.VDW>
-17.0397

>  <SCORE.INTER.norm>
-1.83487

>  <SCORE.INTRA>
0

>  <SCORE.INTRA.DIHEDRAL>
0

>  <SCORE.INTRA.DIHEDRAL.0>
0

>  <SCORE.INTRA.POLAR>
0

>  <SCORE.INTRA.POLAR.0>
0

>  <SCORE.INTRA.REPUL>
0

>  <SCORE.INTRA.REPUL.0>
0

>  <SCORE.INTRA.SOLV>
0

>  <SCORE.INTRA.SOLV.lig_0>
-4.28148

>  <SCORE.INTRA.VDW>
0

>  <SCORE.INTRA.VDW.0>
0

>  <SCORE.INTRA.norm>
0

>  <SCORE.RESTR>
0

>  <SCORE.RESTR.CAVITY>
0

>  <SCORE.RESTR.norm>
0

>  <SCORE.SYSTEM>
0

>  <SCORE.SYSTEM.CONST>
0

>  <SCORE.SYSTEM.DIHEDRAL>
0

>  <SCORE.SYSTEM.SOLV>
0

>  <SCORE.SYSTEM.norm>
0

>  <SCORE.heavy>
10

>  <SCORE.norm>
-1.83487

>  <RMSD>
2.480

$$$$
ligand
 OpenBabel11021811423D
libRbt.so/2013.1/901 2013/11/27
 10 11  0  0  0  0  0  0  0  0999 V2000
   11.8179   11.0228    8.7778 N   0  0  0  0  0  0  0  0  0  0  0  0
   11.9420    9.8338    8.0875 C   0  0  0  0  0  0  0  0  0  0  0  0
   11.7480    9.7554    6.7652 N   0  0  0  0  0  0  0  0  0  0  0  0
   11.4207   10.9505    6.1977 C   0  0  0  0  0  0  0  0  0  0  0  0
   11.2790   12.1754    6.8320 C   0  0  0  0  0  0  0  0  0  0  0  0
   11.4857   12.2663    8.2353 C   0  0  0  0  0  0  0  0  0  0  0  0
   11.4147   13.2367    8.9896 O   0  0  0  0  0  0  0  0  0  0  0  0
   10.9412   13.1159    5.8888 N   0  0  0  0  0  0  0  0  0  0  0  0
   10.8812   12.4658    4.7029 C   0  0  0  0  0  0  0  0  0  0  0  0
   11.1700   11.1301    4.8588 N   0  0  0  0  0  0  0  0  0  0  0  0
  1  2  1  0  0  0  0
  1  6  1  0  0  0  0
  2  3  2  0  0  0  0
  3  4  1  0  0  0  0
  4  5  2  0  0  0  0
  4 10  1  0  0  0  0
  5  6  1  0  0  0  0
  5  8  1  0  0  0  0
  6  7  2  0  0  0  0
  8  9  1  0  0  0  0
  9 10  2  0  0  0  0
M  END
>  <CHROM.1>
11.41074779,11.62433709,6.97383757,-0.84041990,1.32166283,-2.25068167

>  <Name>
ligand

>  <RI>
0

>  <Rbt.Current_Directory>
/home/itssahil/PROJECTS/Mol_Feturizer/New_Systems/rnas/2EEU

>  <Rbt.Executable>
rbdock ($Id: //depot/dev/client3/rdock/2013.1/src/exe/rbdock.cxx#4 $)

>  <Rbt.Library>
libRbt.so (2013.1, Build901 2013/11/27)

>  <Rbt.Parameter_File>
/export/apps/rDock/src/rDock_2013.1_src/data/scripts/dock_solv.prm

>  <Rbt.Receptor>
prm/pocket_docking_4.prm

>  <SCORE>
-18.357

>  <SCORE.INTER>
-18.357

>  <SCORE.INTER.CONST>
1

>  <SCORE.INTER.POLAR>
0

>  <SCORE.INTER.ROT>
0

>  <SCORE.INTER.SOLV>
3.58605

>  <SCORE.INTER.VDW>
-17.0333

>  <SCORE.INTER.norm>
-1.8357

>  <SCORE.INTRA>
0

>  <SCORE.INTRA.DIHEDRAL>
0

>  <SCORE.INTRA.DIHEDRAL.0>
0

>  <SCORE.INTRA.POLAR>
0

>  <SCORE.INTRA.POLAR.0>
0

>  <SCORE.INTRA.REPUL>
0

>  <SCORE.INTRA.REPUL.0>
0

>  <SCORE.INTRA.SOLV>
0

>  <SCORE.INTRA.SOLV.lig_0>
-4.28148

>  <SCORE.INTRA.VDW>
0

>  <SCORE.INTRA.VDW.0>
0

>  <SCORE.INTRA.norm>
0

>  <SCORE.RESTR>
0

>  <SCORE.RESTR.CAVITY>
0

>  <SCORE.RESTR.norm>
0

>  <SCORE.SYSTEM>
0

>  <SCORE.SYSTEM.CONST>
0

>  <SCORE.SYSTEM.DIHEDRAL>
0

>  <SCORE.SYSTEM.SOLV>
0

>  <SCORE.SYSTEM.norm>
0

>  <SCORE.heavy>
10

>  <SCORE.norm>
-1.8357

>  <RMSD>
2.480

$$$$
ligand
 OpenBabel11021811423D
libRbt.so/2013.1/901 2013/11/27
 10 11  0  0  0  0  0  0  0  0999 V2000
   11.7962   11.0681    8.7910 N   0  0  0  0  0  0  0  0  0  0  0  0
   11.9463    9.8746    8.1138 C   0  0  0  0  0  0  0  0  0  0  0  0
   11.7675    9.7804    6.7904 N   0  0  0  0  0  0  0  0  0  0  0  0
   11.4274   10.9645    6.2078 C   0  0  0  0  0  0  0  0  0  0  0  0
   11.2597   12.1931    6.8285 C   0  0  0  0  0  0  0  0  0  0  0  0
   11.4502   12.3008    8.2329 C   0  0  0  0  0  0  0  0  0  0  0  0
   11.3559   13.2772    8.9768 O   0  0  0  0  0  0  0  0  0  0  0  0
   10.9170   13.1190    5.8726 N   0  0  0  0  0  0  0  0  0  0  0  0
   10.8798   12.4566    4.6927 C   0  0  0  0  0  0  0  0  0  0  0  0
   11.1880   11.1273    4.8647 N   0  0  0  0  0  0  0  0  0  0  0  0
  1  2  1  0  0  0  0
  1  6  1  0  0  0  0
  2  3  2  0  0  0  0
  3  4  1  0  0  0  0
  4  5  2  0  0  0  0
  4 10  1  0  0  0  0
  5  6  1  0  0  0  0
  5  8  1  0  0  0  0
  6  7  2  0  0  0  0
  8  9  1  0  0  0  0
  9 10  2  0  0  0  0
M  END
>  <CHROM.1>
11.39861980,11.64562249,6.97711046,-0.91220605,1.31538272,-2.19090712

>  <Name>
ligand

>  <RI>
0

>  <Rbt.Current_Directory>
/home/itssahil/PROJECTS/Mol_Feturizer/New_Systems/rnas/2EEU

>  <Rbt.Executable>
rbdock ($Id: //depot/dev/client3/rdock/2013.1/src/exe/rbdock.cxx#4 $)

>  <Rbt.Library>
libRbt.so (2013.1, Build901 2013/11/27)

>  <Rbt.Parameter_File>
/export/apps/rDock/src/rDock_2013.1_src/data/scripts/dock_solv.prm

>  <Rbt.Receptor>
prm/blind_docking_60.prm

>  <SCORE>
-18.3491

>  <SCORE.INTER>
-18.3491

>  <SCORE.INTER.CONST>
1

>  <SCORE.INTER.POLAR>
0

>  <SCORE.INTER.ROT>
0

>  <SCORE.INTER.SOLV>
3.62409

>  <SCORE.INTER.VDW>
-17.0408

>  <SCORE.INTER.norm>
-1.83491

>  <SCORE.INTRA>
0

>  <SCORE.INTRA.DIHEDRAL>
0

>  <SCORE.INTRA.DIHEDRAL.0>
0

>  <SCORE.INTRA.POLAR>
0

>  <SCORE.INTRA.POLAR.0>
0

>  <SCORE.INTRA.REPUL>
0

>  <SCORE.INTRA.REPUL.0>
0

>  <SCORE.INTRA.SOLV>
0

>  <SCORE.INTRA.SOLV.lig_0>
-4.28148

>  <SCORE.INTRA.VDW>
0

>  <SCORE.INTRA.VDW.0>
0

>  <SCORE.INTRA.norm>
0

>  <SCORE.RESTR>
0

>  <SCORE.RESTR.CAVITY>
0

>  <SCORE.RESTR.norm>
0

>  <SCORE.SYSTEM>
0

>  <SCORE.SYSTEM.CONST>
0

>  <SCORE.SYSTEM.DIHEDRAL>
0

>  <SCORE.SYSTEM.SOLV>
0

>  <SCORE.SYSTEM.norm>
0

>  <SCORE.heavy>
10

>  <SCORE.norm>
-1.83491

>  <RMSD>
2.481

$$$$
ligand
 OpenBabel11021811423D
libRbt.so/2013.1/901 2013/11/27
 10 11  0  0  0  0  0  0  0  0999 V2000
   11.8031   11.0730    8.7984 N   0  0  0  0  0  0  0  0  0  0  0  0
   11.9624    9.8788    8.1246 C   0  0  0  0  0  0  0  0  0  0  0  0
   11.7855    9.7795    6.8013 N   0  0  0  0  0  0  0  0  0  0  0  0
   11.4372   10.9595    6.2151 C   0  0  0  0  0  0  0  0  0  0  0  0
   11.2600   12.1886    6.8322 C   0  0  0  0  0  0  0  0  0  0  0  0
   11.4485   12.3016    8.2365 C   0  0  0  0  0  0  0  0  0  0  0  0
   11.3465   13.2794    8.9776 O   0  0  0  0  0  0  0  0  0  0  0  0
   10.9114   13.1093    5.8735 N   0  0  0  0  0  0  0  0  0  0  0  0
   10.8801   12.4433    4.6953 C   0  0  0  0  0  0  0  0  0  0  0  0
   11.1978   11.1167    4.8713 N   0  0  0  0  0  0  0  0  0  0  0  0
  1  2  1  0  0  0  0
  1  6  1  0  0  0  0
  2  3  2  0  0  0  0
  3  4  1  0  0  0  0
  4  5  2  0  0  0  0
  4 10  1  0  0  0  0
  5  6  1  0  0  0  0
  5  8  1  0  0  0  0
  6  7  2  0  0  0  0
  8  9  1  0  0  0  0
  9 10  2  0  0  0  0
M  END
>  <CHROM.1>
11.40281981,11.64253453,6.98249658,-0.93139739,1.30988973,-2.17516174

>  <Name>
ligand

>  <RI>
0

>  <Rbt.Current_Directory>
/home/itssahil/PROJECTS/Mol_Feturizer/New_Systems/rnas/2EEU

>  <Rbt.Executable>
rbdock ($Id: //depot/dev/client3/rdock/2013.1/src/exe/rbdock.cxx#4 $)

>  <Rbt.Library>
libRbt.so (2013.1, Build901 2013/11/27)

>  <Rbt.Parameter_File>
/export/apps/rDock/src/rDock_2013.1_src/data/scripts/dock_solv.prm

>  <Rbt.Receptor>
prm/blind_docking_60.prm

>  <SCORE>
-18.3487

>  <SCORE.INTER>
-18.3487

>  <SCORE.INTER.CONST>
1

>  <SCORE.INTER.POLAR>
0

>  <SCORE.INTER.ROT>
0

>  <SCORE.INTER.SOLV>
3.62154

>  <SCORE.INTER.VDW>
-17.0396

>  <SCORE.INTER.norm>
-1.83487

>  <SCORE.INTRA>
0

>  <SCORE.INTRA.DIHEDRAL>
0

>  <SCORE.INTRA.DIHEDRAL.0>
0

>  <SCORE.INTRA.POLAR>
0

>  <SCORE.INTRA.POLAR.0>
0

>  <SCORE.INTRA.REPUL>
0

>  <SCORE.INTRA.REPUL.0>
0

>  <SCORE.INTRA.SOLV>
0

>  <SCORE.INTRA.SOLV.lig_0>
-4.28148

>  <SCORE.INTRA.VDW>
0

>  <SCORE.INTRA.VDW.0>
0

>  <SCORE.INTRA.norm>
0

>  <SCORE.RESTR>
0

>  <SCORE.RESTR.CAVITY>
0

>  <SCORE.RESTR.norm>
0

>  <SCORE.SYSTEM>
0

>  <SCORE.SYSTEM.CONST>
0

>  <SCORE.SYSTEM.DIHEDRAL>
0

>  <SCORE.SYSTEM.SOLV>
0

>  <SCORE.SYSTEM.norm>
0

>  <SCORE.heavy>
10

>  <SCORE.norm>
-1.83487

>  <RMSD>
2.481

$$$$
ligand
 OpenBabel11021811423D
libRbt.so/2013.1/901 2013/11/27
 10 11  0  0  0  0  0  0  0  0999 V2000
   11.7969   11.0705    8.7965 N   0  0  0  0  0  0  0  0  0  0  0  0
   11.9503    9.8758    8.1222 C   0  0  0  0  0  0  0  0  0  0  0  0
   11.7735    9.7780    6.7988 N   0  0  0  0  0  0  0  0  0  0  0  0
   11.4316   10.9601    6.2130 C   0  0  0  0  0  0  0  0  0  0  0  0
   11.2605   12.1898    6.8305 C   0  0  0  0  0  0  0  0  0  0  0  0
   11.4490   12.3012    8.2350 C   0  0  0  0  0  0  0  0  0  0  0  0
   11.3517   13.2791    8.9764 O   0  0  0  0  0  0  0  0  0  0  0  0
   10.9172   13.1127    5.8720 N   0  0  0  0  0  0  0  0  0  0  0  0
   10.8830   12.4474    4.6936 C   0  0  0  0  0  0  0  0  0  0  0  0
   11.1937   11.1191    4.8691 N   0  0  0  0  0  0  0  0  0  0  0  0
  1  2  1  0  0  0  0
  1  6  1  0  0  0  0
  2  3  2  0  0  0  0
  3  4  1  0  0  0  0
  4  5  2  0  0  0  0
  4 10  1  0  0  0  0
  5  6  1  0  0  0  0
  5  8  1  0  0  0  0
  6  7  2  0  0  0  0
  8  9  1  0  0  0  0
  9 10  2  0  0  0  0
M  END
>  <CHROM.1>
11.40045117,11.64293515,6.98063719,-0.92121560,1.31442472,-2.18455386

>  <Name>
ligand

>  <RI>
0

>  <Rbt.Current_Directory>
/home/itssahil/PROJECTS/Mol_Feturizer/New_Systems/rnas/2EEU

>  <Rbt.Executable>
rbdock ($Id: //depot/dev/client3/rdock/2013.1/src/exe/rbdock.cxx#4 $)

>  <Rbt.Library>
libRbt.so (2013.1, Build901 2013/11/27)

>  <Rbt.Parameter_File>
/export/apps/rDock/src/rDock_2013.1_src/data/scripts/dock_solv.prm

>  <Rbt.Receptor>
prm/pocket_docking_4.prm

>  <SCORE>
-18.3498

>  <SCORE.INTER>
-18.3498

>  <SCORE.INTER.CONST>
1

>  <SCORE.INTER.POLAR>
0

>  <SCORE.INTER.ROT>
0

>  <SCORE.INTER.SOLV>
3.62764

>  <SCORE.INTER.VDW>
-17.0424

>  <SCORE.INTER.norm>
-1.83498

>  <SCORE.INTRA>
0

>  <SCORE.INTRA.DIHEDRAL>
0

>  <SCORE.INTRA.DIHEDRAL.0>
0

>  <SCORE.INTRA.POLAR>
0

>  <SCORE.INTRA.POLAR.0>
0

>  <SCORE.INTRA.REPUL>
0

>  <SCORE.INTRA.REPUL.0>
0

>  <SCORE.INTRA.SOLV>
0

>  <SCORE.INTRA.SOLV.lig_0>
-4.28148

>  <SCORE.INTRA.VDW>
0

>  <SCORE.INTRA.VDW.0>
0

>  <SCORE.INTRA.norm>
0

>  <SCORE.RESTR>
0

>  <SCORE.RESTR.CAVITY>
0

>  <SCORE.RESTR.norm>
0

>  <SCORE.SYSTEM>
0

>  <SCORE.SYSTEM.CONST>
0

>  <SCORE.SYSTEM.DIHEDRAL>
0

>  <SCORE.SYSTEM.SOLV>
0

>  <SCORE.SYSTEM.norm>
0

>  <SCORE.heavy>
10

>  <SCORE.norm>
-1.83498

>  <RMSD>
2.481

$$$$
ligand
 OpenBabel11021811423D
libRbt.so/2013.1/901 2013/11/27
 10 11  0  0  0  0  0  0  0  0999 V2000
   11.7960   11.0715    8.7954 N   0  0  0  0  0  0  0  0  0  0  0  0
   11.9502    9.8781    8.1190 C   0  0  0  0  0  0  0  0  0  0  0  0
   11.7736    9.7827    6.7953 N   0  0  0  0  0  0  0  0  0  0  0  0
   11.4312   10.9657    6.2116 C   0  0  0  0  0  0  0  0  0  0  0  0
   11.2594   12.1942    6.8314 C   0  0  0  0  0  0  0  0  0  0  0  0
   11.4476   12.3031    8.2361 C   0  0  0  0  0  0  0  0  0  0  0  0
   11.3497   13.2796    8.9793 O   0  0  0  0  0  0  0  0  0  0  0  0
   10.9158   13.1187    5.8746 N   0  0  0  0  0  0  0  0  0  0  0  0
   10.8821   12.4555    4.6949 C   0  0  0  0  0  0  0  0  0  0  0  0
   11.1934   11.1271    4.8681 N   0  0  0  0  0  0  0  0  0  0  0  0
  1  2  1  0  0  0  0
  1  6  1  0  0  0  0
  2  3  2  0  0  0  0
  3  4  1  0  0  0  0
  4  5  2  0  0  0  0
  4 10  1  0  0  0  0
  5  6  1  0  0  0  0
  5  8  1  0  0  0  0
  6  7  2  0  0  0  0
  8  9  1  0  0  0  0
  9 10  2  0  0  0  0
M  END
>  <CHROM.1>
11.39960260,11.64710398,6.98055235,-0.92282176,1.31411261,-2.18116690

>  <Name>
ligand

>  <RI>
0

>  <Rbt.Current_Directory>
/home/itssahil/PROJECTS/Mol_Feturizer/New_Systems/rnas/2EEU

>  <Rbt.Executable>
rbdock ($Id: //depot/dev/client3/rdock/2013.1/src/exe/rbdock.cxx#4 $)

>  <Rbt.Library>
libRbt.so (2013.1, Build901 2013/11/27)

>  <Rbt.Parameter_File>
/export/apps/rDock/src/rDock_2013.1_src/data/scripts/dock_solv.prm

>  <Rbt.Receptor>
prm/pocket_docking_4.prm

>  <SCORE>
-18.3499

>  <SCORE.INTER>
-18.3499

>  <SCORE.INTER.CONST>
1

>  <SCORE.INTER.POLAR>
0

>  <SCORE.INTER.ROT>
0

>  <SCORE.INTER.SOLV>
3.62667

>  <SCORE.INTER.VDW>
-17.0422

>  <SCORE.INTER.norm>
-1.83499

>  <SCORE.INTRA>
0

>  <SCORE.INTRA.DIHEDRAL>
0

>  <SCORE.INTRA.DIHEDRAL.0>
0

>  <SCORE.INTRA.POLAR>
0

>  <SCORE.INTRA.POLAR.0>
0

>  <SCORE.INTRA.REPUL>
0

>  <SCORE.INTRA.REPUL.0>
0

>  <SCORE.INTRA.SOLV>
0

>  <SCORE.INTRA.SOLV.lig_0>
-4.28148

>  <SCORE.INTRA.VDW>
0

>  <SCORE.INTRA.VDW.0>
0

>  <SCORE.INTRA.norm>
0

>  <SCORE.RESTR>
0

>  <SCORE.RESTR.CAVITY>
0

>  <SCORE.RESTR.norm>
0

>  <SCORE.SYSTEM>
0

>  <SCORE.SYSTEM.CONST>
0

>  <SCORE.SYSTEM.DIHEDRAL>
0

>  <SCORE.SYSTEM.SOLV>
0

>  <SCORE.SYSTEM.norm>
0

>  <SCORE.heavy>
10

>  <SCORE.norm>
-1.83499

>  <RMSD>
2.481

$$$$
ligand
 OpenBabel11021811423D
libRbt.so/2013.1/901 2013/11/27
 10 11  0  0  0  0  0  0  0  0999 V2000
   11.7858   11.0679    8.7962 N   0  0  0  0  0  0  0  0  0  0  0  0
   11.9435    9.8756    8.1186 C   0  0  0  0  0  0  0  0  0  0  0  0
   11.7737    9.7824    6.7939 N   0  0  0  0  0  0  0  0  0  0  0  0
   11.4341   10.9664    6.2105 C   0  0  0  0  0  0  0  0  0  0  0  0
   11.2590   12.1938    6.8315 C   0  0  0  0  0  0  0  0  0  0  0  0
   11.4401   12.3003    8.2373 C   0  0  0  0  0  0  0  0  0  0  0  0
   11.3383   13.2756    8.9817 O   0  0  0  0  0  0  0  0  0  0  0  0
   10.9202   13.1199    5.8745 N   0  0  0  0  0  0  0  0  0  0  0  0
   10.8925   12.4588    4.6936 C   0  0  0  0  0  0  0  0  0  0  0  0
   11.2031   11.1300    4.8660 N   0  0  0  0  0  0  0  0  0  0  0  0
  1  2  1  0  0  0  0
  1  6  1  0  0  0  0
  2  3  2  0  0  0  0
  3  4  1  0  0  0  0
  4  5  2  0  0  0  0
  4 10  1  0  0  0  0
  5  6  1  0  0  0  0
  5  8  1  0  0  0  0
  6  7  2  0  0  0  0
  8  9  1  0  0  0  0
  9 10  2  0  0  0  0
M  END
>  <CHROM.1>
11.39850643,11.64648080,6.98040857,-0.93966324,1.31688902,-2.16316958

>  <Name>
ligand

>  <RI>
0

>  <Rbt.Current_Directory>
/home/itssahil/PROJECTS/Mol_Feturizer/New_Systems/rnas/2EEU

>  <Rbt.Executable>
rbdock ($Id: //depot/dev/client3/rdock/2013.1/src/exe/rbdock.cxx#4 $)

>  <Rbt.Library>
libRbt.so (2013.1, Build901 2013/11/27)

>  <Rbt.Parameter_File>
/export/apps/rDock/src/rDock_2013.1_src/data/scripts/dock_solv.prm

>  <Rbt.Receptor>
prm/pocket_docking_5.prm

>  <SCORE>
-18.35

>  <SCORE.INTER>
-18.35

>  <SCORE.INTER.CONST>
1

>  <SCORE.INTER.POLAR>
0

>  <SCORE.INTER.ROT>
0

>  <SCORE.INTER.SOLV>
3.63511

>  <SCORE.INTER.VDW>
-17.045

>  <SCORE.INTER.norm>
-1.835

>  <SCORE.INTRA>
0

>  <SCORE.INTRA.DIHEDRAL>
0

>  <SCORE.INTRA.DIHEDRAL.0>
0

>  <SCORE.INTRA.POLAR>
0

>  <SCORE.INTRA.POLAR.0>
0

>  <SCORE.INTRA.REPUL>
0

>  <SCORE.INTRA.REPUL.0>
0

>  <SCORE.INTRA.SOLV>
0

>  <SCORE.INTRA.SOLV.lig_0>
-4.28148

>  <SCORE.INTRA.VDW>
0

>  <SCORE.INTRA.VDW.0>
0

>  <SCORE.INTRA.norm>
0

>  <SCORE.RESTR>
0

>  <SCORE.RESTR.CAVITY>
0

>  <SCORE.RESTR.norm>
0

>  <SCORE.SYSTEM>
0

>  <SCORE.SYSTEM.CONST>
0

>  <SCORE.SYSTEM.DIHEDRAL>
0

>  <SCORE.SYSTEM.SOLV>
0

>  <SCORE.SYSTEM.norm>
0

>  <SCORE.heavy>
10

>  <SCORE.norm>
-1.835

>  <RMSD>
2.481

$$$$
ligand
 OpenBabel11021811423D
libRbt.so/2013.1/901 2013/11/27
 10 11  0  0  0  0  0  0  0  0999 V2000
   11.7942   11.0661    8.7943 N   0  0  0  0  0  0  0  0  0  0  0  0
   11.9547    9.8758    8.1139 C   0  0  0  0  0  0  0  0  0  0  0  0
   11.7798    9.7841    6.7898 N   0  0  0  0  0  0  0  0  0  0  0  0
   11.4322   10.9674    6.2099 C   0  0  0  0  0  0  0  0  0  0  0  0
   11.2539   12.1929    6.8338 C   0  0  0  0  0  0  0  0  0  0  0  0
   11.4403   12.2979    8.2390 C   0  0  0  0  0  0  0  0  0  0  0  0
   11.3371   13.2714    8.9855 O   0  0  0  0  0  0  0  0  0  0  0  0
   10.9066   13.1191    5.8798 N   0  0  0  0  0  0  0  0  0  0  0  0
   10.8771   12.4599    4.6979 C   0  0  0  0  0  0  0  0  0  0  0  0
   11.1947   11.1323    4.8667 N   0  0  0  0  0  0  0  0  0  0  0  0
  1  2  1  0  0  0  0
  1  6  1  0  0  0  0
  2  3  2  0  0  0  0
  3  4  1  0  0  0  0
  4  5  2  0  0  0  0
  4 10  1  0  0  0  0
  5  6  1  0  0  0  0
  5  8  1  0  0  0  0
  6  7  2  0  0  0  0
  8  9  1  0  0  0  0
  9 10  2  0  0  0  0
M  END
>  <CHROM.1>
11.39656502,11.64602519,6.98116365,-0.93635504,1.31061274,-2.16462552

>  <Name>
ligand

>  <RI>
0

>  <Rbt.Current_Directory>
/home/itssahil/PROJECTS/Mol_Feturizer/New_Systems/rnas/2EEU

>  <Rbt.Executable>
rbdock ($Id: //depot/dev/client3/rdock/2013.1/src/exe/rbdock.cxx#4 $)

>  <Rbt.Library>
libRbt.so (2013.1, Build901 2013/11/27)

>  <Rbt.Parameter_File>
/export/apps/rDock/src/rDock_2013.1_src/data/scripts/dock_solv.prm

>  <Rbt.Receptor>
prm/pocket_docking_6.prm

>  <SCORE>
-18.349

>  <SCORE.INTER>
-18.349

>  <SCORE.INTER.CONST>
1

>  <SCORE.INTER.POLAR>
0

>  <SCORE.INTER.ROT>
0

>  <SCORE.INTER.SOLV>
3.61877

>  <SCORE.INTER.VDW>
-17.0389

>  <SCORE.INTER.norm>
-1.8349

>  <SCORE.INTRA>
0

>  <SCORE.INTRA.DIHEDRAL>
0

>  <SCORE.INTRA.DIHEDRAL.0>
0

>  <SCORE.INTRA.POLAR>
0

>  <SCORE.INTRA.POLAR.0>
0

>  <SCORE.INTRA.REPUL>
0

>  <SCORE.INTRA.REPUL.0>
0

>  <SCORE.INTRA.SOLV>
0

>  <SCORE.INTRA.SOLV.lig_0>
-4.28148

>  <SCORE.INTRA.VDW>
0

>  <SCORE.INTRA.VDW.0>
0

>  <SCORE.INTRA.norm>
0

>  <SCORE.RESTR>
0

>  <SCORE.RESTR.CAVITY>
0

>  <SCORE.RESTR.norm>
0

>  <SCORE.SYSTEM>
0

>  <SCORE.SYSTEM.CONST>
0

>  <SCORE.SYSTEM.DIHEDRAL>
0

>  <SCORE.SYSTEM.SOLV>
0

>  <SCORE.SYSTEM.norm>
0

>  <SCORE.heavy>
10

>  <SCORE.norm>
-1.8349

>  <RMSD>
2.481

$$$$
ligand
 OpenBabel11021811423D
libRbt.so/2013.1/901 2013/11/27
 10 11  0  0  0  0  0  0  0  0999 V2000
   11.7856   11.0668    8.7999 N   0  0  0  0  0  0  0  0  0  0  0  0
   11.9501    9.8750    8.1230 C   0  0  0  0  0  0  0  0  0  0  0  0
   11.7813    9.7801    6.7984 N   0  0  0  0  0  0  0  0  0  0  0  0
   11.4356   10.9618    6.2141 C   0  0  0  0  0  0  0  0  0  0  0  0
   11.2535   12.1887    6.8343 C   0  0  0  0  0  0  0  0  0  0  0  0
   11.4334   12.2971    8.2401 C   0  0  0  0  0  0  0  0  0  0  0  0
   11.3260   13.2722    8.9838 O   0  0  0  0  0  0  0  0  0  0  0  0
   10.9100   13.1123    5.8765 N   0  0  0  0  0  0  0  0  0  0  0  0
   10.8864   12.4503    4.6960 C   0  0  0  0  0  0  0  0  0  0  0  0
   11.2042   11.1234    4.8694 N   0  0  0  0  0  0  0  0  0  0  0  0
  1  2  1  0  0  0  0
  1  6  1  0  0  0  0
  2  3  2  0  0  0  0
  3  4  1  0  0  0  0
  4  5  2  0  0  0  0
  4 10  1  0  0  0  0
  5  6  1  0  0  0  0
  5  8  1  0  0  0  0
  6  7  2  0  0  0  0
  8  9  1  0  0  0  0
  9 10  2  0  0  0  0
M  END
>  <CHROM.1>
11.39591637,11.64221180,6.98356275,-0.95289486,1.31255982,-2.15098246

>  <Name>
ligand

>  <RI>
0

>  <Rbt.Current_Directory>
/home/itssahil/PROJECTS/Mol_Feturizer/New_Systems/rnas/2EEU

>  <Rbt.Executable>
rbdock ($Id: //depot/dev/client3/rdock/2013.1/src/exe/rbdock.cxx#4 $)

>  <Rbt.Library>
libRbt.so (2013.1, Build901 2013/11/27)

>  <Rbt.Parameter_File>
/export/apps/rDock/src/rDock_2013.1_src/data/scripts/dock_solv.prm

>  <Rbt.Receptor>
prm/pocket_docking_7.prm

>  <SCORE>
-18.3499

>  <SCORE.INTER>
-18.3499

>  <SCORE.INTER.CONST>
1

>  <SCORE.INTER.POLAR>
0

>  <SCORE.INTER.ROT>
0

>  <SCORE.INTER.SOLV>
3.63137

>  <SCORE.INTER.VDW>
-17.0438

>  <SCORE.INTER.norm>
-1.83499

>  <SCORE.INTRA>
0

>  <SCORE.INTRA.DIHEDRAL>
0

>  <SCORE.INTRA.DIHEDRAL.0>
0

>  <SCORE.INTRA.POLAR>
0

>  <SCORE.INTRA.POLAR.0>
0

>  <SCORE.INTRA.REPUL>
0

>  <SCORE.INTRA.REPUL.0>
0

>  <SCORE.INTRA.SOLV>
0

>  <SCORE.INTRA.SOLV.lig_0>
-4.28148

>  <SCORE.INTRA.VDW>
0

>  <SCORE.INTRA.VDW.0>
0

>  <SCORE.INTRA.norm>
0

>  <SCORE.RESTR>
0

>  <SCORE.RESTR.CAVITY>
0

>  <SCORE.RESTR.norm>
0

>  <SCORE.SYSTEM>
0

>  <SCORE.SYSTEM.CONST>
0

>  <SCORE.SYSTEM.DIHEDRAL>
0

>  <SCORE.SYSTEM.SOLV>
0

>  <SCORE.SYSTEM.norm>
0

>  <SCORE.heavy>
10

>  <SCORE.norm>
-1.83499

>  <RMSD>
2.481

$$$$
ligand
 OpenBabel11021811423D
libRbt.so/2013.1/901 2013/11/27
 10 11  0  0  0  0  0  0  0  0999 V2000
   11.7144   11.0317    8.8372 N   0  0  0  0  0  0  0  0  0  0  0  0
   11.9309    9.8561    8.1467 C   0  0  0  0  0  0  0  0  0  0  0  0
   11.8055    9.7793    6.8161 N   0  0  0  0  0  0  0  0  0  0  0  0
   11.4470   10.9614    6.2403 C   0  0  0  0  0  0  0  0  0  0  0  0
   11.2139   12.1725    6.8741 C   0  0  0  0  0  0  0  0  0  0  0  0
   11.3475   12.2617    8.2864 C   0  0  0  0  0  0  0  0  0  0  0  0
   11.1917   13.2211    9.0420 O   0  0  0  0  0  0  0  0  0  0  0  0
   10.8759   13.1030    5.9211 N   0  0  0  0  0  0  0  0  0  0  0  0
   10.9060   12.4606    4.7299 C   0  0  0  0  0  0  0  0  0  0  0  0
   11.2530   11.1396    4.8919 N   0  0  0  0  0  0  0  0  0  0  0  0
  1  2  1  0  0  0  0
  1  6  1  0  0  0  0
  2  3  2  0  0  0  0
  3  4  1  0  0  0  0
  4  5  2  0  0  0  0
  4 10  1  0  0  0  0
  5  6  1  0  0  0  0
  5  8  1  0  0  0  0
  6  7  2  0  0  0  0
  8  9  1  0  0  0  0
  9 10  2  0  0  0  0
M  END
>  <CHROM.1>
11.36586705,11.62742600,7.01902191,-1.10601596,1.30452549,-1.98661514

>  <Name>
ligand

>  <RI>
0

>  <Rbt.Current_Directory>
/home/itssahil/PROJECTS/Mol_Feturizer/New_Systems/rnas/2EEU

>  <Rbt.Executable>
rbdock ($Id: //depot/dev/client3/rdock/2013.1/src/exe/rbdock.cxx#4 $)

>  <Rbt.Library>
libRbt.so (2013.1, Build901 2013/11/27)

>  <Rbt.Parameter_File>
/export/apps/rDock/src/rDock_2013.1_src/data/scripts/dock_solv.prm

>  <Rbt.Receptor>
prm/pocket_docking_8.prm

>  <SCORE>
-18.348

>  <SCORE.INTER>
-18.348

>  <SCORE.INTER.CONST>
1

>  <SCORE.INTER.POLAR>
0

>  <SCORE.INTER.ROT>
0

>  <SCORE.INTER.SOLV>
3.67814

>  <SCORE.INTER.VDW>
-17.058

>  <SCORE.INTER.norm>
-1.8348

>  <SCORE.INTRA>
0

>  <SCORE.INTRA.DIHEDRAL>
0

>  <SCORE.INTRA.DIHEDRAL.0>
0

>  <SCORE.INTRA.POLAR>
0

>  <SCORE.INTRA.POLAR.0>
0

>  <SCORE.INTRA.REPUL>
0

>  <SCORE.INTRA.REPUL.0>
0

>  <SCORE.INTRA.SOLV>
0

>  <SCORE.INTRA.SOLV.lig_0>
-4.28148

>  <SCORE.INTRA.VDW>
0

>  <SCORE.INTRA.VDW.0>
0

>  <SCORE.INTRA.norm>
0

>  <SCORE.RESTR>
0

>  <SCORE.RESTR.CAVITY>
0

>  <SCORE.RESTR.norm>
0

>  <SCORE.SYSTEM>
0

>  <SCORE.SYSTEM.CONST>
0

>  <SCORE.SYSTEM.DIHEDRAL>
0

>  <SCORE.SYSTEM.SOLV>
0

>  <SCORE.SYSTEM.norm>
0

>  <SCORE.heavy>
10

>  <SCORE.norm>
-1.8348

>  <RMSD>
2.481

$$$$
ligand
 OpenBabel11021811423D
libRbt.so/2013.1/901 2013/11/27
 10 11  0  0  0  0  0  0  0  0999 V2000
   11.7990   11.0558    8.7911 N   0  0  0  0  0  0  0  0  0  0  0  0
   11.9491    9.8634    8.1119 C   0  0  0  0  0  0  0  0  0  0  0  0
   11.7709    9.7715    6.7882 N   0  0  0  0  0  0  0  0  0  0  0  0
   11.4314   10.9567    6.2075 C   0  0  0  0  0  0  0  0  0  0  0  0
   11.2637   12.1843    6.8303 C   0  0  0  0  0  0  0  0  0  0  0  0
   11.4536   12.2896    8.2350 C   0  0  0  0  0  0  0  0  0  0  0  0
   11.3592   13.2647    8.9805 O   0  0  0  0  0  0  0  0  0  0  0  0
   10.9218   13.1120    5.8758 N   0  0  0  0  0  0  0  0  0  0  0  0
   10.8849   12.4516    4.6947 C   0  0  0  0  0  0  0  0  0  0  0  0
   11.1927   11.1219    4.8646 N   0  0  0  0  0  0  0  0  0  0  0  0
  1  2  1  0  0  0  0
  1  6  1  0  0  0  0
  2  3  2  0  0  0  0
  3  4  1  0  0  0  0
  4  5  2  0  0  0  0
  4 10  1  0  0  0  0
  5  6  1  0  0  0  0
  5  8  1  0  0  0  0
  6  7  2  0  0  0  0
  8  9  1  0  0  0  0
  9 10  2  0  0  0  0
M  END
>  <CHROM.1>
11.40243436,11.63653628,6.97802024,-0.91309153,1.31586797,-2.18833059

>  <Name>
ligand

>  <RI>
0

>  <Rbt.Current_Directory>
/home/itssahil/PROJECTS/Mol_Feturizer/New_Systems/rnas/2EEU

>  <Rbt.Executable>
rbdock ($Id: //depot/dev/client3/rdock/2013.1/src/exe/rbdock.cxx#4 $)

>  <Rbt.Library>
libRbt.so (2013.1, Build901 2013/11/27)

>  <Rbt.Parameter_File>
/export/apps/rDock/src/rDock_2013.1_src/data/scripts/dock_solv.prm

>  <Rbt.Receptor>
prm/blind_docking_40.prm

>  <SCORE>
-18.3484

>  <SCORE.INTER>
-18.3484

>  <SCORE.INTER.CONST>
1

>  <SCORE.INTER.POLAR>
0

>  <SCORE.INTER.ROT>
0

>  <SCORE.INTER.SOLV>
3.61626

>  <SCORE.INTER.VDW>
-17.0377

>  <SCORE.INTER.norm>
-1.83484

>  <SCORE.INTRA>
0

>  <SCORE.INTRA.DIHEDRAL>
0

>  <SCORE.INTRA.DIHEDRAL.0>
0

>  <SCORE.INTRA.POLAR>
0

>  <SCORE.INTRA.POLAR.0>
0

>  <SCORE.INTRA.REPUL>
0

>  <SCORE.INTRA.REPUL.0>
0

>  <SCORE.INTRA.SOLV>
0

>  <SCORE.INTRA.SOLV.lig_0>
-4.28148

>  <SCORE.INTRA.VDW>
0

>  <SCORE.INTRA.VDW.0>
0

>  <SCORE.INTRA.norm>
0

>  <SCORE.RESTR>
0

>  <SCORE.RESTR.CAVITY>
0

>  <SCORE.RESTR.norm>
0

>  <SCORE.SYSTEM>
0

>  <SCORE.SYSTEM.CONST>
0

>  <SCORE.SYSTEM.DIHEDRAL>
0

>  <SCORE.SYSTEM.SOLV>
0

>  <SCORE.SYSTEM.norm>
0

>  <SCORE.heavy>
10

>  <SCORE.norm>
-1.83484

>  <RMSD>
2.482

$$$$
ligand
 OpenBabel11021811423D
libRbt.so/2013.1/901 2013/11/27
 10 11  0  0  0  0  0  0  0  0999 V2000
   11.7853   11.0733    8.7960 N   0  0  0  0  0  0  0  0  0  0  0  0
   11.9471    9.8793    8.1223 C   0  0  0  0  0  0  0  0  0  0  0  0
   11.7777    9.7811    6.7980 N   0  0  0  0  0  0  0  0  0  0  0  0
   11.4341   10.9619    6.2106 C   0  0  0  0  0  0  0  0  0  0  0  0
   11.2547   12.1908    6.8275 C   0  0  0  0  0  0  0  0  0  0  0  0
   11.4353   12.3027    8.2329 C   0  0  0  0  0  0  0  0  0  0  0  0
   11.3301   13.2801    8.9740 O   0  0  0  0  0  0  0  0  0  0  0  0
   10.9127   13.1125    5.8674 N   0  0  0  0  0  0  0  0  0  0  0  0
   10.8873   12.4473    4.6887 C   0  0  0  0  0  0  0  0  0  0  0  0
   11.2026   11.1203    4.8656 N   0  0  0  0  0  0  0  0  0  0  0  0
  1  2  1  0  0  0  0
  1  6  1  0  0  0  0
  2  3  2  0  0  0  0
  3  4  1  0  0  0  0
  4  5  2  0  0  0  0
  4 10  1  0  0  0  0
  5  6  1  0  0  0  0
  5  8  1  0  0  0  0
  6  7  2  0  0  0  0
  8  9  1  0  0  0  0
  9 10  2  0  0  0  0
M  END
>  <CHROM.1>
11.39605551,11.64447816,6.97823321,-0.94740915,1.31403391,-2.15902473

>  <Name>
ligand

>  <RI>
0

>  <Rbt.Current_Directory>
/home/itssahil/PROJECTS/Mol_Feturizer/New_Systems/rnas/2EEU

>  <Rbt.Executable>
rbdock ($Id: //depot/dev/client3/rdock/2013.1/src/exe/rbdock.cxx#4 $)

>  <Rbt.Library>
libRbt.so (2013.1, Build901 2013/11/27)

>  <Rbt.Parameter_File>
/export/apps/rDock/src/rDock_2013.1_src/data/scripts/dock_solv.prm

>  <Rbt.Receptor>
prm/blind_docking_80.prm

>  <SCORE>
-18.3502

>  <SCORE.INTER>
-18.3502

>  <SCORE.INTER.CONST>
1

>  <SCORE.INTER.POLAR>
0

>  <SCORE.INTER.ROT>
0

>  <SCORE.INTER.SOLV>
3.63695

>  <SCORE.INTER.VDW>
-17.0458

>  <SCORE.INTER.norm>
-1.83502

>  <SCORE.INTRA>
0

>  <SCORE.INTRA.DIHEDRAL>
0

>  <SCORE.INTRA.DIHEDRAL.0>
0

>  <SCORE.INTRA.POLAR>
0

>  <SCORE.INTRA.POLAR.0>
0

>  <SCORE.INTRA.REPUL>
0

>  <SCORE.INTRA.REPUL.0>
0

>  <SCORE.INTRA.SOLV>
0

>  <SCORE.INTRA.SOLV.lig_0>
-4.28148

>  <SCORE.INTRA.VDW>
0

>  <SCORE.INTRA.VDW.0>
0

>  <SCORE.INTRA.norm>
0

>  <SCORE.RESTR>
0

>  <SCORE.RESTR.CAVITY>
0

>  <SCORE.RESTR.norm>
0

>  <SCORE.SYSTEM>
0

>  <SCORE.SYSTEM.CONST>
0

>  <SCORE.SYSTEM.DIHEDRAL>
0

>  <SCORE.SYSTEM.SOLV>
0

>  <SCORE.SYSTEM.norm>
0

>  <SCORE.heavy>
10

>  <SCORE.norm>
-1.83502

>  <RMSD>
2.482

$$$$
ligand
 OpenBabel11021811423D
libRbt.so/2013.1/901 2013/11/27
 10 11  0  0  0  0  0  0  0  0999 V2000
   11.7879   11.0588    8.7920 N   0  0  0  0  0  0  0  0  0  0  0  0
   11.9434    9.8671    8.1129 C   0  0  0  0  0  0  0  0  0  0  0  0
   11.7711    9.7753    6.7885 N   0  0  0  0  0  0  0  0  0  0  0  0
   11.4316   10.9601    6.2068 C   0  0  0  0  0  0  0  0  0  0  0  0
   11.2587   12.1871    6.8293 C   0  0  0  0  0  0  0  0  0  0  0  0
   11.4424   12.2921    8.2349 C   0  0  0  0  0  0  0  0  0  0  0  0
   11.3428   13.2667    8.9803 O   0  0  0  0  0  0  0  0  0  0  0  0
   10.9190   13.1144    5.8737 N   0  0  0  0  0  0  0  0  0  0  0  0
   10.8886   12.4544    4.6922 C   0  0  0  0  0  0  0  0  0  0  0  0
   11.1984   11.1253    4.8629 N   0  0  0  0  0  0  0  0  0  0  0  0
  1  2  1  0  0  0  0
  1  6  1  0  0  0  0
  2  3  2  0  0  0  0
  3  4  1  0  0  0  0
  4  5  2  0  0  0  0
  4 10  1  0  0  0  0
  5  6  1  0  0  0  0
  5  8  1  0  0  0  0
  6  7  2  0  0  0  0
  8  9  1  0  0  0  0
  9 10  2  0  0  0  0
M  END
>  <CHROM.1>
11.39796772,11.63950633,6.97740310,-0.93179581,1.31664559,-2.16982892

>  <Name>
ligand

>  <RI>
0

>  <Rbt.Current_Directory>
/home/itssahil/PROJECTS/Mol_Feturizer/New_Systems/rnas/2EEU

>  <Rbt.Executable>
rbdock ($Id: //depot/dev/client3/rdock/2013.1/src/exe/rbdock.cxx#4 $)

>  <Rbt.Library>
libRbt.so (2013.1, Build901 2013/11/27)

>  <Rbt.Parameter_File>
/export/apps/rDock/src/rDock_2013.1_src/data/scripts/dock_solv.prm

>  <Rbt.Receptor>
prm/pocket_docking_7.prm

>  <SCORE>
-18.3497

>  <SCORE.INTER>
-18.3497

>  <SCORE.INTER.CONST>
1

>  <SCORE.INTER.POLAR>
0

>  <SCORE.INTER.ROT>
0

>  <SCORE.INTER.SOLV>
3.6265

>  <SCORE.INTER.VDW>
-17.042

>  <SCORE.INTER.norm>
-1.83497

>  <SCORE.INTRA>
0

>  <SCORE.INTRA.DIHEDRAL>
0

>  <SCORE.INTRA.DIHEDRAL.0>
0

>  <SCORE.INTRA.POLAR>
0

>  <SCORE.INTRA.POLAR.0>
0

>  <SCORE.INTRA.REPUL>
0

>  <SCORE.INTRA.REPUL.0>
0

>  <SCORE.INTRA.SOLV>
0

>  <SCORE.INTRA.SOLV.lig_0>
-4.28148

>  <SCORE.INTRA.VDW>
0

>  <SCORE.INTRA.VDW.0>
0

>  <SCORE.INTRA.norm>
0

>  <SCORE.RESTR>
0

>  <SCORE.RESTR.CAVITY>
0

>  <SCORE.RESTR.norm>
0

>  <SCORE.SYSTEM>
0

>  <SCORE.SYSTEM.CONST>
0

>  <SCORE.SYSTEM.DIHEDRAL>
0

>  <SCORE.SYSTEM.SOLV>
0

>  <SCORE.SYSTEM.norm>
0

>  <SCORE.heavy>
10

>  <SCORE.norm>
-1.83497

>  <RMSD>
2.482

$$$$
ligand
 OpenBabel11021811423D
libRbt.so/2013.1/901 2013/11/27
 10 11  0  0  0  0  0  0  0  0999 V2000
   11.7978   11.0653    8.7873 N   0  0  0  0  0  0  0  0  0  0  0  0
   11.9588    9.8741    8.1085 C   0  0  0  0  0  0  0  0  0  0  0  0
   11.7845    9.7807    6.7844 N   0  0  0  0  0  0  0  0  0  0  0  0
   11.4371   10.9633    6.2028 C   0  0  0  0  0  0  0  0  0  0  0  0
   11.2583   12.1895    6.8251 C   0  0  0  0  0  0  0  0  0  0  0  0
   11.4440   12.2963    8.2303 C   0  0  0  0  0  0  0  0  0  0  0  0
   11.3403   13.2707    8.9755 O   0  0  0  0  0  0  0  0  0  0  0  0
   10.9114   13.1144    5.8698 N   0  0  0  0  0  0  0  0  0  0  0  0
   10.8826   12.4537    4.6886 C   0  0  0  0  0  0  0  0  0  0  0  0
   11.2004   11.1265    4.8593 N   0  0  0  0  0  0  0  0  0  0  0  0
  1  2  1  0  0  0  0
  1  6  1  0  0  0  0
  2  3  2  0  0  0  0
  3  4  1  0  0  0  0
  4  5  2  0  0  0  0
  4 10  1  0  0  0  0
  5  6  1  0  0  0  0
  5  8  1  0  0  0  0
  6  7  2  0  0  0  0
  8  9  1  0  0  0  0
  9 10  2  0  0  0  0
M  END
>  <CHROM.1>
11.40100253,11.64284307,6.97319521,-0.93831734,1.31079881,-2.16398561

>  <Name>
ligand

>  <RI>
0

>  <Rbt.Current_Directory>
/home/itssahil/PROJECTS/Mol_Feturizer/New_Systems/rnas/2EEU

>  <Rbt.Executable>
rbdock ($Id: //depot/dev/client3/rdock/2013.1/src/exe/rbdock.cxx#4 $)

>  <Rbt.Library>
libRbt.so (2013.1, Build901 2013/11/27)

>  <Rbt.Parameter_File>
/export/apps/rDock/src/rDock_2013.1_src/data/scripts/dock_solv.prm

>  <Rbt.Receptor>
prm/blind_docking_40.prm

>  <SCORE>
-18.3493

>  <SCORE.INTER>
-18.3493

>  <SCORE.INTER.CONST>
1

>  <SCORE.INTER.POLAR>
0

>  <SCORE.INTER.ROT>
0

>  <SCORE.INTER.SOLV>
3.61647

>  <SCORE.INTER.VDW>
-17.0384

>  <SCORE.INTER.norm>
-1.83493

>  <SCORE.INTRA>
0

>  <SCORE.INTRA.DIHEDRAL>
0

>  <SCORE.INTRA.DIHEDRAL.0>
0

>  <SCORE.INTRA.POLAR>
0

>  <SCORE.INTRA.POLAR.0>
0

>  <SCORE.INTRA.REPUL>
0

>  <SCORE.INTRA.REPUL.0>
0

>  <SCORE.INTRA.SOLV>
0

>  <SCORE.INTRA.SOLV.lig_0>
-4.28148

>  <SCORE.INTRA.VDW>
0

>  <SCORE.INTRA.VDW.0>
0

>  <SCORE.INTRA.norm>
0

>  <SCORE.RESTR>
0

>  <SCORE.RESTR.CAVITY>
0

>  <SCORE.RESTR.norm>
0

>  <SCORE.SYSTEM>
0

>  <SCORE.SYSTEM.CONST>
0

>  <SCORE.SYSTEM.DIHEDRAL>
0

>  <SCORE.SYSTEM.SOLV>
0

>  <SCORE.SYSTEM.norm>
0

>  <SCORE.heavy>
10

>  <SCORE.norm>
-1.83493

>  <RMSD>
2.483

$$$$
ligand
 OpenBabel11021811423D
libRbt.so/2013.1/901 2013/11/27
 10 11  0  0  0  0  0  0  0  0999 V2000
   11.7683   11.0738    8.7990 N   0  0  0  0  0  0  0  0  0  0  0  0
   11.9402    9.8826    8.1230 C   0  0  0  0  0  0  0  0  0  0  0  0
   11.7797    9.7875    6.7973 N   0  0  0  0  0  0  0  0  0  0  0  0
   11.4343   10.9683    6.2111 C   0  0  0  0  0  0  0  0  0  0  0  0
   11.2452   12.1946    6.8304 C   0  0  0  0  0  0  0  0  0  0  0  0
   11.4162   12.3032    8.2373 C   0  0  0  0  0  0  0  0  0  0  0  0
   11.3017   13.2779    8.9805 O   0  0  0  0  0  0  0  0  0  0  0  0
   10.9050   13.1175    5.8707 N   0  0  0  0  0  0  0  0  0  0  0  0
   10.8903   12.4556    4.6900 C   0  0  0  0  0  0  0  0  0  0  0  0
   11.2107   11.1296    4.8651 N   0  0  0  0  0  0  0  0  0  0  0  0
  1  2  1  0  0  0  0
  1  6  1  0  0  0  0
  2  3  2  0  0  0  0
  3  4  1  0  0  0  0
  4  5  2  0  0  0  0
  4 10  1  0  0  0  0
  5  6  1  0  0  0  0
  5  8  1  0  0  0  0
  6  7  2  0  0  0  0
  8  9  1  0  0  0  0
  9 10  2  0  0  0  0
M  END
>  <CHROM.1>
11.38812370,11.64847928,6.98044332,-0.97869924,1.31354257,-2.12585627

>  <Name>
ligand

>  <RI>
0

>  <Rbt.Current_Directory>
/home/itssahil/PROJECTS/Mol_Feturizer/New_Systems/rnas/2EEU

>  <Rbt.Executable>
rbdock ($Id: //depot/dev/client3/rdock/2013.1/src/exe/rbdock.cxx#4 $)

>  <Rbt.Library>
libRbt.so (2013.1, Build901 2013/11/27)

>  <Rbt.Parameter_File>
/export/apps/rDock/src/rDock_2013.1_src/data/scripts/dock_solv.prm

>  <Rbt.Receptor>
prm/blind_docking_40.prm

>  <SCORE>
-18.3473

>  <SCORE.INTER>
-18.3473

>  <SCORE.INTER.CONST>
1

>  <SCORE.INTER.POLAR>
0

>  <SCORE.INTER.ROT>
0

>  <SCORE.INTER.SOLV>
3.64861

>  <SCORE.INTER.VDW>
-17.0477

>  <SCORE.INTER.norm>
-1.83473

>  <SCORE.INTRA>
0

>  <SCORE.INTRA.DIHEDRAL>
0

>  <SCORE.INTRA.DIHEDRAL.0>
0

>  <SCORE.INTRA.POLAR>
0

>  <SCORE.INTRA.POLAR.0>
0

>  <SCORE.INTRA.REPUL>
0

>  <SCORE.INTRA.REPUL.0>
0

>  <SCORE.INTRA.SOLV>
0

>  <SCORE.INTRA.SOLV.lig_0>
-4.28148

>  <SCORE.INTRA.VDW>
0

>  <SCORE.INTRA.VDW.0>
0

>  <SCORE.INTRA.norm>
0

>  <SCORE.RESTR>
0

>  <SCORE.RESTR.CAVITY>
0

>  <SCORE.RESTR.norm>
0

>  <SCORE.SYSTEM>
0

>  <SCORE.SYSTEM.CONST>
0

>  <SCORE.SYSTEM.DIHEDRAL>
0

>  <SCORE.SYSTEM.SOLV>
0

>  <SCORE.SYSTEM.norm>
0

>  <SCORE.heavy>
10

>  <SCORE.norm>
-1.83473

>  <RMSD>
2.483

$$$$
ligand
 OpenBabel11021811423D
libRbt.so/2013.1/901 2013/11/27
 10 11  0  0  0  0  0  0  0  0999 V2000
   11.7782   11.0683    8.7934 N   0  0  0  0  0  0  0  0  0  0  0  0
   11.9376    9.8756    8.1168 C   0  0  0  0  0  0  0  0  0  0  0  0
   11.7707    9.7816    6.7918 N   0  0  0  0  0  0  0  0  0  0  0  0
   11.4322   10.9652    6.2070 C   0  0  0  0  0  0  0  0  0  0  0  0
   11.2555   12.1929    6.8268 C   0  0  0  0  0  0  0  0  0  0  0  0
   11.4334   12.3003    8.2330 C   0  0  0  0  0  0  0  0  0  0  0  0
   11.3299   13.2760    8.9766 O   0  0  0  0  0  0  0  0  0  0  0  0
   10.9186   13.1184    5.8686 N   0  0  0  0  0  0  0  0  0  0  0  0
   10.8936   12.4566    4.6880 C   0  0  0  0  0  0  0  0  0  0  0  0
   11.2041   11.1280    4.8619 N   0  0  0  0  0  0  0  0  0  0  0  0
  1  2  1  0  0  0  0
  1  6  1  0  0  0  0
  2  3  2  0  0  0  0
  3  4  1  0  0  0  0
  4  5  2  0  0  0  0
  4 10  1  0  0  0  0
  5  6  1  0  0  0  0
  5  8  1  0  0  0  0
  6  7  2  0  0  0  0
  8  9  1  0  0  0  0
  9 10  2  0  0  0  0
M  END
>  <CHROM.1>
11.39475420,11.64573318,6.97638190,-0.94733938,1.31794789,-2.15631818

>  <Name>
ligand

>  <RI>
0

>  <Rbt.Current_Directory>
/home/itssahil/PROJECTS/Mol_Feturizer/New_Systems/rnas/2EEU

>  <Rbt.Executable>
rbdock ($Id: //depot/dev/client3/rdock/2013.1/src/exe/rbdock.cxx#4 $)

>  <Rbt.Library>
libRbt.so (2013.1, Build901 2013/11/27)

>  <Rbt.Parameter_File>
/export/apps/rDock/src/rDock_2013.1_src/data/scripts/dock_solv.prm

>  <Rbt.Receptor>
prm/blind_docking_60.prm

>  <SCORE>
-18.3496

>  <SCORE.INTER>
-18.3496

>  <SCORE.INTER.CONST>
1

>  <SCORE.INTER.POLAR>
0

>  <SCORE.INTER.ROT>
0

>  <SCORE.INTER.SOLV>
3.64124

>  <SCORE.INTER.VDW>
-17.0468

>  <SCORE.INTER.norm>
-1.83496

>  <SCORE.INTRA>
0

>  <SCORE.INTRA.DIHEDRAL>
0

>  <SCORE.INTRA.DIHEDRAL.0>
0

>  <SCORE.INTRA.POLAR>
0

>  <SCORE.INTRA.POLAR.0>
0

>  <SCORE.INTRA.REPUL>
0

>  <SCORE.INTRA.REPUL.0>
0

>  <SCORE.INTRA.SOLV>
0

>  <SCORE.INTRA.SOLV.lig_0>
-4.28148

>  <SCORE.INTRA.VDW>
0

>  <SCORE.INTRA.VDW.0>
0

>  <SCORE.INTRA.norm>
0

>  <SCORE.RESTR>
0

>  <SCORE.RESTR.CAVITY>
0

>  <SCORE.RESTR.norm>
0

>  <SCORE.SYSTEM>
0

>  <SCORE.SYSTEM.CONST>
0

>  <SCORE.SYSTEM.DIHEDRAL>
0

>  <SCORE.SYSTEM.SOLV>
0

>  <SCORE.SYSTEM.norm>
0

>  <SCORE.heavy>
10

>  <SCORE.norm>
-1.83496

>  <RMSD>
2.483

$$$$
ligand
 OpenBabel11021811423D
libRbt.so/2013.1/901 2013/11/27
 10 11  0  0  0  0  0  0  0  0999 V2000
   11.7919   11.0748    8.7939 N   0  0  0  0  0  0  0  0  0  0  0  0
   11.9543    9.8798    8.1222 C   0  0  0  0  0  0  0  0  0  0  0  0
   11.7813    9.7786    6.7986 N   0  0  0  0  0  0  0  0  0  0  0  0
   11.4335   10.9575    6.2098 C   0  0  0  0  0  0  0  0  0  0  0  0
   11.2533   12.1872    6.8247 C   0  0  0  0  0  0  0  0  0  0  0  0
   11.4377   12.3023    8.2294 C   0  0  0  0  0  0  0  0  0  0  0  0
   11.3326   13.2810    8.9689 O   0  0  0  0  0  0  0  0  0  0  0  0
   10.9066   13.1063    5.8637 N   0  0  0  0  0  0  0  0  0  0  0  0
   10.8793   12.4387    4.6864 C   0  0  0  0  0  0  0  0  0  0  0  0
   11.1978   11.1127    4.8651 N   0  0  0  0  0  0  0  0  0  0  0  0
  1  2  1  0  0  0  0
  1  6  1  0  0  0  0
  2  3  2  0  0  0  0
  3  4  1  0  0  0  0
  4  5  2  0  0  0  0
  4 10  1  0  0  0  0
  5  6  1  0  0  0  0
  5  8  1  0  0  0  0
  6  7  2  0  0  0  0
  8  9  1  0  0  0  0
  9 10  2  0  0  0  0
M  END
>  <CHROM.1>
11.39625770,11.64152098,6.97615537,-0.94269473,1.31069577,-2.16558952

>  <Name>
ligand

>  <RI>
0

>  <Rbt.Current_Directory>
/home/itssahil/PROJECTS/Mol_Feturizer/New_Systems/rnas/2EEU

>  <Rbt.Executable>
rbdock ($Id: //depot/dev/client3/rdock/2013.1/src/exe/rbdock.cxx#4 $)

>  <Rbt.Library>
libRbt.so (2013.1, Build901 2013/11/27)

>  <Rbt.Parameter_File>
/export/apps/rDock/src/rDock_2013.1_src/data/scripts/dock_solv.prm

>  <Rbt.Receptor>
prm/blind_docking_60.prm

>  <SCORE>
-18.3491

>  <SCORE.INTER>
-18.3491

>  <SCORE.INTER.CONST>
1

>  <SCORE.INTER.POLAR>
0

>  <SCORE.INTER.ROT>
0

>  <SCORE.INTER.SOLV>
3.62999

>  <SCORE.INTER.VDW>
-17.0427

>  <SCORE.INTER.norm>
-1.83491

>  <SCORE.INTRA>
0

>  <SCORE.INTRA.DIHEDRAL>
0

>  <SCORE.INTRA.DIHEDRAL.0>
0

>  <SCORE.INTRA.POLAR>
0

>  <SCORE.INTRA.POLAR.0>
0

>  <SCORE.INTRA.REPUL>
0

>  <SCORE.INTRA.REPUL.0>
0

>  <SCORE.INTRA.SOLV>
0

>  <SCORE.INTRA.SOLV.lig_0>
-4.28148

>  <SCORE.INTRA.VDW>
0

>  <SCORE.INTRA.VDW.0>
0

>  <SCORE.INTRA.norm>
0

>  <SCORE.RESTR>
0

>  <SCORE.RESTR.CAVITY>
0

>  <SCORE.RESTR.norm>
0

>  <SCORE.SYSTEM>
0

>  <SCORE.SYSTEM.CONST>
0

>  <SCORE.SYSTEM.DIHEDRAL>
0

>  <SCORE.SYSTEM.SOLV>
0

>  <SCORE.SYSTEM.norm>
0

>  <SCORE.heavy>
10

>  <SCORE.norm>
-1.83491

>  <RMSD>
2.483

$$$$
ligand
 OpenBabel11021811423D
libRbt.so/2013.1/901 2013/11/27
 10 11  0  0  0  0  0  0  0  0999 V2000
   11.7746   11.0807    8.8000 N   0  0  0  0  0  0  0  0  0  0  0  0
   11.9541    9.8884    8.1277 C   0  0  0  0  0  0  0  0  0  0  0  0
   11.7931    9.7878    6.8025 N   0  0  0  0  0  0  0  0  0  0  0  0
   11.4390   10.9643    6.2128 C   0  0  0  0  0  0  0  0  0  0  0  0
   11.2419   12.1912    6.8282 C   0  0  0  0  0  0  0  0  0  0  0  0
   11.4134   12.3057    8.2345 C   0  0  0  0  0  0  0  0  0  0  0  0
   11.2928   13.2820    8.9747 O   0  0  0  0  0  0  0  0  0  0  0  0
   10.8944   13.1086    5.8658 N   0  0  0  0  0  0  0  0  0  0  0  0
   10.8833   12.4427    4.6872 C   0  0  0  0  0  0  0  0  0  0  0  0
   11.2130   11.1195    4.8664 N   0  0  0  0  0  0  0  0  0  0  0  0
  1  2  1  0  0  0  0
  1  6  1  0  0  0  0
  2  3  2  0  0  0  0
  3  4  1  0  0  0  0
  4  5  2  0  0  0  0
  4 10  1  0  0  0  0
  5  6  1  0  0  0  0
  5  8  1  0  0  0  0
  6  7  2  0  0  0  0
  8  9  1  0  0  0  0
  9 10  2  0  0  0  0
M  END
>  <CHROM.1>
11.38877383,11.64665080,6.97990334,-0.98985344,1.30714505,-2.11837603

>  <Name>
ligand

>  <RI>
0

>  <Rbt.Current_Directory>
/home/itssahil/PROJECTS/Mol_Feturizer/New_Systems/rnas/2EEU

>  <Rbt.Executable>
rbdock ($Id: //depot/dev/client3/rdock/2013.1/src/exe/rbdock.cxx#4 $)

>  <Rbt.Library>
libRbt.so (2013.1, Build901 2013/11/27)

>  <Rbt.Parameter_File>
/export/apps/rDock/src/rDock_2013.1_src/data/scripts/dock_solv.prm

>  <Rbt.Receptor>
prm/pocket_docking_3.prm

>  <SCORE>
-18.3432

>  <SCORE.INTER>
-18.3432

>  <SCORE.INTER.CONST>
1

>  <SCORE.INTER.POLAR>
0

>  <SCORE.INTER.ROT>
0

>  <SCORE.INTER.SOLV>
3.64498

>  <SCORE.INTER.VDW>
-17.0438

>  <SCORE.INTER.norm>
-1.83432

>  <SCORE.INTRA>
0

>  <SCORE.INTRA.DIHEDRAL>
0

>  <SCORE.INTRA.DIHEDRAL.0>
0

>  <SCORE.INTRA.POLAR>
0

>  <SCORE.INTRA.POLAR.0>
0

>  <SCORE.INTRA.REPUL>
0

>  <SCORE.INTRA.REPUL.0>
0

>  <SCORE.INTRA.SOLV>
0

>  <SCORE.INTRA.SOLV.lig_0>
-4.28148

>  <SCORE.INTRA.VDW>
0

>  <SCORE.INTRA.VDW.0>
0

>  <SCORE.INTRA.norm>
0

>  <SCORE.RESTR>
0

>  <SCORE.RESTR.CAVITY>
0

>  <SCORE.RESTR.norm>
0

>  <SCORE.SYSTEM>
0

>  <SCORE.SYSTEM.CONST>
0

>  <SCORE.SYSTEM.DIHEDRAL>
0

>  <SCORE.SYSTEM.SOLV>
0

>  <SCORE.SYSTEM.norm>
0

>  <SCORE.heavy>
10

>  <SCORE.norm>
-1.83432

>  <RMSD>
2.483

$$$$
ligand
 OpenBabel11021811423D
libRbt.so/2013.1/901 2013/11/27
 10 11  0  0  0  0  0  0  0  0999 V2000
   11.7755   11.0838    8.7972 N   0  0  0  0  0  0  0  0  0  0  0  0
   11.9473    9.8915    8.1231 C   0  0  0  0  0  0  0  0  0  0  0  0
   11.7828    9.7933    6.7981 N   0  0  0  0  0  0  0  0  0  0  0  0
   11.4335   10.9724    6.2106 C   0  0  0  0  0  0  0  0  0  0  0  0
   11.2443   12.1996    6.8279 C   0  0  0  0  0  0  0  0  0  0  0  0
   11.4195   12.3114    8.2340 C   0  0  0  0  0  0  0  0  0  0  0  0
   11.3057   13.2875    8.9755 O   0  0  0  0  0  0  0  0  0  0  0  0
   10.8995   13.1199    5.8674 N   0  0  0  0  0  0  0  0  0  0  0  0
   10.8822   12.4556    4.6880 C   0  0  0  0  0  0  0  0  0  0  0  0
   11.2054   11.1304    4.8649 N   0  0  0  0  0  0  0  0  0  0  0  0
  1  2  1  0  0  0  0
  1  6  1  0  0  0  0
  2  3  2  0  0  0  0
  3  4  1  0  0  0  0
  4  5  2  0  0  0  0
  4 10  1  0  0  0  0
  5  6  1  0  0  0  0
  5  8  1  0  0  0  0
  6  7  2  0  0  0  0
  8  9  1  0  0  0  0
  9 10  2  0  0  0  0
M  END
>  <CHROM.1>
11.38861781,11.65402902,6.97861076,-0.97183115,1.31043746,-2.13457328

>  <Name>
ligand

>  <RI>
0

>  <Rbt.Current_Directory>
/home/itssahil/PROJECTS/Mol_Feturizer/New_Systems/rnas/2EEU

>  <Rbt.Executable>
rbdock ($Id: //depot/dev/client3/rdock/2013.1/src/exe/rbdock.cxx#4 $)

>  <Rbt.Library>
libRbt.so (2013.1, Build901 2013/11/27)

>  <Rbt.Parameter_File>
/export/apps/rDock/src/rDock_2013.1_src/data/scripts/dock_solv.prm

>  <Rbt.Receptor>
prm/pocket_docking_5.prm

>  <SCORE>
-18.3467

>  <SCORE.INTER>
-18.3467

>  <SCORE.INTER.CONST>
1

>  <SCORE.INTER.POLAR>
0

>  <SCORE.INTER.ROT>
0

>  <SCORE.INTER.SOLV>
3.64416

>  <SCORE.INTER.VDW>
-17.0459

>  <SCORE.INTER.norm>
-1.83467

>  <SCORE.INTRA>
0

>  <SCORE.INTRA.DIHEDRAL>
0

>  <SCORE.INTRA.DIHEDRAL.0>
0

>  <SCORE.INTRA.POLAR>
0

>  <SCORE.INTRA.POLAR.0>
0

>  <SCORE.INTRA.REPUL>
0

>  <SCORE.INTRA.REPUL.0>
0

>  <SCORE.INTRA.SOLV>
0

>  <SCORE.INTRA.SOLV.lig_0>
-4.28148

>  <SCORE.INTRA.VDW>
0

>  <SCORE.INTRA.VDW.0>
0

>  <SCORE.INTRA.norm>
0

>  <SCORE.RESTR>
0

>  <SCORE.RESTR.CAVITY>
0

>  <SCORE.RESTR.norm>
0

>  <SCORE.SYSTEM>
0

>  <SCORE.SYSTEM.CONST>
0

>  <SCORE.SYSTEM.DIHEDRAL>
0

>  <SCORE.SYSTEM.SOLV>
0

>  <SCORE.SYSTEM.norm>
0

>  <SCORE.heavy>
10

>  <SCORE.norm>
-1.83467

>  <RMSD>
2.483

$$$$
ligand
 OpenBabel11021811423D
libRbt.so/2013.1/901 2013/11/27
 10 11  0  0  0  0  0  0  0  0999 V2000
   11.7804   11.0720    8.7937 N   0  0  0  0  0  0  0  0  0  0  0  0
   11.9377    9.8779    8.1192 C   0  0  0  0  0  0  0  0  0  0  0  0
   11.7677    9.7813    6.7948 N   0  0  0  0  0  0  0  0  0  0  0  0
   11.4285   10.9638    6.2083 C   0  0  0  0  0  0  0  0  0  0  0  0
   11.2538   12.1929    6.8260 C   0  0  0  0  0  0  0  0  0  0  0  0
   11.4350   12.3031    8.2315 C   0  0  0  0  0  0  0  0  0  0  0  0
   11.3337   13.2804    8.9733 O   0  0  0  0  0  0  0  0  0  0  0  0
   10.9152   13.1165    5.8666 N   0  0  0  0  0  0  0  0  0  0  0  0
   10.8871   12.4523    4.6874 C   0  0  0  0  0  0  0  0  0  0  0  0
   11.1974   11.1239    4.8634 N   0  0  0  0  0  0  0  0  0  0  0  0
  1  2  1  0  0  0  0
  1  6  1  0  0  0  0
  2  3  2  0  0  0  0
  3  4  1  0  0  0  0
  4  5  2  0  0  0  0
  4 10  1  0  0  0  0
  5  6  1  0  0  0  0
  5  8  1  0  0  0  0
  6  7  2  0  0  0  0
  8  9  1  0  0  0  0
  9 10  2  0  0  0  0
M  END
>  <CHROM.1>
11.39315123,11.64592936,6.97636686,-0.93862493,1.31708413,-2.16683264

>  <Name>
ligand

>  <RI>
0

>  <Rbt.Current_Directory>
/home/itssahil/PROJECTS/Mol_Feturizer/New_Systems/rnas/2EEU

>  <Rbt.Executable>
rbdock ($Id: //depot/dev/client3/rdock/2013.1/src/exe/rbdock.cxx#4 $)

>  <Rbt.Library>
libRbt.so (2013.1, Build901 2013/11/27)

>  <Rbt.Parameter_File>
/export/apps/rDock/src/rDock_2013.1_src/data/scripts/dock_solv.prm

>  <Rbt.Receptor>
prm/pocket_docking_8.prm

>  <SCORE>
-18.3497

>  <SCORE.INTER>
-18.3497

>  <SCORE.INTER.CONST>
1

>  <SCORE.INTER.POLAR>
0

>  <SCORE.INTER.ROT>
0

>  <SCORE.INTER.SOLV>
3.64103

>  <SCORE.INTER.VDW>
-17.0468

>  <SCORE.INTER.norm>
-1.83497

>  <SCORE.INTRA>
0

>  <SCORE.INTRA.DIHEDRAL>
0

>  <SCORE.INTRA.DIHEDRAL.0>
0

>  <SCORE.INTRA.POLAR>
0

>  <SCORE.INTRA.POLAR.0>
0

>  <SCORE.INTRA.REPUL>
0

>  <SCORE.INTRA.REPUL.0>
0

>  <SCORE.INTRA.SOLV>
0

>  <SCORE.INTRA.SOLV.lig_0>
-4.28148

>  <SCORE.INTRA.VDW>
0

>  <SCORE.INTRA.VDW.0>
0

>  <SCORE.INTRA.norm>
0

>  <SCORE.RESTR>
0

>  <SCORE.RESTR.CAVITY>
0

>  <SCORE.RESTR.norm>
0

>  <SCORE.SYSTEM>
0

>  <SCORE.SYSTEM.CONST>
0

>  <SCORE.SYSTEM.DIHEDRAL>
0

>  <SCORE.SYSTEM.SOLV>
0

>  <SCORE.SYSTEM.norm>
0

>  <SCORE.heavy>
10

>  <SCORE.norm>
-1.83497

>  <RMSD>
2.483

$$$$
ligand
 OpenBabel11021811423D
libRbt.so/2013.1/901 2013/11/27
 10 11  0  0  0  0  0  0  0  0999 V2000
   11.7951   11.0579    8.7895 N   0  0  0  0  0  0  0  0  0  0  0  0
   11.9429    9.8634    8.1136 C   0  0  0  0  0  0  0  0  0  0  0  0
   11.7650    9.7682    6.7901 N   0  0  0  0  0  0  0  0  0  0  0  0
   11.4282   10.9526    6.2060 C   0  0  0  0  0  0  0  0  0  0  0  0
   11.2629   12.1822    6.8253 C   0  0  0  0  0  0  0  0  0  0  0  0
   11.4525   12.2909    8.2299 C   0  0  0  0  0  0  0  0  0  0  0  0
   11.3599   13.2682    8.9727 O   0  0  0  0  0  0  0  0  0  0  0  0
   10.9233   13.1080    5.8682 N   0  0  0  0  0  0  0  0  0  0  0  0
   10.8855   12.4444    4.6889 C   0  0  0  0  0  0  0  0  0  0  0  0
   11.1904   11.1145    4.8626 N   0  0  0  0  0  0  0  0  0  0  0  0
  1  2  1  0  0  0  0
  1  6  1  0  0  0  0
  2  3  2  0  0  0  0
  3  4  1  0  0  0  0
  4  5  2  0  0  0  0
  4 10  1  0  0  0  0
  5  6  1  0  0  0  0
  5  8  1  0  0  0  0
  6  7  2  0  0  0  0
  8  9  1  0  0  0  0
  9 10  2  0  0  0  0
M  END
>  <CHROM.1>
11.40042035,11.63453814,6.97465163,-0.90941969,1.31781690,-2.19462202

>  <Name>
ligand

>  <RI>
0

>  <Rbt.Current_Directory>
/home/itssahil/PROJECTS/Mol_Feturizer/New_Systems/rnas/2EEU

>  <Rbt.Executable>
rbdock ($Id: //depot/dev/client3/rdock/2013.1/src/exe/rbdock.cxx#4 $)

>  <Rbt.Library>
libRbt.so (2013.1, Build901 2013/11/27)

>  <Rbt.Parameter_File>
/export/apps/rDock/src/rDock_2013.1_src/data/scripts/dock_solv.prm

>  <Rbt.Receptor>
prm/pocket_docking_8.prm

>  <SCORE>
-18.3475

>  <SCORE.INTER>
-18.3475

>  <SCORE.INTER.CONST>
1

>  <SCORE.INTER.POLAR>
0

>  <SCORE.INTER.ROT>
0

>  <SCORE.INTER.SOLV>
3.62333

>  <SCORE.INTER.VDW>
-17.0395

>  <SCORE.INTER.norm>
-1.83475

>  <SCORE.INTRA>
0

>  <SCORE.INTRA.DIHEDRAL>
0

>  <SCORE.INTRA.DIHEDRAL.0>
0

>  <SCORE.INTRA.POLAR>
0

>  <SCORE.INTRA.POLAR.0>
0

>  <SCORE.INTRA.REPUL>
0

>  <SCORE.INTRA.REPUL.0>
0

>  <SCORE.INTRA.SOLV>
0

>  <SCORE.INTRA.SOLV.lig_0>
-4.28148

>  <SCORE.INTRA.VDW>
0

>  <SCORE.INTRA.VDW.0>
0

>  <SCORE.INTRA.norm>
0

>  <SCORE.RESTR>
0

>  <SCORE.RESTR.CAVITY>
0

>  <SCORE.RESTR.norm>
0

>  <SCORE.SYSTEM>
0

>  <SCORE.SYSTEM.CONST>
0

>  <SCORE.SYSTEM.DIHEDRAL>
0

>  <SCORE.SYSTEM.SOLV>
0

>  <SCORE.SYSTEM.norm>
0

>  <SCORE.heavy>
10

>  <SCORE.norm>
-1.83475

>  <RMSD>
2.483

$$$$
ligand
 OpenBabel11021811423D
libRbt.so/2013.1/901 2013/11/27
 10 11  0  0  0  0  0  0  0  0999 V2000
   11.7018   11.0098    8.8156 N   0  0  0  0  0  0  0  0  0  0  0  0
   11.8947    9.8350    8.1168 C   0  0  0  0  0  0  0  0  0  0  0  0
   11.7615    9.7687    6.7863 N   0  0  0  0  0  0  0  0  0  0  0  0
   11.4205   10.9604    6.2197 C   0  0  0  0  0  0  0  0  0  0  0  0
   11.2112   12.1713    6.8622 C   0  0  0  0  0  0  0  0  0  0  0  0
   11.3532   12.2493    8.2744 C   0  0  0  0  0  0  0  0  0  0  0  0
   11.2176   13.2065    9.0367 O   0  0  0  0  0  0  0  0  0  0  0  0
   10.8845   13.1134    5.9167 N   0  0  0  0  0  0  0  0  0  0  0  0
   10.8978   12.4781    4.7214 C   0  0  0  0  0  0  0  0  0  0  0  0
   11.2229   11.1504    4.8734 N   0  0  0  0  0  0  0  0  0  0  0  0
  1  2  1  0  0  0  0
  1  6  1  0  0  0  0
  2  3  2  0  0  0  0
  3  4  1  0  0  0  0
  4  5  2  0  0  0  0
  4 10  1  0  0  0  0
  5  6  1  0  0  0  0
  5  8  1  0  0  0  0
  6  7  2  0  0  0  0
  8  9  1  0  0  0  0
  9 10  2  0  0  0  0
M  END
>  <CHROM.1>
11.35455240,11.62279966,7.00295052,-1.06040376,1.31796152,-2.02444505

>  <Name>
ligand

>  <RI>
0

>  <Rbt.Current_Directory>
/home/itssahil/PROJECTS/Mol_Feturizer/New_Systems/rnas/2EEU

>  <Rbt.Executable>
rbdock ($Id: //depot/dev/client3/rdock/2013.1/src/exe/rbdock.cxx#4 $)

>  <Rbt.Library>
libRbt.so (2013.1, Build901 2013/11/27)

>  <Rbt.Parameter_File>
/export/apps/rDock/src/rDock_2013.1_src/data/scripts/dock_solv.prm

>  <Rbt.Receptor>
prm/blind_docking_60.prm

>  <SCORE>
-18.3934

>  <SCORE.INTER>
-18.3934

>  <SCORE.INTER.CONST>
1

>  <SCORE.INTER.POLAR>
0

>  <SCORE.INTER.ROT>
0

>  <SCORE.INTER.SOLV>
3.66954

>  <SCORE.INTER.VDW>
-17.0854

>  <SCORE.INTER.norm>
-1.83934

>  <SCORE.INTRA>
0

>  <SCORE.INTRA.DIHEDRAL>
0

>  <SCORE.INTRA.DIHEDRAL.0>
0

>  <SCORE.INTRA.POLAR>
0

>  <SCORE.INTRA.POLAR.0>
0

>  <SCORE.INTRA.REPUL>
0

>  <SCORE.INTRA.REPUL.0>
0

>  <SCORE.INTRA.SOLV>
0

>  <SCORE.INTRA.SOLV.lig_0>
-4.28148

>  <SCORE.INTRA.VDW>
0

>  <SCORE.INTRA.VDW.0>
0

>  <SCORE.INTRA.norm>
0

>  <SCORE.RESTR>
0

>  <SCORE.RESTR.CAVITY>
0

>  <SCORE.RESTR.norm>
0

>  <SCORE.SYSTEM>
0

>  <SCORE.SYSTEM.CONST>
0

>  <SCORE.SYSTEM.DIHEDRAL>
0

>  <SCORE.SYSTEM.SOLV>
0

>  <SCORE.SYSTEM.norm>
0

>  <SCORE.heavy>
10

>  <SCORE.norm>
-1.83934

>  <RMSD>
2.484

$$$$
ligand
 OpenBabel11021811423D
libRbt.so/2013.1/901 2013/11/27
 10 11  0  0  0  0  0  0  0  0999 V2000
   11.7097   10.9927    8.8127 N   0  0  0  0  0  0  0  0  0  0  0  0
   11.8729    9.8140    8.1129 C   0  0  0  0  0  0  0  0  0  0  0  0
   11.7285    9.7501    6.7836 N   0  0  0  0  0  0  0  0  0  0  0  0
   11.4081   10.9484    6.2190 C   0  0  0  0  0  0  0  0  0  0  0  0
   11.2288   12.1636    6.8625 C   0  0  0  0  0  0  0  0  0  0  0  0
   11.3830   12.2391    8.2735 C   0  0  0  0  0  0  0  0  0  0  0  0
   11.2729   13.1990    9.0364 O   0  0  0  0  0  0  0  0  0  0  0  0
   10.9148   13.1120    5.9190 N   0  0  0  0  0  0  0  0  0  0  0  0
   10.9060   12.4763    4.7239 C   0  0  0  0  0  0  0  0  0  0  0  0
   11.2046   11.1421    4.8741 N   0  0  0  0  0  0  0  0  0  0  0  0
  1  2  1  0  0  0  0
  1  6  1  0  0  0  0
  2  3  2  0  0  0  0
  3  4  1  0  0  0  0
  4  5  2  0  0  0  0
  4 10  1  0  0  0  0
  5  6  1  0  0  0  0
  5  8  1  0  0  0  0
  6  7  2  0  0  0  0
  8  9  1  0  0  0  0
  9 10  2  0  0  0  0
M  END
>  <CHROM.1>
11.36180222,11.61227718,7.00237824,-0.99331898,1.33288462,-2.08987846

>  <Name>
ligand

>  <RI>
0

>  <Rbt.Current_Directory>
/home/itssahil/PROJECTS/Mol_Feturizer/New_Systems/rnas/2EEU

>  <Rbt.Executable>
rbdock ($Id: //depot/dev/client3/rdock/2013.1/src/exe/rbdock.cxx#4 $)

>  <Rbt.Library>
libRbt.so (2013.1, Build901 2013/11/27)

>  <Rbt.Parameter_File>
/export/apps/rDock/src/rDock_2013.1_src/data/scripts/dock_solv.prm

>  <Rbt.Receptor>
prm/pocket_docking_7.prm

>  <SCORE>
-18.3751

>  <SCORE.INTER>
-18.3751

>  <SCORE.INTER.CONST>
1

>  <SCORE.INTER.POLAR>
0

>  <SCORE.INTER.ROT>
0

>  <SCORE.INTER.SOLV>
3.66298

>  <SCORE.INTER.VDW>
-17.071

>  <SCORE.INTER.norm>
-1.83751

>  <SCORE.INTRA>
0

>  <SCORE.INTRA.DIHEDRAL>
0

>  <SCORE.INTRA.DIHEDRAL.0>
0

>  <SCORE.INTRA.POLAR>
0

>  <SCORE.INTRA.POLAR.0>
0

>  <SCORE.INTRA.REPUL>
0

>  <SCORE.INTRA.REPUL.0>
0

>  <SCORE.INTRA.SOLV>
0

>  <SCORE.INTRA.SOLV.lig_0>
-4.28148

>  <SCORE.INTRA.VDW>
0

>  <SCORE.INTRA.VDW.0>
0

>  <SCORE.INTRA.norm>
0

>  <SCORE.RESTR>
0

>  <SCORE.RESTR.CAVITY>
0

>  <SCORE.RESTR.norm>
0

>  <SCORE.SYSTEM>
0

>  <SCORE.SYSTEM.CONST>
0

>  <SCORE.SYSTEM.DIHEDRAL>
0

>  <SCORE.SYSTEM.SOLV>
0

>  <SCORE.SYSTEM.norm>
0

>  <SCORE.heavy>
10

>  <SCORE.norm>
-1.83751

>  <RMSD>
2.484

$$$$
ligand
 OpenBabel11021811423D
libRbt.so/2013.1/901 2013/11/27
 10 11  0  0  0  0  0  0  0  0999 V2000
   11.7116   10.9637    8.8184 N   0  0  0  0  0  0  0  0  0  0  0  0
   11.9070    9.7964    8.1078 C   0  0  0  0  0  0  0  0  0  0  0  0
   11.7658    9.7413    6.7776 N   0  0  0  0  0  0  0  0  0  0  0  0
   11.4140   10.9359    6.2240 C   0  0  0  0  0  0  0  0  0  0  0  0
   11.2016   12.1397    6.8787 C   0  0  0  0  0  0  0  0  0  0  0  0
   11.3522   12.2059    8.2906 C   0  0  0  0  0  0  0  0  0  0  0  0
   11.2157   13.1553    9.0623 O   0  0  0  0  0  0  0  0  0  0  0  0
   10.8633   13.0883    5.9438 N   0  0  0  0  0  0  0  0  0  0  0  0
   10.8727   12.4639    4.7428 C   0  0  0  0  0  0  0  0  0  0  0  0
   11.2068   11.1368    4.8807 N   0  0  0  0  0  0  0  0  0  0  0  0
  1  2  1  0  0  0  0
  1  6  1  0  0  0  0
  2  3  2  0  0  0  0
  3  4  1  0  0  0  0
  4  5  2  0  0  0  0
  4 10  1  0  0  0  0
  5  6  1  0  0  0  0
  5  8  1  0  0  0  0
  6  7  2  0  0  0  0
  8  9  1  0  0  0  0
  9 10  2  0  0  0  0
M  END
>  <CHROM.1>
11.34915119,11.59085259,7.01357341,-1.04832463,1.30977605,-2.02710787

>  <Name>
ligand

>  <RI>
0

>  <Rbt.Current_Directory>
/home/itssahil/PROJECTS/Mol_Feturizer/New_Systems/rnas/2EEU

>  <Rbt.Executable>
rbdock ($Id: //depot/dev/client3/rdock/2013.1/src/exe/rbdock.cxx#4 $)

>  <Rbt.Library>
libRbt.so (2013.1, Build901 2013/11/27)

>  <Rbt.Parameter_File>
/export/apps/rDock/src/rDock_2013.1_src/data/scripts/dock_solv.prm

>  <Rbt.Receptor>
prm/pocket_docking_8.prm

>  <SCORE>
-18.3431

>  <SCORE.INTER>
-18.3431

>  <SCORE.INTER.CONST>
1

>  <SCORE.INTER.POLAR>
0

>  <SCORE.INTER.ROT>
0

>  <SCORE.INTER.SOLV>
3.65208

>  <SCORE.INTER.VDW>
-17.0461

>  <SCORE.INTER.norm>
-1.83431

>  <SCORE.INTRA>
0

>  <SCORE.INTRA.DIHEDRAL>
0

>  <SCORE.INTRA.DIHEDRAL.0>
0

>  <SCORE.INTRA.POLAR>
0

>  <SCORE.INTRA.POLAR.0>
0

>  <SCORE.INTRA.REPUL>
0

>  <SCORE.INTRA.REPUL.0>
0

>  <SCORE.INTRA.SOLV>
0

>  <SCORE.INTRA.SOLV.lig_0>
-4.28148

>  <SCORE.INTRA.VDW>
0

>  <SCORE.INTRA.VDW.0>
0

>  <SCORE.INTRA.norm>
0

>  <SCORE.RESTR>
0

>  <SCORE.RESTR.CAVITY>
0

>  <SCORE.RESTR.norm>
0

>  <SCORE.SYSTEM>
0

>  <SCORE.SYSTEM.CONST>
0

>  <SCORE.SYSTEM.DIHEDRAL>
0

>  <SCORE.SYSTEM.SOLV>
0

>  <SCORE.SYSTEM.norm>
0

>  <SCORE.heavy>
10

>  <SCORE.norm>
-1.83431

>  <RMSD>
2.484

$$$$
ligand
 OpenBabel11021811423D
libRbt.so/2013.1/901 2013/11/27
 10 11  0  0  0  0  0  0  0  0999 V2000
   11.7109   10.9902    8.8121 N   0  0  0  0  0  0  0  0  0  0  0  0
   11.8967    9.8160    8.1106 C   0  0  0  0  0  0  0  0  0  0  0  0
   11.7653    9.7540    6.7797 N   0  0  0  0  0  0  0  0  0  0  0  0
   11.4335   10.9494    6.2157 C   0  0  0  0  0  0  0  0  0  0  0  0
   11.2316   12.1601    6.8610 C   0  0  0  0  0  0  0  0  0  0  0  0
   11.3719   12.2336    8.2735 C   0  0  0  0  0  0  0  0  0  0  0  0
   11.2417   13.1896    9.0381 O   0  0  0  0  0  0  0  0  0  0  0  0
   10.9131   13.1070    5.9174 N   0  0  0  0  0  0  0  0  0  0  0  0
   10.9239   12.4747    4.7205 C   0  0  0  0  0  0  0  0  0  0  0  0
   11.2396   11.1443    4.8695 N   0  0  0  0  0  0  0  0  0  0  0  0
  1  2  1  0  0  0  0
  1  6  1  0  0  0  0
  2  3  2  0  0  0  0
  3  4  1  0  0  0  0
  4  5  2  0  0  0  0
  4 10  1  0  0  0  0
  5  6  1  0  0  0  0
  5  8  1  0  0  0  0
  6  7  2  0  0  0  0
  8  9  1  0  0  0  0
  9 10  2  0  0  0  0
M  END
>  <CHROM.1>
11.37094645,11.61030846,7.00049608,-1.05398896,1.32494682,-2.02806973

>  <Name>
ligand

>  <RI>
0

>  <Rbt.Current_Directory>
/home/itssahil/PROJECTS/Mol_Feturizer/New_Systems/rnas/2EEU

>  <Rbt.Executable>
rbdock ($Id: //depot/dev/client3/rdock/2013.1/src/exe/rbdock.cxx#4 $)

>  <Rbt.Library>
libRbt.so (2013.1, Build901 2013/11/27)

>  <Rbt.Parameter_File>
/export/apps/rDock/src/rDock_2013.1_src/data/scripts/dock_solv.prm

>  <Rbt.Receptor>
prm/blind_docking_100.prm

>  <SCORE>
-18.4247

>  <SCORE.INTER>
-18.4247

>  <SCORE.INTER.CONST>
1

>  <SCORE.INTER.POLAR>
0

>  <SCORE.INTER.ROT>
0

>  <SCORE.INTER.SOLV>
3.66086

>  <SCORE.INTER.VDW>
-17.1034

>  <SCORE.INTER.norm>
-1.84247

>  <SCORE.INTRA>
0

>  <SCORE.INTRA.DIHEDRAL>
0

>  <SCORE.INTRA.DIHEDRAL.0>
0

>  <SCORE.INTRA.POLAR>
0

>  <SCORE.INTRA.POLAR.0>
0

>  <SCORE.INTRA.REPUL>
0

>  <SCORE.INTRA.REPUL.0>
0

>  <SCORE.INTRA.SOLV>
0

>  <SCORE.INTRA.SOLV.lig_0>
-4.28148

>  <SCORE.INTRA.VDW>
0

>  <SCORE.INTRA.VDW.0>
0

>  <SCORE.INTRA.norm>
0

>  <SCORE.RESTR>
0

>  <SCORE.RESTR.CAVITY>
0

>  <SCORE.RESTR.norm>
0

>  <SCORE.SYSTEM>
0

>  <SCORE.SYSTEM.CONST>
0

>  <SCORE.SYSTEM.DIHEDRAL>
0

>  <SCORE.SYSTEM.SOLV>
0

>  <SCORE.SYSTEM.norm>
0

>  <SCORE.heavy>
10

>  <SCORE.norm>
-1.84247

>  <RMSD>
2.485

$$$$
ligand
 OpenBabel11021811423D
libRbt.so/2013.1/901 2013/11/27
 10 11  0  0  0  0  0  0  0  0999 V2000
   11.7226   10.9839    8.8000 N   0  0  0  0  0  0  0  0  0  0  0  0
   11.8936    9.8091    8.0957 C   0  0  0  0  0  0  0  0  0  0  0  0
   11.7480    9.7490    6.7662 N   0  0  0  0  0  0  0  0  0  0  0  0
   11.4181   10.9470    6.2065 C   0  0  0  0  0  0  0  0  0  0  0  0
   11.2306   12.1584    6.8547 C   0  0  0  0  0  0  0  0  0  0  0  0
   11.3860   12.2298    8.2659 C   0  0  0  0  0  0  0  0  0  0  0  0
   11.2698   13.1861    9.0324 O   0  0  0  0  0  0  0  0  0  0  0  0
   10.9084   13.1080    5.9152 N   0  0  0  0  0  0  0  0  0  0  0  0
   10.9028   12.4767    4.7178 C   0  0  0  0  0  0  0  0  0  0  0  0
   11.2114   11.1442    4.8626 N   0  0  0  0  0  0  0  0  0  0  0  0
  1  2  1  0  0  0  0
  1  6  1  0  0  0  0
  2  3  2  0  0  0  0
  3  4  1  0  0  0  0
  4  5  2  0  0  0  0
  4 10  1  0  0  0  0
  5  6  1  0  0  0  0
  5  8  1  0  0  0  0
  6  7  2  0  0  0  0
  8  9  1  0  0  0  0
  9 10  2  0  0  0  0
M  END
>  <CHROM.1>
11.36785688,11.60762744,6.99243905,-1.00391258,1.32582667,-2.07587923

>  <Name>
ligand

>  <RI>
0

>  <Rbt.Current_Directory>
/home/itssahil/PROJECTS/Mol_Feturizer/New_Systems/rnas/2EEU

>  <Rbt.Executable>
rbdock ($Id: //depot/dev/client3/rdock/2013.1/src/exe/rbdock.cxx#4 $)

>  <Rbt.Library>
libRbt.so (2013.1, Build901 2013/11/27)

>  <Rbt.Parameter_File>
/export/apps/rDock/src/rDock_2013.1_src/data/scripts/dock_solv.prm

>  <Rbt.Receptor>
prm/blind_docking_40.prm

>  <SCORE>
-18.3874

>  <SCORE.INTER>
-18.3874

>  <SCORE.INTER.CONST>
1

>  <SCORE.INTER.POLAR>
0

>  <SCORE.INTER.ROT>
0

>  <SCORE.INTER.SOLV>
3.64152

>  <SCORE.INTER.VDW>
-17.0721

>  <SCORE.INTER.norm>
-1.83874

>  <SCORE.INTRA>
0

>  <SCORE.INTRA.DIHEDRAL>
0

>  <SCORE.INTRA.DIHEDRAL.0>
0

>  <SCORE.INTRA.POLAR>
0

>  <SCORE.INTRA.POLAR.0>
0

>  <SCORE.INTRA.REPUL>
0

>  <SCORE.INTRA.REPUL.0>
0

>  <SCORE.INTRA.SOLV>
0

>  <SCORE.INTRA.SOLV.lig_0>
-4.28148

>  <SCORE.INTRA.VDW>
0

>  <SCORE.INTRA.VDW.0>
0

>  <SCORE.INTRA.norm>
0

>  <SCORE.RESTR>
0

>  <SCORE.RESTR.CAVITY>
0

>  <SCORE.RESTR.norm>
0

>  <SCORE.SYSTEM>
0

>  <SCORE.SYSTEM.CONST>
0

>  <SCORE.SYSTEM.DIHEDRAL>
0

>  <SCORE.SYSTEM.SOLV>
0

>  <SCORE.SYSTEM.norm>
0

>  <SCORE.heavy>
10

>  <SCORE.norm>
-1.83874

>  <RMSD>
2.485

$$$$
ligand
 OpenBabel11021811423D
libRbt.so/2013.1/901 2013/11/27
 10 11  0  0  0  0  0  0  0  0999 V2000
   11.7854   11.0387    8.7718 N   0  0  0  0  0  0  0  0  0  0  0  0
   11.9234    9.8477    8.0877 C   0  0  0  0  0  0  0  0  0  0  0  0
   11.7398    9.7620    6.7644 N   0  0  0  0  0  0  0  0  0  0  0  0
   11.4078   10.9521    6.1892 C   0  0  0  0  0  0  0  0  0  0  0  0
   11.2523   12.1787    6.8170 C   0  0  0  0  0  0  0  0  0  0  0  0
   11.4480   12.2773    8.2214 C   0  0  0  0  0  0  0  0  0  0  0  0
   11.3642   13.2504    8.9708 O   0  0  0  0  0  0  0  0  0  0  0  0
   10.9145   13.1126    5.8671 N   0  0  0  0  0  0  0  0  0  0  0  0
   10.8681   12.4568    4.6838 C   0  0  0  0  0  0  0  0  0  0  0  0
   11.1657   11.1240    4.8477 N   0  0  0  0  0  0  0  0  0  0  0  0
  1  2  1  0  0  0  0
  1  6  1  0  0  0  0
  2  3  2  0  0  0  0
  3  4  1  0  0  0  0
  4  5  2  0  0  0  0
  4 10  1  0  0  0  0
  5  6  1  0  0  0  0
  5  8  1  0  0  0  0
  6  7  2  0  0  0  0
  8  9  1  0  0  0  0
  9 10  2  0  0  0  0
M  END
>  <CHROM.1>
11.38710468,11.62927143,6.96224717,-0.88243420,1.32030733,-2.21437836

>  <Name>
ligand

>  <RI>
0

>  <Rbt.Current_Directory>
/home/itssahil/PROJECTS/Mol_Feturizer/New_Systems/rnas/2EEU

>  <Rbt.Executable>
rbdock ($Id: //depot/dev/client3/rdock/2013.1/src/exe/rbdock.cxx#4 $)

>  <Rbt.Library>
libRbt.so (2013.1, Build901 2013/11/27)

>  <Rbt.Parameter_File>
/export/apps/rDock/src/rDock_2013.1_src/data/scripts/dock_solv.prm

>  <Rbt.Receptor>
prm/pocket_docking_4.prm

>  <SCORE>
-18.3641

>  <SCORE.INTER>
-18.3641

>  <SCORE.INTER.CONST>
1

>  <SCORE.INTER.POLAR>
0

>  <SCORE.INTER.ROT>
0

>  <SCORE.INTER.SOLV>
3.61099

>  <SCORE.INTER.VDW>
-17.0464

>  <SCORE.INTER.norm>
-1.83641

>  <SCORE.INTRA>
0

>  <SCORE.INTRA.DIHEDRAL>
0

>  <SCORE.INTRA.DIHEDRAL.0>
0

>  <SCORE.INTRA.POLAR>
0

>  <SCORE.INTRA.POLAR.0>
0

>  <SCORE.INTRA.REPUL>
0

>  <SCORE.INTRA.REPUL.0>
0

>  <SCORE.INTRA.SOLV>
0

>  <SCORE.INTRA.SOLV.lig_0>
-4.28148

>  <SCORE.INTRA.VDW>
0

>  <SCORE.INTRA.VDW.0>
0

>  <SCORE.INTRA.norm>
0

>  <SCORE.RESTR>
0

>  <SCORE.RESTR.CAVITY>
0

>  <SCORE.RESTR.norm>
0

>  <SCORE.SYSTEM>
0

>  <SCORE.SYSTEM.CONST>
0

>  <SCORE.SYSTEM.DIHEDRAL>
0

>  <SCORE.SYSTEM.SOLV>
0

>  <SCORE.SYSTEM.norm>
0

>  <SCORE.heavy>
10

>  <SCORE.norm>
-1.83641

>  <RMSD>
2.485

$$$$
ligand
 OpenBabel11021811423D
libRbt.so/2013.1/901 2013/11/27
 10 11  0  0  0  0  0  0  0  0999 V2000
   11.6968   11.0224    8.8171 N   0  0  0  0  0  0  0  0  0  0  0  0
   11.9097    9.8492    8.1215 C   0  0  0  0  0  0  0  0  0  0  0  0
   11.7904    9.7801    6.7898 N   0  0  0  0  0  0  0  0  0  0  0  0
   11.4416   10.9673    6.2187 C   0  0  0  0  0  0  0  0  0  0  0  0
   11.2124   12.1764    6.8578 C   0  0  0  0  0  0  0  0  0  0  0  0
   11.3397   12.2574    8.2712 C   0  0  0  0  0  0  0  0  0  0  0  0
   11.1858   13.2137    9.0311 O   0  0  0  0  0  0  0  0  0  0  0  0
   10.8845   13.1139    5.9081 N   0  0  0  0  0  0  0  0  0  0  0  0
   10.9167   12.4777    4.7137 C   0  0  0  0  0  0  0  0  0  0  0  0
   11.2552   11.1538    4.8702 N   0  0  0  0  0  0  0  0  0  0  0  0
  1  2  1  0  0  0  0
  1  6  1  0  0  0  0
  2  3  2  0  0  0  0
  3  4  1  0  0  0  0
  4  5  2  0  0  0  0
  4 10  1  0  0  0  0
  5  6  1  0  0  0  0
  5  8  1  0  0  0  0
  6  7  2  0  0  0  0
  8  9  1  0  0  0  0
  9 10  2  0  0  0  0
M  END
>  <CHROM.1>
11.36054439,11.62973790,7.00048065,-1.11422588,1.31181120,-1.97337238

>  <Name>
ligand

>  <RI>
0

>  <Rbt.Current_Directory>
/home/itssahil/PROJECTS/Mol_Feturizer/New_Systems/rnas/2EEU

>  <Rbt.Executable>
rbdock ($Id: //depot/dev/client3/rdock/2013.1/src/exe/rbdock.cxx#4 $)

>  <Rbt.Library>
libRbt.so (2013.1, Build901 2013/11/27)

>  <Rbt.Parameter_File>
/export/apps/rDock/src/rDock_2013.1_src/data/scripts/dock_solv.prm

>  <Rbt.Receptor>
prm/pocket_docking_4.prm

>  <SCORE>
-18.377

>  <SCORE.INTER>
-18.377

>  <SCORE.INTER.CONST>
1

>  <SCORE.INTER.POLAR>
0

>  <SCORE.INTER.ROT>
0

>  <SCORE.INTER.SOLV>
3.6836

>  <SCORE.INTER.VDW>
-17.0792

>  <SCORE.INTER.norm>
-1.8377

>  <SCORE.INTRA>
0

>  <SCORE.INTRA.DIHEDRAL>
0

>  <SCORE.INTRA.DIHEDRAL.0>
0

>  <SCORE.INTRA.POLAR>
0

>  <SCORE.INTRA.POLAR.0>
0

>  <SCORE.INTRA.REPUL>
0

>  <SCORE.INTRA.REPUL.0>
0

>  <SCORE.INTRA.SOLV>
0

>  <SCORE.INTRA.SOLV.lig_0>
-4.28148

>  <SCORE.INTRA.VDW>
0

>  <SCORE.INTRA.VDW.0>
0

>  <SCORE.INTRA.norm>
0

>  <SCORE.RESTR>
0

>  <SCORE.RESTR.CAVITY>
0

>  <SCORE.RESTR.norm>
0

>  <SCORE.SYSTEM>
0

>  <SCORE.SYSTEM.CONST>
0

>  <SCORE.SYSTEM.DIHEDRAL>
0

>  <SCORE.SYSTEM.SOLV>
0

>  <SCORE.SYSTEM.norm>
0

>  <SCORE.heavy>
10

>  <SCORE.norm>
-1.8377

>  <RMSD>
2.485

$$$$
ligand
 OpenBabel11021811423D
libRbt.so/2013.1/901 2013/11/27
 10 11  0  0  0  0  0  0  0  0999 V2000
   11.8370   11.1431    8.7535 N   0  0  0  0  0  0  0  0  0  0  0  0
   11.9670    9.9378    8.0932 C   0  0  0  0  0  0  0  0  0  0  0  0
   11.7712    9.8248    6.7737 N   0  0  0  0  0  0  0  0  0  0  0  0
   11.4357   11.0032    6.1768 C   0  0  0  0  0  0  0  0  0  0  0  0
   11.2877   12.2429    6.7802 C   0  0  0  0  0  0  0  0  0  0  0  0
   11.4964   12.3704    8.1805 C   0  0  0  0  0  0  0  0  0  0  0  0
   11.4208   13.3591    8.9101 O   0  0  0  0  0  0  0  0  0  0  0  0
   10.9426   13.1573    5.8142 N   0  0  0  0  0  0  0  0  0  0  0  0
   10.8845   12.4771    4.6453 C   0  0  0  0  0  0  0  0  0  0  0  0
   11.1817   11.1475    4.8343 N   0  0  0  0  0  0  0  0  0  0  0  0
  1  2  1  0  0  0  0
  1  6  1  0  0  0  0
  2  3  2  0  0  0  0
  3  4  1  0  0  0  0
  4  5  2  0  0  0  0
  4 10  1  0  0  0  0
  5  6  1  0  0  0  0
  5  8  1  0  0  0  0
  6  7  2  0  0  0  0
  8  9  1  0  0  0  0
  9 10  2  0  0  0  0
M  END
>  <CHROM.1>
11.42305376,11.69640463,6.93571818,-0.85011723,1.31587746,-2.26654883

>  <Name>
ligand

>  <RI>
0

>  <Rbt.Current_Directory>
/home/itssahil/PROJECTS/Mol_Feturizer/New_Systems/rnas/2EEU

>  <Rbt.Executable>
rbdock ($Id: //depot/dev/client3/rdock/2013.1/src/exe/rbdock.cxx#4 $)

>  <Rbt.Library>
libRbt.so (2013.1, Build901 2013/11/27)

>  <Rbt.Parameter_File>
/export/apps/rDock/src/rDock_2013.1_src/data/scripts/dock_solv.prm

>  <Rbt.Receptor>
prm/pocket_docking_5.prm

>  <SCORE>
-18.345

>  <SCORE.INTER>
-18.345

>  <SCORE.INTER.CONST>
1

>  <SCORE.INTER.POLAR>
0

>  <SCORE.INTER.ROT>
0

>  <SCORE.INTER.SOLV>
3.67656

>  <SCORE.INTER.VDW>
-17.0555

>  <SCORE.INTER.norm>
-1.8345

>  <SCORE.INTRA>
0

>  <SCORE.INTRA.DIHEDRAL>
0

>  <SCORE.INTRA.DIHEDRAL.0>
0

>  <SCORE.INTRA.POLAR>
0

>  <SCORE.INTRA.POLAR.0>
0

>  <SCORE.INTRA.REPUL>
0

>  <SCORE.INTRA.REPUL.0>
0

>  <SCORE.INTRA.SOLV>
0

>  <SCORE.INTRA.SOLV.lig_0>
-4.28148

>  <SCORE.INTRA.VDW>
0

>  <SCORE.INTRA.VDW.0>
0

>  <SCORE.INTRA.norm>
0

>  <SCORE.RESTR>
0

>  <SCORE.RESTR.CAVITY>
0

>  <SCORE.RESTR.norm>
0

>  <SCORE.SYSTEM>
0

>  <SCORE.SYSTEM.CONST>
0

>  <SCORE.SYSTEM.DIHEDRAL>
0

>  <SCORE.SYSTEM.SOLV>
0

>  <SCORE.SYSTEM.norm>
0

>  <SCORE.heavy>
10

>  <SCORE.norm>
-1.8345

>  <RMSD>
2.485

$$$$
ligand
 OpenBabel11021811423D
libRbt.so/2013.1/901 2013/11/27
 10 11  0  0  0  0  0  0  0  0999 V2000
   11.8384   11.1526    8.7486 N   0  0  0  0  0  0  0  0  0  0  0  0
   11.9721    9.9479    8.0880 C   0  0  0  0  0  0  0  0  0  0  0  0
   11.7697    9.8333    6.7696 N   0  0  0  0  0  0  0  0  0  0  0  0
   11.4236   11.0093    6.1743 C   0  0  0  0  0  0  0  0  0  0  0  0
   11.2713   12.2483    6.7780 C   0  0  0  0  0  0  0  0  0  0  0  0
   11.4870   12.3777    8.1770 C   0  0  0  0  0  0  0  0  0  0  0  0
   11.4095   13.3662    8.9067 O   0  0  0  0  0  0  0  0  0  0  0  0
   10.9152   13.1602    5.8137 N   0  0  0  0  0  0  0  0  0  0  0  0
   10.8548   12.4792    4.6453 C   0  0  0  0  0  0  0  0  0  0  0  0
   11.1611   11.1516    4.8331 N   0  0  0  0  0  0  0  0  0  0  0  0
  1  2  1  0  0  0  0
  1  6  1  0  0  0  0
  2  3  2  0  0  0  0
  3  4  1  0  0  0  0
  4  5  2  0  0  0  0
  4 10  1  0  0  0  0
  5  6  1  0  0  0  0
  5  8  1  0  0  0  0
  6  7  2  0  0  0  0
  8  9  1  0  0  0  0
  9 10  2  0  0  0  0
M  END
>  <CHROM.1>
11.41091419,11.70273578,6.93295509,-0.84878749,1.30755630,-2.26819343

>  <Name>
ligand

>  <RI>
0

>  <Rbt.Current_Directory>
/home/itssahil/PROJECTS/Mol_Feturizer/New_Systems/rnas/2EEU

>  <Rbt.Executable>
rbdock ($Id: //depot/dev/client3/rdock/2013.1/src/exe/rbdock.cxx#4 $)

>  <Rbt.Library>
libRbt.so (2013.1, Build901 2013/11/27)

>  <Rbt.Parameter_File>
/export/apps/rDock/src/rDock_2013.1_src/data/scripts/dock_solv.prm

>  <Rbt.Receptor>
prm/pocket_docking_7.prm

>  <SCORE>
-18.3374

>  <SCORE.INTER>
-18.3374

>  <SCORE.INTER.CONST>
1

>  <SCORE.INTER.POLAR>
0

>  <SCORE.INTER.ROT>
0

>  <SCORE.INTER.SOLV>
3.66621

>  <SCORE.INTER.VDW>
-17.047

>  <SCORE.INTER.norm>
-1.83374

>  <SCORE.INTRA>
0

>  <SCORE.INTRA.DIHEDRAL>
0

>  <SCORE.INTRA.DIHEDRAL.0>
0

>  <SCORE.INTRA.POLAR>
0

>  <SCORE.INTRA.POLAR.0>
0

>  <SCORE.INTRA.REPUL>
0

>  <SCORE.INTRA.REPUL.0>
0

>  <SCORE.INTRA.SOLV>
0

>  <SCORE.INTRA.SOLV.lig_0>
-4.28148

>  <SCORE.INTRA.VDW>
0

>  <SCORE.INTRA.VDW.0>
0

>  <SCORE.INTRA.norm>
0

>  <SCORE.RESTR>
0

>  <SCORE.RESTR.CAVITY>
0

>  <SCORE.RESTR.norm>
0

>  <SCORE.SYSTEM>
0

>  <SCORE.SYSTEM.CONST>
0

>  <SCORE.SYSTEM.DIHEDRAL>
0

>  <SCORE.SYSTEM.SOLV>
0

>  <SCORE.SYSTEM.norm>
0

>  <SCORE.heavy>
10

>  <SCORE.norm>
-1.83374

>  <RMSD>
2.485

$$$$
ligand
 OpenBabel11021811423D
libRbt.so/2013.1/901 2013/11/27
 10 11  0  0  0  0  0  0  0  0999 V2000
   11.8069   11.0625    8.7434 N   0  0  0  0  0  0  0  0  0  0  0  0
   11.9147    9.8666    8.0623 C   0  0  0  0  0  0  0  0  0  0  0  0
   11.7164    9.7800    6.7412 N   0  0  0  0  0  0  0  0  0  0  0  0
   11.4021   10.9744    6.1649 C   0  0  0  0  0  0  0  0  0  0  0  0
   11.2769   12.2060    6.7896 C   0  0  0  0  0  0  0  0  0  0  0  0
   11.4884   12.3056    8.1917 C   0  0  0  0  0  0  0  0  0  0  0  0
   11.4311   13.2827    8.9383 O   0  0  0  0  0  0  0  0  0  0  0  0
   10.9481   13.1430    5.8397 N   0  0  0  0  0  0  0  0  0  0  0  0
   10.8772   12.4842    4.6593 C   0  0  0  0  0  0  0  0  0  0  0  0
   11.1502   11.1464    4.8252 N   0  0  0  0  0  0  0  0  0  0  0  0
  1  2  1  0  0  0  0
  1  6  1  0  0  0  0
  2  3  2  0  0  0  0
  3  4  1  0  0  0  0
  4  5  2  0  0  0  0
  4 10  1  0  0  0  0
  5  6  1  0  0  0  0
  5  8  1  0  0  0  0
  6  7  2  0  0  0  0
  8  9  1  0  0  0  0
  9 10  2  0  0  0  0
M  END
>  <CHROM.1>
11.40236964,11.65451284,6.93560695,-0.80020635,1.32927997,-2.29770879

>  <Name>
ligand

>  <RI>
0

>  <Rbt.Current_Directory>
/home/itssahil/PROJECTS/Mol_Feturizer/New_Systems/rnas/2EEU

>  <Rbt.Executable>
rbdock ($Id: //depot/dev/client3/rdock/2013.1/src/exe/rbdock.cxx#4 $)

>  <Rbt.Library>
libRbt.so (2013.1, Build901 2013/11/27)

>  <Rbt.Parameter_File>
/export/apps/rDock/src/rDock_2013.1_src/data/scripts/dock_solv.prm

>  <Rbt.Receptor>
prm/blind_docking_100.prm

>  <SCORE>
-18.3341

>  <SCORE.INTER>
-18.3341

>  <SCORE.INTER.CONST>
1

>  <SCORE.INTER.POLAR>
0

>  <SCORE.INTER.ROT>
0

>  <SCORE.INTER.SOLV>
3.63971

>  <SCORE.INTER.VDW>
-17.036

>  <SCORE.INTER.norm>
-1.83341

>  <SCORE.INTRA>
0

>  <SCORE.INTRA.DIHEDRAL>
0

>  <SCORE.INTRA.DIHEDRAL.0>
0

>  <SCORE.INTRA.POLAR>
0

>  <SCORE.INTRA.POLAR.0>
0

>  <SCORE.INTRA.REPUL>
0

>  <SCORE.INTRA.REPUL.0>
0

>  <SCORE.INTRA.SOLV>
0

>  <SCORE.INTRA.SOLV.lig_0>
-4.28148

>  <SCORE.INTRA.VDW>
0

>  <SCORE.INTRA.VDW.0>
0

>  <SCORE.INTRA.norm>
0

>  <SCORE.RESTR>
0

>  <SCORE.RESTR.CAVITY>
0

>  <SCORE.RESTR.norm>
0

>  <SCORE.SYSTEM>
0

>  <SCORE.SYSTEM.CONST>
0

>  <SCORE.SYSTEM.DIHEDRAL>
0

>  <SCORE.SYSTEM.SOLV>
0

>  <SCORE.SYSTEM.norm>
0

>  <SCORE.heavy>
10

>  <SCORE.norm>
-1.83341

>  <RMSD>
2.486

$$$$
ligand
 OpenBabel11021811423D
libRbt.so/2013.1/901 2013/11/27
 10 11  0  0  0  0  0  0  0  0999 V2000
   11.7065   11.0112    8.8078 N   0  0  0  0  0  0  0  0  0  0  0  0
   11.9057    9.8369    8.1101 C   0  0  0  0  0  0  0  0  0  0  0  0
   11.7772    9.7697    6.7792 N   0  0  0  0  0  0  0  0  0  0  0  0
   11.4341   10.9600    6.2111 C   0  0  0  0  0  0  0  0  0  0  0  0
   11.2186   12.1704    6.8524 C   0  0  0  0  0  0  0  0  0  0  0  0
   11.3556   12.2494    8.2650 C   0  0  0  0  0  0  0  0  0  0  0  0
   11.2142   13.2063    9.0265 O   0  0  0  0  0  0  0  0  0  0  0  0
   10.8920   13.1112    5.9055 N   0  0  0  0  0  0  0  0  0  0  0  0
   10.9115   12.4755    4.7105 C   0  0  0  0  0  0  0  0  0  0  0  0
   11.2405   11.1489    4.8640 N   0  0  0  0  0  0  0  0  0  0  0  0
  1  2  1  0  0  0  0
  1  6  1  0  0  0  0
  2  3  2  0  0  0  0
  3  4  1  0  0  0  0
  4  5  2  0  0  0  0
  4 10  1  0  0  0  0
  5  6  1  0  0  0  0
  5  8  1  0  0  0  0
  6  7  2  0  0  0  0
  8  9  1  0  0  0  0
  9 10  2  0  0  0  0
M  END
>  <CHROM.1>
11.36334986,11.62247934,6.99382172,-1.07833518,1.31639905,-2.00741718

>  <Name>
ligand

>  <RI>
0

>  <Rbt.Current_Directory>
/home/itssahil/PROJECTS/Mol_Feturizer/New_Systems/rnas/2EEU

>  <Rbt.Executable>
rbdock ($Id: //depot/dev/client3/rdock/2013.1/src/exe/rbdock.cxx#4 $)

>  <Rbt.Library>
libRbt.so (2013.1, Build901 2013/11/27)

>  <Rbt.Parameter_File>
/export/apps/rDock/src/rDock_2013.1_src/data/scripts/dock_solv.prm

>  <Rbt.Receptor>
prm/pocket_docking_3.prm

>  <SCORE>
-18.3987

>  <SCORE.INTER>
-18.3987

>  <SCORE.INTER.CONST>
1

>  <SCORE.INTER.POLAR>
0

>  <SCORE.INTER.ROT>
0

>  <SCORE.INTER.SOLV>
3.66659

>  <SCORE.INTER.VDW>
-17.088

>  <SCORE.INTER.norm>
-1.83987

>  <SCORE.INTRA>
0

>  <SCORE.INTRA.DIHEDRAL>
0

>  <SCORE.INTRA.DIHEDRAL.0>
0

>  <SCORE.INTRA.POLAR>
0

>  <SCORE.INTRA.POLAR.0>
0

>  <SCORE.INTRA.REPUL>
0

>  <SCORE.INTRA.REPUL.0>
0

>  <SCORE.INTRA.SOLV>
0

>  <SCORE.INTRA.SOLV.lig_0>
-4.28148

>  <SCORE.INTRA.VDW>
0

>  <SCORE.INTRA.VDW.0>
0

>  <SCORE.INTRA.norm>
0

>  <SCORE.RESTR>
0

>  <SCORE.RESTR.CAVITY>
0

>  <SCORE.RESTR.norm>
0

>  <SCORE.SYSTEM>
0

>  <SCORE.SYSTEM.CONST>
0

>  <SCORE.SYSTEM.DIHEDRAL>
0

>  <SCORE.SYSTEM.SOLV>
0

>  <SCORE.SYSTEM.norm>
0

>  <SCORE.heavy>
10

>  <SCORE.norm>
-1.83987

>  <RMSD>
2.486

$$$$
ligand
 OpenBabel11021811423D
libRbt.so/2013.1/901 2013/11/27
 10 11  0  0  0  0  0  0  0  0999 V2000
   11.7913   11.0427    8.7637 N   0  0  0  0  0  0  0  0  0  0  0  0
   11.9252    9.8503    8.0811 C   0  0  0  0  0  0  0  0  0  0  0  0
   11.7452    9.7644    6.7573 N   0  0  0  0  0  0  0  0  0  0  0  0
   11.4211   10.9557    6.1800 C   0  0  0  0  0  0  0  0  0  0  0  0
   11.2700   12.1837    6.8062 C   0  0  0  0  0  0  0  0  0  0  0  0
   11.4619   12.2825    8.2112 C   0  0  0  0  0  0  0  0  0  0  0  0
   11.3809   13.2567    8.9594 O   0  0  0  0  0  0  0  0  0  0  0  0
   10.9400   13.1184    5.8545 N   0  0  0  0  0  0  0  0  0  0  0  0
   10.8938   12.4618    4.6716 C   0  0  0  0  0  0  0  0  0  0  0  0
   11.1840   11.1277    4.8377 N   0  0  0  0  0  0  0  0  0  0  0  0
  1  2  1  0  0  0  0
  1  6  1  0  0  0  0
  2  3  2  0  0  0  0
  3  4  1  0  0  0  0
  4  5  2  0  0  0  0
  4 10  1  0  0  0  0
  5  6  1  0  0  0  0
  5  8  1  0  0  0  0
  6  7  2  0  0  0  0
  8  9  1  0  0  0  0
  9 10  2  0  0  0  0
M  END
>  <CHROM.1>
11.40156267,11.63366312,6.95239846,-0.87980176,1.32627416,-2.21781994

>  <Name>
ligand

>  <RI>
0

>  <Rbt.Current_Directory>
/home/itssahil/PROJECTS/Mol_Feturizer/New_Systems/rnas/2EEU

>  <Rbt.Executable>
rbdock ($Id: //depot/dev/client3/rdock/2013.1/src/exe/rbdock.cxx#4 $)

>  <Rbt.Library>
libRbt.so (2013.1, Build901 2013/11/27)

>  <Rbt.Parameter_File>
/export/apps/rDock/src/rDock_2013.1_src/data/scripts/dock_solv.prm

>  <Rbt.Receptor>
prm/pocket_docking_3.prm

>  <SCORE>
-18.329

>  <SCORE.INTER>
-18.329

>  <SCORE.INTER.CONST>
1

>  <SCORE.INTER.POLAR>
0

>  <SCORE.INTER.ROT>
0

>  <SCORE.INTER.SOLV>
3.62399

>  <SCORE.INTER.VDW>
-17.0273

>  <SCORE.INTER.norm>
-1.8329

>  <SCORE.INTRA>
0

>  <SCORE.INTRA.DIHEDRAL>
0

>  <SCORE.INTRA.DIHEDRAL.0>
0

>  <SCORE.INTRA.POLAR>
0

>  <SCORE.INTRA.POLAR.0>
0

>  <SCORE.INTRA.REPUL>
0

>  <SCORE.INTRA.REPUL.0>
0

>  <SCORE.INTRA.SOLV>
0

>  <SCORE.INTRA.SOLV.lig_0>
-4.28148

>  <SCORE.INTRA.VDW>
0

>  <SCORE.INTRA.VDW.0>
0

>  <SCORE.INTRA.norm>
0

>  <SCORE.RESTR>
0

>  <SCORE.RESTR.CAVITY>
0

>  <SCORE.RESTR.norm>
0

>  <SCORE.SYSTEM>
0

>  <SCORE.SYSTEM.CONST>
0

>  <SCORE.SYSTEM.DIHEDRAL>
0

>  <SCORE.SYSTEM.SOLV>
0

>  <SCORE.SYSTEM.norm>
0

>  <SCORE.heavy>
10

>  <SCORE.norm>
-1.8329

>  <RMSD>
2.486

$$$$
ligand
 OpenBabel11021811423D
libRbt.so/2013.1/901 2013/11/27
 10 11  0  0  0  0  0  0  0  0999 V2000
   11.7042   10.9862    8.8058 N   0  0  0  0  0  0  0  0  0  0  0  0
   11.8941    9.8138    8.1021 C   0  0  0  0  0  0  0  0  0  0  0  0
   11.7597    9.7531    6.7716 N   0  0  0  0  0  0  0  0  0  0  0  0
   11.4208   10.9478    6.2100 C   0  0  0  0  0  0  0  0  0  0  0  0
   11.2146   12.1565    6.8575 C   0  0  0  0  0  0  0  0  0  0  0  0
   11.3579   12.2286    8.2699 C   0  0  0  0  0  0  0  0  0  0  0  0
   11.2249   13.1830    9.0361 O   0  0  0  0  0  0  0  0  0  0  0  0
   10.8892   13.1032    5.9161 N   0  0  0  0  0  0  0  0  0  0  0  0
   10.9001   12.4727    4.7182 C   0  0  0  0  0  0  0  0  0  0  0  0
   11.2226   11.1436    4.8646 N   0  0  0  0  0  0  0  0  0  0  0  0
  1  2  1  0  0  0  0
  1  6  1  0  0  0  0
  2  3  2  0  0  0  0
  3  4  1  0  0  0  0
  4  5  2  0  0  0  0
  4 10  1  0  0  0  0
  5  6  1  0  0  0  0
  5  8  1  0  0  0  0
  6  7  2  0  0  0  0
  8  9  1  0  0  0  0
  9 10  2  0  0  0  0
M  END
>  <CHROM.1>
11.35687956,11.60720921,6.99593095,-1.05379735,1.31953106,-2.02682348

>  <Name>
ligand

>  <RI>
0

>  <Rbt.Current_Directory>
/home/itssahil/PROJECTS/Mol_Feturizer/New_Systems/rnas/2EEU

>  <Rbt.Executable>
rbdock ($Id: //depot/dev/client3/rdock/2013.1/src/exe/rbdock.cxx#4 $)

>  <Rbt.Library>
libRbt.so (2013.1, Build901 2013/11/27)

>  <Rbt.Parameter_File>
/export/apps/rDock/src/rDock_2013.1_src/data/scripts/dock_solv.prm

>  <Rbt.Receptor>
prm/pocket_docking_4.prm

>  <SCORE>
-18.3834

>  <SCORE.INTER>
-18.3834

>  <SCORE.INTER.CONST>
1

>  <SCORE.INTER.POLAR>
0

>  <SCORE.INTER.ROT>
0

>  <SCORE.INTER.SOLV>
3.65946

>  <SCORE.INTER.VDW>
-17.0754

>  <SCORE.INTER.norm>
-1.83834

>  <SCORE.INTRA>
0

>  <SCORE.INTRA.DIHEDRAL>
0

>  <SCORE.INTRA.DIHEDRAL.0>
0

>  <SCORE.INTRA.POLAR>
0

>  <SCORE.INTRA.POLAR.0>
0

>  <SCORE.INTRA.REPUL>
0

>  <SCORE.INTRA.REPUL.0>
0

>  <SCORE.INTRA.SOLV>
0

>  <SCORE.INTRA.SOLV.lig_0>
-4.28148

>  <SCORE.INTRA.VDW>
0

>  <SCORE.INTRA.VDW.0>
0

>  <SCORE.INTRA.norm>
0

>  <SCORE.RESTR>
0

>  <SCORE.RESTR.CAVITY>
0

>  <SCORE.RESTR.norm>
0

>  <SCORE.SYSTEM>
0

>  <SCORE.SYSTEM.CONST>
0

>  <SCORE.SYSTEM.DIHEDRAL>
0

>  <SCORE.SYSTEM.SOLV>
0

>  <SCORE.SYSTEM.norm>
0

>  <SCORE.heavy>
10

>  <SCORE.norm>
-1.83834

>  <RMSD>
2.486

$$$$
ligand
 OpenBabel11021811423D
libRbt.so/2013.1/901 2013/11/27
 10 11  0  0  0  0  0  0  0  0999 V2000
   11.7021   11.0095    8.8146 N   0  0  0  0  0  0  0  0  0  0  0  0
   11.8975    9.8321    8.1210 C   0  0  0  0  0  0  0  0  0  0  0  0
   11.7689    9.7606    6.7904 N   0  0  0  0  0  0  0  0  0  0  0  0
   11.4296   10.9500    6.2181 C   0  0  0  0  0  0  0  0  0  0  0  0
   11.2180   12.1634    6.8552 C   0  0  0  0  0  0  0  0  0  0  0  0
   11.3552   12.2469    8.2675 C   0  0  0  0  0  0  0  0  0  0  0  0
   11.2168   13.2069    9.0256 O   0  0  0  0  0  0  0  0  0  0  0  0
   10.8944   13.1018    5.9049 N   0  0  0  0  0  0  0  0  0  0  0  0
   10.9118   12.4619    4.7121 C   0  0  0  0  0  0  0  0  0  0  0  0
   11.2366   11.1348    4.8703 N   0  0  0  0  0  0  0  0  0  0  0  0
  1  2  1  0  0  0  0
  1  6  1  0  0  0  0
  2  3  2  0  0  0  0
  3  4  1  0  0  0  0
  4  5  2  0  0  0  0
  4 10  1  0  0  0  0
  5  6  1  0  0  0  0
  5  8  1  0  0  0  0
  6  7  2  0  0  0  0
  8  9  1  0  0  0  0
  9 10  2  0  0  0  0
M  END
>  <CHROM.1>
11.36092873,11.61547392,6.99847807,-1.07295436,1.31929965,-2.01613031

>  <Name>
ligand

>  <RI>
0

>  <Rbt.Current_Directory>
/home/itssahil/PROJECTS/Mol_Feturizer/New_Systems/rnas/2EEU

>  <Rbt.Executable>
rbdock ($Id: //depot/dev/client3/rdock/2013.1/src/exe/rbdock.cxx#4 $)

>  <Rbt.Library>
libRbt.so (2013.1, Build901 2013/11/27)

>  <Rbt.Parameter_File>
/export/apps/rDock/src/rDock_2013.1_src/data/scripts/dock_solv.prm

>  <Rbt.Receptor>
prm/pocket_docking_4.prm

>  <SCORE>
-18.4327

>  <SCORE.INTER>
-18.4327

>  <SCORE.INTER.CONST>
1

>  <SCORE.INTER.POLAR>
0

>  <SCORE.INTER.ROT>
0

>  <SCORE.INTER.SOLV>
3.67479

>  <SCORE.INTER.VDW>
-17.1134

>  <SCORE.INTER.norm>
-1.84327

>  <SCORE.INTRA>
0

>  <SCORE.INTRA.DIHEDRAL>
0

>  <SCORE.INTRA.DIHEDRAL.0>
0

>  <SCORE.INTRA.POLAR>
0

>  <SCORE.INTRA.POLAR.0>
0

>  <SCORE.INTRA.REPUL>
0

>  <SCORE.INTRA.REPUL.0>
0

>  <SCORE.INTRA.SOLV>
0

>  <SCORE.INTRA.SOLV.lig_0>
-4.28148

>  <SCORE.INTRA.VDW>
0

>  <SCORE.INTRA.VDW.0>
0

>  <SCORE.INTRA.norm>
0

>  <SCORE.RESTR>
0

>  <SCORE.RESTR.CAVITY>
0

>  <SCORE.RESTR.norm>
0

>  <SCORE.SYSTEM>
0

>  <SCORE.SYSTEM.CONST>
0

>  <SCORE.SYSTEM.DIHEDRAL>
0

>  <SCORE.SYSTEM.SOLV>
0

>  <SCORE.SYSTEM.norm>
0

>  <SCORE.heavy>
10

>  <SCORE.norm>
-1.84327

>  <RMSD>
2.486

$$$$
ligand
 OpenBabel11021811423D
libRbt.so/2013.1/901 2013/11/27
 10 11  0  0  0  0  0  0  0  0999 V2000
   11.7024   11.0062    8.8141 N   0  0  0  0  0  0  0  0  0  0  0  0
   11.8987    9.8304    8.1180 C   0  0  0  0  0  0  0  0  0  0  0  0
   11.7706    9.7617    6.7872 N   0  0  0  0  0  0  0  0  0  0  0  0
   11.4309   10.9522    6.2173 C   0  0  0  0  0  0  0  0  0  0  0  0
   11.2184   12.1640    6.8569 C   0  0  0  0  0  0  0  0  0  0  0  0
   11.3551   12.2446    8.2695 C   0  0  0  0  0  0  0  0  0  0  0  0
   11.2160   13.2029    9.0296 O   0  0  0  0  0  0  0  0  0  0  0  0
   10.8947   13.1043    5.9086 N   0  0  0  0  0  0  0  0  0  0  0  0
   10.9129   12.4670    4.7145 C   0  0  0  0  0  0  0  0  0  0  0  0
   11.2384   11.1398    4.8699 N   0  0  0  0  0  0  0  0  0  0  0  0
  1  2  1  0  0  0  0
  1  6  1  0  0  0  0
  2  3  2  0  0  0  0
  3  4  1  0  0  0  0
  4  5  2  0  0  0  0
  4 10  1  0  0  0  0
  5  6  1  0  0  0  0
  5  8  1  0  0  0  0
  6  7  2  0  0  0  0
  8  9  1  0  0  0  0
  9 10  2  0  0  0  0
M  END
>  <CHROM.1>
11.36163161,11.61590533,6.99912664,-1.07514629,1.31899087,-2.01186961

>  <Name>
ligand

>  <RI>
0

>  <Rbt.Current_Directory>
/home/itssahil/PROJECTS/Mol_Feturizer/New_Systems/rnas/2EEU

>  <Rbt.Executable>
rbdock ($Id: //depot/dev/client3/rdock/2013.1/src/exe/rbdock.cxx#4 $)

>  <Rbt.Library>
libRbt.so (2013.1, Build901 2013/11/27)

>  <Rbt.Parameter_File>
/export/apps/rDock/src/rDock_2013.1_src/data/scripts/dock_solv.prm

>  <Rbt.Receptor>
prm/pocket_docking_5.prm

>  <SCORE>
-18.4316

>  <SCORE.INTER>
-18.4316

>  <SCORE.INTER.CONST>
1

>  <SCORE.INTER.POLAR>
0

>  <SCORE.INTER.ROT>
0

>  <SCORE.INTER.SOLV>
3.67246

>  <SCORE.INTER.VDW>
-17.1119

>  <SCORE.INTER.norm>
-1.84316

>  <SCORE.INTRA>
0

>  <SCORE.INTRA.DIHEDRAL>
0

>  <SCORE.INTRA.DIHEDRAL.0>
0

>  <SCORE.INTRA.POLAR>
0

>  <SCORE.INTRA.POLAR.0>
0

>  <SCORE.INTRA.REPUL>
0

>  <SCORE.INTRA.REPUL.0>
0

>  <SCORE.INTRA.SOLV>
0

>  <SCORE.INTRA.SOLV.lig_0>
-4.28148

>  <SCORE.INTRA.VDW>
0

>  <SCORE.INTRA.VDW.0>
0

>  <SCORE.INTRA.norm>
0

>  <SCORE.RESTR>
0

>  <SCORE.RESTR.CAVITY>
0

>  <SCORE.RESTR.norm>
0

>  <SCORE.SYSTEM>
0

>  <SCORE.SYSTEM.CONST>
0

>  <SCORE.SYSTEM.DIHEDRAL>
0

>  <SCORE.SYSTEM.SOLV>
0

>  <SCORE.SYSTEM.norm>
0

>  <SCORE.heavy>
10

>  <SCORE.norm>
-1.84316

>  <RMSD>
2.486

$$$$
ligand
 OpenBabel11021811423D
libRbt.so/2013.1/901 2013/11/27
 10 11  0  0  0  0  0  0  0  0999 V2000
   11.8319   11.1310    8.7423 N   0  0  0  0  0  0  0  0  0  0  0  0
   11.9531    9.9270    8.0780 C   0  0  0  0  0  0  0  0  0  0  0  0
   11.7527    9.8191    6.7587 N   0  0  0  0  0  0  0  0  0  0  0  0
   11.4220   11.0011    6.1664 C   0  0  0  0  0  0  0  0  0  0  0  0
   11.2829   12.2398    6.7739 C   0  0  0  0  0  0  0  0  0  0  0  0
   11.4965   12.3619    8.1739 C   0  0  0  0  0  0  0  0  0  0  0  0
   11.4287   13.3488    8.9066 O   0  0  0  0  0  0  0  0  0  0  0  0
   10.9400   13.1590    5.8117 N   0  0  0  0  0  0  0  0  0  0  0  0
   10.8745   12.4826    4.6409 C   0  0  0  0  0  0  0  0  0  0  0  0
   11.1647   11.1508    4.8251 N   0  0  0  0  0  0  0  0  0  0  0  0
  1  2  1  0  0  0  0
  1  6  1  0  0  0  0
  2  3  2  0  0  0  0
  3  4  1  0  0  0  0
  4  5  2  0  0  0  0
  4 10  1  0  0  0  0
  5  6  1  0  0  0  0
  5  8  1  0  0  0  0
  6  7  2  0  0  0  0
  8  9  1  0  0  0  0
  9 10  2  0  0  0  0
M  END
>  <CHROM.1>
11.41559224,11.69206180,6.92735313,-0.82635079,1.31819242,-2.28656708

>  <Name>
ligand

>  <RI>
0

>  <Rbt.Current_Directory>
/home/itssahil/PROJECTS/Mol_Feturizer/New_Systems/rnas/2EEU

>  <Rbt.Executable>
rbdock ($Id: //depot/dev/client3/rdock/2013.1/src/exe/rbdock.cxx#4 $)

>  <Rbt.Library>
libRbt.so (2013.1, Build901 2013/11/27)

>  <Rbt.Parameter_File>
/export/apps/rDock/src/rDock_2013.1_src/data/scripts/dock_solv.prm

>  <Rbt.Receptor>
prm/pocket_docking_6.prm

>  <SCORE>
-18.347

>  <SCORE.INTER>
-18.347

>  <SCORE.INTER.CONST>
1

>  <SCORE.INTER.POLAR>
0

>  <SCORE.INTER.ROT>
0

>  <SCORE.INTER.SOLV>
3.67087

>  <SCORE.INTER.VDW>
-17.055

>  <SCORE.INTER.norm>
-1.8347

>  <SCORE.INTRA>
0

>  <SCORE.INTRA.DIHEDRAL>
0

>  <SCORE.INTRA.DIHEDRAL.0>
0

>  <SCORE.INTRA.POLAR>
0

>  <SCORE.INTRA.POLAR.0>
0

>  <SCORE.INTRA.REPUL>
0

>  <SCORE.INTRA.REPUL.0>
0

>  <SCORE.INTRA.SOLV>
0

>  <SCORE.INTRA.SOLV.lig_0>
-4.28148

>  <SCORE.INTRA.VDW>
0

>  <SCORE.INTRA.VDW.0>
0

>  <SCORE.INTRA.norm>
0

>  <SCORE.RESTR>
0

>  <SCORE.RESTR.CAVITY>
0

>  <SCORE.RESTR.norm>
0

>  <SCORE.SYSTEM>
0

>  <SCORE.SYSTEM.CONST>
0

>  <SCORE.SYSTEM.DIHEDRAL>
0

>  <SCORE.SYSTEM.SOLV>
0

>  <SCORE.SYSTEM.norm>
0

>  <SCORE.heavy>
10

>  <SCORE.norm>
-1.8347

>  <RMSD>
2.486

$$$$
ligand
 OpenBabel11021811423D
libRbt.so/2013.1/901 2013/11/27
 10 11  0  0  0  0  0  0  0  0999 V2000
   11.6996   11.0066    8.8116 N   0  0  0  0  0  0  0  0  0  0  0  0
   11.8885    9.8296    8.1156 C   0  0  0  0  0  0  0  0  0  0  0  0
   11.7590    9.7615    6.7848 N   0  0  0  0  0  0  0  0  0  0  0  0
   11.4259   10.9539    6.2151 C   0  0  0  0  0  0  0  0  0  0  0  0
   11.2210   12.1670    6.8547 C   0  0  0  0  0  0  0  0  0  0  0  0
   11.3592   12.2469    8.2671 C   0  0  0  0  0  0  0  0  0  0  0  0
   11.2262   13.2061    9.0273 O   0  0  0  0  0  0  0  0  0  0  0  0
   10.9020   13.1091    5.9065 N   0  0  0  0  0  0  0  0  0  0  0  0
   10.9156   12.4716    4.7124 C   0  0  0  0  0  0  0  0  0  0  0  0
   11.2334   11.1424    4.8678 N   0  0  0  0  0  0  0  0  0  0  0  0
  1  2  1  0  0  0  0
  1  6  1  0  0  0  0
  2  3  2  0  0  0  0
  3  4  1  0  0  0  0
  4  5  2  0  0  0  0
  4 10  1  0  0  0  0
  5  6  1  0  0  0  0
  5  8  1  0  0  0  0
  6  7  2  0  0  0  0
  8  9  1  0  0  0  0
  9 10  2  0  0  0  0
M  END
>  <CHROM.1>
11.36104891,11.61806789,6.99685316,-1.06212575,1.32395501,-2.02460065

>  <Name>
ligand

>  <RI>
0

>  <Rbt.Current_Directory>
/home/itssahil/PROJECTS/Mol_Feturizer/New_Systems/rnas/2EEU

>  <Rbt.Executable>
rbdock ($Id: //depot/dev/client3/rdock/2013.1/src/exe/rbdock.cxx#4 $)

>  <Rbt.Library>
libRbt.so (2013.1, Build901 2013/11/27)

>  <Rbt.Parameter_File>
/export/apps/rDock/src/rDock_2013.1_src/data/scripts/dock_solv.prm

>  <Rbt.Receptor>
prm/pocket_docking_6.prm

>  <SCORE>
-18.4287

>  <SCORE.INTER>
-18.4287

>  <SCORE.INTER.CONST>
1

>  <SCORE.INTER.POLAR>
0

>  <SCORE.INTER.ROT>
0

>  <SCORE.INTER.SOLV>
3.67583

>  <SCORE.INTER.VDW>
-17.1111

>  <SCORE.INTER.norm>
-1.84287

>  <SCORE.INTRA>
0

>  <SCORE.INTRA.DIHEDRAL>
0

>  <SCORE.INTRA.DIHEDRAL.0>
0

>  <SCORE.INTRA.POLAR>
0

>  <SCORE.INTRA.POLAR.0>
0

>  <SCORE.INTRA.REPUL>
0

>  <SCORE.INTRA.REPUL.0>
0

>  <SCORE.INTRA.SOLV>
0

>  <SCORE.INTRA.SOLV.lig_0>
-4.28148

>  <SCORE.INTRA.VDW>
0

>  <SCORE.INTRA.VDW.0>
0

>  <SCORE.INTRA.norm>
0

>  <SCORE.RESTR>
0

>  <SCORE.RESTR.CAVITY>
0

>  <SCORE.RESTR.norm>
0

>  <SCORE.SYSTEM>
0

>  <SCORE.SYSTEM.CONST>
0

>  <SCORE.SYSTEM.DIHEDRAL>
0

>  <SCORE.SYSTEM.SOLV>
0

>  <SCORE.SYSTEM.norm>
0

>  <SCORE.heavy>
10

>  <SCORE.norm>
-1.84287

>  <RMSD>
2.486

$$$$
ligand
 OpenBabel11021811423D
libRbt.so/2013.1/901 2013/11/27
 10 11  0  0  0  0  0  0  0  0999 V2000
   11.7162   10.9983    8.8032 N   0  0  0  0  0  0  0  0  0  0  0  0
   11.9043    9.8236    8.1030 C   0  0  0  0  0  0  0  0  0  0  0  0
   11.7678    9.7587    6.7728 N   0  0  0  0  0  0  0  0  0  0  0  0
   11.4285   10.9517    6.2080 C   0  0  0  0  0  0  0  0  0  0  0  0
   11.2240   12.1626    6.8519 C   0  0  0  0  0  0  0  0  0  0  0  0
   11.3696   12.2392    8.2638 C   0  0  0  0  0  0  0  0  0  0  0  0
   11.2384   13.1960    9.0272 O   0  0  0  0  0  0  0  0  0  0  0  0
   10.8975   13.1064    5.9080 N   0  0  0  0  0  0  0  0  0  0  0  0
   10.9062   12.4720    4.7122 C   0  0  0  0  0  0  0  0  0  0  0  0
   11.2283   11.1433    4.8623 N   0  0  0  0  0  0  0  0  0  0  0  0
  1  2  1  0  0  0  0
  1  6  1  0  0  0  0
  2  3  2  0  0  0  0
  3  4  1  0  0  0  0
  4  5  2  0  0  0  0
  4 10  1  0  0  0  0
  5  6  1  0  0  0  0
  5  8  1  0  0  0  0
  6  7  2  0  0  0  0
  8  9  1  0  0  0  0
  9 10  2  0  0  0  0
M  END
>  <CHROM.1>
11.36624916,11.61366529,6.99189710,-1.04704313,1.31925049,-2.03657748

>  <Name>
ligand

>  <RI>
0

>  <Rbt.Current_Directory>
/home/itssahil/PROJECTS/Mol_Feturizer/New_Systems/rnas/2EEU

>  <Rbt.Executable>
rbdock ($Id: //depot/dev/client3/rdock/2013.1/src/exe/rbdock.cxx#4 $)

>  <Rbt.Library>
libRbt.so (2013.1, Build901 2013/11/27)

>  <Rbt.Parameter_File>
/export/apps/rDock/src/rDock_2013.1_src/data/scripts/dock_solv.prm

>  <Rbt.Receptor>
prm/pocket_docking_8.prm

>  <SCORE>
-18.3996

>  <SCORE.INTER>
-18.3996

>  <SCORE.INTER.CONST>
1

>  <SCORE.INTER.POLAR>
0

>  <SCORE.INTER.ROT>
0

>  <SCORE.INTER.SOLV>
3.6525

>  <SCORE.INTER.VDW>
-17.0839

>  <SCORE.INTER.norm>
-1.83996

>  <SCORE.INTRA>
0

>  <SCORE.INTRA.DIHEDRAL>
0

>  <SCORE.INTRA.DIHEDRAL.0>
0

>  <SCORE.INTRA.POLAR>
0

>  <SCORE.INTRA.POLAR.0>
0

>  <SCORE.INTRA.REPUL>
0

>  <SCORE.INTRA.REPUL.0>
0

>  <SCORE.INTRA.SOLV>
0

>  <SCORE.INTRA.SOLV.lig_0>
-4.28148

>  <SCORE.INTRA.VDW>
0

>  <SCORE.INTRA.VDW.0>
0

>  <SCORE.INTRA.norm>
0

>  <SCORE.RESTR>
0

>  <SCORE.RESTR.CAVITY>
0

>  <SCORE.RESTR.norm>
0

>  <SCORE.SYSTEM>
0

>  <SCORE.SYSTEM.CONST>
0

>  <SCORE.SYSTEM.DIHEDRAL>
0

>  <SCORE.SYSTEM.SOLV>
0

>  <SCORE.SYSTEM.norm>
0

>  <SCORE.heavy>
10

>  <SCORE.norm>
-1.83996

>  <RMSD>
2.486

$$$$
ligand
 OpenBabel11021811423D
libRbt.so/2013.1/901 2013/11/27
 10 11  0  0  0  0  0  0  0  0999 V2000
   11.6886   11.0147    8.8115 N   0  0  0  0  0  0  0  0  0  0  0  0
   11.8955    9.8412    8.1146 C   0  0  0  0  0  0  0  0  0  0  0  0
   11.7732    9.7736    6.7831 N   0  0  0  0  0  0  0  0  0  0  0  0
   11.4282   10.9627    6.2136 C   0  0  0  0  0  0  0  0  0  0  0  0
   11.2052   12.1722    6.8540 C   0  0  0  0  0  0  0  0  0  0  0  0
   11.3355   12.2516    8.2673 C   0  0  0  0  0  0  0  0  0  0  0  0
   11.1871   13.2078    9.0282 O   0  0  0  0  0  0  0  0  0  0  0  0
   10.8792   13.1118    5.9057 N   0  0  0  0  0  0  0  0  0  0  0  0
   10.9065   12.4763    4.7108 C   0  0  0  0  0  0  0  0  0  0  0  0
   11.2399   11.1510    4.8657 N   0  0  0  0  0  0  0  0  0  0  0  0
  1  2  1  0  0  0  0
  1  6  1  0  0  0  0
  2  3  2  0  0  0  0
  3  4  1  0  0  0  0
  4  5  2  0  0  0  0
  4 10  1  0  0  0  0
  5  6  1  0  0  0  0
  5  8  1  0  0  0  0
  6  7  2  0  0  0  0
  8  9  1  0  0  0  0
  9 10  2  0  0  0  0
M  END
>  <CHROM.1>
11.35135040,11.62477705,6.99604837,-1.10076569,1.31478212,-1.98561790

>  <Name>
ligand

>  <RI>
0

>  <Rbt.Current_Directory>
/home/itssahil/PROJECTS/Mol_Feturizer/New_Systems/rnas/2EEU

>  <Rbt.Executable>
rbdock ($Id: //depot/dev/client3/rdock/2013.1/src/exe/rbdock.cxx#4 $)

>  <Rbt.Library>
libRbt.so (2013.1, Build901 2013/11/27)

>  <Rbt.Parameter_File>
/export/apps/rDock/src/rDock_2013.1_src/data/scripts/dock_solv.prm

>  <Rbt.Receptor>
prm/blind_docking_40.prm

>  <SCORE>
-18.4139

>  <SCORE.INTER>
-18.4139

>  <SCORE.INTER.CONST>
1

>  <SCORE.INTER.POLAR>
0

>  <SCORE.INTER.ROT>
0

>  <SCORE.INTER.SOLV>
3.68532

>  <SCORE.INTER.VDW>
-17.1044

>  <SCORE.INTER.norm>
-1.84139

>  <SCORE.INTRA>
0

>  <SCORE.INTRA.DIHEDRAL>
0

>  <SCORE.INTRA.DIHEDRAL.0>
0

>  <SCORE.INTRA.POLAR>
0

>  <SCORE.INTRA.POLAR.0>
0

>  <SCORE.INTRA.REPUL>
0

>  <SCORE.INTRA.REPUL.0>
0

>  <SCORE.INTRA.SOLV>
0

>  <SCORE.INTRA.SOLV.lig_0>
-4.28148

>  <SCORE.INTRA.VDW>
0

>  <SCORE.INTRA.VDW.0>
0

>  <SCORE.INTRA.norm>
0

>  <SCORE.RESTR>
0

>  <SCORE.RESTR.CAVITY>
0

>  <SCORE.RESTR.norm>
0

>  <SCORE.SYSTEM>
0

>  <SCORE.SYSTEM.CONST>
0

>  <SCORE.SYSTEM.DIHEDRAL>
0

>  <SCORE.SYSTEM.SOLV>
0

>  <SCORE.SYSTEM.norm>
0

>  <SCORE.heavy>
10

>  <SCORE.norm>
-1.84139

>  <RMSD>
2.487

$$$$
ligand
 OpenBabel11021811423D
libRbt.so/2013.1/901 2013/11/27
 10 11  0  0  0  0  0  0  0  0999 V2000
   11.6846   11.0213    8.8101 N   0  0  0  0  0  0  0  0  0  0  0  0
   11.8877    9.8462    8.1148 C   0  0  0  0  0  0  0  0  0  0  0  0
   11.7654    9.7771    6.7835 N   0  0  0  0  0  0  0  0  0  0  0  0
   11.4242   10.9665    6.2122 C   0  0  0  0  0  0  0  0  0  0  0  0
   11.2051   12.1776    6.8509 C   0  0  0  0  0  0  0  0  0  0  0  0
   11.3355   12.2586    8.2640 C   0  0  0  0  0  0  0  0  0  0  0  0
   11.1901   13.2164    9.0236 O   0  0  0  0  0  0  0  0  0  0  0  0
   10.8823   13.1169    5.9013 N   0  0  0  0  0  0  0  0  0  0  0  0
   10.9075   12.4797    4.7072 C   0  0  0  0  0  0  0  0  0  0  0  0
   11.2367   11.1535    4.8640 N   0  0  0  0  0  0  0  0  0  0  0  0
  1  2  1  0  0  0  0
  1  6  1  0  0  0  0
  2  3  2  0  0  0  0
  3  4  1  0  0  0  0
  4  5  2  0  0  0  0
  4 10  1  0  0  0  0
  5  6  1  0  0  0  0
  5  8  1  0  0  0  0
  6  7  2  0  0  0  0
  8  9  1  0  0  0  0
  9 10  2  0  0  0  0
M  END
>  <CHROM.1>
11.34947255,11.62996674,6.99372242,-1.09591196,1.31776870,-1.99173219

>  <Name>
ligand

>  <RI>
0

>  <Rbt.Current_Directory>
/home/itssahil/PROJECTS/Mol_Feturizer/New_Systems/rnas/2EEU

>  <Rbt.Executable>
rbdock ($Id: //depot/dev/client3/rdock/2013.1/src/exe/rbdock.cxx#4 $)

>  <Rbt.Library>
libRbt.so (2013.1, Build901 2013/11/27)

>  <Rbt.Parameter_File>
/export/apps/rDock/src/rDock_2013.1_src/data/scripts/dock_solv.prm

>  <Rbt.Receptor>
prm/blind_docking_80.prm

>  <SCORE>
-18.4145

>  <SCORE.INTER>
-18.4145

>  <SCORE.INTER.CONST>
1

>  <SCORE.INTER.POLAR>
0

>  <SCORE.INTER.ROT>
0

>  <SCORE.INTER.SOLV>
3.68902

>  <SCORE.INTER.VDW>
-17.106

>  <SCORE.INTER.norm>
-1.84145

>  <SCORE.INTRA>
0

>  <SCORE.INTRA.DIHEDRAL>
0

>  <SCORE.INTRA.DIHEDRAL.0>
0

>  <SCORE.INTRA.POLAR>
0

>  <SCORE.INTRA.POLAR.0>
0

>  <SCORE.INTRA.REPUL>
0

>  <SCORE.INTRA.REPUL.0>
0

>  <SCORE.INTRA.SOLV>
0

>  <SCORE.INTRA.SOLV.lig_0>
-4.28148

>  <SCORE.INTRA.VDW>
0

>  <SCORE.INTRA.VDW.0>
0

>  <SCORE.INTRA.norm>
0

>  <SCORE.RESTR>
0

>  <SCORE.RESTR.CAVITY>
0

>  <SCORE.RESTR.norm>
0

>  <SCORE.SYSTEM>
0

>  <SCORE.SYSTEM.CONST>
0

>  <SCORE.SYSTEM.DIHEDRAL>
0

>  <SCORE.SYSTEM.SOLV>
0

>  <SCORE.SYSTEM.norm>
0

>  <SCORE.heavy>
10

>  <SCORE.norm>
-1.84145

>  <RMSD>
2.487

$$$$
ligand
 OpenBabel11021811423D
libRbt.so/2013.1/901 2013/11/27
 10 11  0  0  0  0  0  0  0  0999 V2000
   11.6882   11.0172    8.8101 N   0  0  0  0  0  0  0  0  0  0  0  0
   11.8924    9.8427    8.1139 C   0  0  0  0  0  0  0  0  0  0  0  0
   11.7679    9.7741    6.7828 N   0  0  0  0  0  0  0  0  0  0  0  0
   11.4234   10.9630    6.2126 C   0  0  0  0  0  0  0  0  0  0  0  0
   11.2030   12.1734    6.8523 C   0  0  0  0  0  0  0  0  0  0  0  0
   11.3358   12.2540    8.2652 C   0  0  0  0  0  0  0  0  0  0  0  0
   11.1898   13.2112    9.0255 O   0  0  0  0  0  0  0  0  0  0  0  0
   10.8767   13.1125    5.9037 N   0  0  0  0  0  0  0  0  0  0  0  0
   10.9011   12.4759    4.7093 C   0  0  0  0  0  0  0  0  0  0  0  0
   11.2332   11.1503    4.8648 N   0  0  0  0  0  0  0  0  0  0  0  0
  1  2  1  0  0  0  0
  1  6  1  0  0  0  0
  2  3  2  0  0  0  0
  3  4  1  0  0  0  0
  4  5  2  0  0  0  0
  4 10  1  0  0  0  0
  5  6  1  0  0  0  0
  5  8  1  0  0  0  0
  6  7  2  0  0  0  0
  8  9  1  0  0  0  0
  9 10  2  0  0  0  0
M  END
>  <CHROM.1>
11.34871951,11.62598675,6.99460000,-1.09280531,1.31525311,-1.99426632

>  <Name>
ligand

>  <RI>
0

>  <Rbt.Current_Directory>
/home/itssahil/PROJECTS/Mol_Feturizer/New_Systems/rnas/2EEU

>  <Rbt.Executable>
rbdock ($Id: //depot/dev/client3/rdock/2013.1/src/exe/rbdock.cxx#4 $)

>  <Rbt.Library>
libRbt.so (2013.1, Build901 2013/11/27)

>  <Rbt.Parameter_File>
/export/apps/rDock/src/rDock_2013.1_src/data/scripts/dock_solv.prm

>  <Rbt.Receptor>
prm/pocket_docking_4.prm

>  <SCORE>
-18.4156

>  <SCORE.INTER>
-18.4156

>  <SCORE.INTER.CONST>
1

>  <SCORE.INTER.POLAR>
0

>  <SCORE.INTER.ROT>
0

>  <SCORE.INTER.SOLV>
3.68424

>  <SCORE.INTER.VDW>
-17.1051

>  <SCORE.INTER.norm>
-1.84156

>  <SCORE.INTRA>
0

>  <SCORE.INTRA.DIHEDRAL>
0

>  <SCORE.INTRA.DIHEDRAL.0>
0

>  <SCORE.INTRA.POLAR>
0

>  <SCORE.INTRA.POLAR.0>
0

>  <SCORE.INTRA.REPUL>
0

>  <SCORE.INTRA.REPUL.0>
0

>  <SCORE.INTRA.SOLV>
0

>  <SCORE.INTRA.SOLV.lig_0>
-4.28148

>  <SCORE.INTRA.VDW>
0

>  <SCORE.INTRA.VDW.0>
0

>  <SCORE.INTRA.norm>
0

>  <SCORE.RESTR>
0

>  <SCORE.RESTR.CAVITY>
0

>  <SCORE.RESTR.norm>
0

>  <SCORE.SYSTEM>
0

>  <SCORE.SYSTEM.CONST>
0

>  <SCORE.SYSTEM.DIHEDRAL>
0

>  <SCORE.SYSTEM.SOLV>
0

>  <SCORE.SYSTEM.norm>
0

>  <SCORE.heavy>
10

>  <SCORE.norm>
-1.84156

>  <RMSD>
2.487

$$$$
ligand
 OpenBabel11021811423D
libRbt.so/2013.1/901 2013/11/27
 10 11  0  0  0  0  0  0  0  0999 V2000
   11.7847   11.0584    8.7489 N   0  0  0  0  0  0  0  0  0  0  0  0
   11.9118    9.8682    8.0614 C   0  0  0  0  0  0  0  0  0  0  0  0
   11.7240    9.7874    6.7383 N   0  0  0  0  0  0  0  0  0  0  0  0
   11.3995   10.9814    6.1671 C   0  0  0  0  0  0  0  0  0  0  0  0
   11.2549   12.2075    6.7985 C   0  0  0  0  0  0  0  0  0  0  0  0
   11.4552   12.3009    8.2027 C   0  0  0  0  0  0  0  0  0  0  0  0
   11.3808   13.2727    8.9548 O   0  0  0  0  0  0  0  0  0  0  0  0
   10.9217   13.1464    5.8520 N   0  0  0  0  0  0  0  0  0  0  0  0
   10.8671   12.4942    4.6671 C   0  0  0  0  0  0  0  0  0  0  0  0
   11.1551   11.1587    4.8268 N   0  0  0  0  0  0  0  0  0  0  0  0
  1  2  1  0  0  0  0
  1  6  1  0  0  0  0
  2  3  2  0  0  0  0
  3  4  1  0  0  0  0
  4  5  2  0  0  0  0
  4 10  1  0  0  0  0
  5  6  1  0  0  0  0
  5  8  1  0  0  0  0
  6  7  2  0  0  0  0
  8  9  1  0  0  0  0
  9 10  2  0  0  0  0
M  END
>  <CHROM.1>
11.38598809,11.65672123,6.94198986,-0.85499498,1.32464828,-2.23835689

>  <Name>
ligand

>  <RI>
0

>  <Rbt.Current_Directory>
/home/itssahil/PROJECTS/Mol_Feturizer/New_Systems/rnas/2EEU

>  <Rbt.Executable>
rbdock ($Id: //depot/dev/client3/rdock/2013.1/src/exe/rbdock.cxx#4 $)

>  <Rbt.Library>
libRbt.so (2013.1, Build901 2013/11/27)

>  <Rbt.Parameter_File>
/export/apps/rDock/src/rDock_2013.1_src/data/scripts/dock_solv.prm

>  <Rbt.Receptor>
prm/pocket_docking_4.prm

>  <SCORE>
-18.3479

>  <SCORE.INTER>
-18.3479

>  <SCORE.INTER.CONST>
1

>  <SCORE.INTER.POLAR>
0

>  <SCORE.INTER.ROT>
0

>  <SCORE.INTER.SOLV>
3.62576

>  <SCORE.INTER.VDW>
-17.0405

>  <SCORE.INTER.norm>
-1.83479

>  <SCORE.INTRA>
0

>  <SCORE.INTRA.DIHEDRAL>
0

>  <SCORE.INTRA.DIHEDRAL.0>
0

>  <SCORE.INTRA.POLAR>
0

>  <SCORE.INTRA.POLAR.0>
0

>  <SCORE.INTRA.REPUL>
0

>  <SCORE.INTRA.REPUL.0>
0

>  <SCORE.INTRA.SOLV>
0

>  <SCORE.INTRA.SOLV.lig_0>
-4.28148

>  <SCORE.INTRA.VDW>
0

>  <SCORE.INTRA.VDW.0>
0

>  <SCORE.INTRA.norm>
0

>  <SCORE.RESTR>
0

>  <SCORE.RESTR.CAVITY>
0

>  <SCORE.RESTR.norm>
0

>  <SCORE.SYSTEM>
0

>  <SCORE.SYSTEM.CONST>
0

>  <SCORE.SYSTEM.DIHEDRAL>
0

>  <SCORE.SYSTEM.SOLV>
0

>  <SCORE.SYSTEM.norm>
0

>  <SCORE.heavy>
10

>  <SCORE.norm>
-1.83479

>  <RMSD>
2.487

$$$$
ligand
 OpenBabel11021811423D
libRbt.so/2013.1/901 2013/11/27
 10 11  0  0  0  0  0  0  0  0999 V2000
   11.7154   11.0201    8.7981 N   0  0  0  0  0  0  0  0  0  0  0  0
   11.9017    9.8406    8.1055 C   0  0  0  0  0  0  0  0  0  0  0  0
   11.7607    9.7663    6.7763 N   0  0  0  0  0  0  0  0  0  0  0  0
   11.4190   10.9551    6.2043 C   0  0  0  0  0  0  0  0  0  0  0  0
   11.2160   12.1705    6.8404 C   0  0  0  0  0  0  0  0  0  0  0  0
   11.3664   12.2570    8.2512 C   0  0  0  0  0  0  0  0  0  0  0  0
   11.2373   13.2191    9.0083 O   0  0  0  0  0  0  0  0  0  0  0  0
   10.8859   13.1074    5.8909 N   0  0  0  0  0  0  0  0  0  0  0  0
   10.8909   12.4647    4.6996 C   0  0  0  0  0  0  0  0  0  0  0  0
   11.2140   11.1372    4.8580 N   0  0  0  0  0  0  0  0  0  0  0  0
  1  2  1  0  0  0  0
  1  6  1  0  0  0  0
  2  3  2  0  0  0  0
  3  4  1  0  0  0  0
  4  5  2  0  0  0  0
  4 10  1  0  0  0  0
  5  6  1  0  0  0  0
  5  8  1  0  0  0  0
  6  7  2  0  0  0  0
  8  9  1  0  0  0  0
  9 10  2  0  0  0  0
M  END
>  <CHROM.1>
11.35900701,11.62257545,6.98372034,-1.03583487,1.31728367,-2.05445584

>  <Name>
ligand

>  <RI>
0

>  <Rbt.Current_Directory>
/home/itssahil/PROJECTS/Mol_Feturizer/New_Systems/rnas/2EEU

>  <Rbt.Executable>
rbdock ($Id: //depot/dev/client3/rdock/2013.1/src/exe/rbdock.cxx#4 $)

>  <Rbt.Library>
libRbt.so (2013.1, Build901 2013/11/27)

>  <Rbt.Parameter_File>
/export/apps/rDock/src/rDock_2013.1_src/data/scripts/dock_solv.prm

>  <Rbt.Receptor>
prm/pocket_docking_6.prm

>  <SCORE>
-18.3661

>  <SCORE.INTER>
-18.3661

>  <SCORE.INTER.CONST>
1

>  <SCORE.INTER.POLAR>
0

>  <SCORE.INTER.ROT>
0

>  <SCORE.INTER.SOLV>
3.66126

>  <SCORE.INTER.VDW>
-17.0645

>  <SCORE.INTER.norm>
-1.83661

>  <SCORE.INTRA>
0

>  <SCORE.INTRA.DIHEDRAL>
0

>  <SCORE.INTRA.DIHEDRAL.0>
0

>  <SCORE.INTRA.POLAR>
0

>  <SCORE.INTRA.POLAR.0>
0

>  <SCORE.INTRA.REPUL>
0

>  <SCORE.INTRA.REPUL.0>
0

>  <SCORE.INTRA.SOLV>
0

>  <SCORE.INTRA.SOLV.lig_0>
-4.28148

>  <SCORE.INTRA.VDW>
0

>  <SCORE.INTRA.VDW.0>
0

>  <SCORE.INTRA.norm>
0

>  <SCORE.RESTR>
0

>  <SCORE.RESTR.CAVITY>
0

>  <SCORE.RESTR.norm>
0

>  <SCORE.SYSTEM>
0

>  <SCORE.SYSTEM.CONST>
0

>  <SCORE.SYSTEM.DIHEDRAL>
0

>  <SCORE.SYSTEM.SOLV>
0

>  <SCORE.SYSTEM.norm>
0

>  <SCORE.heavy>
10

>  <SCORE.norm>
-1.83661

>  <RMSD>
2.487

$$$$
ligand
 OpenBabel11021811423D
libRbt.so/2013.1/901 2013/11/27
 10 11  0  0  0  0  0  0  0  0999 V2000
   11.8037   11.0575    8.7366 N   0  0  0  0  0  0  0  0  0  0  0  0
   11.9435    9.8741    8.0398 C   0  0  0  0  0  0  0  0  0  0  0  0
   11.7529    9.8009    6.7167 N   0  0  0  0  0  0  0  0  0  0  0  0
   11.4119   10.9950    6.1554 C   0  0  0  0  0  0  0  0  0  0  0  0
   11.2541   12.2145    6.7963 C   0  0  0  0  0  0  0  0  0  0  0  0
   11.4573   12.2999    8.2006 C   0  0  0  0  0  0  0  0  0  0  0  0
   11.3731   13.2650    8.9602 O   0  0  0  0  0  0  0  0  0  0  0  0
   10.9065   13.1562    5.8579 N   0  0  0  0  0  0  0  0  0  0  0  0
   10.8566   12.5122    4.6683 C   0  0  0  0  0  0  0  0  0  0  0  0
   11.1615   11.1793    4.8171 N   0  0  0  0  0  0  0  0  0  0  0  0
  1  2  1  0  0  0  0
  1  6  1  0  0  0  0
  2  3  2  0  0  0  0
  3  4  1  0  0  0  0
  4  5  2  0  0  0  0
  4 10  1  0  0  0  0
  5  6  1  0  0  0  0
  5  8  1  0  0  0  0
  6  7  2  0  0  0  0
  8  9  1  0  0  0  0
  9 10  2  0  0  0  0
M  END
>  <CHROM.1>
11.39239442,11.66430908,6.93533215,-0.87600118,1.31308767,-2.21054628

>  <Name>
ligand

>  <RI>
0

>  <Rbt.Current_Directory>
/home/itssahil/PROJECTS/Mol_Feturizer/New_Systems/rnas/2EEU

>  <Rbt.Executable>
rbdock ($Id: //depot/dev/client3/rdock/2013.1/src/exe/rbdock.cxx#4 $)

>  <Rbt.Library>
libRbt.so (2013.1, Build901 2013/11/27)

>  <Rbt.Parameter_File>
/export/apps/rDock/src/rDock_2013.1_src/data/scripts/dock_solv.prm

>  <Rbt.Receptor>
prm/pocket_docking_7.prm

>  <SCORE>
-18.3507

>  <SCORE.INTER>
-18.3507

>  <SCORE.INTER.CONST>
1

>  <SCORE.INTER.POLAR>
0

>  <SCORE.INTER.ROT>
0

>  <SCORE.INTER.SOLV>
3.59159

>  <SCORE.INTER.VDW>
-17.031

>  <SCORE.INTER.norm>
-1.83507

>  <SCORE.INTRA>
0

>  <SCORE.INTRA.DIHEDRAL>
0

>  <SCORE.INTRA.DIHEDRAL.0>
0

>  <SCORE.INTRA.POLAR>
0

>  <SCORE.INTRA.POLAR.0>
0

>  <SCORE.INTRA.REPUL>
0

>  <SCORE.INTRA.REPUL.0>
0

>  <SCORE.INTRA.SOLV>
0

>  <SCORE.INTRA.SOLV.lig_0>
-4.28148

>  <SCORE.INTRA.VDW>
0

>  <SCORE.INTRA.VDW.0>
0

>  <SCORE.INTRA.norm>
0

>  <SCORE.RESTR>
0

>  <SCORE.RESTR.CAVITY>
0

>  <SCORE.RESTR.norm>
0

>  <SCORE.SYSTEM>
0

>  <SCORE.SYSTEM.CONST>
0

>  <SCORE.SYSTEM.DIHEDRAL>
0

>  <SCORE.SYSTEM.SOLV>
0

>  <SCORE.SYSTEM.norm>
0

>  <SCORE.heavy>
10

>  <SCORE.norm>
-1.83507

>  <RMSD>
2.487

$$$$
ligand
 OpenBabel11021811423D
libRbt.so/2013.1/901 2013/11/27
 10 11  0  0  0  0  0  0  0  0999 V2000
   11.8403   11.0605    8.7280 N   0  0  0  0  0  0  0  0  0  0  0  0
   11.9563    9.8678    8.0427 C   0  0  0  0  0  0  0  0  0  0  0  0
   11.7500    9.7828    6.7227 N   0  0  0  0  0  0  0  0  0  0  0  0
   11.4190   10.9754    6.1521 C   0  0  0  0  0  0  0  0  0  0  0  0
   11.2848   12.2038    6.7813 C   0  0  0  0  0  0  0  0  0  0  0  0
   11.5047   12.3016    8.1822 C   0  0  0  0  0  0  0  0  0  0  0  0
   11.4420   13.2760    8.9320 O   0  0  0  0  0  0  0  0  0  0  0  0
   10.9396   13.1399    5.8364 N   0  0  0  0  0  0  0  0  0  0  0  0
   10.8677   12.4838    4.6545 C   0  0  0  0  0  0  0  0  0  0  0  0
   11.1562   11.1485    4.8147 N   0  0  0  0  0  0  0  0  0  0  0  0
  1  2  1  0  0  0  0
  1  6  1  0  0  0  0
  2  3  2  0  0  0  0
  3  4  1  0  0  0  0
  4  5  2  0  0  0  0
  4 10  1  0  0  0  0
  5  6  1  0  0  0  0
  5  8  1  0  0  0  0
  6  7  2  0  0  0  0
  8  9  1  0  0  0  0
  9 10  2  0  0  0  0
M  END
>  <CHROM.1>
11.41719302,11.65329865,6.92477580,-0.80839715,1.31674518,-2.28686721

>  <Name>
ligand

>  <RI>
0

>  <Rbt.Current_Directory>
/home/itssahil/PROJECTS/Mol_Feturizer/New_Systems/rnas/2EEU

>  <Rbt.Executable>
rbdock ($Id: //depot/dev/client3/rdock/2013.1/src/exe/rbdock.cxx#4 $)

>  <Rbt.Library>
libRbt.so (2013.1, Build901 2013/11/27)

>  <Rbt.Parameter_File>
/export/apps/rDock/src/rDock_2013.1_src/data/scripts/dock_solv.prm

>  <Rbt.Receptor>
prm/pocket_docking_8.prm

>  <SCORE>
-18.3386

>  <SCORE.INTER>
-18.3386

>  <SCORE.INTER.CONST>
1

>  <SCORE.INTER.POLAR>
0

>  <SCORE.INTER.ROT>
0

>  <SCORE.INTER.SOLV>
3.60452

>  <SCORE.INTER.VDW>
-17.0273

>  <SCORE.INTER.norm>
-1.83386

>  <SCORE.INTRA>
0

>  <SCORE.INTRA.DIHEDRAL>
0

>  <SCORE.INTRA.DIHEDRAL.0>
0

>  <SCORE.INTRA.POLAR>
0

>  <SCORE.INTRA.POLAR.0>
0

>  <SCORE.INTRA.REPUL>
0

>  <SCORE.INTRA.REPUL.0>
0

>  <SCORE.INTRA.SOLV>
0

>  <SCORE.INTRA.SOLV.lig_0>
-4.28148

>  <SCORE.INTRA.VDW>
0

>  <SCORE.INTRA.VDW.0>
0

>  <SCORE.INTRA.norm>
0

>  <SCORE.RESTR>
0

>  <SCORE.RESTR.CAVITY>
0

>  <SCORE.RESTR.norm>
0

>  <SCORE.SYSTEM>
0

>  <SCORE.SYSTEM.CONST>
0

>  <SCORE.SYSTEM.DIHEDRAL>
0

>  <SCORE.SYSTEM.SOLV>
0

>  <SCORE.SYSTEM.norm>
0

>  <SCORE.heavy>
10

>  <SCORE.norm>
-1.83386

>  <RMSD>
2.487

$$$$
ligand
 OpenBabel11021811423D
libRbt.so/2013.1/901 2013/11/27
 10 11  0  0  0  0  0  0  0  0999 V2000
   11.6886   11.0170    8.8088 N   0  0  0  0  0  0  0  0  0  0  0  0
   11.8915    9.8409    8.1151 C   0  0  0  0  0  0  0  0  0  0  0  0
   11.7628    9.7685    6.7846 N   0  0  0  0  0  0  0  0  0  0  0  0
   11.4154   10.9557    6.2124 C   0  0  0  0  0  0  0  0  0  0  0  0
   11.1961   12.1676    6.8495 C   0  0  0  0  0  0  0  0  0  0  0  0
   11.3334   12.2521    8.2618 C   0  0  0  0  0  0  0  0  0  0  0  0
   11.1891   13.2112    9.0199 O   0  0  0  0  0  0  0  0  0  0  0  0
   10.8659   13.1039    5.8994 N   0  0  0  0  0  0  0  0  0  0  0  0
   10.8870   12.4641    4.7066 C   0  0  0  0  0  0  0  0  0  0  0  0
   11.2207   11.1391    4.8647 N   0  0  0  0  0  0  0  0  0  0  0  0
  1  2  1  0  0  0  0
  1  6  1  0  0  0  0
  2  3  2  0  0  0  0
  3  4  1  0  0  0  0
  4  5  2  0  0  0  0
  4 10  1  0  0  0  0
  5  6  1  0  0  0  0
  5  8  1  0  0  0  0
  6  7  2  0  0  0  0
  8  9  1  0  0  0  0
  9 10  2  0  0  0  0
M  END
>  <CHROM.1>
11.34272620,11.62065749,6.99279468,-1.08251531,1.31317134,-2.00691085

>  <Name>
ligand

>  <RI>
0

>  <Rbt.Current_Directory>
/home/itssahil/PROJECTS/Mol_Feturizer/New_Systems/rnas/2EEU

>  <Rbt.Executable>
rbdock ($Id: //depot/dev/client3/rdock/2013.1/src/exe/rbdock.cxx#4 $)

>  <Rbt.Library>
libRbt.so (2013.1, Build901 2013/11/27)

>  <Rbt.Parameter_File>
/export/apps/rDock/src/rDock_2013.1_src/data/scripts/dock_solv.prm

>  <Rbt.Receptor>
prm/blind_docking_100.prm

>  <SCORE>
-18.3754

>  <SCORE.INTER>
-18.3754

>  <SCORE.INTER.CONST>
1

>  <SCORE.INTER.POLAR>
0

>  <SCORE.INTER.ROT>
0

>  <SCORE.INTER.SOLV>
3.68274

>  <SCORE.INTER.VDW>
-17.0779

>  <SCORE.INTER.norm>
-1.83754

>  <SCORE.INTRA>
0

>  <SCORE.INTRA.DIHEDRAL>
0

>  <SCORE.INTRA.DIHEDRAL.0>
0

>  <SCORE.INTRA.POLAR>
0

>  <SCORE.INTRA.POLAR.0>
0

>  <SCORE.INTRA.REPUL>
0

>  <SCORE.INTRA.REPUL.0>
0

>  <SCORE.INTRA.SOLV>
0

>  <SCORE.INTRA.SOLV.lig_0>
-4.28148

>  <SCORE.INTRA.VDW>
0

>  <SCORE.INTRA.VDW.0>
0

>  <SCORE.INTRA.norm>
0

>  <SCORE.RESTR>
0

>  <SCORE.RESTR.CAVITY>
0

>  <SCORE.RESTR.norm>
0

>  <SCORE.SYSTEM>
0

>  <SCORE.SYSTEM.CONST>
0

>  <SCORE.SYSTEM.DIHEDRAL>
0

>  <SCORE.SYSTEM.SOLV>
0

>  <SCORE.SYSTEM.norm>
0

>  <SCORE.heavy>
10

>  <SCORE.norm>
-1.83754

>  <RMSD>
2.488

$$$$
ligand
 OpenBabel11021811423D
libRbt.so/2013.1/901 2013/11/27
 10 11  0  0  0  0  0  0  0  0999 V2000
   11.6865   11.0152    8.8073 N   0  0  0  0  0  0  0  0  0  0  0  0
   11.8935    9.8405    8.1124 C   0  0  0  0  0  0  0  0  0  0  0  0
   11.7753    9.7715    6.7807 N   0  0  0  0  0  0  0  0  0  0  0  0
   11.4342   10.9605    6.2086 C   0  0  0  0  0  0  0  0  0  0  0  0
   11.2113   12.1712    6.8469 C   0  0  0  0  0  0  0  0  0  0  0  0
   11.3373   12.2520    8.2604 C   0  0  0  0  0  0  0  0  0  0  0  0
   11.1881   13.2095    9.0197 O   0  0  0  0  0  0  0  0  0  0  0  0
   10.8900   13.1102    5.8964 N   0  0  0  0  0  0  0  0  0  0  0  0
   10.9198   12.4732    4.7023 C   0  0  0  0  0  0  0  0  0  0  0  0
   11.2505   11.1475    4.8599 N   0  0  0  0  0  0  0  0  0  0  0  0
  1  2  1  0  0  0  0
  1  6  1  0  0  0  0
  2  3  2  0  0  0  0
  3  4  1  0  0  0  0
  4  5  2  0  0  0  0
  4 10  1  0  0  0  0
  5  6  1  0  0  0  0
  5  8  1  0  0  0  0
  6  7  2  0  0  0  0
  8  9  1  0  0  0  0
  9 10  2  0  0  0  0
M  END
>  <CHROM.1>
11.35603222,11.62369124,6.99002353,-1.10943310,1.31765289,-1.97844299

>  <Name>
ligand

>  <RI>
0

>  <Rbt.Current_Directory>
/home/itssahil/PROJECTS/Mol_Feturizer/New_Systems/rnas/2EEU

>  <Rbt.Executable>
rbdock ($Id: //depot/dev/client3/rdock/2013.1/src/exe/rbdock.cxx#4 $)

>  <Rbt.Library>
libRbt.so (2013.1, Build901 2013/11/27)

>  <Rbt.Parameter_File>
/export/apps/rDock/src/rDock_2013.1_src/data/scripts/dock_solv.prm

>  <Rbt.Receptor>
prm/blind_docking_40.prm

>  <SCORE>
-18.4489

>  <SCORE.INTER>
-18.4489

>  <SCORE.INTER.CONST>
1

>  <SCORE.INTER.POLAR>
0

>  <SCORE.INTER.ROT>
0

>  <SCORE.INTER.SOLV>
3.68808

>  <SCORE.INTER.VDW>
-17.1287

>  <SCORE.INTER.norm>
-1.84489

>  <SCORE.INTRA>
0

>  <SCORE.INTRA.DIHEDRAL>
0

>  <SCORE.INTRA.DIHEDRAL.0>
0

>  <SCORE.INTRA.POLAR>
0

>  <SCORE.INTRA.POLAR.0>
0

>  <SCORE.INTRA.REPUL>
0

>  <SCORE.INTRA.REPUL.0>
0

>  <SCORE.INTRA.SOLV>
0

>  <SCORE.INTRA.SOLV.lig_0>
-4.28148

>  <SCORE.INTRA.VDW>
0

>  <SCORE.INTRA.VDW.0>
0

>  <SCORE.INTRA.norm>
0

>  <SCORE.RESTR>
0

>  <SCORE.RESTR.CAVITY>
0

>  <SCORE.RESTR.norm>
0

>  <SCORE.SYSTEM>
0

>  <SCORE.SYSTEM.CONST>
0

>  <SCORE.SYSTEM.DIHEDRAL>
0

>  <SCORE.SYSTEM.SOLV>
0

>  <SCORE.SYSTEM.norm>
0

>  <SCORE.heavy>
10

>  <SCORE.norm>
-1.84489

>  <RMSD>
2.488

$$$$
ligand
 OpenBabel11021811423D
libRbt.so/2013.1/901 2013/11/27
 10 11  0  0  0  0  0  0  0  0999 V2000
   11.7896   11.0489    8.7460 N   0  0  0  0  0  0  0  0  0  0  0  0
   11.9077    9.8558    8.0618 C   0  0  0  0  0  0  0  0  0  0  0  0
   11.7235    9.7734    6.7384 N   0  0  0  0  0  0  0  0  0  0  0  0
   11.4120   10.9690    6.1631 C   0  0  0  0  0  0  0  0  0  0  0  0
   11.2769   12.1981    6.7909 C   0  0  0  0  0  0  0  0  0  0  0  0
   11.4735   12.2931    8.1955 C   0  0  0  0  0  0  0  0  0  0  0  0
   11.4058   13.2674    8.9449 O   0  0  0  0  0  0  0  0  0  0  0  0
   10.9555   13.1376    5.8411 N   0  0  0  0  0  0  0  0  0  0  0  0
   10.8987   12.4829    4.6576 C   0  0  0  0  0  0  0  0  0  0  0  0
   11.1736   11.1452    4.8215 N   0  0  0  0  0  0  0  0  0  0  0  0
  1  2  1  0  0  0  0
  1  6  1  0  0  0  0
  2  3  2  0  0  0  0
  3  4  1  0  0  0  0
  4  5  2  0  0  0  0
  4 10  1  0  0  0  0
  5  6  1  0  0  0  0
  5  8  1  0  0  0  0
  6  7  2  0  0  0  0
  8  9  1  0  0  0  0
  9 10  2  0  0  0  0
M  END
>  <CHROM.1>
11.40231958,11.64639482,6.93623953,-0.84104578,1.33399962,-2.25442723

>  <Name>
ligand

>  <RI>
0

>  <Rbt.Current_Directory>
/home/itssahil/PROJECTS/Mol_Feturizer/New_Systems/rnas/2EEU

>  <Rbt.Executable>
rbdock ($Id: //depot/dev/client3/rdock/2013.1/src/exe/rbdock.cxx#4 $)

>  <Rbt.Library>
libRbt.so (2013.1, Build901 2013/11/27)

>  <Rbt.Parameter_File>
/export/apps/rDock/src/rDock_2013.1_src/data/scripts/dock_solv.prm

>  <Rbt.Receptor>
prm/blind_docking_60.prm

>  <SCORE>
-18.3394

>  <SCORE.INTER>
-18.3394

>  <SCORE.INTER.CONST>
1

>  <SCORE.INTER.POLAR>
0

>  <SCORE.INTER.ROT>
0

>  <SCORE.INTER.SOLV>
3.64128

>  <SCORE.INTER.VDW>
-17.04

>  <SCORE.INTER.norm>
-1.83394

>  <SCORE.INTRA>
0

>  <SCORE.INTRA.DIHEDRAL>
0

>  <SCORE.INTRA.DIHEDRAL.0>
0

>  <SCORE.INTRA.POLAR>
0

>  <SCORE.INTRA.POLAR.0>
0

>  <SCORE.INTRA.REPUL>
0

>  <SCORE.INTRA.REPUL.0>
0

>  <SCORE.INTRA.SOLV>
0

>  <SCORE.INTRA.SOLV.lig_0>
-4.28148

>  <SCORE.INTRA.VDW>
0

>  <SCORE.INTRA.VDW.0>
0

>  <SCORE.INTRA.norm>
0

>  <SCORE.RESTR>
0

>  <SCORE.RESTR.CAVITY>
0

>  <SCORE.RESTR.norm>
0

>  <SCORE.SYSTEM>
0

>  <SCORE.SYSTEM.CONST>
0

>  <SCORE.SYSTEM.DIHEDRAL>
0

>  <SCORE.SYSTEM.SOLV>
0

>  <SCORE.SYSTEM.norm>
0

>  <SCORE.heavy>
10

>  <SCORE.norm>
-1.83394

>  <RMSD>
2.488

$$$$
ligand
 OpenBabel11021811423D
libRbt.so/2013.1/901 2013/11/27
 10 11  0  0  0  0  0  0  0  0999 V2000
   11.7227   11.0290    8.7874 N   0  0  0  0  0  0  0  0  0  0  0  0
   11.9064    9.8484    8.0962 C   0  0  0  0  0  0  0  0  0  0  0  0
   11.7639    9.7725    6.7672 N   0  0  0  0  0  0  0  0  0  0  0  0
   11.4235   10.9612    6.1940 C   0  0  0  0  0  0  0  0  0  0  0  0
   11.2232   12.1777    6.8288 C   0  0  0  0  0  0  0  0  0  0  0  0
   11.3751   12.2658    8.2393 C   0  0  0  0  0  0  0  0  0  0  0  0
   11.2483   13.2291    8.9953 O   0  0  0  0  0  0  0  0  0  0  0  0
   10.8936   13.1139    5.8784 N   0  0  0  0  0  0  0  0  0  0  0  0
   10.8963   12.4697    4.6879 C   0  0  0  0  0  0  0  0  0  0  0  0
   11.2175   11.1419    4.8477 N   0  0  0  0  0  0  0  0  0  0  0  0
  1  2  1  0  0  0  0
  1  6  1  0  0  0  0
  2  3  2  0  0  0  0
  3  4  1  0  0  0  0
  4  5  2  0  0  0  0
  4 10  1  0  0  0  0
  5  6  1  0  0  0  0
  5  8  1  0  0  0  0
  6  7  2  0  0  0  0
  8  9  1  0  0  0  0
  9 10  2  0  0  0  0
M  END
>  <CHROM.1>
11.36543971,11.62974968,6.97264108,-1.02930219,1.31821873,-2.06207028

>  <Name>
ligand

>  <RI>
0

>  <Rbt.Current_Directory>
/home/itssahil/PROJECTS/Mol_Feturizer/New_Systems/rnas/2EEU

>  <Rbt.Executable>
rbdock ($Id: //depot/dev/client3/rdock/2013.1/src/exe/rbdock.cxx#4 $)

>  <Rbt.Library>
libRbt.so (2013.1, Build901 2013/11/27)

>  <Rbt.Parameter_File>
/export/apps/rDock/src/rDock_2013.1_src/data/scripts/dock_solv.prm

>  <Rbt.Receptor>
prm/pocket_docking_3.prm

>  <SCORE>
-18.3718

>  <SCORE.INTER>
-18.3718

>  <SCORE.INTER.CONST>
1

>  <SCORE.INTER.POLAR>
0

>  <SCORE.INTER.ROT>
0

>  <SCORE.INTER.SOLV>
3.65858

>  <SCORE.INTER.VDW>
-17.0674

>  <SCORE.INTER.norm>
-1.83718

>  <SCORE.INTRA>
0

>  <SCORE.INTRA.DIHEDRAL>
0

>  <SCORE.INTRA.DIHEDRAL.0>
0

>  <SCORE.INTRA.POLAR>
0

>  <SCORE.INTRA.POLAR.0>
0

>  <SCORE.INTRA.REPUL>
0

>  <SCORE.INTRA.REPUL.0>
0

>  <SCORE.INTRA.SOLV>
0

>  <SCORE.INTRA.SOLV.lig_0>
-4.28148

>  <SCORE.INTRA.VDW>
0

>  <SCORE.INTRA.VDW.0>
0

>  <SCORE.INTRA.norm>
0

>  <SCORE.RESTR>
0

>  <SCORE.RESTR.CAVITY>
0

>  <SCORE.RESTR.norm>
0

>  <SCORE.SYSTEM>
0

>  <SCORE.SYSTEM.CONST>
0

>  <SCORE.SYSTEM.DIHEDRAL>
0

>  <SCORE.SYSTEM.SOLV>
0

>  <SCORE.SYSTEM.norm>
0

>  <SCORE.heavy>
10

>  <SCORE.norm>
-1.83718

>  <RMSD>
2.488

$$$$
ligand
 OpenBabel11021811423D
libRbt.so/2013.1/901 2013/11/27
 10 11  0  0  0  0  0  0  0  0999 V2000
   11.7222   11.0392    8.7848 N   0  0  0  0  0  0  0  0  0  0  0  0
   11.8998    9.8581    8.0927 C   0  0  0  0  0  0  0  0  0  0  0  0
   11.7528    9.7830    6.7642 N   0  0  0  0  0  0  0  0  0  0  0  0
   11.4144   10.9729    6.1923 C   0  0  0  0  0  0  0  0  0  0  0  0
   11.2201   12.1899    6.8279 C   0  0  0  0  0  0  0  0  0  0  0  0
   11.3769   12.2773    8.2380 C   0  0  0  0  0  0  0  0  0  0  0  0
   11.2557   13.2408    8.9946 O   0  0  0  0  0  0  0  0  0  0  0  0
   10.8905   13.1275    5.8789 N   0  0  0  0  0  0  0  0  0  0  0  0
   10.8873   12.4834    4.6882 C   0  0  0  0  0  0  0  0  0  0  0  0
   11.2047   11.1545    4.8467 N   0  0  0  0  0  0  0  0  0  0  0  0
  1  2  1  0  0  0  0
  1  6  1  0  0  0  0
  2  3  2  0  0  0  0
  3  4  1  0  0  0  0
  4  5  2  0  0  0  0
  4 10  1  0  0  0  0
  5  6  1  0  0  0  0
  5  8  1  0  0  0  0
  6  7  2  0  0  0  0
  8  9  1  0  0  0  0
  9 10  2  0  0  0  0
M  END
>  <CHROM.1>
11.36104411,11.64149492,6.97125230,-1.01161664,1.31954998,-2.07898887

>  <Name>
ligand

>  <RI>
0

>  <Rbt.Current_Directory>
/home/itssahil/PROJECTS/Mol_Feturizer/New_Systems/rnas/2EEU

>  <Rbt.Executable>
rbdock ($Id: //depot/dev/client3/rdock/2013.1/src/exe/rbdock.cxx#4 $)

>  <Rbt.Library>
libRbt.so (2013.1, Build901 2013/11/27)

>  <Rbt.Parameter_File>
/export/apps/rDock/src/rDock_2013.1_src/data/scripts/dock_solv.prm

>  <Rbt.Receptor>
prm/pocket_docking_7.prm

>  <SCORE>
-18.3706

>  <SCORE.INTER>
-18.3706

>  <SCORE.INTER.CONST>
1

>  <SCORE.INTER.POLAR>
0

>  <SCORE.INTER.ROT>
0

>  <SCORE.INTER.SOLV>
3.66056

>  <SCORE.INTER.VDW>
-17.0672

>  <SCORE.INTER.norm>
-1.83706

>  <SCORE.INTRA>
0

>  <SCORE.INTRA.DIHEDRAL>
0

>  <SCORE.INTRA.DIHEDRAL.0>
0

>  <SCORE.INTRA.POLAR>
0

>  <SCORE.INTRA.POLAR.0>
0

>  <SCORE.INTRA.REPUL>
0

>  <SCORE.INTRA.REPUL.0>
0

>  <SCORE.INTRA.SOLV>
0

>  <SCORE.INTRA.SOLV.lig_0>
-4.28148

>  <SCORE.INTRA.VDW>
0

>  <SCORE.INTRA.VDW.0>
0

>  <SCORE.INTRA.norm>
0

>  <SCORE.RESTR>
0

>  <SCORE.RESTR.CAVITY>
0

>  <SCORE.RESTR.norm>
0

>  <SCORE.SYSTEM>
0

>  <SCORE.SYSTEM.CONST>
0

>  <SCORE.SYSTEM.DIHEDRAL>
0

>  <SCORE.SYSTEM.SOLV>
0

>  <SCORE.SYSTEM.norm>
0

>  <SCORE.heavy>
10

>  <SCORE.norm>
-1.83706

>  <RMSD>
2.488

$$$$
ligand
 OpenBabel11021811423D
libRbt.so/2013.1/901 2013/11/27
 10 11  0  0  0  0  0  0  0  0999 V2000
   11.8107   11.0559    8.7394 N   0  0  0  0  0  0  0  0  0  0  0  0
   11.9201    9.8593    8.0598 C   0  0  0  0  0  0  0  0  0  0  0  0
   11.7224    9.7709    6.7387 N   0  0  0  0  0  0  0  0  0  0  0  0
   11.4069   10.9642    6.1609 C   0  0  0  0  0  0  0  0  0  0  0  0
   11.2801   12.1964    6.7841 C   0  0  0  0  0  0  0  0  0  0  0  0
   11.4909   12.2979    8.1861 C   0  0  0  0  0  0  0  0  0  0  0  0
   11.4323   13.2759    8.9316 O   0  0  0  0  0  0  0  0  0  0  0  0
   10.9506   13.1319    5.8330 N   0  0  0  0  0  0  0  0  0  0  0  0
   10.8808   12.4716    4.6533 C   0  0  0  0  0  0  0  0  0  0  0  0
   11.1553   11.1343    4.8209 N   0  0  0  0  0  0  0  0  0  0  0  0
  1  2  1  0  0  0  0
  1  6  1  0  0  0  0
  2  3  2  0  0  0  0
  3  4  1  0  0  0  0
  4  5  2  0  0  0  0
  4 10  1  0  0  0  0
  5  6  1  0  0  0  0
  5  8  1  0  0  0  0
  6  7  2  0  0  0  0
  8  9  1  0  0  0  0
  9 10  2  0  0  0  0
M  END
>  <CHROM.1>
11.40611179,11.64525231,6.93077805,-0.80443161,1.32865563,-2.29478318

>  <Name>
ligand

>  <RI>
0

>  <Rbt.Current_Directory>
/home/itssahil/PROJECTS/Mol_Feturizer/New_Systems/rnas/2EEU

>  <Rbt.Executable>
rbdock ($Id: //depot/dev/client3/rdock/2013.1/src/exe/rbdock.cxx#4 $)

>  <Rbt.Library>
libRbt.so (2013.1, Build901 2013/11/27)

>  <Rbt.Parameter_File>
/export/apps/rDock/src/rDock_2013.1_src/data/scripts/dock_solv.prm

>  <Rbt.Receptor>
prm/pocket_docking_8.prm

>  <SCORE>
-18.3343

>  <SCORE.INTER>
-18.3343

>  <SCORE.INTER.CONST>
1

>  <SCORE.INTER.POLAR>
0

>  <SCORE.INTER.ROT>
0

>  <SCORE.INTER.SOLV>
3.63568

>  <SCORE.INTER.VDW>
-17.0348

>  <SCORE.INTER.norm>
-1.83343

>  <SCORE.INTRA>
0

>  <SCORE.INTRA.DIHEDRAL>
0

>  <SCORE.INTRA.DIHEDRAL.0>
0

>  <SCORE.INTRA.POLAR>
0

>  <SCORE.INTRA.POLAR.0>
0

>  <SCORE.INTRA.REPUL>
0

>  <SCORE.INTRA.REPUL.0>
0

>  <SCORE.INTRA.SOLV>
0

>  <SCORE.INTRA.SOLV.lig_0>
-4.28148

>  <SCORE.INTRA.VDW>
0

>  <SCORE.INTRA.VDW.0>
0

>  <SCORE.INTRA.norm>
0

>  <SCORE.RESTR>
0

>  <SCORE.RESTR.CAVITY>
0

>  <SCORE.RESTR.norm>
0

>  <SCORE.SYSTEM>
0

>  <SCORE.SYSTEM.CONST>
0

>  <SCORE.SYSTEM.DIHEDRAL>
0

>  <SCORE.SYSTEM.SOLV>
0

>  <SCORE.SYSTEM.norm>
0

>  <SCORE.heavy>
10

>  <SCORE.norm>
-1.83343

>  <RMSD>
2.488

$$$$
ligand
 OpenBabel11021811423D
libRbt.so/2013.1/901 2013/11/27
 10 11  0  0  0  0  0  0  0  0999 V2000
   11.8298   11.1183    8.7256 N   0  0  0  0  0  0  0  0  0  0  0  0
   11.9335    9.9141    8.0586 C   0  0  0  0  0  0  0  0  0  0  0  0
   11.7221    9.8104    6.7408 N   0  0  0  0  0  0  0  0  0  0  0  0
   11.3992   10.9967    6.1527 C   0  0  0  0  0  0  0  0  0  0  0  0
   11.2775   12.2358    6.7631 C   0  0  0  0  0  0  0  0  0  0  0  0
   11.5029   12.3535    8.1616 C   0  0  0  0  0  0  0  0  0  0  0  0
   11.4508   13.3400    8.8963 O   0  0  0  0  0  0  0  0  0  0  0  0
   10.9369   13.1600    5.8048 N   0  0  0  0  0  0  0  0  0  0  0  0
   10.8556   12.4861    4.6336 C   0  0  0  0  0  0  0  0  0  0  0  0
   11.1334   11.1511    4.8136 N   0  0  0  0  0  0  0  0  0  0  0  0
  1  2  1  0  0  0  0
  1  6  1  0  0  0  0
  2  3  2  0  0  0  0
  3  4  1  0  0  0  0
  4  5  2  0  0  0  0
  4 10  1  0  0  0  0
  5  6  1  0  0  0  0
  5  8  1  0  0  0  0
  6  7  2  0  0  0  0
  8  9  1  0  0  0  0
  9 10  2  0  0  0  0
M  END
>  <CHROM.1>
11.40566346,11.68648286,6.91471021,-0.77588786,1.32074386,-2.33392855

>  <Name>
ligand

>  <RI>
0

>  <Rbt.Current_Directory>
/home/itssahil/PROJECTS/Mol_Feturizer/New_Systems/rnas/2EEU

>  <Rbt.Executable>
rbdock ($Id: //depot/dev/client3/rdock/2013.1/src/exe/rbdock.cxx#4 $)

>  <Rbt.Library>
libRbt.so (2013.1, Build901 2013/11/27)

>  <Rbt.Parameter_File>
/export/apps/rDock/src/rDock_2013.1_src/data/scripts/dock_solv.prm

>  <Rbt.Receptor>
prm/blind_docking_100.prm

>  <SCORE>
-18.3616

>  <SCORE.INTER>
-18.3616

>  <SCORE.INTER.CONST>
1

>  <SCORE.INTER.POLAR>
0

>  <SCORE.INTER.ROT>
0

>  <SCORE.INTER.SOLV>
3.66578

>  <SCORE.INTER.VDW>
-17.063

>  <SCORE.INTER.norm>
-1.83616

>  <SCORE.INTRA>
0

>  <SCORE.INTRA.DIHEDRAL>
0

>  <SCORE.INTRA.DIHEDRAL.0>
0

>  <SCORE.INTRA.POLAR>
0

>  <SCORE.INTRA.POLAR.0>
0

>  <SCORE.INTRA.REPUL>
0

>  <SCORE.INTRA.REPUL.0>
0

>  <SCORE.INTRA.SOLV>
0

>  <SCORE.INTRA.SOLV.lig_0>
-4.28148

>  <SCORE.INTRA.VDW>
0

>  <SCORE.INTRA.VDW.0>
0

>  <SCORE.INTRA.norm>
0

>  <SCORE.RESTR>
0

>  <SCORE.RESTR.CAVITY>
0

>  <SCORE.RESTR.norm>
0

>  <SCORE.SYSTEM>
0

>  <SCORE.SYSTEM.CONST>
0

>  <SCORE.SYSTEM.DIHEDRAL>
0

>  <SCORE.SYSTEM.SOLV>
0

>  <SCORE.SYSTEM.norm>
0

>  <SCORE.heavy>
10

>  <SCORE.norm>
-1.83616

>  <RMSD>
2.489

$$$$
ligand
 OpenBabel11021811423D
libRbt.so/2013.1/901 2013/11/27
 10 11  0  0  0  0  0  0  0  0999 V2000
   11.8184   11.0649    8.7294 N   0  0  0  0  0  0  0  0  0  0  0  0
   11.9483    9.8745    8.0426 C   0  0  0  0  0  0  0  0  0  0  0  0
   11.7540    9.7911    6.7207 N   0  0  0  0  0  0  0  0  0  0  0  0
   11.4200   10.9827    6.1498 C   0  0  0  0  0  0  0  0  0  0  0  0
   11.2722   12.2088    6.7804 C   0  0  0  0  0  0  0  0  0  0  0  0
   11.4794   12.3050    8.1834 C   0  0  0  0  0  0  0  0  0  0  0  0
   11.4037   13.2773    8.9347 O   0  0  0  0  0  0  0  0  0  0  0  0
   10.9289   13.1447    5.8346 N   0  0  0  0  0  0  0  0  0  0  0  0
   10.8716   12.4906    4.6507 C   0  0  0  0  0  0  0  0  0  0  0  0
   11.1675   11.1570    4.8105 N   0  0  0  0  0  0  0  0  0  0  0  0
  1  2  1  0  0  0  0
  1  6  1  0  0  0  0
  2  3  2  0  0  0  0
  3  4  1  0  0  0  0
  4  5  2  0  0  0  0
  4 10  1  0  0  0  0
  5  6  1  0  0  0  0
  5  8  1  0  0  0  0
  6  7  2  0  0  0  0
  8  9  1  0  0  0  0
  9 10  2  0  0  0  0
M  END
>  <CHROM.1>
11.40697898,11.65884040,6.92386511,-0.85169028,1.31716815,-2.24280004

>  <Name>
ligand

>  <RI>
0

>  <Rbt.Current_Directory>
/home/itssahil/PROJECTS/Mol_Feturizer/New_Systems/rnas/2EEU

>  <Rbt.Executable>
rbdock ($Id: //depot/dev/client3/rdock/2013.1/src/exe/rbdock.cxx#4 $)

>  <Rbt.Library>
libRbt.so (2013.1, Build901 2013/11/27)

>  <Rbt.Parameter_File>
/export/apps/rDock/src/rDock_2013.1_src/data/scripts/dock_solv.prm

>  <Rbt.Receptor>
prm/blind_docking_40.prm

>  <SCORE>
-18.3513

>  <SCORE.INTER>
-18.3513

>  <SCORE.INTER.CONST>
1

>  <SCORE.INTER.POLAR>
0

>  <SCORE.INTER.ROT>
0

>  <SCORE.INTER.SOLV>
3.61124

>  <SCORE.INTER.VDW>
-17.0379

>  <SCORE.INTER.norm>
-1.83513

>  <SCORE.INTRA>
0

>  <SCORE.INTRA.DIHEDRAL>
0

>  <SCORE.INTRA.DIHEDRAL.0>
0

>  <SCORE.INTRA.POLAR>
0

>  <SCORE.INTRA.POLAR.0>
0

>  <SCORE.INTRA.REPUL>
0

>  <SCORE.INTRA.REPUL.0>
0

>  <SCORE.INTRA.SOLV>
0

>  <SCORE.INTRA.SOLV.lig_0>
-4.28148

>  <SCORE.INTRA.VDW>
0

>  <SCORE.INTRA.VDW.0>
0

>  <SCORE.INTRA.norm>
0

>  <SCORE.RESTR>
0

>  <SCORE.RESTR.CAVITY>
0

>  <SCORE.RESTR.norm>
0

>  <SCORE.SYSTEM>
0

>  <SCORE.SYSTEM.CONST>
0

>  <SCORE.SYSTEM.DIHEDRAL>
0

>  <SCORE.SYSTEM.SOLV>
0

>  <SCORE.SYSTEM.norm>
0

>  <SCORE.heavy>
10

>  <SCORE.norm>
-1.83513

>  <RMSD>
2.489

$$$$
ligand
 OpenBabel11021811423D
libRbt.so/2013.1/901 2013/11/27
 10 11  0  0  0  0  0  0  0  0999 V2000
   11.7277   11.0317    8.7808 N   0  0  0  0  0  0  0  0  0  0  0  0
   11.9041    9.8501    8.0892 C   0  0  0  0  0  0  0  0  0  0  0  0
   11.7537    9.7740    6.7611 N   0  0  0  0  0  0  0  0  0  0  0  0
   11.4132   10.9632    6.1892 C   0  0  0  0  0  0  0  0  0  0  0  0
   11.2200   12.1806    6.8243 C   0  0  0  0  0  0  0  0  0  0  0  0
   11.3803   12.2691    8.2339 C   0  0  0  0  0  0  0  0  0  0  0  0
   11.2606   13.2332    8.9900 O   0  0  0  0  0  0  0  0  0  0  0  0
   10.8875   13.1173    5.8754 N   0  0  0  0  0  0  0  0  0  0  0  0
   10.8815   12.4723    4.6852 C   0  0  0  0  0  0  0  0  0  0  0  0
   11.1999   11.1437    4.8439 N   0  0  0  0  0  0  0  0  0  0  0  0
  1  2  1  0  0  0  0
  1  6  1  0  0  0  0
  2  3  2  0  0  0  0
  3  4  1  0  0  0  0
  4  5  2  0  0  0  0
  4 10  1  0  0  0  0
  5  6  1  0  0  0  0
  5  8  1  0  0  0  0
  6  7  2  0  0  0  0
  8  9  1  0  0  0  0
  9 10  2  0  0  0  0
M  END
>  <CHROM.1>
11.36152866,11.63238187,6.96771541,-1.00362106,1.31784918,-2.08751232

>  <Name>
ligand

>  <RI>
0

>  <Rbt.Current_Directory>
/home/itssahil/PROJECTS/Mol_Feturizer/New_Systems/rnas/2EEU

>  <Rbt.Executable>
rbdock ($Id: //depot/dev/client3/rdock/2013.1/src/exe/rbdock.cxx#4 $)

>  <Rbt.Library>
libRbt.so (2013.1, Build901 2013/11/27)

>  <Rbt.Parameter_File>
/export/apps/rDock/src/rDock_2013.1_src/data/scripts/dock_solv.prm

>  <Rbt.Receptor>
prm/blind_docking_40.prm

>  <SCORE>
-18.3703

>  <SCORE.INTER>
-18.3703

>  <SCORE.INTER.CONST>
1

>  <SCORE.INTER.POLAR>
0

>  <SCORE.INTER.ROT>
0

>  <SCORE.INTER.SOLV>
3.65137

>  <SCORE.INTER.VDW>
-17.064

>  <SCORE.INTER.norm>
-1.83703

>  <SCORE.INTRA>
0

>  <SCORE.INTRA.DIHEDRAL>
0

>  <SCORE.INTRA.DIHEDRAL.0>
0

>  <SCORE.INTRA.POLAR>
0

>  <SCORE.INTRA.POLAR.0>
0

>  <SCORE.INTRA.REPUL>
0

>  <SCORE.INTRA.REPUL.0>
0

>  <SCORE.INTRA.SOLV>
0

>  <SCORE.INTRA.SOLV.lig_0>
-4.28148

>  <SCORE.INTRA.VDW>
0

>  <SCORE.INTRA.VDW.0>
0

>  <SCORE.INTRA.norm>
0

>  <SCORE.RESTR>
0

>  <SCORE.RESTR.CAVITY>
0

>  <SCORE.RESTR.norm>
0

>  <SCORE.SYSTEM>
0

>  <SCORE.SYSTEM.CONST>
0

>  <SCORE.SYSTEM.DIHEDRAL>
0

>  <SCORE.SYSTEM.SOLV>
0

>  <SCORE.SYSTEM.norm>
0

>  <SCORE.heavy>
10

>  <SCORE.norm>
-1.83703

>  <RMSD>
2.489

$$$$
ligand
 OpenBabel11021811423D
libRbt.so/2013.1/901 2013/11/27
 10 11  0  0  0  0  0  0  0  0999 V2000
   11.7836   11.0602    8.7443 N   0  0  0  0  0  0  0  0  0  0  0  0
   11.9046    9.8659    8.0627 C   0  0  0  0  0  0  0  0  0  0  0  0
   11.7229    9.7807    6.7391 N   0  0  0  0  0  0  0  0  0  0  0  0
   11.4110   10.9748    6.1609 C   0  0  0  0  0  0  0  0  0  0  0  0
   11.2732   12.2048    6.7861 C   0  0  0  0  0  0  0  0  0  0  0  0
   11.4670   12.3029    8.1908 C   0  0  0  0  0  0  0  0  0  0  0  0
   11.3966   13.2786    8.9382 O   0  0  0  0  0  0  0  0  0  0  0  0
   10.9523   13.1421    5.8338 N   0  0  0  0  0  0  0  0  0  0  0  0
   10.8986   12.4850    4.6515 C   0  0  0  0  0  0  0  0  0  0  0  0
   11.1749   11.1480    4.8186 N   0  0  0  0  0  0  0  0  0  0  0  0
  1  2  1  0  0  0  0
  1  6  1  0  0  0  0
  2  3  2  0  0  0  0
  3  4  1  0  0  0  0
  4  5  2  0  0  0  0
  4 10  1  0  0  0  0
  5  6  1  0  0  0  0
  5  8  1  0  0  0  0
  6  7  2  0  0  0  0
  8  9  1  0  0  0  0
  9 10  2  0  0  0  0
M  END
>  <CHROM.1>
11.39901158,11.65362279,6.93270781,-0.85073420,1.33417472,-2.24696807

>  <Name>
ligand

>  <RI>
0

>  <Rbt.Current_Directory>
/home/itssahil/PROJECTS/Mol_Feturizer/New_Systems/rnas/2EEU

>  <Rbt.Executable>
rbdock ($Id: //depot/dev/client3/rdock/2013.1/src/exe/rbdock.cxx#4 $)

>  <Rbt.Library>
libRbt.so (2013.1, Build901 2013/11/27)

>  <Rbt.Parameter_File>
/export/apps/rDock/src/rDock_2013.1_src/data/scripts/dock_solv.prm

>  <Rbt.Receptor>
prm/blind_docking_60.prm

>  <SCORE>
-18.343

>  <SCORE.INTER>
-18.343

>  <SCORE.INTER.CONST>
1

>  <SCORE.INTER.POLAR>
0

>  <SCORE.INTER.ROT>
0

>  <SCORE.INTER.SOLV>
3.65247

>  <SCORE.INTER.VDW>
-17.0461

>  <SCORE.INTER.norm>
-1.8343

>  <SCORE.INTRA>
0

>  <SCORE.INTRA.DIHEDRAL>
0

>  <SCORE.INTRA.DIHEDRAL.0>
0

>  <SCORE.INTRA.POLAR>
0

>  <SCORE.INTRA.POLAR.0>
0

>  <SCORE.INTRA.REPUL>
0

>  <SCORE.INTRA.REPUL.0>
0

>  <SCORE.INTRA.SOLV>
0

>  <SCORE.INTRA.SOLV.lig_0>
-4.28148

>  <SCORE.INTRA.VDW>
0

>  <SCORE.INTRA.VDW.0>
0

>  <SCORE.INTRA.norm>
0

>  <SCORE.RESTR>
0

>  <SCORE.RESTR.CAVITY>
0

>  <SCORE.RESTR.norm>
0

>  <SCORE.SYSTEM>
0

>  <SCORE.SYSTEM.CONST>
0

>  <SCORE.SYSTEM.DIHEDRAL>
0

>  <SCORE.SYSTEM.SOLV>
0

>  <SCORE.SYSTEM.norm>
0

>  <SCORE.heavy>
10

>  <SCORE.norm>
-1.8343

>  <RMSD>
2.489

$$$$
ligand
 OpenBabel11021811423D
libRbt.so/2013.1/901 2013/11/27
 10 11  0  0  0  0  0  0  0  0999 V2000
   11.7591   10.9834    8.7609 N   0  0  0  0  0  0  0  0  0  0  0  0
   11.8823    9.7988    8.0629 C   0  0  0  0  0  0  0  0  0  0  0  0
   11.7135    9.7339    6.7365 N   0  0  0  0  0  0  0  0  0  0  0  0
   11.4119   10.9375    6.1730 C   0  0  0  0  0  0  0  0  0  0  0  0
   11.2725   12.1588    6.8149 C   0  0  0  0  0  0  0  0  0  0  0  0
   11.4526   12.2353    8.2227 C   0  0  0  0  0  0  0  0  0  0  0  0
   11.3785   13.2002    8.9838 O   0  0  0  0  0  0  0  0  0  0  0  0
   10.9647   13.1112    5.8734 N   0  0  0  0  0  0  0  0  0  0  0  0
   10.9203   12.4719    4.6810 C   0  0  0  0  0  0  0  0  0  0  0  0
   11.1898   11.1315    4.8310 N   0  0  0  0  0  0  0  0  0  0  0  0
  1  2  1  0  0  0  0
  1  6  1  0  0  0  0
  2  3  2  0  0  0  0
  3  4  1  0  0  0  0
  4  5  2  0  0  0  0
  4 10  1  0  0  0  0
  5  6  1  0  0  0  0
  5  8  1  0  0  0  0
  6  7  2  0  0  0  0
  8  9  1  0  0  0  0
  9 10  2  0  0  0  0
M  END
>  <CHROM.1>
11.39478726,11.60495986,6.95454168,-0.87475622,1.34330195,-2.20881365

>  <Name>
ligand

>  <RI>
0

>  <Rbt.Current_Directory>
/home/itssahil/PROJECTS/Mol_Feturizer/New_Systems/rnas/2EEU

>  <Rbt.Executable>
rbdock ($Id: //depot/dev/client3/rdock/2013.1/src/exe/rbdock.cxx#4 $)

>  <Rbt.Library>
libRbt.so (2013.1, Build901 2013/11/27)

>  <Rbt.Parameter_File>
/export/apps/rDock/src/rDock_2013.1_src/data/scripts/dock_solv.prm

>  <Rbt.Receptor>
prm/blind_docking_80.prm

>  <SCORE>
-18.3347

>  <SCORE.INTER>
-18.3347

>  <SCORE.INTER.CONST>
1

>  <SCORE.INTER.POLAR>
0

>  <SCORE.INTER.ROT>
0

>  <SCORE.INTER.SOLV>
3.62144

>  <SCORE.INTER.VDW>
-17.0303

>  <SCORE.INTER.norm>
-1.83347

>  <SCORE.INTRA>
0

>  <SCORE.INTRA.DIHEDRAL>
0

>  <SCORE.INTRA.DIHEDRAL.0>
0

>  <SCORE.INTRA.POLAR>
0

>  <SCORE.INTRA.POLAR.0>
0

>  <SCORE.INTRA.REPUL>
0

>  <SCORE.INTRA.REPUL.0>
0

>  <SCORE.INTRA.SOLV>
0

>  <SCORE.INTRA.SOLV.lig_0>
-4.28148

>  <SCORE.INTRA.VDW>
0

>  <SCORE.INTRA.VDW.0>
0

>  <SCORE.INTRA.norm>
0

>  <SCORE.RESTR>
0

>  <SCORE.RESTR.CAVITY>
0

>  <SCORE.RESTR.norm>
0

>  <SCORE.SYSTEM>
0

>  <SCORE.SYSTEM.CONST>
0

>  <SCORE.SYSTEM.DIHEDRAL>
0

>  <SCORE.SYSTEM.SOLV>
0

>  <SCORE.SYSTEM.norm>
0

>  <SCORE.heavy>
10

>  <SCORE.norm>
-1.83347

>  <RMSD>
2.489

$$$$
ligand
 OpenBabel11021811423D
libRbt.so/2013.1/901 2013/11/27
 10 11  0  0  0  0  0  0  0  0999 V2000
   11.7292   11.0214    8.7648 N   0  0  0  0  0  0  0  0  0  0  0  0
   11.8777    9.8393    8.0675 C   0  0  0  0  0  0  0  0  0  0  0  0
   11.7198    9.7720    6.7398 N   0  0  0  0  0  0  0  0  0  0  0  0
   11.4020   10.9705    6.1743 C   0  0  0  0  0  0  0  0  0  0  0  0
   11.2372   12.1890    6.8154 C   0  0  0  0  0  0  0  0  0  0  0  0
   11.4057   12.2682    8.2246 C   0  0  0  0  0  0  0  0  0  0  0  0
   11.3096   13.2314    8.9852 O   0  0  0  0  0  0  0  0  0  0  0  0
   10.9203   13.1365    5.8719 N   0  0  0  0  0  0  0  0  0  0  0  0
   10.8954   12.4968    4.6791 C   0  0  0  0  0  0  0  0  0  0  0  0
   11.1865   11.1611    4.8308 N   0  0  0  0  0  0  0  0  0  0  0  0
  1  2  1  0  0  0  0
  1  6  1  0  0  0  0
  2  3  2  0  0  0  0
  3  4  1  0  0  0  0
  4  5  2  0  0  0  0
  4 10  1  0  0  0  0
  5  6  1  0  0  0  0
  5  8  1  0  0  0  0
  6  7  2  0  0  0  0
  8  9  1  0  0  0  0
  9 10  2  0  0  0  0
M  END
>  <CHROM.1>
11.36781040,11.63732629,6.95587144,-0.94287043,1.33355327,-2.14226880

>  <Name>
ligand

>  <RI>
0

>  <Rbt.Current_Directory>
/home/itssahil/PROJECTS/Mol_Feturizer/New_Systems/rnas/2EEU

>  <Rbt.Executable>
rbdock ($Id: //depot/dev/client3/rdock/2013.1/src/exe/rbdock.cxx#4 $)

>  <Rbt.Library>
libRbt.so (2013.1, Build901 2013/11/27)

>  <Rbt.Parameter_File>
/export/apps/rDock/src/rDock_2013.1_src/data/scripts/dock_solv.prm

>  <Rbt.Receptor>
prm/blind_docking_80.prm

>  <SCORE>
-18.3779

>  <SCORE.INTER>
-18.3779

>  <SCORE.INTER.CONST>
1

>  <SCORE.INTER.POLAR>
0

>  <SCORE.INTER.ROT>
0

>  <SCORE.INTER.SOLV>
3.65094

>  <SCORE.INTER.VDW>
-17.0689

>  <SCORE.INTER.norm>
-1.83779

>  <SCORE.INTRA>
0

>  <SCORE.INTRA.DIHEDRAL>
0

>  <SCORE.INTRA.DIHEDRAL.0>
0

>  <SCORE.INTRA.POLAR>
0

>  <SCORE.INTRA.POLAR.0>
0

>  <SCORE.INTRA.REPUL>
0

>  <SCORE.INTRA.REPUL.0>
0

>  <SCORE.INTRA.SOLV>
0

>  <SCORE.INTRA.SOLV.lig_0>
-4.28148

>  <SCORE.INTRA.VDW>
0

>  <SCORE.INTRA.VDW.0>
0

>  <SCORE.INTRA.norm>
0

>  <SCORE.RESTR>
0

>  <SCORE.RESTR.CAVITY>
0

>  <SCORE.RESTR.norm>
0

>  <SCORE.SYSTEM>
0

>  <SCORE.SYSTEM.CONST>
0

>  <SCORE.SYSTEM.DIHEDRAL>
0

>  <SCORE.SYSTEM.SOLV>
0

>  <SCORE.SYSTEM.norm>
0

>  <SCORE.heavy>
10

>  <SCORE.norm>
-1.83779

>  <RMSD>
2.489

$$$$
ligand
 OpenBabel11021811423D
libRbt.so/2013.1/901 2013/11/27
 10 11  0  0  0  0  0  0  0  0999 V2000
   11.6875   11.0120    8.8063 N   0  0  0  0  0  0  0  0  0  0  0  0
   11.8964    9.8368    8.1129 C   0  0  0  0  0  0  0  0  0  0  0  0
   11.7764    9.7656    6.7814 N   0  0  0  0  0  0  0  0  0  0  0  0
   11.4313   10.9528    6.2081 C   0  0  0  0  0  0  0  0  0  0  0  0
   11.2063   12.1639    6.8450 C   0  0  0  0  0  0  0  0  0  0  0  0
   11.3343   12.2471    8.2582 C   0  0  0  0  0  0  0  0  0  0  0  0
   11.1838   13.2053    9.0163 O   0  0  0  0  0  0  0  0  0  0  0  0
   10.8812   13.1006    5.8936 N   0  0  0  0  0  0  0  0  0  0  0  0
   10.9109   12.4620    4.7004 C   0  0  0  0  0  0  0  0  0  0  0  0
   11.2451   11.1374    4.8594 N   0  0  0  0  0  0  0  0  0  0  0  0
  1  2  1  0  0  0  0
  1  6  1  0  0  0  0
  2  3  2  0  0  0  0
  3  4  1  0  0  0  0
  4  5  2  0  0  0  0
  4 10  1  0  0  0  0
  5  6  1  0  0  0  0
  5  8  1  0  0  0  0
  6  7  2  0  0  0  0
  8  9  1  0  0  0  0
  9 10  2  0  0  0  0
M  END
>  <CHROM.1>
11.35269364,11.61697276,6.98867585,-1.10793429,1.31470621,-1.98136208

>  <Name>
ligand

>  <RI>
0

>  <Rbt.Current_Directory>
/home/itssahil/PROJECTS/Mol_Feturizer/New_Systems/rnas/2EEU

>  <Rbt.Executable>
rbdock ($Id: //depot/dev/client3/rdock/2013.1/src/exe/rbdock.cxx#4 $)

>  <Rbt.Library>
libRbt.so (2013.1, Build901 2013/11/27)

>  <Rbt.Parameter_File>
/export/apps/rDock/src/rDock_2013.1_src/data/scripts/dock_solv.prm

>  <Rbt.Receptor>
prm/pocket_docking_3.prm

>  <SCORE>
-18.4127

>  <SCORE.INTER>
-18.4127

>  <SCORE.INTER.CONST>
1

>  <SCORE.INTER.POLAR>
0

>  <SCORE.INTER.ROT>
0

>  <SCORE.INTER.SOLV>
3.68654

>  <SCORE.INTER.VDW>
-17.104

>  <SCORE.INTER.norm>
-1.84127

>  <SCORE.INTRA>
0

>  <SCORE.INTRA.DIHEDRAL>
0

>  <SCORE.INTRA.DIHEDRAL.0>
0

>  <SCORE.INTRA.POLAR>
0

>  <SCORE.INTRA.POLAR.0>
0

>  <SCORE.INTRA.REPUL>
0

>  <SCORE.INTRA.REPUL.0>
0

>  <SCORE.INTRA.SOLV>
0

>  <SCORE.INTRA.SOLV.lig_0>
-4.28148

>  <SCORE.INTRA.VDW>
0

>  <SCORE.INTRA.VDW.0>
0

>  <SCORE.INTRA.norm>
0

>  <SCORE.RESTR>
0

>  <SCORE.RESTR.CAVITY>
0

>  <SCORE.RESTR.norm>
0

>  <SCORE.SYSTEM>
0

>  <SCORE.SYSTEM.CONST>
0

>  <SCORE.SYSTEM.DIHEDRAL>
0

>  <SCORE.SYSTEM.SOLV>
0

>  <SCORE.SYSTEM.norm>
0

>  <SCORE.heavy>
10

>  <SCORE.norm>
-1.84127

>  <RMSD>
2.489

$$$$
ligand
 OpenBabel11021811423D
libRbt.so/2013.1/901 2013/11/27
 10 11  0  0  0  0  0  0  0  0999 V2000
   11.7362   11.0324    8.7719 N   0  0  0  0  0  0  0  0  0  0  0  0
   11.9032    9.8493    8.0806 C   0  0  0  0  0  0  0  0  0  0  0  0
   11.7453    9.7726    6.7534 N   0  0  0  0  0  0  0  0  0  0  0  0
   11.4076   10.9629    6.1821 C   0  0  0  0  0  0  0  0  0  0  0  0
   11.2236   12.1818    6.8171 C   0  0  0  0  0  0  0  0  0  0  0  0
   11.3920   12.2709    8.2257 C   0  0  0  0  0  0  0  0  0  0  0  0
   11.2809   13.2363    8.9815 O   0  0  0  0  0  0  0  0  0  0  0  0
   10.8906   13.1191    5.8690 N   0  0  0  0  0  0  0  0  0  0  0  0
   10.8751   12.4731    4.6796 C   0  0  0  0  0  0  0  0  0  0  0  0
   11.1880   11.1431    4.8378 N   0  0  0  0  0  0  0  0  0  0  0  0
  1  2  1  0  0  0  0
  1  6  1  0  0  0  0
  2  3  2  0  0  0  0
  3  4  1  0  0  0  0
  4  5  2  0  0  0  0
  4 10  1  0  0  0  0
  5  6  1  0  0  0  0
  5  8  1  0  0  0  0
  6  7  2  0  0  0  0
  8  9  1  0  0  0  0
  9 10  2  0  0  0  0
M  END
>  <CHROM.1>
11.36328828,11.63305548,6.96026971,-0.97531483,1.31931650,-2.11590537

>  <Name>
ligand

>  <RI>
0

>  <Rbt.Current_Directory>
/home/itssahil/PROJECTS/Mol_Feturizer/New_Systems/rnas/2EEU

>  <Rbt.Executable>
rbdock ($Id: //depot/dev/client3/rdock/2013.1/src/exe/rbdock.cxx#4 $)

>  <Rbt.Library>
libRbt.so (2013.1, Build901 2013/11/27)

>  <Rbt.Parameter_File>
/export/apps/rDock/src/rDock_2013.1_src/data/scripts/dock_solv.prm

>  <Rbt.Receptor>
prm/pocket_docking_3.prm

>  <SCORE>
-18.3673

>  <SCORE.INTER>
-18.3673

>  <SCORE.INTER.CONST>
1

>  <SCORE.INTER.POLAR>
0

>  <SCORE.INTER.ROT>
0

>  <SCORE.INTER.SOLV>
3.64278

>  <SCORE.INTER.VDW>
-17.0591

>  <SCORE.INTER.norm>
-1.83673

>  <SCORE.INTRA>
0

>  <SCORE.INTRA.DIHEDRAL>
0

>  <SCORE.INTRA.DIHEDRAL.0>
0

>  <SCORE.INTRA.POLAR>
0

>  <SCORE.INTRA.POLAR.0>
0

>  <SCORE.INTRA.REPUL>
0

>  <SCORE.INTRA.REPUL.0>
0

>  <SCORE.INTRA.SOLV>
0

>  <SCORE.INTRA.SOLV.lig_0>
-4.28148

>  <SCORE.INTRA.VDW>
0

>  <SCORE.INTRA.VDW.0>
0

>  <SCORE.INTRA.norm>
0

>  <SCORE.RESTR>
0

>  <SCORE.RESTR.CAVITY>
0

>  <SCORE.RESTR.norm>
0

>  <SCORE.SYSTEM>
0

>  <SCORE.SYSTEM.CONST>
0

>  <SCORE.SYSTEM.DIHEDRAL>
0

>  <SCORE.SYSTEM.SOLV>
0

>  <SCORE.SYSTEM.norm>
0

>  <SCORE.heavy>
10

>  <SCORE.norm>
-1.83673

>  <RMSD>
2.489

$$$$
ligand
 OpenBabel11021811423D
libRbt.so/2013.1/901 2013/11/27
 10 11  0  0  0  0  0  0  0  0999 V2000
   11.8049   11.0718    8.7305 N   0  0  0  0  0  0  0  0  0  0  0  0
   11.9366    9.8825    8.0422 C   0  0  0  0  0  0  0  0  0  0  0  0
   11.7433    9.8006    6.7200 N   0  0  0  0  0  0  0  0  0  0  0  0
   11.4084   10.9926    6.1505 C   0  0  0  0  0  0  0  0  0  0  0  0
   11.2588   12.2177    6.7827 C   0  0  0  0  0  0  0  0  0  0  0  0
   11.4648   12.3122    8.1859 C   0  0  0  0  0  0  0  0  0  0  0  0
   11.3875   13.2834    8.9385 O   0  0  0  0  0  0  0  0  0  0  0  0
   10.9150   13.1545    5.8379 N   0  0  0  0  0  0  0  0  0  0  0  0
   10.8593   12.5020    4.6532 C   0  0  0  0  0  0  0  0  0  0  0  0
   11.1567   11.1685    4.8113 N   0  0  0  0  0  0  0  0  0  0  0  0
  1  2  1  0  0  0  0
  1  6  1  0  0  0  0
  2  3  2  0  0  0  0
  3  4  1  0  0  0  0
  4  5  2  0  0  0  0
  4 10  1  0  0  0  0
  5  6  1  0  0  0  0
  5  8  1  0  0  0  0
  6  7  2  0  0  0  0
  8  9  1  0  0  0  0
  9 10  2  0  0  0  0
M  END
>  <CHROM.1>
11.39405109,11.66770854,6.92550917,-0.85671077,1.31669815,-2.23656687

>  <Name>
ligand

>  <RI>
0

>  <Rbt.Current_Directory>
/home/itssahil/PROJECTS/Mol_Feturizer/New_Systems/rnas/2EEU

>  <Rbt.Executable>
rbdock ($Id: //depot/dev/client3/rdock/2013.1/src/exe/rbdock.cxx#4 $)

>  <Rbt.Library>
libRbt.so (2013.1, Build901 2013/11/27)

>  <Rbt.Parameter_File>
/export/apps/rDock/src/rDock_2013.1_src/data/scripts/dock_solv.prm

>  <Rbt.Receptor>
prm/pocket_docking_5.prm

>  <SCORE>
-18.3505

>  <SCORE.INTER>
-18.3505

>  <SCORE.INTER.CONST>
1

>  <SCORE.INTER.POLAR>
0

>  <SCORE.INTER.ROT>
0

>  <SCORE.INTER.SOLV>
3.61475

>  <SCORE.INTER.VDW>
-17.0386

>  <SCORE.INTER.norm>
-1.83505

>  <SCORE.INTRA>
0

>  <SCORE.INTRA.DIHEDRAL>
0

>  <SCORE.INTRA.DIHEDRAL.0>
0

>  <SCORE.INTRA.POLAR>
0

>  <SCORE.INTRA.POLAR.0>
0

>  <SCORE.INTRA.REPUL>
0

>  <SCORE.INTRA.REPUL.0>
0

>  <SCORE.INTRA.SOLV>
0

>  <SCORE.INTRA.SOLV.lig_0>
-4.28148

>  <SCORE.INTRA.VDW>
0

>  <SCORE.INTRA.VDW.0>
0

>  <SCORE.INTRA.norm>
0

>  <SCORE.RESTR>
0

>  <SCORE.RESTR.CAVITY>
0

>  <SCORE.RESTR.norm>
0

>  <SCORE.SYSTEM>
0

>  <SCORE.SYSTEM.CONST>
0

>  <SCORE.SYSTEM.DIHEDRAL>
0

>  <SCORE.SYSTEM.SOLV>
0

>  <SCORE.SYSTEM.norm>
0

>  <SCORE.heavy>
10

>  <SCORE.norm>
-1.83505

>  <RMSD>
2.489

$$$$
ligand
 OpenBabel11021811423D
libRbt.so/2013.1/901 2013/11/27
 10 11  0  0  0  0  0  0  0  0999 V2000
   11.8206   11.1148    8.7262 N   0  0  0  0  0  0  0  0  0  0  0  0
   11.9347    9.9141    8.0548 C   0  0  0  0  0  0  0  0  0  0  0  0
   11.7318    9.8149    6.7352 N   0  0  0  0  0  0  0  0  0  0  0  0
   11.4062   11.0020    6.1503 C   0  0  0  0  0  0  0  0  0  0  0  0
   11.2742   12.2378    6.7652 C   0  0  0  0  0  0  0  0  0  0  0  0
   11.4905   12.3507    8.1655 C   0  0  0  0  0  0  0  0  0  0  0  0
   11.4288   13.3337    8.9041 O   0  0  0  0  0  0  0  0  0  0  0  0
   10.9346   13.1643    5.8089 N   0  0  0  0  0  0  0  0  0  0  0  0
   10.8639   12.4951    4.6343 C   0  0  0  0  0  0  0  0  0  0  0  0
   11.1477   11.1608    4.8102 N   0  0  0  0  0  0  0  0  0  0  0  0
  1  2  1  0  0  0  0
  1  6  1  0  0  0  0
  2  3  2  0  0  0  0
  3  4  1  0  0  0  0
  4  5  2  0  0  0  0
  4 10  1  0  0  0  0
  5  6  1  0  0  0  0
  5  8  1  0  0  0  0
  6  7  2  0  0  0  0
  8  9  1  0  0  0  0
  9 10  2  0  0  0  0
M  END
>  <CHROM.1>
11.40439417,11.68853864,6.91526660,-0.80836581,1.32099624,-2.29816714

>  <Name>
ligand

>  <RI>
0

>  <Rbt.Current_Directory>
/home/itssahil/PROJECTS/Mol_Feturizer/New_Systems/rnas/2EEU

>  <Rbt.Executable>
rbdock ($Id: //depot/dev/client3/rdock/2013.1/src/exe/rbdock.cxx#4 $)

>  <Rbt.Library>
libRbt.so (2013.1, Build901 2013/11/27)

>  <Rbt.Parameter_File>
/export/apps/rDock/src/rDock_2013.1_src/data/scripts/dock_solv.prm

>  <Rbt.Receptor>
prm/pocket_docking_5.prm

>  <SCORE>
-18.3354

>  <SCORE.INTER>
-18.3354

>  <SCORE.INTER.CONST>
1

>  <SCORE.INTER.POLAR>
0

>  <SCORE.INTER.ROT>
0

>  <SCORE.INTER.SOLV>
3.66177

>  <SCORE.INTER.VDW>
-17.0442

>  <SCORE.INTER.norm>
-1.83354

>  <SCORE.INTRA>
0

>  <SCORE.INTRA.DIHEDRAL>
0

>  <SCORE.INTRA.DIHEDRAL.0>
0

>  <SCORE.INTRA.POLAR>
0

>  <SCORE.INTRA.POLAR.0>
0

>  <SCORE.INTRA.REPUL>
0

>  <SCORE.INTRA.REPUL.0>
0

>  <SCORE.INTRA.SOLV>
0

>  <SCORE.INTRA.SOLV.lig_0>
-4.28148

>  <SCORE.INTRA.VDW>
0

>  <SCORE.INTRA.VDW.0>
0

>  <SCORE.INTRA.norm>
0

>  <SCORE.RESTR>
0

>  <SCORE.RESTR.CAVITY>
0

>  <SCORE.RESTR.norm>
0

>  <SCORE.SYSTEM>
0

>  <SCORE.SYSTEM.CONST>
0

>  <SCORE.SYSTEM.DIHEDRAL>
0

>  <SCORE.SYSTEM.SOLV>
0

>  <SCORE.SYSTEM.norm>
0

>  <SCORE.heavy>
10

>  <SCORE.norm>
-1.83354

>  <RMSD>
2.489

$$$$
ligand
 OpenBabel11021811423D
libRbt.so/2013.1/901 2013/11/27
 10 11  0  0  0  0  0  0  0  0999 V2000
   11.7334   11.0254    8.7634 N   0  0  0  0  0  0  0  0  0  0  0  0
   11.8855    9.8442    8.0654 C   0  0  0  0  0  0  0  0  0  0  0  0
   11.7250    9.7766    6.7380 N   0  0  0  0  0  0  0  0  0  0  0  0
   11.4005   10.9740    6.1737 C   0  0  0  0  0  0  0  0  0  0  0  0
   11.2317   12.1915    6.8156 C   0  0  0  0  0  0  0  0  0  0  0  0
   11.4030   12.2709    8.2245 C   0  0  0  0  0  0  0  0  0  0  0  0
   11.3043   13.2334    8.9857 O   0  0  0  0  0  0  0  0  0  0  0  0
   10.9085   13.1379    5.8731 N   0  0  0  0  0  0  0  0  0  0  0  0
   10.8838   12.4985    4.6802 C   0  0  0  0  0  0  0  0  0  0  0  0
   11.1812   11.1641    4.8308 N   0  0  0  0  0  0  0  0  0  0  0  0
  1  2  1  0  0  0  0
  1  6  1  0  0  0  0
  2  3  2  0  0  0  0
  3  4  1  0  0  0  0
  4  5  2  0  0  0  0
  4 10  1  0  0  0  0
  5  6  1  0  0  0  0
  5  8  1  0  0  0  0
  6  7  2  0  0  0  0
  8  9  1  0  0  0  0
  9 10  2  0  0  0  0
M  END
>  <CHROM.1>
11.36511609,11.64034912,6.95558317,-0.94510854,1.32858068,-2.13972537

>  <Name>
ligand

>  <RI>
0

>  <Rbt.Current_Directory>
/home/itssahil/PROJECTS/Mol_Feturizer/New_Systems/rnas/2EEU

>  <Rbt.Executable>
rbdock ($Id: //depot/dev/client3/rdock/2013.1/src/exe/rbdock.cxx#4 $)

>  <Rbt.Library>
libRbt.so (2013.1, Build901 2013/11/27)

>  <Rbt.Parameter_File>
/export/apps/rDock/src/rDock_2013.1_src/data/scripts/dock_solv.prm

>  <Rbt.Receptor>
prm/pocket_docking_5.prm

>  <SCORE>
-18.384

>  <SCORE.INTER>
-18.384

>  <SCORE.INTER.CONST>
1

>  <SCORE.INTER.POLAR>
0

>  <SCORE.INTER.ROT>
0

>  <SCORE.INTER.SOLV>
3.64394

>  <SCORE.INTER.VDW>
-17.0706

>  <SCORE.INTER.norm>
-1.8384

>  <SCORE.INTRA>
0

>  <SCORE.INTRA.DIHEDRAL>
0

>  <SCORE.INTRA.DIHEDRAL.0>
0

>  <SCORE.INTRA.POLAR>
0

>  <SCORE.INTRA.POLAR.0>
0

>  <SCORE.INTRA.REPUL>
0

>  <SCORE.INTRA.REPUL.0>
0

>  <SCORE.INTRA.SOLV>
0

>  <SCORE.INTRA.SOLV.lig_0>
-4.28148

>  <SCORE.INTRA.VDW>
0

>  <SCORE.INTRA.VDW.0>
0

>  <SCORE.INTRA.norm>
0

>  <SCORE.RESTR>
0

>  <SCORE.RESTR.CAVITY>
0

>  <SCORE.RESTR.norm>
0

>  <SCORE.SYSTEM>
0

>  <SCORE.SYSTEM.CONST>
0

>  <SCORE.SYSTEM.DIHEDRAL>
0

>  <SCORE.SYSTEM.SOLV>
0

>  <SCORE.SYSTEM.norm>
0

>  <SCORE.heavy>
10

>  <SCORE.norm>
-1.8384

>  <RMSD>
2.489

$$$$
ligand
 OpenBabel11021811423D
libRbt.so/2013.1/901 2013/11/27
 10 11  0  0  0  0  0  0  0  0999 V2000
   11.6807   10.9924    8.7929 N   0  0  0  0  0  0  0  0  0  0  0  0
   11.8568    9.8194    8.0869 C   0  0  0  0  0  0  0  0  0  0  0  0
   11.7257    9.7637    6.7557 N   0  0  0  0  0  0  0  0  0  0  0  0
   11.4047   10.9642    6.1961 C   0  0  0  0  0  0  0  0  0  0  0  0
   11.2129   12.1741    6.8460 C   0  0  0  0  0  0  0  0  0  0  0  0
   11.3528   12.2408    8.2589 C   0  0  0  0  0  0  0  0  0  0  0  0
   11.2304   13.1949    9.0271 O   0  0  0  0  0  0  0  0  0  0  0  0
   10.9032   13.1273    5.9059 N   0  0  0  0  0  0  0  0  0  0  0  0
   10.9093   12.4996    4.7066 C   0  0  0  0  0  0  0  0  0  0  0  0
   11.2133   11.1660    4.8506 N   0  0  0  0  0  0  0  0  0  0  0  0
  1  2  1  0  0  0  0
  1  6  1  0  0  0  0
  2  3  2  0  0  0  0
  3  4  1  0  0  0  0
  4  5  2  0  0  0  0
  4 10  1  0  0  0  0
  5  6  1  0  0  0  0
  5  8  1  0  0  0  0
  6  7  2  0  0  0  0
  8  9  1  0  0  0  0
  9 10  2  0  0  0  0
M  END
>  <CHROM.1>
11.34731028,11.62252287,6.98347482,-1.04022472,1.33299309,-2.03753273

>  <Name>
ligand

>  <RI>
0

>  <Rbt.Current_Directory>
/home/itssahil/PROJECTS/Mol_Feturizer/New_Systems/rnas/2EEU

>  <Rbt.Executable>
rbdock ($Id: //depot/dev/client3/rdock/2013.1/src/exe/rbdock.cxx#4 $)

>  <Rbt.Library>
libRbt.so (2013.1, Build901 2013/11/27)

>  <Rbt.Parameter_File>
/export/apps/rDock/src/rDock_2013.1_src/data/scripts/dock_solv.prm

>  <Rbt.Receptor>
prm/pocket_docking_6.prm

>  <SCORE>
-18.392

>  <SCORE.INTER>
-18.392

>  <SCORE.INTER.CONST>
1

>  <SCORE.INTER.POLAR>
0

>  <SCORE.INTER.ROT>
0

>  <SCORE.INTER.SOLV>
3.67752

>  <SCORE.INTER.VDW>
-17.0872

>  <SCORE.INTER.norm>
-1.8392

>  <SCORE.INTRA>
0

>  <SCORE.INTRA.DIHEDRAL>
0

>  <SCORE.INTRA.DIHEDRAL.0>
0

>  <SCORE.INTRA.POLAR>
0

>  <SCORE.INTRA.POLAR.0>
0

>  <SCORE.INTRA.REPUL>
0

>  <SCORE.INTRA.REPUL.0>
0

>  <SCORE.INTRA.SOLV>
0

>  <SCORE.INTRA.SOLV.lig_0>
-4.28148

>  <SCORE.INTRA.VDW>
0

>  <SCORE.INTRA.VDW.0>
0

>  <SCORE.INTRA.norm>
0

>  <SCORE.RESTR>
0

>  <SCORE.RESTR.CAVITY>
0

>  <SCORE.RESTR.norm>
0

>  <SCORE.SYSTEM>
0

>  <SCORE.SYSTEM.CONST>
0

>  <SCORE.SYSTEM.DIHEDRAL>
0

>  <SCORE.SYSTEM.SOLV>
0

>  <SCORE.SYSTEM.norm>
0

>  <SCORE.heavy>
10

>  <SCORE.norm>
-1.8392

>  <RMSD>
2.489

$$$$
ligand
 OpenBabel11021811423D
libRbt.so/2013.1/901 2013/11/27
 10 11  0  0  0  0  0  0  0  0999 V2000
   11.6812   11.0156    8.8045 N   0  0  0  0  0  0  0  0  0  0  0  0
   11.8830    9.8397    8.1102 C   0  0  0  0  0  0  0  0  0  0  0  0
   11.7641    9.7706    6.7785 N   0  0  0  0  0  0  0  0  0  0  0  0
   11.4277   10.9607    6.2059 C   0  0  0  0  0  0  0  0  0  0  0  0
   11.2101   12.1726    6.8437 C   0  0  0  0  0  0  0  0  0  0  0  0
   11.3370   12.2537    8.2572 C   0  0  0  0  0  0  0  0  0  0  0  0
   11.1921   13.2121    9.0160 O   0  0  0  0  0  0  0  0  0  0  0  0
   10.8925   13.1125    5.8929 N   0  0  0  0  0  0  0  0  0  0  0  0
   10.9193   12.4748    4.6991 C   0  0  0  0  0  0  0  0  0  0  0  0
   11.2444   11.1478    4.8572 N   0  0  0  0  0  0  0  0  0  0  0  0
  1  2  1  0  0  0  0
  1  6  1  0  0  0  0
  2  3  2  0  0  0  0
  3  4  1  0  0  0  0
  4  5  2  0  0  0  0
  4 10  1  0  0  0  0
  5  6  1  0  0  0  0
  5  8  1  0  0  0  0
  6  7  2  0  0  0  0
  8  9  1  0  0  0  0
  9 10  2  0  0  0  0
M  END
>  <CHROM.1>
11.35265689,11.62461986,6.98707250,-1.10145717,1.32135655,-1.98666962

>  <Name>
ligand

>  <RI>
0

>  <Rbt.Current_Directory>
/home/itssahil/PROJECTS/Mol_Feturizer/New_Systems/rnas/2EEU

>  <Rbt.Executable>
rbdock ($Id: //depot/dev/client3/rdock/2013.1/src/exe/rbdock.cxx#4 $)

>  <Rbt.Library>
libRbt.so (2013.1, Build901 2013/11/27)

>  <Rbt.Parameter_File>
/export/apps/rDock/src/rDock_2013.1_src/data/scripts/dock_solv.prm

>  <Rbt.Receptor>
prm/pocket_docking_7.prm

>  <SCORE>
-18.4469

>  <SCORE.INTER>
-18.4469

>  <SCORE.INTER.CONST>
1

>  <SCORE.INTER.POLAR>
0

>  <SCORE.INTER.ROT>
0

>  <SCORE.INTER.SOLV>
3.69215

>  <SCORE.INTER.VDW>
-17.1286

>  <SCORE.INTER.norm>
-1.84469

>  <SCORE.INTRA>
0

>  <SCORE.INTRA.DIHEDRAL>
0

>  <SCORE.INTRA.DIHEDRAL.0>
0

>  <SCORE.INTRA.POLAR>
0

>  <SCORE.INTRA.POLAR.0>
0

>  <SCORE.INTRA.REPUL>
0

>  <SCORE.INTRA.REPUL.0>
0

>  <SCORE.INTRA.SOLV>
0

>  <SCORE.INTRA.SOLV.lig_0>
-4.28148

>  <SCORE.INTRA.VDW>
0

>  <SCORE.INTRA.VDW.0>
0

>  <SCORE.INTRA.norm>
0

>  <SCORE.RESTR>
0

>  <SCORE.RESTR.CAVITY>
0

>  <SCORE.RESTR.norm>
0

>  <SCORE.SYSTEM>
0

>  <SCORE.SYSTEM.CONST>
0

>  <SCORE.SYSTEM.DIHEDRAL>
0

>  <SCORE.SYSTEM.SOLV>
0

>  <SCORE.SYSTEM.norm>
0

>  <SCORE.heavy>
10

>  <SCORE.norm>
-1.84469

>  <RMSD>
2.489

$$$$
ligand
 OpenBabel11021811423D
libRbt.so/2013.1/901 2013/11/27
 10 11  0  0  0  0  0  0  0  0999 V2000
   11.7435   11.0334    8.7597 N   0  0  0  0  0  0  0  0  0  0  0  0
   11.8905    9.8495    8.0652 C   0  0  0  0  0  0  0  0  0  0  0  0
   11.7224    9.7772    6.7390 N   0  0  0  0  0  0  0  0  0  0  0  0
   11.3959   10.9728    6.1722 C   0  0  0  0  0  0  0  0  0  0  0  0
   11.2320   12.1928    6.8105 C   0  0  0  0  0  0  0  0  0  0  0  0
   11.4113   12.2773    8.2180 C   0  0  0  0  0  0  0  0  0  0  0  0
   11.3179   13.2427    8.9762 O   0  0  0  0  0  0  0  0  0  0  0  0
   10.9044   13.1360    5.8663 N   0  0  0  0  0  0  0  0  0  0  0  0
   10.8724   12.4923    4.6759 C   0  0  0  0  0  0  0  0  0  0  0  0
   11.1693   11.1581    4.8298 N   0  0  0  0  0  0  0  0  0  0  0  0
  1  2  1  0  0  0  0
  1  6  1  0  0  0  0
  2  3  2  0  0  0  0
  3  4  1  0  0  0  0
  4  5  2  0  0  0  0
  4 10  1  0  0  0  0
  5  6  1  0  0  0  0
  5  8  1  0  0  0  0
  6  7  2  0  0  0  0
  8  9  1  0  0  0  0
  9 10  2  0  0  0  0
M  END
>  <CHROM.1>
11.36564371,11.64204972,6.95172892,-0.92320223,1.32632153,-2.16469456

>  <Name>
ligand

>  <RI>
0

>  <Rbt.Current_Directory>
/home/itssahil/PROJECTS/Mol_Feturizer/New_Systems/rnas/2EEU

>  <Rbt.Executable>
rbdock ($Id: //depot/dev/client3/rdock/2013.1/src/exe/rbdock.cxx#4 $)

>  <Rbt.Library>
libRbt.so (2013.1, Build901 2013/11/27)

>  <Rbt.Parameter_File>
/export/apps/rDock/src/rDock_2013.1_src/data/scripts/dock_solv.prm

>  <Rbt.Receptor>
prm/pocket_docking_8.prm

>  <SCORE>
-18.3851

>  <SCORE.INTER>
-18.3851

>  <SCORE.INTER.CONST>
1

>  <SCORE.INTER.POLAR>
0

>  <SCORE.INTER.ROT>
0

>  <SCORE.INTER.SOLV>
3.63683

>  <SCORE.INTER.VDW>
-17.069

>  <SCORE.INTER.norm>
-1.83851

>  <SCORE.INTRA>
0

>  <SCORE.INTRA.DIHEDRAL>
0

>  <SCORE.INTRA.DIHEDRAL.0>
0

>  <SCORE.INTRA.POLAR>
0

>  <SCORE.INTRA.POLAR.0>
0

>  <SCORE.INTRA.REPUL>
0

>  <SCORE.INTRA.REPUL.0>
0

>  <SCORE.INTRA.SOLV>
0

>  <SCORE.INTRA.SOLV.lig_0>
-4.28148

>  <SCORE.INTRA.VDW>
0

>  <SCORE.INTRA.VDW.0>
0

>  <SCORE.INTRA.norm>
0

>  <SCORE.RESTR>
0

>  <SCORE.RESTR.CAVITY>
0

>  <SCORE.RESTR.norm>
0

>  <SCORE.SYSTEM>
0

>  <SCORE.SYSTEM.CONST>
0

>  <SCORE.SYSTEM.DIHEDRAL>
0

>  <SCORE.SYSTEM.SOLV>
0

>  <SCORE.SYSTEM.norm>
0

>  <SCORE.heavy>
10

>  <SCORE.norm>
-1.83851

>  <RMSD>
2.489

$$$$
ligand
 OpenBabel11021811423D
libRbt.so/2013.1/901 2013/11/27
 10 11  0  0  0  0  0  0  0  0999 V2000
   11.7461   11.0279    8.7577 N   0  0  0  0  0  0  0  0  0  0  0  0
   11.9090    9.8501    8.0563 C   0  0  0  0  0  0  0  0  0  0  0  0
   11.7485    9.7848    6.7288 N   0  0  0  0  0  0  0  0  0  0  0  0
   11.4126   10.9807    6.1680 C   0  0  0  0  0  0  0  0  0  0  0  0
   11.2328   12.1947    6.8134 C   0  0  0  0  0  0  0  0  0  0  0  0
   11.4039   12.2717    8.2224 C   0  0  0  0  0  0  0  0  0  0  0  0
   11.2965   13.2311    8.9864 O   0  0  0  0  0  0  0  0  0  0  0  0
   10.9003   13.1407    5.8738 N   0  0  0  0  0  0  0  0  0  0  0  0
   10.8811   12.5045    4.6790 C   0  0  0  0  0  0  0  0  0  0  0  0
   11.1910   11.1725    4.8257 N   0  0  0  0  0  0  0  0  0  0  0  0
  1  2  1  0  0  0  0
  1  6  1  0  0  0  0
  2  3  2  0  0  0  0
  3  4  1  0  0  0  0
  4  5  2  0  0  0  0
  4 10  1  0  0  0  0
  5  6  1  0  0  0  0
  5  8  1  0  0  0  0
  6  7  2  0  0  0  0
  8  9  1  0  0  0  0
  9 10  2  0  0  0  0
M  END
>  <CHROM.1>
11.37136921,11.64444313,6.95178955,-0.96398952,1.32043649,-2.11857992

>  <Name>
ligand

>  <RI>
0

>  <Rbt.Current_Directory>
/home/itssahil/PROJECTS/Mol_Feturizer/New_Systems/rnas/2EEU

>  <Rbt.Executable>
rbdock ($Id: //depot/dev/client3/rdock/2013.1/src/exe/rbdock.cxx#4 $)

>  <Rbt.Library>
libRbt.so (2013.1, Build901 2013/11/27)

>  <Rbt.Parameter_File>
/export/apps/rDock/src/rDock_2013.1_src/data/scripts/dock_solv.prm

>  <Rbt.Receptor>
prm/pocket_docking_8.prm

>  <SCORE>
-18.3603

>  <SCORE.INTER>
-18.3603

>  <SCORE.INTER.CONST>
1

>  <SCORE.INTER.POLAR>
0

>  <SCORE.INTER.ROT>
0

>  <SCORE.INTER.SOLV>
3.62835

>  <SCORE.INTER.VDW>
-17.0497

>  <SCORE.INTER.norm>
-1.83603

>  <SCORE.INTRA>
0

>  <SCORE.INTRA.DIHEDRAL>
0

>  <SCORE.INTRA.DIHEDRAL.0>
0

>  <SCORE.INTRA.POLAR>
0

>  <SCORE.INTRA.POLAR.0>
0

>  <SCORE.INTRA.REPUL>
0

>  <SCORE.INTRA.REPUL.0>
0

>  <SCORE.INTRA.SOLV>
0

>  <SCORE.INTRA.SOLV.lig_0>
-4.28148

>  <SCORE.INTRA.VDW>
0

>  <SCORE.INTRA.VDW.0>
0

>  <SCORE.INTRA.norm>
0

>  <SCORE.RESTR>
0

>  <SCORE.RESTR.CAVITY>
0

>  <SCORE.RESTR.norm>
0

>  <SCORE.SYSTEM>
0

>  <SCORE.SYSTEM.CONST>
0

>  <SCORE.SYSTEM.DIHEDRAL>
0

>  <SCORE.SYSTEM.SOLV>
0

>  <SCORE.SYSTEM.norm>
0

>  <SCORE.heavy>
10

>  <SCORE.norm>
-1.83603

>  <RMSD>
2.489

$$$$
ligand
 OpenBabel11021811423D
libRbt.so/2013.1/901 2013/11/27
 10 11  0  0  0  0  0  0  0  0999 V2000
   11.7145   11.0376    8.7833 N   0  0  0  0  0  0  0  0  0  0  0  0
   11.9008    9.8552    8.0957 C   0  0  0  0  0  0  0  0  0  0  0  0
   11.7608    9.7755    6.7667 N   0  0  0  0  0  0  0  0  0  0  0  0
   11.4201   10.9621    6.1895 C   0  0  0  0  0  0  0  0  0  0  0  0
   11.2172   12.1802    6.8205 C   0  0  0  0  0  0  0  0  0  0  0  0
   11.3665   12.2725    8.2310 C   0  0  0  0  0  0  0  0  0  0  0  0
   11.2372   13.2378    8.9840 O   0  0  0  0  0  0  0  0  0  0  0  0
   10.8883   13.1134    5.8669 N   0  0  0  0  0  0  0  0  0  0  0  0
   10.8940   12.4657    4.6782 C   0  0  0  0  0  0  0  0  0  0  0  0
   11.2164   11.1388    4.8423 N   0  0  0  0  0  0  0  0  0  0  0  0
  1  2  1  0  0  0  0
  1  6  1  0  0  0  0
  2  3  2  0  0  0  0
  3  4  1  0  0  0  0
  4  5  2  0  0  0  0
  4 10  1  0  0  0  0
  5  6  1  0  0  0  0
  5  8  1  0  0  0  0
  6  7  2  0  0  0  0
  8  9  1  0  0  0  0
  9 10  2  0  0  0  0
M  END
>  <CHROM.1>
11.35986383,11.63281814,6.96615964,-1.03784859,1.31808146,-2.05661784

>  <Name>
ligand

>  <RI>
0

>  <Rbt.Current_Directory>
/home/itssahil/PROJECTS/Mol_Feturizer/New_Systems/rnas/2EEU

>  <Rbt.Executable>
rbdock ($Id: //depot/dev/client3/rdock/2013.1/src/exe/rbdock.cxx#4 $)

>  <Rbt.Library>
libRbt.so (2013.1, Build901 2013/11/27)

>  <Rbt.Parameter_File>
/export/apps/rDock/src/rDock_2013.1_src/data/scripts/dock_solv.prm

>  <Rbt.Receptor>
prm/blind_docking_100.prm

>  <SCORE>
-18.3691

>  <SCORE.INTER>
-18.3691

>  <SCORE.INTER.CONST>
1

>  <SCORE.INTER.POLAR>
0

>  <SCORE.INTER.ROT>
0

>  <SCORE.INTER.SOLV>
3.66844

>  <SCORE.INTER.VDW>
-17.0689

>  <SCORE.INTER.norm>
-1.83691

>  <SCORE.INTRA>
0

>  <SCORE.INTRA.DIHEDRAL>
0

>  <SCORE.INTRA.DIHEDRAL.0>
0

>  <SCORE.INTRA.POLAR>
0

>  <SCORE.INTRA.POLAR.0>
0

>  <SCORE.INTRA.REPUL>
0

>  <SCORE.INTRA.REPUL.0>
0

>  <SCORE.INTRA.SOLV>
0

>  <SCORE.INTRA.SOLV.lig_0>
-4.28148

>  <SCORE.INTRA.VDW>
0

>  <SCORE.INTRA.VDW.0>
0

>  <SCORE.INTRA.norm>
0

>  <SCORE.RESTR>
0

>  <SCORE.RESTR.CAVITY>
0

>  <SCORE.RESTR.norm>
0

>  <SCORE.SYSTEM>
0

>  <SCORE.SYSTEM.CONST>
0

>  <SCORE.SYSTEM.DIHEDRAL>
0

>  <SCORE.SYSTEM.SOLV>
0

>  <SCORE.SYSTEM.norm>
0

>  <SCORE.heavy>
10

>  <SCORE.norm>
-1.83691

>  <RMSD>
2.490

$$$$
ligand
 OpenBabel11021811423D
libRbt.so/2013.1/901 2013/11/27
 10 11  0  0  0  0  0  0  0  0999 V2000
   11.7264   11.0420    8.7786 N   0  0  0  0  0  0  0  0  0  0  0  0
   11.9013    9.8571    8.0923 C   0  0  0  0  0  0  0  0  0  0  0  0
   11.7550    9.7761    6.7641 N   0  0  0  0  0  0  0  0  0  0  0  0
   11.4203   10.9642    6.1863 C   0  0  0  0  0  0  0  0  0  0  0  0
   11.2288   12.1847    6.8160 C   0  0  0  0  0  0  0  0  0  0  0  0
   11.3848   12.2784    8.2257 C   0  0  0  0  0  0  0  0  0  0  0  0
   11.2657   13.2459    8.9776 O   0  0  0  0  0  0  0  0  0  0  0  0
   10.9025   13.1186    5.8622 N   0  0  0  0  0  0  0  0  0  0  0  0
   10.8984   12.4689    4.6746 C   0  0  0  0  0  0  0  0  0  0  0  0
   11.2120   11.1399    4.8396 N   0  0  0  0  0  0  0  0  0  0  0  0
  1  2  1  0  0  0  0
  1  6  1  0  0  0  0
  2  3  2  0  0  0  0
  3  4  1  0  0  0  0
  4  5  2  0  0  0  0
  4 10  1  0  0  0  0
  5  6  1  0  0  0  0
  5  8  1  0  0  0  0
  6  7  2  0  0  0  0
  8  9  1  0  0  0  0
  9 10  2  0  0  0  0
M  END
>  <CHROM.1>
11.36816874,11.63661132,6.96198760,-1.00881085,1.32228052,-2.08648706

>  <Name>
ligand

>  <RI>
0

>  <Rbt.Current_Directory>
/home/itssahil/PROJECTS/Mol_Feturizer/New_Systems/rnas/2EEU

>  <Rbt.Executable>
rbdock ($Id: //depot/dev/client3/rdock/2013.1/src/exe/rbdock.cxx#4 $)

>  <Rbt.Library>
libRbt.so (2013.1, Build901 2013/11/27)

>  <Rbt.Parameter_File>
/export/apps/rDock/src/rDock_2013.1_src/data/scripts/dock_solv.prm

>  <Rbt.Receptor>
prm/blind_docking_100.prm

>  <SCORE>
-18.3729

>  <SCORE.INTER>
-18.3729

>  <SCORE.INTER.CONST>
1

>  <SCORE.INTER.POLAR>
0

>  <SCORE.INTER.ROT>
0

>  <SCORE.INTER.SOLV>
3.66455

>  <SCORE.INTER.VDW>
-17.0701

>  <SCORE.INTER.norm>
-1.83729

>  <SCORE.INTRA>
0

>  <SCORE.INTRA.DIHEDRAL>
0

>  <SCORE.INTRA.DIHEDRAL.0>
0

>  <SCORE.INTRA.POLAR>
0

>  <SCORE.INTRA.POLAR.0>
0

>  <SCORE.INTRA.REPUL>
0

>  <SCORE.INTRA.REPUL.0>
0

>  <SCORE.INTRA.SOLV>
0

>  <SCORE.INTRA.SOLV.lig_0>
-4.28148

>  <SCORE.INTRA.VDW>
0

>  <SCORE.INTRA.VDW.0>
0

>  <SCORE.INTRA.norm>
0

>  <SCORE.RESTR>
0

>  <SCORE.RESTR.CAVITY>
0

>  <SCORE.RESTR.norm>
0

>  <SCORE.SYSTEM>
0

>  <SCORE.SYSTEM.CONST>
0

>  <SCORE.SYSTEM.DIHEDRAL>
0

>  <SCORE.SYSTEM.SOLV>
0

>  <SCORE.SYSTEM.norm>
0

>  <SCORE.heavy>
10

>  <SCORE.norm>
-1.83729

>  <RMSD>
2.490

$$$$
ligand
 OpenBabel11021811423D
libRbt.so/2013.1/901 2013/11/27
 10 11  0  0  0  0  0  0  0  0999 V2000
   11.6832   11.0128    8.8035 N   0  0  0  0  0  0  0  0  0  0  0  0
   11.8824    9.8355    8.1107 C   0  0  0  0  0  0  0  0  0  0  0  0
   11.7529    9.7624    6.7802 N   0  0  0  0  0  0  0  0  0  0  0  0
   11.4088   10.9501    6.2072 C   0  0  0  0  0  0  0  0  0  0  0  0
   11.1932   12.1632    6.8435 C   0  0  0  0  0  0  0  0  0  0  0  0
   11.3314   12.2485    8.2556 C   0  0  0  0  0  0  0  0  0  0  0  0
   11.1901   13.2086    9.0130 O   0  0  0  0  0  0  0  0  0  0  0  0
   10.8654   13.0997    5.8927 N   0  0  0  0  0  0  0  0  0  0  0  0
   10.8841   12.4589    4.7005 C   0  0  0  0  0  0  0  0  0  0  0  0
   11.2139   11.1331    4.8595 N   0  0  0  0  0  0  0  0  0  0  0  0
  1  2  1  0  0  0  0
  1  6  1  0  0  0  0
  2  3  2  0  0  0  0
  3  4  1  0  0  0  0
  4  5  2  0  0  0  0
  4 10  1  0  0  0  0
  5  6  1  0  0  0  0
  5  8  1  0  0  0  0
  6  7  2  0  0  0  0
  8  9  1  0  0  0  0
  9 10  2  0  0  0  0
M  END
>  <CHROM.1>
11.33831208,11.61597495,6.98713213,-1.07610411,1.31563101,-2.01392886

>  <Name>
ligand

>  <RI>
0

>  <Rbt.Current_Directory>
/home/itssahil/PROJECTS/Mol_Feturizer/New_Systems/rnas/2EEU

>  <Rbt.Executable>
rbdock ($Id: //depot/dev/client3/rdock/2013.1/src/exe/rbdock.cxx#4 $)

>  <Rbt.Library>
libRbt.so (2013.1, Build901 2013/11/27)

>  <Rbt.Parameter_File>
/export/apps/rDock/src/rDock_2013.1_src/data/scripts/dock_solv.prm

>  <Rbt.Receptor>
prm/blind_docking_100.prm

>  <SCORE>
-18.367

>  <SCORE.INTER>
-18.367

>  <SCORE.INTER.CONST>
1

>  <SCORE.INTER.POLAR>
0

>  <SCORE.INTER.ROT>
0

>  <SCORE.INTER.SOLV>
3.68528

>  <SCORE.INTER.VDW>
-17.0731

>  <SCORE.INTER.norm>
-1.8367

>  <SCORE.INTRA>
0

>  <SCORE.INTRA.DIHEDRAL>
0

>  <SCORE.INTRA.DIHEDRAL.0>
0

>  <SCORE.INTRA.POLAR>
0

>  <SCORE.INTRA.POLAR.0>
0

>  <SCORE.INTRA.REPUL>
0

>  <SCORE.INTRA.REPUL.0>
0

>  <SCORE.INTRA.SOLV>
0

>  <SCORE.INTRA.SOLV.lig_0>
-4.28148

>  <SCORE.INTRA.VDW>
0

>  <SCORE.INTRA.VDW.0>
0

>  <SCORE.INTRA.norm>
0

>  <SCORE.RESTR>
0

>  <SCORE.RESTR.CAVITY>
0

>  <SCORE.RESTR.norm>
0

>  <SCORE.SYSTEM>
0

>  <SCORE.SYSTEM.CONST>
0

>  <SCORE.SYSTEM.DIHEDRAL>
0

>  <SCORE.SYSTEM.SOLV>
0

>  <SCORE.SYSTEM.norm>
0

>  <SCORE.heavy>
10

>  <SCORE.norm>
-1.8367

>  <RMSD>
2.490

$$$$
ligand
 OpenBabel11021811423D
libRbt.so/2013.1/901 2013/11/27
 10 11  0  0  0  0  0  0  0  0999 V2000
   11.7985   11.0605    8.7337 N   0  0  0  0  0  0  0  0  0  0  0  0
   11.9479    9.8749    8.0426 C   0  0  0  0  0  0  0  0  0  0  0  0
   11.7650    9.7953    6.7188 N   0  0  0  0  0  0  0  0  0  0  0  0
   11.4216   10.9855    6.1506 C   0  0  0  0  0  0  0  0  0  0  0  0
   11.2544   12.2069    6.7856 C   0  0  0  0  0  0  0  0  0  0  0  0
   11.4493   12.2990    8.1906 C   0  0  0  0  0  0  0  0  0  0  0  0
   11.3562   13.2668    8.9457 O   0  0  0  0  0  0  0  0  0  0  0  0
   10.9077   13.1430    5.8413 N   0  0  0  0  0  0  0  0  0  0  0  0
   10.8675   12.4938    4.6541 C   0  0  0  0  0  0  0  0  0  0  0  0
   11.1778   11.1630    4.8102 N   0  0  0  0  0  0  0  0  0  0  0  0
  1  2  1  0  0  0  0
  1  6  1  0  0  0  0
  2  3  2  0  0  0  0
  3  4  1  0  0  0  0
  4  5  2  0  0  0  0
  4 10  1  0  0  0  0
  5  6  1  0  0  0  0
  5  8  1  0  0  0  0
  6  7  2  0  0  0  0
  8  9  1  0  0  0  0
  9 10  2  0  0  0  0
M  END
>  <CHROM.1>
11.39449817,11.65788229,6.92764705,-0.90479297,1.31256242,-2.18684545

>  <Name>
ligand

>  <RI>
0

>  <Rbt.Current_Directory>
/home/itssahil/PROJECTS/Mol_Feturizer/New_Systems/rnas/2EEU

>  <Rbt.Executable>
rbdock ($Id: //depot/dev/client3/rdock/2013.1/src/exe/rbdock.cxx#4 $)

>  <Rbt.Library>
libRbt.so (2013.1, Build901 2013/11/27)

>  <Rbt.Parameter_File>
/export/apps/rDock/src/rDock_2013.1_src/data/scripts/dock_solv.prm

>  <Rbt.Receptor>
prm/blind_docking_80.prm

>  <SCORE>
-18.3609

>  <SCORE.INTER>
-18.3609

>  <SCORE.INTER.CONST>
1

>  <SCORE.INTER.POLAR>
0

>  <SCORE.INTER.ROT>
0

>  <SCORE.INTER.SOLV>
3.60014

>  <SCORE.INTER.VDW>
-17.0406

>  <SCORE.INTER.norm>
-1.83609

>  <SCORE.INTRA>
0

>  <SCORE.INTRA.DIHEDRAL>
0

>  <SCORE.INTRA.DIHEDRAL.0>
0

>  <SCORE.INTRA.POLAR>
0

>  <SCORE.INTRA.POLAR.0>
0

>  <SCORE.INTRA.REPUL>
0

>  <SCORE.INTRA.REPUL.0>
0

>  <SCORE.INTRA.SOLV>
0

>  <SCORE.INTRA.SOLV.lig_0>
-4.28148

>  <SCORE.INTRA.VDW>
0

>  <SCORE.INTRA.VDW.0>
0

>  <SCORE.INTRA.norm>
0

>  <SCORE.RESTR>
0

>  <SCORE.RESTR.CAVITY>
0

>  <SCORE.RESTR.norm>
0

>  <SCORE.SYSTEM>
0

>  <SCORE.SYSTEM.CONST>
0

>  <SCORE.SYSTEM.DIHEDRAL>
0

>  <SCORE.SYSTEM.SOLV>
0

>  <SCORE.SYSTEM.norm>
0

>  <SCORE.heavy>
10

>  <SCORE.norm>
-1.83609

>  <RMSD>
2.490

$$$$
ligand
 OpenBabel11021811423D
libRbt.so/2013.1/901 2013/11/27
 10 11  0  0  0  0  0  0  0  0999 V2000
   11.7507   11.0472    8.7515 N   0  0  0  0  0  0  0  0  0  0  0  0
   11.8927    9.8594    8.0626 C   0  0  0  0  0  0  0  0  0  0  0  0
   11.7246    9.7816    6.7367 N   0  0  0  0  0  0  0  0  0  0  0  0
   11.4036   10.9759    6.1641 C   0  0  0  0  0  0  0  0  0  0  0  0
   11.2449   12.1996    6.7966 C   0  0  0  0  0  0  0  0  0  0  0  0
   11.4242   12.2899    8.2038 C   0  0  0  0  0  0  0  0  0  0  0  0
   11.3348   13.2593    8.9574 O   0  0  0  0  0  0  0  0  0  0  0  0
   10.9216   13.1398    5.8480 N   0  0  0  0  0  0  0  0  0  0  0  0
   10.8871   12.4906    4.6606 C   0  0  0  0  0  0  0  0  0  0  0  0
   11.1781   11.1559    4.8208 N   0  0  0  0  0  0  0  0  0  0  0  0
  1  2  1  0  0  0  0
  1  6  1  0  0  0  0
  2  3  2  0  0  0  0
  3  4  1  0  0  0  0
  4  5  2  0  0  0  0
  4 10  1  0  0  0  0
  5  6  1  0  0  0  0
  5  8  1  0  0  0  0
  6  7  2  0  0  0  0
  8  9  1  0  0  0  0
  9 10  2  0  0  0  0
M  END
>  <CHROM.1>
11.37604228,11.64895038,6.94051250,-0.91373988,1.33009630,-2.17858147

>  <Name>
ligand

>  <RI>
0

>  <Rbt.Current_Directory>
/home/itssahil/PROJECTS/Mol_Feturizer/New_Systems/rnas/2EEU

>  <Rbt.Executable>
rbdock ($Id: //depot/dev/client3/rdock/2013.1/src/exe/rbdock.cxx#4 $)

>  <Rbt.Library>
libRbt.so (2013.1, Build901 2013/11/27)

>  <Rbt.Parameter_File>
/export/apps/rDock/src/rDock_2013.1_src/data/scripts/dock_solv.prm

>  <Rbt.Receptor>
prm/pocket_docking_3.prm

>  <SCORE>
-18.3854

>  <SCORE.INTER>
-18.3854

>  <SCORE.INTER.CONST>
1

>  <SCORE.INTER.POLAR>
0

>  <SCORE.INTER.ROT>
0

>  <SCORE.INTER.SOLV>
3.64393

>  <SCORE.INTER.VDW>
-17.0716

>  <SCORE.INTER.norm>
-1.83854

>  <SCORE.INTRA>
0

>  <SCORE.INTRA.DIHEDRAL>
0

>  <SCORE.INTRA.DIHEDRAL.0>
0

>  <SCORE.INTRA.POLAR>
0

>  <SCORE.INTRA.POLAR.0>
0

>  <SCORE.INTRA.REPUL>
0

>  <SCORE.INTRA.REPUL.0>
0

>  <SCORE.INTRA.SOLV>
0

>  <SCORE.INTRA.SOLV.lig_0>
-4.28148

>  <SCORE.INTRA.VDW>
0

>  <SCORE.INTRA.VDW.0>
0

>  <SCORE.INTRA.norm>
0

>  <SCORE.RESTR>
0

>  <SCORE.RESTR.CAVITY>
0

>  <SCORE.RESTR.norm>
0

>  <SCORE.SYSTEM>
0

>  <SCORE.SYSTEM.CONST>
0

>  <SCORE.SYSTEM.DIHEDRAL>
0

>  <SCORE.SYSTEM.SOLV>
0

>  <SCORE.SYSTEM.norm>
0

>  <SCORE.heavy>
10

>  <SCORE.norm>
-1.83854

>  <RMSD>
2.490

$$$$
ligand
 OpenBabel11021811423D
libRbt.so/2013.1/901 2013/11/27
 10 11  0  0  0  0  0  0  0  0999 V2000
   11.7304   11.0334    8.7770 N   0  0  0  0  0  0  0  0  0  0  0  0
   11.8975    9.8476    8.0902 C   0  0  0  0  0  0  0  0  0  0  0  0
   11.7467    9.7673    6.7624 N   0  0  0  0  0  0  0  0  0  0  0  0
   11.4160   10.9569    6.1856 C   0  0  0  0  0  0  0  0  0  0  0  0
   11.2323   12.1784    6.8158 C   0  0  0  0  0  0  0  0  0  0  0  0
   11.3931   12.2713    8.2251 C   0  0  0  0  0  0  0  0  0  0  0  0
   11.2809   13.2394    8.9773 O   0  0  0  0  0  0  0  0  0  0  0  0
   10.9076   13.1138    5.8630 N   0  0  0  0  0  0  0  0  0  0  0  0
   10.8967   12.4641    4.6755 C   0  0  0  0  0  0  0  0  0  0  0  0
   11.2044   11.1336    4.8396 N   0  0  0  0  0  0  0  0  0  0  0  0
  1  2  1  0  0  0  0
  1  6  1  0  0  0  0
  2  3  2  0  0  0  0
  3  4  1  0  0  0  0
  4  5  2  0  0  0  0
  4 10  1  0  0  0  0
  5  6  1  0  0  0  0
  5  8  1  0  0  0  0
  6  7  2  0  0  0  0
  8  9  1  0  0  0  0
  9 10  2  0  0  0  0
M  END
>  <CHROM.1>
11.36947868,11.62961327,6.96145104,-0.98806596,1.32490517,-2.10663862

>  <Name>
ligand

>  <RI>
0

>  <Rbt.Current_Directory>
/home/itssahil/PROJECTS/Mol_Feturizer/New_Systems/rnas/2EEU

>  <Rbt.Executable>
rbdock ($Id: //depot/dev/client3/rdock/2013.1/src/exe/rbdock.cxx#4 $)

>  <Rbt.Library>
libRbt.so (2013.1, Build901 2013/11/27)

>  <Rbt.Parameter_File>
/export/apps/rDock/src/rDock_2013.1_src/data/scripts/dock_solv.prm

>  <Rbt.Receptor>
prm/pocket_docking_4.prm

>  <SCORE>
-18.3695

>  <SCORE.INTER>
-18.3695

>  <SCORE.INTER.CONST>
1

>  <SCORE.INTER.POLAR>
0

>  <SCORE.INTER.ROT>
0

>  <SCORE.INTER.SOLV>
3.65887

>  <SCORE.INTER.VDW>
-17.066

>  <SCORE.INTER.norm>
-1.83695

>  <SCORE.INTRA>
0

>  <SCORE.INTRA.DIHEDRAL>
0

>  <SCORE.INTRA.DIHEDRAL.0>
0

>  <SCORE.INTRA.POLAR>
0

>  <SCORE.INTRA.POLAR.0>
0

>  <SCORE.INTRA.REPUL>
0

>  <SCORE.INTRA.REPUL.0>
0

>  <SCORE.INTRA.SOLV>
0

>  <SCORE.INTRA.SOLV.lig_0>
-4.28148

>  <SCORE.INTRA.VDW>
0

>  <SCORE.INTRA.VDW.0>
0

>  <SCORE.INTRA.norm>
0

>  <SCORE.RESTR>
0

>  <SCORE.RESTR.CAVITY>
0

>  <SCORE.RESTR.norm>
0

>  <SCORE.SYSTEM>
0

>  <SCORE.SYSTEM.CONST>
0

>  <SCORE.SYSTEM.DIHEDRAL>
0

>  <SCORE.SYSTEM.SOLV>
0

>  <SCORE.SYSTEM.norm>
0

>  <SCORE.heavy>
10

>  <SCORE.norm>
-1.83695

>  <RMSD>
2.490

$$$$
ligand
 OpenBabel11021811423D
libRbt.so/2013.1/901 2013/11/27
 10 11  0  0  0  0  0  0  0  0999 V2000
   11.7361   11.0352    8.7712 N   0  0  0  0  0  0  0  0  0  0  0  0
   11.8914    9.8470    8.0858 C   0  0  0  0  0  0  0  0  0  0  0  0
   11.7338    9.7654    6.7589 N   0  0  0  0  0  0  0  0  0  0  0  0
   11.4089   10.9564    6.1815 C   0  0  0  0  0  0  0  0  0  0  0  0
   11.2370   12.1802    6.8103 C   0  0  0  0  0  0  0  0  0  0  0  0
   11.4051   12.2745    8.2186 C   0  0  0  0  0  0  0  0  0  0  0  0
   11.3035   13.2447    8.9696 O   0  0  0  0  0  0  0  0  0  0  0  0
   10.9145   13.1163    5.8574 N   0  0  0  0  0  0  0  0  0  0  0  0
   10.8933   12.4645    4.6711 C   0  0  0  0  0  0  0  0  0  0  0  0
   11.1922   11.1322    4.8362 N   0  0  0  0  0  0  0  0  0  0  0  0
  1  2  1  0  0  0  0
  1  6  1  0  0  0  0
  2  3  2  0  0  0  0
  3  4  1  0  0  0  0
  4  5  2  0  0  0  0
  4 10  1  0  0  0  0
  5  6  1  0  0  0  0
  5  8  1  0  0  0  0
  6  7  2  0  0  0  0
  8  9  1  0  0  0  0
  9 10  2  0  0  0  0
M  END
>  <CHROM.1>
11.37089484,11.63074692,6.95630001,-0.95580353,1.32853728,-2.13974158

>  <Name>
ligand

>  <RI>
0

>  <Rbt.Current_Directory>
/home/itssahil/PROJECTS/Mol_Feturizer/New_Systems/rnas/2EEU

>  <Rbt.Executable>
rbdock ($Id: //depot/dev/client3/rdock/2013.1/src/exe/rbdock.cxx#4 $)

>  <Rbt.Library>
libRbt.so (2013.1, Build901 2013/11/27)

>  <Rbt.Parameter_File>
/export/apps/rDock/src/rDock_2013.1_src/data/scripts/dock_solv.prm

>  <Rbt.Receptor>
prm/pocket_docking_6.prm

>  <SCORE>
-18.364

>  <SCORE.INTER>
-18.364

>  <SCORE.INTER.CONST>
1

>  <SCORE.INTER.POLAR>
0

>  <SCORE.INTER.ROT>
0

>  <SCORE.INTER.SOLV>
3.65642

>  <SCORE.INTER.VDW>
-17.0615

>  <SCORE.INTER.norm>
-1.8364

>  <SCORE.INTRA>
0

>  <SCORE.INTRA.DIHEDRAL>
0

>  <SCORE.INTRA.DIHEDRAL.0>
0

>  <SCORE.INTRA.POLAR>
0

>  <SCORE.INTRA.POLAR.0>
0

>  <SCORE.INTRA.REPUL>
0

>  <SCORE.INTRA.REPUL.0>
0

>  <SCORE.INTRA.SOLV>
0

>  <SCORE.INTRA.SOLV.lig_0>
-4.28148

>  <SCORE.INTRA.VDW>
0

>  <SCORE.INTRA.VDW.0>
0

>  <SCORE.INTRA.norm>
0

>  <SCORE.RESTR>
0

>  <SCORE.RESTR.CAVITY>
0

>  <SCORE.RESTR.norm>
0

>  <SCORE.SYSTEM>
0

>  <SCORE.SYSTEM.CONST>
0

>  <SCORE.SYSTEM.DIHEDRAL>
0

>  <SCORE.SYSTEM.SOLV>
0

>  <SCORE.SYSTEM.norm>
0

>  <SCORE.heavy>
10

>  <SCORE.norm>
-1.8364

>  <RMSD>
2.490

$$$$
ligand
 OpenBabel11021811423D
libRbt.so/2013.1/901 2013/11/27
 10 11  0  0  0  0  0  0  0  0999 V2000
   11.7291   11.0444    8.7757 N   0  0  0  0  0  0  0  0  0  0  0  0
   11.8955    9.8580    8.0898 C   0  0  0  0  0  0  0  0  0  0  0  0
   11.7425    9.7763    6.7623 N   0  0  0  0  0  0  0  0  0  0  0  0
   11.4103   10.9652    6.1849 C   0  0  0  0  0  0  0  0  0  0  0  0
   11.2273   12.1873    6.8142 C   0  0  0  0  0  0  0  0  0  0  0  0
   11.3905   12.2817    8.2230 C   0  0  0  0  0  0  0  0  0  0  0  0
   11.2792   13.2505    8.9744 O   0  0  0  0  0  0  0  0  0  0  0  0
   10.9006   13.1216    5.8610 N   0  0  0  0  0  0  0  0  0  0  0  0
   10.8879   12.4707    4.6741 C   0  0  0  0  0  0  0  0  0  0  0  0
   11.1964   11.1405    4.8391 N   0  0  0  0  0  0  0  0  0  0  0  0
  1  2  1  0  0  0  0
  1  6  1  0  0  0  0
  2  3  2  0  0  0  0
  3  4  1  0  0  0  0
  4  5  2  0  0  0  0
  4 10  1  0  0  0  0
  5  6  1  0  0  0  0
  5  8  1  0  0  0  0
  6  7  2  0  0  0  0
  8  9  1  0  0  0  0
  9 10  2  0  0  0  0
M  END
>  <CHROM.1>
11.36488400,11.63868880,6.96011649,-0.98285469,1.32370859,-2.11270261

>  <Name>
ligand

>  <RI>
0

>  <Rbt.Current_Directory>
/home/itssahil/PROJECTS/Mol_Feturizer/New_Systems/rnas/2EEU

>  <Rbt.Executable>
rbdock ($Id: //depot/dev/client3/rdock/2013.1/src/exe/rbdock.cxx#4 $)

>  <Rbt.Library>
libRbt.so (2013.1, Build901 2013/11/27)

>  <Rbt.Parameter_File>
/export/apps/rDock/src/rDock_2013.1_src/data/scripts/dock_solv.prm

>  <Rbt.Receptor>
prm/pocket_docking_7.prm

>  <SCORE>
-18.3706

>  <SCORE.INTER>
-18.3706

>  <SCORE.INTER.CONST>
1

>  <SCORE.INTER.POLAR>
0

>  <SCORE.INTER.ROT>
0

>  <SCORE.INTER.SOLV>
3.66144

>  <SCORE.INTER.VDW>
-17.0676

>  <SCORE.INTER.norm>
-1.83706

>  <SCORE.INTRA>
0

>  <SCORE.INTRA.DIHEDRAL>
0

>  <SCORE.INTRA.DIHEDRAL.0>
0

>  <SCORE.INTRA.POLAR>
0

>  <SCORE.INTRA.POLAR.0>
0

>  <SCORE.INTRA.REPUL>
0

>  <SCORE.INTRA.REPUL.0>
0

>  <SCORE.INTRA.SOLV>
0

>  <SCORE.INTRA.SOLV.lig_0>
-4.28148

>  <SCORE.INTRA.VDW>
0

>  <SCORE.INTRA.VDW.0>
0

>  <SCORE.INTRA.norm>
0

>  <SCORE.RESTR>
0

>  <SCORE.RESTR.CAVITY>
0

>  <SCORE.RESTR.norm>
0

>  <SCORE.SYSTEM>
0

>  <SCORE.SYSTEM.CONST>
0

>  <SCORE.SYSTEM.DIHEDRAL>
0

>  <SCORE.SYSTEM.SOLV>
0

>  <SCORE.SYSTEM.norm>
0

>  <SCORE.heavy>
10

>  <SCORE.norm>
-1.83706

>  <RMSD>
2.490

$$$$
ligand
 OpenBabel11021811423D
libRbt.so/2013.1/901 2013/11/27
 10 11  0  0  0  0  0  0  0  0999 V2000
   11.7288   11.0390    8.7778 N   0  0  0  0  0  0  0  0  0  0  0  0
   11.9037    9.8550    8.0900 C   0  0  0  0  0  0  0  0  0  0  0  0
   11.7558    9.7754    6.7618 N   0  0  0  0  0  0  0  0  0  0  0  0
   11.4196   10.9639    6.1858 C   0  0  0  0  0  0  0  0  0  0  0  0
   11.2281   12.1836    6.8171 C   0  0  0  0  0  0  0  0  0  0  0  0
   11.3858   12.2757    8.2267 C   0  0  0  0  0  0  0  0  0  0  0  0
   11.2669   13.2423    8.9798 O   0  0  0  0  0  0  0  0  0  0  0  0
   10.9000   13.1183    5.8648 N   0  0  0  0  0  0  0  0  0  0  0  0
   10.8948   12.4699    4.6765 C   0  0  0  0  0  0  0  0  0  0  0  0
   11.2095   11.1410    4.8396 N   0  0  0  0  0  0  0  0  0  0  0  0
  1  2  1  0  0  0  0
  1  6  1  0  0  0  0
  2  3  2  0  0  0  0
  3  4  1  0  0  0  0
  4  5  2  0  0  0  0
  4 10  1  0  0  0  0
  5  6  1  0  0  0  0
  5  8  1  0  0  0  0
  6  7  2  0  0  0  0
  8  9  1  0  0  0  0
  9 10  2  0  0  0  0
M  END
>  <CHROM.1>
11.36797628,11.63536915,6.96232044,-1.00580694,1.32108945,-2.08826626

>  <Name>
ligand

>  <RI>
0

>  <Rbt.Current_Directory>
/home/itssahil/PROJECTS/Mol_Feturizer/New_Systems/rnas/2EEU

>  <Rbt.Executable>
rbdock ($Id: //depot/dev/client3/rdock/2013.1/src/exe/rbdock.cxx#4 $)

>  <Rbt.Library>
libRbt.so (2013.1, Build901 2013/11/27)

>  <Rbt.Parameter_File>
/export/apps/rDock/src/rDock_2013.1_src/data/scripts/dock_solv.prm

>  <Rbt.Receptor>
prm/pocket_docking_7.prm

>  <SCORE>
-18.3736

>  <SCORE.INTER>
-18.3736

>  <SCORE.INTER.CONST>
1

>  <SCORE.INTER.POLAR>
0

>  <SCORE.INTER.ROT>
0

>  <SCORE.INTER.SOLV>
3.65902

>  <SCORE.INTER.VDW>
-17.0687

>  <SCORE.INTER.norm>
-1.83736

>  <SCORE.INTRA>
0

>  <SCORE.INTRA.DIHEDRAL>
0

>  <SCORE.INTRA.DIHEDRAL.0>
0

>  <SCORE.INTRA.POLAR>
0

>  <SCORE.INTRA.POLAR.0>
0

>  <SCORE.INTRA.REPUL>
0

>  <SCORE.INTRA.REPUL.0>
0

>  <SCORE.INTRA.SOLV>
0

>  <SCORE.INTRA.SOLV.lig_0>
-4.28148

>  <SCORE.INTRA.VDW>
0

>  <SCORE.INTRA.VDW.0>
0

>  <SCORE.INTRA.norm>
0

>  <SCORE.RESTR>
0

>  <SCORE.RESTR.CAVITY>
0

>  <SCORE.RESTR.norm>
0

>  <SCORE.SYSTEM>
0

>  <SCORE.SYSTEM.CONST>
0

>  <SCORE.SYSTEM.DIHEDRAL>
0

>  <SCORE.SYSTEM.SOLV>
0

>  <SCORE.SYSTEM.norm>
0

>  <SCORE.heavy>
10

>  <SCORE.norm>
-1.83736

>  <RMSD>
2.490

$$$$
ligand
 OpenBabel11021811423D
libRbt.so/2013.1/901 2013/11/27
 10 11  0  0  0  0  0  0  0  0999 V2000
   11.7435   11.0284    8.7653 N   0  0  0  0  0  0  0  0  0  0  0  0
   11.8950    9.8428    8.0747 C   0  0  0  0  0  0  0  0  0  0  0  0
   11.7339    9.7668    6.7478 N   0  0  0  0  0  0  0  0  0  0  0  0
   11.4096   10.9607    6.1761 C   0  0  0  0  0  0  0  0  0  0  0  0
   11.2415   12.1823    6.8103 C   0  0  0  0  0  0  0  0  0  0  0  0
   11.4133   12.2706    8.2185 C   0  0  0  0  0  0  0  0  0  0  0  0
   11.3152   13.2379    8.9737 O   0  0  0  0  0  0  0  0  0  0  0  0
   10.9182   13.1227    5.8619 N   0  0  0  0  0  0  0  0  0  0  0  0
   10.8929   12.4759    4.6731 C   0  0  0  0  0  0  0  0  0  0  0  0
   11.1899   11.1423    4.8320 N   0  0  0  0  0  0  0  0  0  0  0  0
  1  2  1  0  0  0  0
  1  6  1  0  0  0  0
  2  3  2  0  0  0  0
  3  4  1  0  0  0  0
  4  5  2  0  0  0  0
  4 10  1  0  0  0  0
  5  6  1  0  0  0  0
  5  8  1  0  0  0  0
  6  7  2  0  0  0  0
  8  9  1  0  0  0  0
  9 10  2  0  0  0  0
M  END
>  <CHROM.1>
11.37474557,11.63199200,6.95370292,-0.94308681,1.32864270,-2.14803732

>  <Name>
ligand

>  <RI>
0

>  <Rbt.Current_Directory>
/home/itssahil/PROJECTS/Mol_Feturizer/New_Systems/rnas/2EEU

>  <Rbt.Executable>
rbdock ($Id: //depot/dev/client3/rdock/2013.1/src/exe/rbdock.cxx#4 $)

>  <Rbt.Library>
libRbt.so (2013.1, Build901 2013/11/27)

>  <Rbt.Parameter_File>
/export/apps/rDock/src/rDock_2013.1_src/data/scripts/dock_solv.prm

>  <Rbt.Receptor>
prm/pocket_docking_7.prm

>  <SCORE>
-18.3616

>  <SCORE.INTER>
-18.3616

>  <SCORE.INTER.CONST>
1

>  <SCORE.INTER.POLAR>
0

>  <SCORE.INTER.ROT>
0

>  <SCORE.INTER.SOLV>
3.64428

>  <SCORE.INTER.VDW>
-17.0558

>  <SCORE.INTER.norm>
-1.83616

>  <SCORE.INTRA>
0

>  <SCORE.INTRA.DIHEDRAL>
0

>  <SCORE.INTRA.DIHEDRAL.0>
0

>  <SCORE.INTRA.POLAR>
0

>  <SCORE.INTRA.POLAR.0>
0

>  <SCORE.INTRA.REPUL>
0

>  <SCORE.INTRA.REPUL.0>
0

>  <SCORE.INTRA.SOLV>
0

>  <SCORE.INTRA.SOLV.lig_0>
-4.28148

>  <SCORE.INTRA.VDW>
0

>  <SCORE.INTRA.VDW.0>
0

>  <SCORE.INTRA.norm>
0

>  <SCORE.RESTR>
0

>  <SCORE.RESTR.CAVITY>
0

>  <SCORE.RESTR.norm>
0

>  <SCORE.SYSTEM>
0

>  <SCORE.SYSTEM.CONST>
0

>  <SCORE.SYSTEM.DIHEDRAL>
0

>  <SCORE.SYSTEM.SOLV>
0

>  <SCORE.SYSTEM.norm>
0

>  <SCORE.heavy>
10

>  <SCORE.norm>
-1.83616

>  <RMSD>
2.490

$$$$
ligand
 OpenBabel11021811423D
libRbt.so/2013.1/901 2013/11/27
 10 11  0  0  0  0  0  0  0  0999 V2000
   11.7247   11.0303    8.7618 N   0  0  0  0  0  0  0  0  0  0  0  0
   11.8810    9.8483    8.0660 C   0  0  0  0  0  0  0  0  0  0  0  0
   11.7239    9.7783    6.7384 N   0  0  0  0  0  0  0  0  0  0  0  0
   11.3984   10.9741    6.1714 C   0  0  0  0  0  0  0  0  0  0  0  0
   11.2256   12.1923    6.8109 C   0  0  0  0  0  0  0  0  0  0  0  0
   11.3932   12.2742    8.2200 C   0  0  0  0  0  0  0  0  0  0  0  0
   11.2907   13.2377    8.9795 O   0  0  0  0  0  0  0  0  0  0  0  0
   10.9028   13.1365    5.8661 N   0  0  0  0  0  0  0  0  0  0  0  0
   10.8824   12.4952    4.6741 C   0  0  0  0  0  0  0  0  0  0  0  0
   11.1821   11.1617    4.8276 N   0  0  0  0  0  0  0  0  0  0  0  0
  1  2  1  0  0  0  0
  1  6  1  0  0  0  0
  2  3  2  0  0  0  0
  3  4  1  0  0  0  0
  4  5  2  0  0  0  0
  4 10  1  0  0  0  0
  5  6  1  0  0  0  0
  5  8  1  0  0  0  0
  6  7  2  0  0  0  0
  8  9  1  0  0  0  0
  9 10  2  0  0  0  0
M  END
>  <CHROM.1>
11.35974085,11.64160316,6.95207767,-0.95833564,1.32820872,-2.12846452

>  <Name>
ligand

>  <RI>
0

>  <Rbt.Current_Directory>
/home/itssahil/PROJECTS/Mol_Feturizer/New_Systems/rnas/2EEU

>  <Rbt.Executable>
rbdock ($Id: //depot/dev/client3/rdock/2013.1/src/exe/rbdock.cxx#4 $)

>  <Rbt.Library>
libRbt.so (2013.1, Build901 2013/11/27)

>  <Rbt.Parameter_File>
/export/apps/rDock/src/rDock_2013.1_src/data/scripts/dock_solv.prm

>  <Rbt.Receptor>
prm/pocket_docking_8.prm

>  <SCORE>
-18.3829

>  <SCORE.INTER>
-18.3829

>  <SCORE.INTER.CONST>
1

>  <SCORE.INTER.POLAR>
0

>  <SCORE.INTER.ROT>
0

>  <SCORE.INTER.SOLV>
3.65238

>  <SCORE.INTER.VDW>
-17.0727

>  <SCORE.INTER.norm>
-1.83829

>  <SCORE.INTRA>
0

>  <SCORE.INTRA.DIHEDRAL>
0

>  <SCORE.INTRA.DIHEDRAL.0>
0

>  <SCORE.INTRA.POLAR>
0

>  <SCORE.INTRA.POLAR.0>
0

>  <SCORE.INTRA.REPUL>
0

>  <SCORE.INTRA.REPUL.0>
0

>  <SCORE.INTRA.SOLV>
0

>  <SCORE.INTRA.SOLV.lig_0>
-4.28148

>  <SCORE.INTRA.VDW>
0

>  <SCORE.INTRA.VDW.0>
0

>  <SCORE.INTRA.norm>
0

>  <SCORE.RESTR>
0

>  <SCORE.RESTR.CAVITY>
0

>  <SCORE.RESTR.norm>
0

>  <SCORE.SYSTEM>
0

>  <SCORE.SYSTEM.CONST>
0

>  <SCORE.SYSTEM.DIHEDRAL>
0

>  <SCORE.SYSTEM.SOLV>
0

>  <SCORE.SYSTEM.norm>
0

>  <SCORE.heavy>
10

>  <SCORE.norm>
-1.83829

>  <RMSD>
2.490

$$$$
ligand
 OpenBabel11021811423D
libRbt.so/2013.1/901 2013/11/27
 10 11  0  0  0  0  0  0  0  0999 V2000
   11.8047   11.1081    8.7140 N   0  0  0  0  0  0  0  0  0  0  0  0
   11.9055    9.9076    8.0399 C   0  0  0  0  0  0  0  0  0  0  0  0
   11.6989    9.8131    6.7206 N   0  0  0  0  0  0  0  0  0  0  0  0
   11.3840   11.0046    6.1387 C   0  0  0  0  0  0  0  0  0  0  0  0
   11.2656   12.2405    6.7564 C   0  0  0  0  0  0  0  0  0  0  0  0
   11.4859   12.3484    8.1565 C   0  0  0  0  0  0  0  0  0  0  0  0
   11.4356   13.3304    8.8972 O   0  0  0  0  0  0  0  0  0  0  0  0
   10.9333   13.1722    5.8026 N   0  0  0  0  0  0  0  0  0  0  0  0
   10.8535   12.5061    4.6268 C   0  0  0  0  0  0  0  0  0  0  0  0
   11.1242   11.1687    4.7995 N   0  0  0  0  0  0  0  0  0  0  0  0
  1  2  1  0  0  0  0
  1  6  1  0  0  0  0
  2  3  2  0  0  0  0
  3  4  1  0  0  0  0
  4  5  2  0  0  0  0
  4 10  1  0  0  0  0
  5  6  1  0  0  0  0
  5  8  1  0  0  0  0
  6  7  2  0  0  0  0
  8  9  1  0  0  0  0
  9 10  2  0  0  0  0
M  END
>  <CHROM.1>
11.39059538,11.68961654,6.90507278,-0.77441950,1.32695415,-2.32908666

>  <Name>
ligand

>  <RI>
0

>  <Rbt.Current_Directory>
/home/itssahil/PROJECTS/Mol_Feturizer/New_Systems/rnas/2EEU

>  <Rbt.Executable>
rbdock ($Id: //depot/dev/client3/rdock/2013.1/src/exe/rbdock.cxx#4 $)

>  <Rbt.Library>
libRbt.so (2013.1, Build901 2013/11/27)

>  <Rbt.Parameter_File>
/export/apps/rDock/src/rDock_2013.1_src/data/scripts/dock_solv.prm

>  <Rbt.Receptor>
prm/blind_docking_100.prm

>  <SCORE>
-18.4088

>  <SCORE.INTER>
-18.4088

>  <SCORE.INTER.CONST>
1

>  <SCORE.INTER.POLAR>
0

>  <SCORE.INTER.ROT>
0

>  <SCORE.INTER.SOLV>
3.66936

>  <SCORE.INTER.VDW>
-17.0957

>  <SCORE.INTER.norm>
-1.84088

>  <SCORE.INTRA>
0

>  <SCORE.INTRA.DIHEDRAL>
0

>  <SCORE.INTRA.DIHEDRAL.0>
0

>  <SCORE.INTRA.POLAR>
0

>  <SCORE.INTRA.POLAR.0>
0

>  <SCORE.INTRA.REPUL>
0

>  <SCORE.INTRA.REPUL.0>
0

>  <SCORE.INTRA.SOLV>
0

>  <SCORE.INTRA.SOLV.lig_0>
-4.28148

>  <SCORE.INTRA.VDW>
0

>  <SCORE.INTRA.VDW.0>
0

>  <SCORE.INTRA.norm>
0

>  <SCORE.RESTR>
0

>  <SCORE.RESTR.CAVITY>
0

>  <SCORE.RESTR.norm>
0

>  <SCORE.SYSTEM>
0

>  <SCORE.SYSTEM.CONST>
0

>  <SCORE.SYSTEM.DIHEDRAL>
0

>  <SCORE.SYSTEM.SOLV>
0

>  <SCORE.SYSTEM.norm>
0

>  <SCORE.heavy>
10

>  <SCORE.norm>
-1.84088

>  <RMSD>
2.491

$$$$
ligand
 OpenBabel11021811423D
libRbt.so/2013.1/901 2013/11/27
 10 11  0  0  0  0  0  0  0  0999 V2000
   11.7441   11.0289    8.7529 N   0  0  0  0  0  0  0  0  0  0  0  0
   11.9125    9.8512    8.0528 C   0  0  0  0  0  0  0  0  0  0  0  0
   11.7534    9.7838    6.7253 N   0  0  0  0  0  0  0  0  0  0  0  0
   11.4131   10.9777    6.1630 C   0  0  0  0  0  0  0  0  0  0  0  0
   11.2276   12.1917    6.8070 C   0  0  0  0  0  0  0  0  0  0  0  0
   11.3972   12.2708    8.2161 C   0  0  0  0  0  0  0  0  0  0  0  0
   11.2852   13.2305    8.9790 O   0  0  0  0  0  0  0  0  0  0  0  0
   10.8921   13.1353    5.8661 N   0  0  0  0  0  0  0  0  0  0  0  0
   10.8765   12.4979    4.6720 C   0  0  0  0  0  0  0  0  0  0  0  0
   11.1918   11.1673    4.8203 N   0  0  0  0  0  0  0  0  0  0  0  0
  1  2  1  0  0  0  0
  1  6  1  0  0  0  0
  2  3  2  0  0  0  0
  3  4  1  0  0  0  0
  4  5  2  0  0  0  0
  4 10  1  0  0  0  0
  5  6  1  0  0  0  0
  5  8  1  0  0  0  0
  6  7  2  0  0  0  0
  8  9  1  0  0  0  0
  9 10  2  0  0  0  0
M  END
>  <CHROM.1>
11.36840296,11.64210774,6.94603466,-0.97550569,1.31733599,-2.10844143

>  <Name>
ligand

>  <RI>
0

>  <Rbt.Current_Directory>
/home/itssahil/PROJECTS/Mol_Feturizer/New_Systems/rnas/2EEU

>  <Rbt.Executable>
rbdock ($Id: //depot/dev/client3/rdock/2013.1/src/exe/rbdock.cxx#4 $)

>  <Rbt.Library>
libRbt.so (2013.1, Build901 2013/11/27)

>  <Rbt.Parameter_File>
/export/apps/rDock/src/rDock_2013.1_src/data/scripts/dock_solv.prm

>  <Rbt.Receptor>
prm/blind_docking_40.prm

>  <SCORE>
-18.3603

>  <SCORE.INTER>
-18.3603

>  <SCORE.INTER.CONST>
1

>  <SCORE.INTER.POLAR>
0

>  <SCORE.INTER.ROT>
0

>  <SCORE.INTER.SOLV>
3.62703

>  <SCORE.INTER.VDW>
-17.0492

>  <SCORE.INTER.norm>
-1.83603

>  <SCORE.INTRA>
0

>  <SCORE.INTRA.DIHEDRAL>
0

>  <SCORE.INTRA.DIHEDRAL.0>
0

>  <SCORE.INTRA.POLAR>
0

>  <SCORE.INTRA.POLAR.0>
0

>  <SCORE.INTRA.REPUL>
0

>  <SCORE.INTRA.REPUL.0>
0

>  <SCORE.INTRA.SOLV>
0

>  <SCORE.INTRA.SOLV.lig_0>
-4.28148

>  <SCORE.INTRA.VDW>
0

>  <SCORE.INTRA.VDW.0>
0

>  <SCORE.INTRA.norm>
0

>  <SCORE.RESTR>
0

>  <SCORE.RESTR.CAVITY>
0

>  <SCORE.RESTR.norm>
0

>  <SCORE.SYSTEM>
0

>  <SCORE.SYSTEM.CONST>
0

>  <SCORE.SYSTEM.DIHEDRAL>
0

>  <SCORE.SYSTEM.SOLV>
0

>  <SCORE.SYSTEM.norm>
0

>  <SCORE.heavy>
10

>  <SCORE.norm>
-1.83603

>  <RMSD>
2.491

$$$$
ligand
 OpenBabel11021811423D
libRbt.so/2013.1/901 2013/11/27
 10 11  0  0  0  0  0  0  0  0999 V2000
   11.7346   11.0358    8.7725 N   0  0  0  0  0  0  0  0  0  0  0  0
   11.8934    9.8460    8.0907 C   0  0  0  0  0  0  0  0  0  0  0  0
   11.7382    9.7603    6.7638 N   0  0  0  0  0  0  0  0  0  0  0  0
   11.4118   10.9490    6.1825 C   0  0  0  0  0  0  0  0  0  0  0  0
   11.2365   12.1743    6.8075 C   0  0  0  0  0  0  0  0  0  0  0  0
   11.4021   12.2729    8.2159 C   0  0  0  0  0  0  0  0  0  0  0  0
   11.2972   13.2450    8.9639 O   0  0  0  0  0  0  0  0  0  0  0  0
   10.9136   13.1070    5.8514 N   0  0  0  0  0  0  0  0  0  0  0  0
   10.8957   12.4519    4.6669 C   0  0  0  0  0  0  0  0  0  0  0  0
   11.1971   11.1206    4.8363 N   0  0  0  0  0  0  0  0  0  0  0  0
  1  2  1  0  0  0  0
  1  6  1  0  0  0  0
  2  3  2  0  0  0  0
  3  4  1  0  0  0  0
  4  5  2  0  0  0  0
  4 10  1  0  0  0  0
  5  6  1  0  0  0  0
  5  8  1  0  0  0  0
  6  7  2  0  0  0  0
  8  9  1  0  0  0  0
  9 10  2  0  0  0  0
M  END
>  <CHROM.1>
11.37120725,11.62548188,6.95529694,-0.96608916,1.32774503,-2.13258092

>  <Name>
ligand

>  <RI>
0

>  <Rbt.Current_Directory>
/home/itssahil/PROJECTS/Mol_Feturizer/New_Systems/rnas/2EEU

>  <Rbt.Executable>
rbdock ($Id: //depot/dev/client3/rdock/2013.1/src/exe/rbdock.cxx#4 $)

>  <Rbt.Library>
libRbt.so (2013.1, Build901 2013/11/27)

>  <Rbt.Parameter_File>
/export/apps/rDock/src/rDock_2013.1_src/data/scripts/dock_solv.prm

>  <Rbt.Receptor>
prm/blind_docking_40.prm

>  <SCORE>
-18.3646

>  <SCORE.INTER>
-18.3646

>  <SCORE.INTER.CONST>
1

>  <SCORE.INTER.POLAR>
0

>  <SCORE.INTER.ROT>
0

>  <SCORE.INTER.SOLV>
3.66048

>  <SCORE.INTER.VDW>
-17.0632

>  <SCORE.INTER.norm>
-1.83646

>  <SCORE.INTRA>
0

>  <SCORE.INTRA.DIHEDRAL>
0

>  <SCORE.INTRA.DIHEDRAL.0>
0

>  <SCORE.INTRA.POLAR>
0

>  <SCORE.INTRA.POLAR.0>
0

>  <SCORE.INTRA.REPUL>
0

>  <SCORE.INTRA.REPUL.0>
0

>  <SCORE.INTRA.SOLV>
0

>  <SCORE.INTRA.SOLV.lig_0>
-4.28148

>  <SCORE.INTRA.VDW>
0

>  <SCORE.INTRA.VDW.0>
0

>  <SCORE.INTRA.norm>
0

>  <SCORE.RESTR>
0

>  <SCORE.RESTR.CAVITY>
0

>  <SCORE.RESTR.norm>
0

>  <SCORE.SYSTEM>
0

>  <SCORE.SYSTEM.CONST>
0

>  <SCORE.SYSTEM.DIHEDRAL>
0

>  <SCORE.SYSTEM.SOLV>
0

>  <SCORE.SYSTEM.norm>
0

>  <SCORE.heavy>
10

>  <SCORE.norm>
-1.83646

>  <RMSD>
2.491

$$$$
ligand
 OpenBabel11021811423D
libRbt.so/2013.1/901 2013/11/27
 10 11  0  0  0  0  0  0  0  0999 V2000
   11.7578   11.0169    8.7499 N   0  0  0  0  0  0  0  0  0  0  0  0
   11.9173    9.8360    8.0530 C   0  0  0  0  0  0  0  0  0  0  0  0
   11.7508    9.7647    6.7266 N   0  0  0  0  0  0  0  0  0  0  0  0
   11.4127   10.9581    6.1619 C   0  0  0  0  0  0  0  0  0  0  0  0
   11.2359   12.1751    6.8027 C   0  0  0  0  0  0  0  0  0  0  0  0
   11.4134   12.2585    8.2105 C   0  0  0  0  0  0  0  0  0  0  0  0
   11.3096   13.2213    8.9706 O   0  0  0  0  0  0  0  0  0  0  0  0
   10.8994   13.1169    5.8602 N   0  0  0  0  0  0  0  0  0  0  0  0
   10.8747   12.4754    4.6685 C   0  0  0  0  0  0  0  0  0  0  0  0
   11.1850   11.1440    4.8198 N   0  0  0  0  0  0  0  0  0  0  0  0
  1  2  1  0  0  0  0
  1  6  1  0  0  0  0
  2  3  2  0  0  0  0
  3  4  1  0  0  0  0
  4  5  2  0  0  0  0
  4 10  1  0  0  0  0
  5  6  1  0  0  0  0
  5  8  1  0  0  0  0
  6  7  2  0  0  0  0
  8  9  1  0  0  0  0
  9 10  2  0  0  0  0
M  END
>  <CHROM.1>
11.37502337,11.62544216,6.94286126,-0.94824692,1.31822429,-2.13834027

>  <Name>
ligand

>  <RI>
0

>  <Rbt.Current_Directory>
/home/itssahil/PROJECTS/Mol_Feturizer/New_Systems/rnas/2EEU

>  <Rbt.Executable>
rbdock ($Id: //depot/dev/client3/rdock/2013.1/src/exe/rbdock.cxx#4 $)

>  <Rbt.Library>
libRbt.so (2013.1, Build901 2013/11/27)

>  <Rbt.Parameter_File>
/export/apps/rDock/src/rDock_2013.1_src/data/scripts/dock_solv.prm

>  <Rbt.Receptor>
prm/pocket_docking_5.prm

>  <SCORE>
-18.3574

>  <SCORE.INTER>
-18.3574

>  <SCORE.INTER.CONST>
1

>  <SCORE.INTER.POLAR>
0

>  <SCORE.INTER.ROT>
0

>  <SCORE.INTER.SOLV>
3.61348

>  <SCORE.INTER.VDW>
-17.0427

>  <SCORE.INTER.norm>
-1.83574

>  <SCORE.INTRA>
0

>  <SCORE.INTRA.DIHEDRAL>
0

>  <SCORE.INTRA.DIHEDRAL.0>
0

>  <SCORE.INTRA.POLAR>
0

>  <SCORE.INTRA.POLAR.0>
0

>  <SCORE.INTRA.REPUL>
0

>  <SCORE.INTRA.REPUL.0>
0

>  <SCORE.INTRA.SOLV>
0

>  <SCORE.INTRA.SOLV.lig_0>
-4.28148

>  <SCORE.INTRA.VDW>
0

>  <SCORE.INTRA.VDW.0>
0

>  <SCORE.INTRA.norm>
0

>  <SCORE.RESTR>
0

>  <SCORE.RESTR.CAVITY>
0

>  <SCORE.RESTR.norm>
0

>  <SCORE.SYSTEM>
0

>  <SCORE.SYSTEM.CONST>
0

>  <SCORE.SYSTEM.DIHEDRAL>
0

>  <SCORE.SYSTEM.SOLV>
0

>  <SCORE.SYSTEM.norm>
0

>  <SCORE.heavy>
10

>  <SCORE.norm>
-1.83574

>  <RMSD>
2.491

$$$$
ligand
 OpenBabel11021811423D
libRbt.so/2013.1/901 2013/11/27
 10 11  0  0  0  0  0  0  0  0999 V2000
   11.7445   11.0674    8.7493 N   0  0  0  0  0  0  0  0  0  0  0  0
   11.8873    9.8786    8.0622 C   0  0  0  0  0  0  0  0  0  0  0  0
   11.7180    9.7984    6.7366 N   0  0  0  0  0  0  0  0  0  0  0  0
   11.3950   10.9914    6.1624 C   0  0  0  0  0  0  0  0  0  0  0  0
   11.2354   12.2160    6.7930 C   0  0  0  0  0  0  0  0  0  0  0  0
   11.4159   12.3088    8.1999 C   0  0  0  0  0  0  0  0  0  0  0  0
   11.3261   13.2793    8.9520 O   0  0  0  0  0  0  0  0  0  0  0  0
   10.9102   13.1542    5.8431 N   0  0  0  0  0  0  0  0  0  0  0  0
   10.8753   12.5030    4.6568 C   0  0  0  0  0  0  0  0  0  0  0  0
   11.1681   11.1689    4.8190 N   0  0  0  0  0  0  0  0  0  0  0  0
  1  2  1  0  0  0  0
  1  6  1  0  0  0  0
  2  3  2  0  0  0  0
  3  4  1  0  0  0  0
  4  5  2  0  0  0  0
  4 10  1  0  0  0  0
  5  6  1  0  0  0  0
  5  8  1  0  0  0  0
  6  7  2  0  0  0  0
  8  9  1  0  0  0  0
  9 10  2  0  0  0  0
M  END
>  <CHROM.1>
11.36738151,11.66567940,6.93769590,-0.91345932,1.32858400,-2.18050407

>  <Name>
ligand

>  <RI>
0

>  <Rbt.Current_Directory>
/home/itssahil/PROJECTS/Mol_Feturizer/New_Systems/rnas/2EEU

>  <Rbt.Executable>
rbdock ($Id: //depot/dev/client3/rdock/2013.1/src/exe/rbdock.cxx#4 $)

>  <Rbt.Library>
libRbt.so (2013.1, Build901 2013/11/27)

>  <Rbt.Parameter_File>
/export/apps/rDock/src/rDock_2013.1_src/data/scripts/dock_solv.prm

>  <Rbt.Receptor>
prm/pocket_docking_6.prm

>  <SCORE>
-18.3818

>  <SCORE.INTER>
-18.3818

>  <SCORE.INTER.CONST>
1

>  <SCORE.INTER.POLAR>
0

>  <SCORE.INTER.ROT>
0

>  <SCORE.INTER.SOLV>
3.65263

>  <SCORE.INTER.VDW>
-17.0721

>  <SCORE.INTER.norm>
-1.83818

>  <SCORE.INTRA>
0

>  <SCORE.INTRA.DIHEDRAL>
0

>  <SCORE.INTRA.DIHEDRAL.0>
0

>  <SCORE.INTRA.POLAR>
0

>  <SCORE.INTRA.POLAR.0>
0

>  <SCORE.INTRA.REPUL>
0

>  <SCORE.INTRA.REPUL.0>
0

>  <SCORE.INTRA.SOLV>
0

>  <SCORE.INTRA.SOLV.lig_0>
-4.28148

>  <SCORE.INTRA.VDW>
0

>  <SCORE.INTRA.VDW.0>
0

>  <SCORE.INTRA.norm>
0

>  <SCORE.RESTR>
0

>  <SCORE.RESTR.CAVITY>
0

>  <SCORE.RESTR.norm>
0

>  <SCORE.SYSTEM>
0

>  <SCORE.SYSTEM.CONST>
0

>  <SCORE.SYSTEM.DIHEDRAL>
0

>  <SCORE.SYSTEM.SOLV>
0

>  <SCORE.SYSTEM.norm>
0

>  <SCORE.heavy>
10

>  <SCORE.norm>
-1.83818

>  <RMSD>
2.491

$$$$
ligand
 OpenBabel11021811423D
libRbt.so/2013.1/901 2013/11/27
 10 11  0  0  0  0  0  0  0  0999 V2000
   11.7475   11.0643    8.7493 N   0  0  0  0  0  0  0  0  0  0  0  0
   11.8904    9.8739    8.0650 C   0  0  0  0  0  0  0  0  0  0  0  0
   11.7240    9.7911    6.7393 N   0  0  0  0  0  0  0  0  0  0  0  0
   11.4037   10.9833    6.1618 C   0  0  0  0  0  0  0  0  0  0  0  0
   11.2441   12.2094    6.7896 C   0  0  0  0  0  0  0  0  0  0  0  0
   11.4216   12.3049    8.1966 C   0  0  0  0  0  0  0  0  0  0  0  0
   11.3313   13.2771    8.9465 O   0  0  0  0  0  0  0  0  0  0  0  0
   10.9221   13.1460    5.8370 N   0  0  0  0  0  0  0  0  0  0  0  0
   10.8890   12.4924    4.6520 C   0  0  0  0  0  0  0  0  0  0  0  0
   11.1799   11.1583    4.8175 N   0  0  0  0  0  0  0  0  0  0  0  0
  1  2  1  0  0  0  0
  1  6  1  0  0  0  0
  2  3  2  0  0  0  0
  3  4  1  0  0  0  0
  4  5  2  0  0  0  0
  4 10  1  0  0  0  0
  5  6  1  0  0  0  0
  5  8  1  0  0  0  0
  6  7  2  0  0  0  0
  8  9  1  0  0  0  0
  9 10  2  0  0  0  0
M  END
>  <CHROM.1>
11.37510091,11.65927129,6.93565942,-0.91823350,1.33081396,-2.17795474

>  <Name>
ligand

>  <RI>
0

>  <Rbt.Current_Directory>
/home/itssahil/PROJECTS/Mol_Feturizer/New_Systems/rnas/2EEU

>  <Rbt.Executable>
rbdock ($Id: //depot/dev/client3/rdock/2013.1/src/exe/rbdock.cxx#4 $)

>  <Rbt.Library>
libRbt.so (2013.1, Build901 2013/11/27)

>  <Rbt.Parameter_File>
/export/apps/rDock/src/rDock_2013.1_src/data/scripts/dock_solv.prm

>  <Rbt.Receptor>
prm/pocket_docking_6.prm

>  <SCORE>
-18.3881

>  <SCORE.INTER>
-18.3881

>  <SCORE.INTER.CONST>
1

>  <SCORE.INTER.POLAR>
0

>  <SCORE.INTER.ROT>
0

>  <SCORE.INTER.SOLV>
3.65696

>  <SCORE.INTER.VDW>
-17.0777

>  <SCORE.INTER.norm>
-1.83881

>  <SCORE.INTRA>
0

>  <SCORE.INTRA.DIHEDRAL>
0

>  <SCORE.INTRA.DIHEDRAL.0>
0

>  <SCORE.INTRA.POLAR>
0

>  <SCORE.INTRA.POLAR.0>
0

>  <SCORE.INTRA.REPUL>
0

>  <SCORE.INTRA.REPUL.0>
0

>  <SCORE.INTRA.SOLV>
0

>  <SCORE.INTRA.SOLV.lig_0>
-4.28148

>  <SCORE.INTRA.VDW>
0

>  <SCORE.INTRA.VDW.0>
0

>  <SCORE.INTRA.norm>
0

>  <SCORE.RESTR>
0

>  <SCORE.RESTR.CAVITY>
0

>  <SCORE.RESTR.norm>
0

>  <SCORE.SYSTEM>
0

>  <SCORE.SYSTEM.CONST>
0

>  <SCORE.SYSTEM.DIHEDRAL>
0

>  <SCORE.SYSTEM.SOLV>
0

>  <SCORE.SYSTEM.norm>
0

>  <SCORE.heavy>
10

>  <SCORE.norm>
-1.83881

>  <RMSD>
2.491

$$$$
ligand
 OpenBabel11021811423D
libRbt.so/2013.1/901 2013/11/27
 10 11  0  0  0  0  0  0  0  0999 V2000
   11.7347   11.0495    8.7679 N   0  0  0  0  0  0  0  0  0  0  0  0
   11.9025    9.8633    8.0820 C   0  0  0  0  0  0  0  0  0  0  0  0
   11.7453    9.7805    6.7552 N   0  0  0  0  0  0  0  0  0  0  0  0
   11.4074   10.9681    6.1783 C   0  0  0  0  0  0  0  0  0  0  0  0
   11.2227   12.1898    6.8076 C   0  0  0  0  0  0  0  0  0  0  0  0
   11.3903   12.2854    8.2159 C   0  0  0  0  0  0  0  0  0  0  0  0
   11.2785   13.2542    8.9672 O   0  0  0  0  0  0  0  0  0  0  0  0
   10.8898   13.1227    5.8551 N   0  0  0  0  0  0  0  0  0  0  0  0
   10.8751   12.4712    4.6686 C   0  0  0  0  0  0  0  0  0  0  0  0
   11.1884   11.1421    4.8331 N   0  0  0  0  0  0  0  0  0  0  0  0
  1  2  1  0  0  0  0
  1  6  1  0  0  0  0
  2  3  2  0  0  0  0
  3  4  1  0  0  0  0
  4  5  2  0  0  0  0
  4 10  1  0  0  0  0
  5  6  1  0  0  0  0
  5  8  1  0  0  0  0
  6  7  2  0  0  0  0
  8  9  1  0  0  0  0
  9 10  2  0  0  0  0
M  END
>  <CHROM.1>
11.36247507,11.64175808,6.95335755,-0.97775179,1.31926801,-2.11810214

>  <Name>
ligand

>  <RI>
0

>  <Rbt.Current_Directory>
/home/itssahil/PROJECTS/Mol_Feturizer/New_Systems/rnas/2EEU

>  <Rbt.Executable>
rbdock ($Id: //depot/dev/client3/rdock/2013.1/src/exe/rbdock.cxx#4 $)

>  <Rbt.Library>
libRbt.so (2013.1, Build901 2013/11/27)

>  <Rbt.Parameter_File>
/export/apps/rDock/src/rDock_2013.1_src/data/scripts/dock_solv.prm

>  <Rbt.Receptor>
prm/pocket_docking_7.prm

>  <SCORE>
-18.3707

>  <SCORE.INTER>
-18.3707

>  <SCORE.INTER.CONST>
1

>  <SCORE.INTER.POLAR>
0

>  <SCORE.INTER.ROT>
0

>  <SCORE.INTER.SOLV>
3.65272

>  <SCORE.INTER.VDW>
-17.0647

>  <SCORE.INTER.norm>
-1.83707

>  <SCORE.INTRA>
0

>  <SCORE.INTRA.DIHEDRAL>
0

>  <SCORE.INTRA.DIHEDRAL.0>
0

>  <SCORE.INTRA.POLAR>
0

>  <SCORE.INTRA.POLAR.0>
0

>  <SCORE.INTRA.REPUL>
0

>  <SCORE.INTRA.REPUL.0>
0

>  <SCORE.INTRA.SOLV>
0

>  <SCORE.INTRA.SOLV.lig_0>
-4.28148

>  <SCORE.INTRA.VDW>
0

>  <SCORE.INTRA.VDW.0>
0

>  <SCORE.INTRA.norm>
0

>  <SCORE.RESTR>
0

>  <SCORE.RESTR.CAVITY>
0

>  <SCORE.RESTR.norm>
0

>  <SCORE.SYSTEM>
0

>  <SCORE.SYSTEM.CONST>
0

>  <SCORE.SYSTEM.DIHEDRAL>
0

>  <SCORE.SYSTEM.SOLV>
0

>  <SCORE.SYSTEM.norm>
0

>  <SCORE.heavy>
10

>  <SCORE.norm>
-1.83707

>  <RMSD>
2.491

$$$$
ligand
 OpenBabel11021811423D
libRbt.so/2013.1/901 2013/11/27
 10 11  0  0  0  0  0  0  0  0999 V2000
   11.7291   11.0296    8.7578 N   0  0  0  0  0  0  0  0  0  0  0  0
   11.9006    9.8520    8.0582 C   0  0  0  0  0  0  0  0  0  0  0  0
   11.7453    9.7845    6.7302 N   0  0  0  0  0  0  0  0  0  0  0  0
   11.4053   10.9780    6.1670 C   0  0  0  0  0  0  0  0  0  0  0  0
   11.2168   12.1918    6.8105 C   0  0  0  0  0  0  0  0  0  0  0  0
   11.3824   12.2711    8.2200 C   0  0  0  0  0  0  0  0  0  0  0  0
   11.2674   13.2307    8.9826 O   0  0  0  0  0  0  0  0  0  0  0  0
   10.8829   13.1350    5.8686 N   0  0  0  0  0  0  0  0  0  0  0  0
   10.8714   12.4976    4.6745 C   0  0  0  0  0  0  0  0  0  0  0  0
   11.1876   11.1674    4.8237 N   0  0  0  0  0  0  0  0  0  0  0  0
  1  2  1  0  0  0  0
  1  6  1  0  0  0  0
  2  3  2  0  0  0  0
  3  4  1  0  0  0  0
  4  5  2  0  0  0  0
  4 10  1  0  0  0  0
  5  6  1  0  0  0  0
  5  8  1  0  0  0  0
  6  7  2  0  0  0  0
  8  9  1  0  0  0  0
  9 10  2  0  0  0  0
M  END
>  <CHROM.1>
11.35778244,11.64235773,6.94991329,-0.98708788,1.31787875,-2.09724362

>  <Name>
ligand

>  <RI>
0

>  <Rbt.Current_Directory>
/home/itssahil/PROJECTS/Mol_Feturizer/New_Systems/rnas/2EEU

>  <Rbt.Executable>
rbdock ($Id: //depot/dev/client3/rdock/2013.1/src/exe/rbdock.cxx#4 $)

>  <Rbt.Library>
libRbt.so (2013.1, Build901 2013/11/27)

>  <Rbt.Parameter_File>
/export/apps/rDock/src/rDock_2013.1_src/data/scripts/dock_solv.prm

>  <Rbt.Receptor>
prm/pocket_docking_8.prm

>  <SCORE>
-18.3555

>  <SCORE.INTER>
-18.3555

>  <SCORE.INTER.CONST>
1

>  <SCORE.INTER.POLAR>
0

>  <SCORE.INTER.ROT>
0

>  <SCORE.INTER.SOLV>
3.63833

>  <SCORE.INTER.VDW>
-17.0498

>  <SCORE.INTER.norm>
-1.83555

>  <SCORE.INTRA>
0

>  <SCORE.INTRA.DIHEDRAL>
0

>  <SCORE.INTRA.DIHEDRAL.0>
0

>  <SCORE.INTRA.POLAR>
0

>  <SCORE.INTRA.POLAR.0>
0

>  <SCORE.INTRA.REPUL>
0

>  <SCORE.INTRA.REPUL.0>
0

>  <SCORE.INTRA.SOLV>
0

>  <SCORE.INTRA.SOLV.lig_0>
-4.28148

>  <SCORE.INTRA.VDW>
0

>  <SCORE.INTRA.VDW.0>
0

>  <SCORE.INTRA.norm>
0

>  <SCORE.RESTR>
0

>  <SCORE.RESTR.CAVITY>
0

>  <SCORE.RESTR.norm>
0

>  <SCORE.SYSTEM>
0

>  <SCORE.SYSTEM.CONST>
0

>  <SCORE.SYSTEM.DIHEDRAL>
0

>  <SCORE.SYSTEM.SOLV>
0

>  <SCORE.SYSTEM.norm>
0

>  <SCORE.heavy>
10

>  <SCORE.norm>
-1.83555

>  <RMSD>
2.491

$$$$
ligand
 OpenBabel11021811423D
libRbt.so/2013.1/901 2013/11/27
 10 11  0  0  0  0  0  0  0  0999 V2000
   11.8211   11.0689    8.7229 N   0  0  0  0  0  0  0  0  0  0  0  0
   11.9494    9.8758    8.0405 C   0  0  0  0  0  0  0  0  0  0  0  0
   11.7519    9.7872    6.7194 N   0  0  0  0  0  0  0  0  0  0  0  0
   11.4164   10.9765    6.1446 C   0  0  0  0  0  0  0  0  0  0  0  0
   11.2700   12.2050    6.7707 C   0  0  0  0  0  0  0  0  0  0  0  0
   11.4806   12.3068    8.1728 C   0  0  0  0  0  0  0  0  0  0  0  0
   11.4067   13.2820    8.9204 O   0  0  0  0  0  0  0  0  0  0  0  0
   10.9243   13.1372    5.8221 N   0  0  0  0  0  0  0  0  0  0  0  0
   10.8642   12.4785    4.6410 C   0  0  0  0  0  0  0  0  0  0  0  0
   11.1607   11.1455    4.8053 N   0  0  0  0  0  0  0  0  0  0  0  0
  1  2  1  0  0  0  0
  1  6  1  0  0  0  0
  2  3  2  0  0  0  0
  3  4  1  0  0  0  0
  4  5  2  0  0  0  0
  4 10  1  0  0  0  0
  5  6  1  0  0  0  0
  5  8  1  0  0  0  0
  6  7  2  0  0  0  0
  8  9  1  0  0  0  0
  9 10  2  0  0  0  0
M  END
>  <CHROM.1>
11.40519177,11.65569280,6.91602825,-0.84439847,1.31555378,-2.25379763

>  <Name>
ligand

>  <RI>
0

>  <Rbt.Current_Directory>
/home/itssahil/PROJECTS/Mol_Feturizer/New_Systems/rnas/2EEU

>  <Rbt.Executable>
rbdock ($Id: //depot/dev/client3/rdock/2013.1/src/exe/rbdock.cxx#4 $)

>  <Rbt.Library>
libRbt.so (2013.1, Build901 2013/11/27)

>  <Rbt.Parameter_File>
/export/apps/rDock/src/rDock_2013.1_src/data/scripts/dock_solv.prm

>  <Rbt.Receptor>
prm/pocket_docking_8.prm

>  <SCORE>
-18.3476

>  <SCORE.INTER>
-18.3476

>  <SCORE.INTER.CONST>
1

>  <SCORE.INTER.POLAR>
0

>  <SCORE.INTER.ROT>
0

>  <SCORE.INTER.SOLV>
3.61459

>  <SCORE.INTER.VDW>
-17.0366

>  <SCORE.INTER.norm>
-1.83476

>  <SCORE.INTRA>
0

>  <SCORE.INTRA.DIHEDRAL>
0

>  <SCORE.INTRA.DIHEDRAL.0>
0

>  <SCORE.INTRA.POLAR>
0

>  <SCORE.INTRA.POLAR.0>
0

>  <SCORE.INTRA.REPUL>
0

>  <SCORE.INTRA.REPUL.0>
0

>  <SCORE.INTRA.SOLV>
0

>  <SCORE.INTRA.SOLV.lig_0>
-4.28148

>  <SCORE.INTRA.VDW>
0

>  <SCORE.INTRA.VDW.0>
0

>  <SCORE.INTRA.norm>
0

>  <SCORE.RESTR>
0

>  <SCORE.RESTR.CAVITY>
0

>  <SCORE.RESTR.norm>
0

>  <SCORE.SYSTEM>
0

>  <SCORE.SYSTEM.CONST>
0

>  <SCORE.SYSTEM.DIHEDRAL>
0

>  <SCORE.SYSTEM.SOLV>
0

>  <SCORE.SYSTEM.norm>
0

>  <SCORE.heavy>
10

>  <SCORE.norm>
-1.83476

>  <RMSD>
2.491

$$$$
ligand
 OpenBabel11021811423D
libRbt.so/2013.1/901 2013/11/27
 10 11  0  0  0  0  0  0  0  0999 V2000
   11.7028   11.0772    8.7798 N   0  0  0  0  0  0  0  0  0  0  0  0
   11.8879    9.8890    8.1019 C   0  0  0  0  0  0  0  0  0  0  0  0
   11.7483    9.7986    6.7736 N   0  0  0  0  0  0  0  0  0  0  0  0
   11.4092   10.9809    6.1866 C   0  0  0  0  0  0  0  0  0  0  0  0
   11.2075   12.2043    6.8076 C   0  0  0  0  0  0  0  0  0  0  0  0
   11.3564   12.3079    8.2174 C   0  0  0  0  0  0  0  0  0  0  0  0
   11.2280   13.2794    8.9625 O   0  0  0  0  0  0  0  0  0  0  0  0
   10.8800   13.1301    5.8463 N   0  0  0  0  0  0  0  0  0  0  0  0
   10.8853   12.4728    4.6629 C   0  0  0  0  0  0  0  0  0  0  0  0
   11.2061   11.1468    4.8379 N   0  0  0  0  0  0  0  0  0  0  0  0
  1  2  1  0  0  0  0
  1  6  1  0  0  0  0
  2  3  2  0  0  0  0
  3  4  1  0  0  0  0
  4  5  2  0  0  0  0
  4 10  1  0  0  0  0
  5  6  1  0  0  0  0
  5  8  1  0  0  0  0
  6  7  2  0  0  0  0
  8  9  1  0  0  0  0
  9 10  2  0  0  0  0
M  END
>  <CHROM.1>
11.34942824,11.65795039,6.95774685,-1.03684167,1.31926297,-2.06573309

>  <Name>
ligand

>  <RI>
0

>  <Rbt.Current_Directory>
/home/itssahil/PROJECTS/Mol_Feturizer/New_Systems/rnas/2EEU

>  <Rbt.Executable>
rbdock ($Id: //depot/dev/client3/rdock/2013.1/src/exe/rbdock.cxx#4 $)

>  <Rbt.Library>
libRbt.so (2013.1, Build901 2013/11/27)

>  <Rbt.Parameter_File>
/export/apps/rDock/src/rDock_2013.1_src/data/scripts/dock_solv.prm

>  <Rbt.Receptor>
prm/blind_docking_100.prm

>  <SCORE>
-18.3506

>  <SCORE.INTER>
-18.3506

>  <SCORE.INTER.CONST>
1

>  <SCORE.INTER.POLAR>
0

>  <SCORE.INTER.ROT>
0

>  <SCORE.INTER.SOLV>
3.69443

>  <SCORE.INTER.VDW>
-17.0652

>  <SCORE.INTER.norm>
-1.83506

>  <SCORE.INTRA>
0

>  <SCORE.INTRA.DIHEDRAL>
0

>  <SCORE.INTRA.DIHEDRAL.0>
0

>  <SCORE.INTRA.POLAR>
0

>  <SCORE.INTRA.POLAR.0>
0

>  <SCORE.INTRA.REPUL>
0

>  <SCORE.INTRA.REPUL.0>
0

>  <SCORE.INTRA.SOLV>
0

>  <SCORE.INTRA.SOLV.lig_0>
-4.28148

>  <SCORE.INTRA.VDW>
0

>  <SCORE.INTRA.VDW.0>
0

>  <SCORE.INTRA.norm>
0

>  <SCORE.RESTR>
0

>  <SCORE.RESTR.CAVITY>
0

>  <SCORE.RESTR.norm>
0

>  <SCORE.SYSTEM>
0

>  <SCORE.SYSTEM.CONST>
0

>  <SCORE.SYSTEM.DIHEDRAL>
0

>  <SCORE.SYSTEM.SOLV>
0

>  <SCORE.SYSTEM.norm>
0

>  <SCORE.heavy>
10

>  <SCORE.norm>
-1.83506

>  <RMSD>
2.492

$$$$
ligand
 OpenBabel11021811423D
libRbt.so/2013.1/901 2013/11/27
 10 11  0  0  0  0  0  0  0  0999 V2000
   11.7234   11.0302    8.7585 N   0  0  0  0  0  0  0  0  0  0  0  0
   11.8822    9.8471    8.0652 C   0  0  0  0  0  0  0  0  0  0  0  0
   11.7250    9.7739    6.7378 N   0  0  0  0  0  0  0  0  0  0  0  0
   11.3968   10.9677    6.1683 C   0  0  0  0  0  0  0  0  0  0  0  0
   11.2213   12.1869    6.8052 C   0  0  0  0  0  0  0  0  0  0  0  0
   11.3889   12.2723    8.2141 C   0  0  0  0  0  0  0  0  0  0  0  0
   11.2844   13.2371    8.9715 O   0  0  0  0  0  0  0  0  0  0  0  0
   10.8961   13.1283    5.8585 N   0  0  0  0  0  0  0  0  0  0  0  0
   10.8770   12.4844    4.6679 C   0  0  0  0  0  0  0  0  0  0  0  0
   11.1798   11.1519    4.8241 N   0  0  0  0  0  0  0  0  0  0  0  0
  1  2  1  0  0  0  0
  1  6  1  0  0  0  0
  2  3  2  0  0  0  0
  3  4  1  0  0  0  0
  4  5  2  0  0  0  0
  4 10  1  0  0  0  0
  5  6  1  0  0  0  0
  5  8  1  0  0  0  0
  6  7  2  0  0  0  0
  8  9  1  0  0  0  0
  9 10  2  0  0  0  0
M  END
>  <CHROM.1>
11.35671351,11.63681892,6.94756164,-0.96266953,1.32617434,-2.12641622

>  <Name>
ligand

>  <RI>
0

>  <Rbt.Current_Directory>
/home/itssahil/PROJECTS/Mol_Feturizer/New_Systems/rnas/2EEU

>  <Rbt.Executable>
rbdock ($Id: //depot/dev/client3/rdock/2013.1/src/exe/rbdock.cxx#4 $)

>  <Rbt.Library>
libRbt.so (2013.1, Build901 2013/11/27)

>  <Rbt.Parameter_File>
/export/apps/rDock/src/rDock_2013.1_src/data/scripts/dock_solv.prm

>  <Rbt.Receptor>
prm/blind_docking_40.prm

>  <SCORE>
-18.3823

>  <SCORE.INTER>
-18.3823

>  <SCORE.INTER.CONST>
1

>  <SCORE.INTER.POLAR>
0

>  <SCORE.INTER.ROT>
0

>  <SCORE.INTER.SOLV>
3.65148

>  <SCORE.INTER.VDW>
-17.072

>  <SCORE.INTER.norm>
-1.83823

>  <SCORE.INTRA>
0

>  <SCORE.INTRA.DIHEDRAL>
0

>  <SCORE.INTRA.DIHEDRAL.0>
0

>  <SCORE.INTRA.POLAR>
0

>  <SCORE.INTRA.POLAR.0>
0

>  <SCORE.INTRA.REPUL>
0

>  <SCORE.INTRA.REPUL.0>
0

>  <SCORE.INTRA.SOLV>
0

>  <SCORE.INTRA.SOLV.lig_0>
-4.28148

>  <SCORE.INTRA.VDW>
0

>  <SCORE.INTRA.VDW.0>
0

>  <SCORE.INTRA.norm>
0

>  <SCORE.RESTR>
0

>  <SCORE.RESTR.CAVITY>
0

>  <SCORE.RESTR.norm>
0

>  <SCORE.SYSTEM>
0

>  <SCORE.SYSTEM.CONST>
0

>  <SCORE.SYSTEM.DIHEDRAL>
0

>  <SCORE.SYSTEM.SOLV>
0

>  <SCORE.SYSTEM.norm>
0

>  <SCORE.heavy>
10

>  <SCORE.norm>
-1.83823

>  <RMSD>
2.492

$$$$
ligand
 OpenBabel11021811423D
libRbt.so/2013.1/901 2013/11/27
 10 11  0  0  0  0  0  0  0  0999 V2000
   11.7448   11.0501    8.7511 N   0  0  0  0  0  0  0  0  0  0  0  0
   11.8859    9.8603    8.0655 C   0  0  0  0  0  0  0  0  0  0  0  0
   11.7208    9.7795    6.7395 N   0  0  0  0  0  0  0  0  0  0  0  0
   11.4039   10.9731    6.1631 C   0  0  0  0  0  0  0  0  0  0  0  0
   11.2463   12.1988    6.7922 C   0  0  0  0  0  0  0  0  0  0  0  0
   11.4224   12.2922    8.1996 C   0  0  0  0  0  0  0  0  0  0  0  0
   11.3333   13.2636    8.9506 O   0  0  0  0  0  0  0  0  0  0  0  0
   10.9275   13.1373    5.8404 N   0  0  0  0  0  0  0  0  0  0  0  0
   10.8944   12.4853    4.6546 C   0  0  0  0  0  0  0  0  0  0  0  0
   11.1821   11.1503    4.8188 N   0  0  0  0  0  0  0  0  0  0  0  0
  1  2  1  0  0  0  0
  1  6  1  0  0  0  0
  2  3  2  0  0  0  0
  3  4  1  0  0  0  0
  4  5  2  0  0  0  0
  4 10  1  0  0  0  0
  5  6  1  0  0  0  0
  5  8  1  0  0  0  0
  6  7  2  0  0  0  0
  8  9  1  0  0  0  0
  9 10  2  0  0  0  0
M  END
>  <CHROM.1>
11.37591836,11.64816355,6.93776772,-0.91692190,1.33333090,-2.17797666

>  <Name>
ligand

>  <RI>
0

>  <Rbt.Current_Directory>
/home/itssahil/PROJECTS/Mol_Feturizer/New_Systems/rnas/2EEU

>  <Rbt.Executable>
rbdock ($Id: //depot/dev/client3/rdock/2013.1/src/exe/rbdock.cxx#4 $)

>  <Rbt.Library>
libRbt.so (2013.1, Build901 2013/11/27)

>  <Rbt.Parameter_File>
/export/apps/rDock/src/rDock_2013.1_src/data/scripts/dock_solv.prm

>  <Rbt.Receptor>
prm/blind_docking_40.prm

>  <SCORE>
-18.3826

>  <SCORE.INTER>
-18.3826

>  <SCORE.INTER.CONST>
1

>  <SCORE.INTER.POLAR>
0

>  <SCORE.INTER.ROT>
0

>  <SCORE.INTER.SOLV>
3.65478

>  <SCORE.INTER.VDW>
-17.0733

>  <SCORE.INTER.norm>
-1.83826

>  <SCORE.INTRA>
0

>  <SCORE.INTRA.DIHEDRAL>
0

>  <SCORE.INTRA.DIHEDRAL.0>
0

>  <SCORE.INTRA.POLAR>
0

>  <SCORE.INTRA.POLAR.0>
0

>  <SCORE.INTRA.REPUL>
0

>  <SCORE.INTRA.REPUL.0>
0

>  <SCORE.INTRA.SOLV>
0

>  <SCORE.INTRA.SOLV.lig_0>
-4.28148

>  <SCORE.INTRA.VDW>
0

>  <SCORE.INTRA.VDW.0>
0

>  <SCORE.INTRA.norm>
0

>  <SCORE.RESTR>
0

>  <SCORE.RESTR.CAVITY>
0

>  <SCORE.RESTR.norm>
0

>  <SCORE.SYSTEM>
0

>  <SCORE.SYSTEM.CONST>
0

>  <SCORE.SYSTEM.DIHEDRAL>
0

>  <SCORE.SYSTEM.SOLV>
0

>  <SCORE.SYSTEM.norm>
0

>  <SCORE.heavy>
10

>  <SCORE.norm>
-1.83826

>  <RMSD>
2.492

$$$$
ligand
 OpenBabel11021811423D
libRbt.so/2013.1/901 2013/11/27
 10 11  0  0  0  0  0  0  0  0999 V2000
   11.7490   11.0336    8.7483 N   0  0  0  0  0  0  0  0  0  0  0  0
   11.9268    9.8567    8.0492 C   0  0  0  0  0  0  0  0  0  0  0  0
   11.7653    9.7863    6.7221 N   0  0  0  0  0  0  0  0  0  0  0  0
   11.4124   10.9763    6.1592 C   0  0  0  0  0  0  0  0  0  0  0  0
   11.2170   12.1892    6.8023 C   0  0  0  0  0  0  0  0  0  0  0  0
   11.3892   12.2716    8.2109 C   0  0  0  0  0  0  0  0  0  0  0  0
   11.2700   13.2310    8.9730 O   0  0  0  0  0  0  0  0  0  0  0  0
   10.8704   13.1285    5.8611 N   0  0  0  0  0  0  0  0  0  0  0  0
   10.8581   12.4896    4.6678 C   0  0  0  0  0  0  0  0  0  0  0  0
   11.1862   11.1622    4.8168 N   0  0  0  0  0  0  0  0  0  0  0  0
  1  2  1  0  0  0  0
  1  6  1  0  0  0  0
  2  3  2  0  0  0  0
  3  4  1  0  0  0  0
  4  5  2  0  0  0  0
  4 10  1  0  0  0  0
  5  6  1  0  0  0  0
  5  8  1  0  0  0  0
  6  7  2  0  0  0  0
  8  9  1  0  0  0  0
  9 10  2  0  0  0  0
M  END
>  <CHROM.1>
11.36330195,11.64114186,6.94164055,-0.98627434,1.30804644,-2.09918130

>  <Name>
ligand

>  <RI>
0

>  <Rbt.Current_Directory>
/home/itssahil/PROJECTS/Mol_Feturizer/New_Systems/rnas/2EEU

>  <Rbt.Executable>
rbdock ($Id: //depot/dev/client3/rdock/2013.1/src/exe/rbdock.cxx#4 $)

>  <Rbt.Library>
libRbt.so (2013.1, Build901 2013/11/27)

>  <Rbt.Parameter_File>
/export/apps/rDock/src/rDock_2013.1_src/data/scripts/dock_solv.prm

>  <Rbt.Receptor>
prm/blind_docking_60.prm

>  <SCORE>
-18.3564

>  <SCORE.INTER>
-18.3564

>  <SCORE.INTER.CONST>
1

>  <SCORE.INTER.POLAR>
0

>  <SCORE.INTER.ROT>
0

>  <SCORE.INTER.SOLV>
3.61588

>  <SCORE.INTER.VDW>
-17.0429

>  <SCORE.INTER.norm>
-1.83564

>  <SCORE.INTRA>
0

>  <SCORE.INTRA.DIHEDRAL>
0

>  <SCORE.INTRA.DIHEDRAL.0>
0

>  <SCORE.INTRA.POLAR>
0

>  <SCORE.INTRA.POLAR.0>
0

>  <SCORE.INTRA.REPUL>
0

>  <SCORE.INTRA.REPUL.0>
0

>  <SCORE.INTRA.SOLV>
0

>  <SCORE.INTRA.SOLV.lig_0>
-4.28148

>  <SCORE.INTRA.VDW>
0

>  <SCORE.INTRA.VDW.0>
0

>  <SCORE.INTRA.norm>
0

>  <SCORE.RESTR>
0

>  <SCORE.RESTR.CAVITY>
0

>  <SCORE.RESTR.norm>
0

>  <SCORE.SYSTEM>
0

>  <SCORE.SYSTEM.CONST>
0

>  <SCORE.SYSTEM.DIHEDRAL>
0

>  <SCORE.SYSTEM.SOLV>
0

>  <SCORE.SYSTEM.norm>
0

>  <SCORE.heavy>
10

>  <SCORE.norm>
-1.83564

>  <RMSD>
2.492

$$$$
ligand
 OpenBabel11021811423D
libRbt.so/2013.1/901 2013/11/27
 10 11  0  0  0  0  0  0  0  0999 V2000
   11.7436   11.0675    8.7473 N   0  0  0  0  0  0  0  0  0  0  0  0
   11.8904    9.8768    8.0644 C   0  0  0  0  0  0  0  0  0  0  0  0
   11.7247    9.7920    6.7387 N   0  0  0  0  0  0  0  0  0  0  0  0
   11.4007   10.9825    6.1598 C   0  0  0  0  0  0  0  0  0  0  0  0
   11.2371   12.2088    6.7861 C   0  0  0  0  0  0  0  0  0  0  0  0
   11.4139   12.3065    8.1931 C   0  0  0  0  0  0  0  0  0  0  0  0
   11.3203   13.2792    8.9418 O   0  0  0  0  0  0  0  0  0  0  0  0
   10.9124   13.1433    5.8324 N   0  0  0  0  0  0  0  0  0  0  0  0
   10.8817   12.4882    4.6481 C   0  0  0  0  0  0  0  0  0  0  0  0
   11.1767   11.1553    4.8153 N   0  0  0  0  0  0  0  0  0  0  0  0
  1  2  1  0  0  0  0
  1  6  1  0  0  0  0
  2  3  2  0  0  0  0
  3  4  1  0  0  0  0
  4  5  2  0  0  0  0
  4 10  1  0  0  0  0
  5  6  1  0  0  0  0
  5  8  1  0  0  0  0
  6  7  2  0  0  0  0
  8  9  1  0  0  0  0
  9 10  2  0  0  0  0
M  END
>  <CHROM.1>
11.36981505,11.65922985,6.93288172,-0.92668796,1.32836150,-2.17088826

>  <Name>
ligand

>  <RI>
0

>  <Rbt.Current_Directory>
/home/itssahil/PROJECTS/Mol_Feturizer/New_Systems/rnas/2EEU

>  <Rbt.Executable>
rbdock ($Id: //depot/dev/client3/rdock/2013.1/src/exe/rbdock.cxx#4 $)

>  <Rbt.Library>
libRbt.so (2013.1, Build901 2013/11/27)

>  <Rbt.Parameter_File>
/export/apps/rDock/src/rDock_2013.1_src/data/scripts/dock_solv.prm

>  <Rbt.Receptor>
prm/pocket_docking_3.prm

>  <SCORE>
-18.3882

>  <SCORE.INTER>
-18.3882

>  <SCORE.INTER.CONST>
1

>  <SCORE.INTER.POLAR>
0

>  <SCORE.INTER.ROT>
0

>  <SCORE.INTER.SOLV>
3.658

>  <SCORE.INTER.VDW>
-17.0781

>  <SCORE.INTER.norm>
-1.83882

>  <SCORE.INTRA>
0

>  <SCORE.INTRA.DIHEDRAL>
0

>  <SCORE.INTRA.DIHEDRAL.0>
0

>  <SCORE.INTRA.POLAR>
0

>  <SCORE.INTRA.POLAR.0>
0

>  <SCORE.INTRA.REPUL>
0

>  <SCORE.INTRA.REPUL.0>
0

>  <SCORE.INTRA.SOLV>
0

>  <SCORE.INTRA.SOLV.lig_0>
-4.28148

>  <SCORE.INTRA.VDW>
0

>  <SCORE.INTRA.VDW.0>
0

>  <SCORE.INTRA.norm>
0

>  <SCORE.RESTR>
0

>  <SCORE.RESTR.CAVITY>
0

>  <SCORE.RESTR.norm>
0

>  <SCORE.SYSTEM>
0

>  <SCORE.SYSTEM.CONST>
0

>  <SCORE.SYSTEM.DIHEDRAL>
0

>  <SCORE.SYSTEM.SOLV>
0

>  <SCORE.SYSTEM.norm>
0

>  <SCORE.heavy>
10

>  <SCORE.norm>
-1.83882

>  <RMSD>
2.492

$$$$
ligand
 OpenBabel11021811423D
libRbt.so/2013.1/901 2013/11/27
 10 11  0  0  0  0  0  0  0  0999 V2000
   11.7666   11.0254    8.7409 N   0  0  0  0  0  0  0  0  0  0  0  0
   11.8906    9.8344    8.0539 C   0  0  0  0  0  0  0  0  0  0  0  0
   11.7126    9.7554    6.7294 N   0  0  0  0  0  0  0  0  0  0  0  0
   11.4010   10.9519    6.1561 C   0  0  0  0  0  0  0  0  0  0  0  0
   11.2603   12.1788    6.7868 C   0  0  0  0  0  0  0  0  0  0  0  0
   11.4503   12.2704    8.1925 C   0  0  0  0  0  0  0  0  0  0  0  0
   11.3769   13.2424    8.9443 O   0  0  0  0  0  0  0  0  0  0  0  0
   10.9411   13.1203    5.8380 N   0  0  0  0  0  0  0  0  0  0  0  0
   10.8912   12.4688    4.6525 C   0  0  0  0  0  0  0  0  0  0  0  0
   11.1684   11.1313    4.8140 N   0  0  0  0  0  0  0  0  0  0  0  0
  1  2  1  0  0  0  0
  1  6  1  0  0  0  0
  2  3  2  0  0  0  0
  3  4  1  0  0  0  0
  4  5  2  0  0  0  0
  4 10  1  0  0  0  0
  5  6  1  0  0  0  0
  5  8  1  0  0  0  0
  6  7  2  0  0  0  0
  8  9  1  0  0  0  0
  9 10  2  0  0  0  0
M  END
>  <CHROM.1>
11.38631948,11.62701764,6.93107815,-0.86234143,1.33507163,-2.23091950

>  <Name>
ligand

>  <RI>
0

>  <Rbt.Current_Directory>
/home/itssahil/PROJECTS/Mol_Feturizer/New_Systems/rnas/2EEU

>  <Rbt.Executable>
rbdock ($Id: //depot/dev/client3/rdock/2013.1/src/exe/rbdock.cxx#4 $)

>  <Rbt.Library>
libRbt.so (2013.1, Build901 2013/11/27)

>  <Rbt.Parameter_File>
/export/apps/rDock/src/rDock_2013.1_src/data/scripts/dock_solv.prm

>  <Rbt.Receptor>
prm/pocket_docking_5.prm

>  <SCORE>
-18.357

>  <SCORE.INTER>
-18.357

>  <SCORE.INTER.CONST>
1

>  <SCORE.INTER.POLAR>
0

>  <SCORE.INTER.ROT>
0

>  <SCORE.INTER.SOLV>
3.63353

>  <SCORE.INTER.VDW>
-17.0491

>  <SCORE.INTER.norm>
-1.8357

>  <SCORE.INTRA>
0

>  <SCORE.INTRA.DIHEDRAL>
0

>  <SCORE.INTRA.DIHEDRAL.0>
0

>  <SCORE.INTRA.POLAR>
0

>  <SCORE.INTRA.POLAR.0>
0

>  <SCORE.INTRA.REPUL>
0

>  <SCORE.INTRA.REPUL.0>
0

>  <SCORE.INTRA.SOLV>
0

>  <SCORE.INTRA.SOLV.lig_0>
-4.28148

>  <SCORE.INTRA.VDW>
0

>  <SCORE.INTRA.VDW.0>
0

>  <SCORE.INTRA.norm>
0

>  <SCORE.RESTR>
0

>  <SCORE.RESTR.CAVITY>
0

>  <SCORE.RESTR.norm>
0

>  <SCORE.SYSTEM>
0

>  <SCORE.SYSTEM.CONST>
0

>  <SCORE.SYSTEM.DIHEDRAL>
0

>  <SCORE.SYSTEM.SOLV>
0

>  <SCORE.SYSTEM.norm>
0

>  <SCORE.heavy>
10

>  <SCORE.norm>
-1.8357

>  <RMSD>
2.492

$$$$
ligand
 OpenBabel11021811423D
libRbt.so/2013.1/901 2013/11/27
 10 11  0  0  0  0  0  0  0  0999 V2000
   11.8310   11.0999    8.7068 N   0  0  0  0  0  0  0  0  0  0  0  0
   11.9255    9.8972    8.0358 C   0  0  0  0  0  0  0  0  0  0  0  0
   11.7153    9.7999    6.7172 N   0  0  0  0  0  0  0  0  0  0  0  0
   11.4034   10.9909    6.1328 C   0  0  0  0  0  0  0  0  0  0  0  0
   11.2912   12.2289    6.7474 C   0  0  0  0  0  0  0  0  0  0  0  0
   11.5154   12.3398    8.1467 C   0  0  0  0  0  0  0  0  0  0  0  0
   11.4706   13.3240    8.8848 O   0  0  0  0  0  0  0  0  0  0  0  0
   10.9600   13.1593    5.7919 N   0  0  0  0  0  0  0  0  0  0  0  0
   10.8748   12.4903    4.6182 C   0  0  0  0  0  0  0  0  0  0  0  0
   11.1410   11.1524    4.7939 N   0  0  0  0  0  0  0  0  0  0  0  0
  1  2  1  0  0  0  0
  1  6  1  0  0  0  0
  2  3  2  0  0  0  0
  3  4  1  0  0  0  0
  4  5  2  0  0  0  0
  4 10  1  0  0  0  0
  5  6  1  0  0  0  0
  5  8  1  0  0  0  0
  6  7  2  0  0  0  0
  8  9  1  0  0  0  0
  9 10  2  0  0  0  0
M  END
>  <CHROM.1>
11.41448467,11.67799526,6.89730953,-0.75626593,1.32790892,-2.34943094

>  <Name>
ligand

>  <RI>
0

>  <Rbt.Current_Directory>
/home/itssahil/PROJECTS/Mol_Feturizer/New_Systems/rnas/2EEU

>  <Rbt.Executable>
rbdock ($Id: //depot/dev/client3/rdock/2013.1/src/exe/rbdock.cxx#4 $)

>  <Rbt.Library>
libRbt.so (2013.1, Build901 2013/11/27)

>  <Rbt.Parameter_File>
/export/apps/rDock/src/rDock_2013.1_src/data/scripts/dock_solv.prm

>  <Rbt.Receptor>
prm/pocket_docking_5.prm

>  <SCORE>
-18.3832

>  <SCORE.INTER>
-18.3832

>  <SCORE.INTER.CONST>
1

>  <SCORE.INTER.POLAR>
0

>  <SCORE.INTER.ROT>
0

>  <SCORE.INTER.SOLV>
3.66499

>  <SCORE.INTER.VDW>
-17.0771

>  <SCORE.INTER.norm>
-1.83832

>  <SCORE.INTRA>
0

>  <SCORE.INTRA.DIHEDRAL>
0

>  <SCORE.INTRA.DIHEDRAL.0>
0

>  <SCORE.INTRA.POLAR>
0

>  <SCORE.INTRA.POLAR.0>
0

>  <SCORE.INTRA.REPUL>
0

>  <SCORE.INTRA.REPUL.0>
0

>  <SCORE.INTRA.SOLV>
0

>  <SCORE.INTRA.SOLV.lig_0>
-4.28148

>  <SCORE.INTRA.VDW>
0

>  <SCORE.INTRA.VDW.0>
0

>  <SCORE.INTRA.norm>
0

>  <SCORE.RESTR>
0

>  <SCORE.RESTR.CAVITY>
0

>  <SCORE.RESTR.norm>
0

>  <SCORE.SYSTEM>
0

>  <SCORE.SYSTEM.CONST>
0

>  <SCORE.SYSTEM.DIHEDRAL>
0

>  <SCORE.SYSTEM.SOLV>
0

>  <SCORE.SYSTEM.norm>
0

>  <SCORE.heavy>
10

>  <SCORE.norm>
-1.83832

>  <RMSD>
2.492

$$$$
ligand
 OpenBabel11021811423D
libRbt.so/2013.1/901 2013/11/27
 10 11  0  0  0  0  0  0  0  0999 V2000
   11.7550   11.0564    8.7438 N   0  0  0  0  0  0  0  0  0  0  0  0
   11.8919    9.8654    8.0593 C   0  0  0  0  0  0  0  0  0  0  0  0
   11.7206    9.7829    6.7342 N   0  0  0  0  0  0  0  0  0  0  0  0
   11.4019   10.9759    6.1575 C   0  0  0  0  0  0  0  0  0  0  0  0
   11.2482   12.2026    6.7856 C   0  0  0  0  0  0  0  0  0  0  0  0
   11.4309   12.2979    8.1920 C   0  0  0  0  0  0  0  0  0  0  0  0
   11.3462   13.2705    8.9419 O   0  0  0  0  0  0  0  0  0  0  0  0
   10.9257   13.1400    5.8339 N   0  0  0  0  0  0  0  0  0  0  0  0
   10.8866   12.4862    4.6492 C   0  0  0  0  0  0  0  0  0  0  0  0
   11.1740   11.1513    4.8140 N   0  0  0  0  0  0  0  0  0  0  0  0
  1  2  1  0  0  0  0
  1  6  1  0  0  0  0
  2  3  2  0  0  0  0
  3  4  1  0  0  0  0
  4  5  2  0  0  0  0
  4 10  1  0  0  0  0
  5  6  1  0  0  0  0
  5  8  1  0  0  0  0
  6  7  2  0  0  0  0
  8  9  1  0  0  0  0
  9 10  2  0  0  0  0
M  END
>  <CHROM.1>
11.37809946,11.65208103,6.93133423,-0.89890834,1.33127369,-2.19694774

>  <Name>
ligand

>  <RI>
0

>  <Rbt.Current_Directory>
/home/itssahil/PROJECTS/Mol_Feturizer/New_Systems/rnas/2EEU

>  <Rbt.Executable>
rbdock ($Id: //depot/dev/client3/rdock/2013.1/src/exe/rbdock.cxx#4 $)

>  <Rbt.Library>
libRbt.so (2013.1, Build901 2013/11/27)

>  <Rbt.Parameter_File>
/export/apps/rDock/src/rDock_2013.1_src/data/scripts/dock_solv.prm

>  <Rbt.Receptor>
prm/pocket_docking_6.prm

>  <SCORE>
-18.3831

>  <SCORE.INTER>
-18.3831

>  <SCORE.INTER.CONST>
1

>  <SCORE.INTER.POLAR>
0

>  <SCORE.INTER.ROT>
0

>  <SCORE.INTER.SOLV>
3.64954

>  <SCORE.INTER.VDW>
-17.0719

>  <SCORE.INTER.norm>
-1.83831

>  <SCORE.INTRA>
0

>  <SCORE.INTRA.DIHEDRAL>
0

>  <SCORE.INTRA.DIHEDRAL.0>
0

>  <SCORE.INTRA.POLAR>
0

>  <SCORE.INTRA.POLAR.0>
0

>  <SCORE.INTRA.REPUL>
0

>  <SCORE.INTRA.REPUL.0>
0

>  <SCORE.INTRA.SOLV>
0

>  <SCORE.INTRA.SOLV.lig_0>
-4.28148

>  <SCORE.INTRA.VDW>
0

>  <SCORE.INTRA.VDW.0>
0

>  <SCORE.INTRA.norm>
0

>  <SCORE.RESTR>
0

>  <SCORE.RESTR.CAVITY>
0

>  <SCORE.RESTR.norm>
0

>  <SCORE.SYSTEM>
0

>  <SCORE.SYSTEM.CONST>
0

>  <SCORE.SYSTEM.DIHEDRAL>
0

>  <SCORE.SYSTEM.SOLV>
0

>  <SCORE.SYSTEM.norm>
0

>  <SCORE.heavy>
10

>  <SCORE.norm>
-1.83831

>  <RMSD>
2.492

$$$$
ligand
 OpenBabel11021811423D
libRbt.so/2013.1/901 2013/11/27
 10 11  0  0  0  0  0  0  0  0999 V2000
   11.7476   11.0788    8.7444 N   0  0  0  0  0  0  0  0  0  0  0  0
   11.8910    9.8855    8.0655 C   0  0  0  0  0  0  0  0  0  0  0  0
   11.7221    9.7962    6.7405 N   0  0  0  0  0  0  0  0  0  0  0  0
   11.3987   10.9851    6.1580 C   0  0  0  0  0  0  0  0  0  0  0  0
   11.2385   12.2139    6.7803 C   0  0  0  0  0  0  0  0  0  0  0  0
   11.4187   12.3164    8.1865 C   0  0  0  0  0  0  0  0  0  0  0  0
   11.3283   13.2919    8.9320 O   0  0  0  0  0  0  0  0  0  0  0  0
   10.9130   13.1455    5.8239 N   0  0  0  0  0  0  0  0  0  0  0  0
   10.8787   12.4862    4.6421 C   0  0  0  0  0  0  0  0  0  0  0  0
   11.1719   11.1534    4.8134 N   0  0  0  0  0  0  0  0  0  0  0  0
  1  2  1  0  0  0  0
  1  6  1  0  0  0  0
  2  3  2  0  0  0  0
  3  4  1  0  0  0  0
  4  5  2  0  0  0  0
  4 10  1  0  0  0  0
  5  6  1  0  0  0  0
  5  8  1  0  0  0  0
  6  7  2  0  0  0  0
  8  9  1  0  0  0  0
  9 10  2  0  0  0  0
M  END
>  <CHROM.1>
11.37062977,11.66465084,6.92872805,-0.91505887,1.32837164,-2.18576805

>  <Name>
ligand

>  <RI>
0

>  <Rbt.Current_Directory>
/home/itssahil/PROJECTS/Mol_Feturizer/New_Systems/rnas/2EEU

>  <Rbt.Executable>
rbdock ($Id: //depot/dev/client3/rdock/2013.1/src/exe/rbdock.cxx#4 $)

>  <Rbt.Library>
libRbt.so (2013.1, Build901 2013/11/27)

>  <Rbt.Parameter_File>
/export/apps/rDock/src/rDock_2013.1_src/data/scripts/dock_solv.prm

>  <Rbt.Receptor>
prm/blind_docking_100.prm

>  <SCORE>
-18.387

>  <SCORE.INTER>
-18.387

>  <SCORE.INTER.CONST>
1

>  <SCORE.INTER.POLAR>
0

>  <SCORE.INTER.ROT>
0

>  <SCORE.INTER.SOLV>
3.66384

>  <SCORE.INTER.VDW>
-17.0793

>  <SCORE.INTER.norm>
-1.8387

>  <SCORE.INTRA>
0

>  <SCORE.INTRA.DIHEDRAL>
0

>  <SCORE.INTRA.DIHEDRAL.0>
0

>  <SCORE.INTRA.POLAR>
0

>  <SCORE.INTRA.POLAR.0>
0

>  <SCORE.INTRA.REPUL>
0

>  <SCORE.INTRA.REPUL.0>
0

>  <SCORE.INTRA.SOLV>
0

>  <SCORE.INTRA.SOLV.lig_0>
-4.28148

>  <SCORE.INTRA.VDW>
0

>  <SCORE.INTRA.VDW.0>
0

>  <SCORE.INTRA.norm>
0

>  <SCORE.RESTR>
0

>  <SCORE.RESTR.CAVITY>
0

>  <SCORE.RESTR.norm>
0

>  <SCORE.SYSTEM>
0

>  <SCORE.SYSTEM.CONST>
0

>  <SCORE.SYSTEM.DIHEDRAL>
0

>  <SCORE.SYSTEM.SOLV>
0

>  <SCORE.SYSTEM.norm>
0

>  <SCORE.heavy>
10

>  <SCORE.norm>
-1.8387

>  <RMSD>
2.493

$$$$
ligand
 OpenBabel11021811423D
libRbt.so/2013.1/901 2013/11/27
 10 11  0  0  0  0  0  0  0  0999 V2000
   11.7493   11.0531    8.7462 N   0  0  0  0  0  0  0  0  0  0  0  0
   11.9012    9.8653    8.0594 C   0  0  0  0  0  0  0  0  0  0  0  0
   11.7384    9.7846    6.7331 N   0  0  0  0  0  0  0  0  0  0  0  0
   11.4120   10.9762    6.1577 C   0  0  0  0  0  0  0  0  0  0  0  0
   11.2433   12.1998    6.7880 C   0  0  0  0  0  0  0  0  0  0  0  0
   11.4170   12.2930    8.1957 C   0  0  0  0  0  0  0  0  0  0  0  0
   11.3188   13.2628    8.9477 O   0  0  0  0  0  0  0  0  0  0  0  0
   10.9176   13.1366    5.8369 N   0  0  0  0  0  0  0  0  0  0  0  0
   10.8914   12.4857    4.6503 C   0  0  0  0  0  0  0  0  0  0  0  0
   11.1902   11.1530    4.8133 N   0  0  0  0  0  0  0  0  0  0  0  0
  1  2  1  0  0  0  0
  1  6  1  0  0  0  0
  2  3  2  0  0  0  0
  3  4  1  0  0  0  0
  4  5  2  0  0  0  0
  4 10  1  0  0  0  0
  5  6  1  0  0  0  0
  5  8  1  0  0  0  0
  6  7  2  0  0  0  0
  8  9  1  0  0  0  0
  9 10  2  0  0  0  0
M  END
>  <CHROM.1>
11.37740052,11.65009546,6.93309453,-0.94081950,1.32694991,-2.15363780

>  <Name>
ligand

>  <RI>
0

>  <Rbt.Current_Directory>
/home/itssahil/PROJECTS/Mol_Feturizer/New_Systems/rnas/2EEU

>  <Rbt.Executable>
rbdock ($Id: //depot/dev/client3/rdock/2013.1/src/exe/rbdock.cxx#4 $)

>  <Rbt.Library>
libRbt.so (2013.1, Build901 2013/11/27)

>  <Rbt.Parameter_File>
/export/apps/rDock/src/rDock_2013.1_src/data/scripts/dock_solv.prm

>  <Rbt.Receptor>
prm/blind_docking_80.prm

>  <SCORE>
-18.3564

>  <SCORE.INTER>
-18.3564

>  <SCORE.INTER.CONST>
1

>  <SCORE.INTER.POLAR>
0

>  <SCORE.INTER.ROT>
0

>  <SCORE.INTER.SOLV>
3.64767

>  <SCORE.INTER.VDW>
-17.0535

>  <SCORE.INTER.norm>
-1.83564

>  <SCORE.INTRA>
0

>  <SCORE.INTRA.DIHEDRAL>
0

>  <SCORE.INTRA.DIHEDRAL.0>
0

>  <SCORE.INTRA.POLAR>
0

>  <SCORE.INTRA.POLAR.0>
0

>  <SCORE.INTRA.REPUL>
0

>  <SCORE.INTRA.REPUL.0>
0

>  <SCORE.INTRA.SOLV>
0

>  <SCORE.INTRA.SOLV.lig_0>
-4.28148

>  <SCORE.INTRA.VDW>
0

>  <SCORE.INTRA.VDW.0>
0

>  <SCORE.INTRA.norm>
0

>  <SCORE.RESTR>
0

>  <SCORE.RESTR.CAVITY>
0

>  <SCORE.RESTR.norm>
0

>  <SCORE.SYSTEM>
0

>  <SCORE.SYSTEM.CONST>
0

>  <SCORE.SYSTEM.DIHEDRAL>
0

>  <SCORE.SYSTEM.SOLV>
0

>  <SCORE.SYSTEM.norm>
0

>  <SCORE.heavy>
10

>  <SCORE.norm>
-1.83564

>  <RMSD>
2.493

$$$$
ligand
 OpenBabel11021811423D
libRbt.so/2013.1/901 2013/11/27
 10 11  0  0  0  0  0  0  0  0999 V2000
   11.7510   11.0668    8.7447 N   0  0  0  0  0  0  0  0  0  0  0  0
   11.8928    9.8744    8.0637 C   0  0  0  0  0  0  0  0  0  0  0  0
   11.7240    9.7876    6.7385 N   0  0  0  0  0  0  0  0  0  0  0  0
   11.4025   10.9781    6.1581 C   0  0  0  0  0  0  0  0  0  0  0  0
   11.2440   12.2060    6.7825 C   0  0  0  0  0  0  0  0  0  0  0  0
   11.4240   12.3057    8.1889 C   0  0  0  0  0  0  0  0  0  0  0  0
   11.3349   13.2801    8.9361 O   0  0  0  0  0  0  0  0  0  0  0  0
   10.9201   13.1398    5.8277 N   0  0  0  0  0  0  0  0  0  0  0  0
   10.8850   12.4827    4.6447 C   0  0  0  0  0  0  0  0  0  0  0  0
   11.1762   11.1491    4.8137 N   0  0  0  0  0  0  0  0  0  0  0  0
  1  2  1  0  0  0  0
  1  6  1  0  0  0  0
  2  3  2  0  0  0  0
  3  4  1  0  0  0  0
  4  5  2  0  0  0  0
  4 10  1  0  0  0  0
  5  6  1  0  0  0  0
  5  8  1  0  0  0  0
  6  7  2  0  0  0  0
  8  9  1  0  0  0  0
  9 10  2  0  0  0  0
M  END
>  <CHROM.1>
11.37527861,11.65632314,6.92996618,-0.91219786,1.32970457,-2.18677884

>  <Name>
ligand

>  <RI>
0

>  <Rbt.Current_Directory>
/home/itssahil/PROJECTS/Mol_Feturizer/New_Systems/rnas/2EEU

>  <Rbt.Executable>
rbdock ($Id: //depot/dev/client3/rdock/2013.1/src/exe/rbdock.cxx#4 $)

>  <Rbt.Library>
libRbt.so (2013.1, Build901 2013/11/27)

>  <Rbt.Parameter_File>
/export/apps/rDock/src/rDock_2013.1_src/data/scripts/dock_solv.prm

>  <Rbt.Receptor>
prm/blind_docking_80.prm

>  <SCORE>
-18.388

>  <SCORE.INTER>
-18.388

>  <SCORE.INTER.CONST>
1

>  <SCORE.INTER.POLAR>
0

>  <SCORE.INTER.ROT>
0

>  <SCORE.INTER.SOLV>
3.65757

>  <SCORE.INTER.VDW>
-17.0779

>  <SCORE.INTER.norm>
-1.8388

>  <SCORE.INTRA>
0

>  <SCORE.INTRA.DIHEDRAL>
0

>  <SCORE.INTRA.DIHEDRAL.0>
0

>  <SCORE.INTRA.POLAR>
0

>  <SCORE.INTRA.POLAR.0>
0

>  <SCORE.INTRA.REPUL>
0

>  <SCORE.INTRA.REPUL.0>
0

>  <SCORE.INTRA.SOLV>
0

>  <SCORE.INTRA.SOLV.lig_0>
-4.28148

>  <SCORE.INTRA.VDW>
0

>  <SCORE.INTRA.VDW.0>
0

>  <SCORE.INTRA.norm>
0

>  <SCORE.RESTR>
0

>  <SCORE.RESTR.CAVITY>
0

>  <SCORE.RESTR.norm>
0

>  <SCORE.SYSTEM>
0

>  <SCORE.SYSTEM.CONST>
0

>  <SCORE.SYSTEM.DIHEDRAL>
0

>  <SCORE.SYSTEM.SOLV>
0

>  <SCORE.SYSTEM.norm>
0

>  <SCORE.heavy>
10

>  <SCORE.norm>
-1.8388

>  <RMSD>
2.493

$$$$
ligand
 OpenBabel11021811423D
libRbt.so/2013.1/901 2013/11/27
 10 11  0  0  0  0  0  0  0  0999 V2000
   11.7564   11.0526    8.7416 N   0  0  0  0  0  0  0  0  0  0  0  0
   11.9062    9.8633    8.0570 C   0  0  0  0  0  0  0  0  0  0  0  0
   11.7382    9.7795    6.7315 N   0  0  0  0  0  0  0  0  0  0  0  0
   11.4087   10.9695    6.1547 C   0  0  0  0  0  0  0  0  0  0  0  0
   11.2419   12.1944    6.7828 C   0  0  0  0  0  0  0  0  0  0  0  0
   11.4211   12.2911    8.1896 C   0  0  0  0  0  0  0  0  0  0  0  0
   11.3254   13.2625    8.9397 O   0  0  0  0  0  0  0  0  0  0  0  0
   10.9118   13.1289    5.8308 N   0  0  0  0  0  0  0  0  0  0  0  0
   10.8812   12.4752    4.6459 C   0  0  0  0  0  0  0  0  0  0  0  0
   11.1814   11.1431    4.8108 N   0  0  0  0  0  0  0  0  0  0  0  0
  1  2  1  0  0  0  0
  1  6  1  0  0  0  0
  2  3  2  0  0  0  0
  3  4  1  0  0  0  0
  4  5  2  0  0  0  0
  4 10  1  0  0  0  0
  5  6  1  0  0  0  0
  5  8  1  0  0  0  0
  6  7  2  0  0  0  0
  8  9  1  0  0  0  0
  9 10  2  0  0  0  0
M  END
>  <CHROM.1>
11.37686091,11.64518702,6.92862675,-0.92846317,1.32422806,-2.16795156

>  <Name>
ligand

>  <RI>
0

>  <Rbt.Current_Directory>
/home/itssahil/PROJECTS/Mol_Feturizer/New_Systems/rnas/2EEU

>  <Rbt.Executable>
rbdock ($Id: //depot/dev/client3/rdock/2013.1/src/exe/rbdock.cxx#4 $)

>  <Rbt.Library>
libRbt.so (2013.1, Build901 2013/11/27)

>  <Rbt.Parameter_File>
/export/apps/rDock/src/rDock_2013.1_src/data/scripts/dock_solv.prm

>  <Rbt.Receptor>
prm/pocket_docking_3.prm

>  <SCORE>
-18.3567

>  <SCORE.INTER>
-18.3567

>  <SCORE.INTER.CONST>
1

>  <SCORE.INTER.POLAR>
0

>  <SCORE.INTER.ROT>
0

>  <SCORE.INTER.SOLV>
3.63948

>  <SCORE.INTER.VDW>
-17.051

>  <SCORE.INTER.norm>
-1.83567

>  <SCORE.INTRA>
0

>  <SCORE.INTRA.DIHEDRAL>
0

>  <SCORE.INTRA.DIHEDRAL.0>
0

>  <SCORE.INTRA.POLAR>
0

>  <SCORE.INTRA.POLAR.0>
0

>  <SCORE.INTRA.REPUL>
0

>  <SCORE.INTRA.REPUL.0>
0

>  <SCORE.INTRA.SOLV>
0

>  <SCORE.INTRA.SOLV.lig_0>
-4.28148

>  <SCORE.INTRA.VDW>
0

>  <SCORE.INTRA.VDW.0>
0

>  <SCORE.INTRA.norm>
0

>  <SCORE.RESTR>
0

>  <SCORE.RESTR.CAVITY>
0

>  <SCORE.RESTR.norm>
0

>  <SCORE.SYSTEM>
0

>  <SCORE.SYSTEM.CONST>
0

>  <SCORE.SYSTEM.DIHEDRAL>
0

>  <SCORE.SYSTEM.SOLV>
0

>  <SCORE.SYSTEM.norm>
0

>  <SCORE.heavy>
10

>  <SCORE.norm>
-1.83567

>  <RMSD>
2.493

$$$$
ligand
 OpenBabel11021811423D
libRbt.so/2013.1/901 2013/11/27
 10 11  0  0  0  0  0  0  0  0999 V2000
   11.7457   11.0667    8.7451 N   0  0  0  0  0  0  0  0  0  0  0  0
   11.8895    9.8745    8.0642 C   0  0  0  0  0  0  0  0  0  0  0  0
   11.7235    9.7879    6.7386 N   0  0  0  0  0  0  0  0  0  0  0  0
   11.4025   10.9783    6.1578 C   0  0  0  0  0  0  0  0  0  0  0  0
   11.2419   12.2060    6.7821 C   0  0  0  0  0  0  0  0  0  0  0  0
   11.4191   12.3056    8.1889 C   0  0  0  0  0  0  0  0  0  0  0  0
   11.3279   13.2797    8.9361 O   0  0  0  0  0  0  0  0  0  0  0  0
   10.9195   13.1397    5.8268 N   0  0  0  0  0  0  0  0  0  0  0  0
   10.8872   12.4828    4.6437 C   0  0  0  0  0  0  0  0  0  0  0  0
   11.1789   11.1494    4.8130 N   0  0  0  0  0  0  0  0  0  0  0  0
  1  2  1  0  0  0  0
  1  6  1  0  0  0  0
  2  3  2  0  0  0  0
  3  4  1  0  0  0  0
  4  5  2  0  0  0  0
  4 10  1  0  0  0  0
  5  6  1  0  0  0  0
  5  8  1  0  0  0  0
  6  7  2  0  0  0  0
  8  9  1  0  0  0  0
  9 10  2  0  0  0  0
M  END
>  <CHROM.1>
11.37328801,11.65634901,6.92975504,-0.92065298,1.33037975,-2.17838623

>  <Name>
ligand

>  <RI>
0

>  <Rbt.Current_Directory>
/home/itssahil/PROJECTS/Mol_Feturizer/New_Systems/rnas/2EEU

>  <Rbt.Executable>
rbdock ($Id: //depot/dev/client3/rdock/2013.1/src/exe/rbdock.cxx#4 $)

>  <Rbt.Library>
libRbt.so (2013.1, Build901 2013/11/27)

>  <Rbt.Parameter_File>
/export/apps/rDock/src/rDock_2013.1_src/data/scripts/dock_solv.prm

>  <Rbt.Receptor>
prm/pocket_docking_5.prm

>  <SCORE>
-18.3869

>  <SCORE.INTER>
-18.3869

>  <SCORE.INTER.CONST>
1

>  <SCORE.INTER.POLAR>
0

>  <SCORE.INTER.ROT>
0

>  <SCORE.INTER.SOLV>
3.66148

>  <SCORE.INTER.VDW>
-17.0784

>  <SCORE.INTER.norm>
-1.83869

>  <SCORE.INTRA>
0

>  <SCORE.INTRA.DIHEDRAL>
0

>  <SCORE.INTRA.DIHEDRAL.0>
0

>  <SCORE.INTRA.POLAR>
0

>  <SCORE.INTRA.POLAR.0>
0

>  <SCORE.INTRA.REPUL>
0

>  <SCORE.INTRA.REPUL.0>
0

>  <SCORE.INTRA.SOLV>
0

>  <SCORE.INTRA.SOLV.lig_0>
-4.28148

>  <SCORE.INTRA.VDW>
0

>  <SCORE.INTRA.VDW.0>
0

>  <SCORE.INTRA.norm>
0

>  <SCORE.RESTR>
0

>  <SCORE.RESTR.CAVITY>
0

>  <SCORE.RESTR.norm>
0

>  <SCORE.SYSTEM>
0

>  <SCORE.SYSTEM.CONST>
0

>  <SCORE.SYSTEM.DIHEDRAL>
0

>  <SCORE.SYSTEM.SOLV>
0

>  <SCORE.SYSTEM.norm>
0

>  <SCORE.heavy>
10

>  <SCORE.norm>
-1.83869

>  <RMSD>
2.493

$$$$
ligand
 OpenBabel11021811423D
libRbt.so/2013.1/901 2013/11/27
 10 11  0  0  0  0  0  0  0  0999 V2000
   11.7521   11.0619    8.7436 N   0  0  0  0  0  0  0  0  0  0  0  0
   11.8944    9.8699    8.0619 C   0  0  0  0  0  0  0  0  0  0  0  0
   11.7249    9.7837    6.7368 N   0  0  0  0  0  0  0  0  0  0  0  0
   11.4023   10.9741    6.1571 C   0  0  0  0  0  0  0  0  0  0  0  0
   11.2432   12.2017    6.7822 C   0  0  0  0  0  0  0  0  0  0  0  0
   11.4239   12.3009    8.1885 C   0  0  0  0  0  0  0  0  0  0  0  0
   11.3346   13.2748    8.9362 O   0  0  0  0  0  0  0  0  0  0  0  0
   10.9181   13.1356    5.8280 N   0  0  0  0  0  0  0  0  0  0  0  0
   10.8828   12.4791    4.6447 C   0  0  0  0  0  0  0  0  0  0  0  0
   11.1751   11.1456    4.8129 N   0  0  0  0  0  0  0  0  0  0  0  0
  1  2  1  0  0  0  0
  1  6  1  0  0  0  0
  2  3  2  0  0  0  0
  3  4  1  0  0  0  0
  4  5  2  0  0  0  0
  4 10  1  0  0  0  0
  5  6  1  0  0  0  0
  5  8  1  0  0  0  0
  6  7  2  0  0  0  0
  8  9  1  0  0  0  0
  9 10  2  0  0  0  0
M  END
>  <CHROM.1>
11.37498954,11.65200438,6.92931597,-0.91206111,1.32878952,-2.18643879

>  <Name>
ligand

>  <RI>
0

>  <Rbt.Current_Directory>
/home/itssahil/PROJECTS/Mol_Feturizer/New_Systems/rnas/2EEU

>  <Rbt.Executable>
rbdock ($Id: //depot/dev/client3/rdock/2013.1/src/exe/rbdock.cxx#4 $)

>  <Rbt.Library>
libRbt.so (2013.1, Build901 2013/11/27)

>  <Rbt.Parameter_File>
/export/apps/rDock/src/rDock_2013.1_src/data/scripts/dock_solv.prm

>  <Rbt.Receptor>
prm/pocket_docking_6.prm

>  <SCORE>
-18.3874

>  <SCORE.INTER>
-18.3874

>  <SCORE.INTER.CONST>
1

>  <SCORE.INTER.POLAR>
0

>  <SCORE.INTER.ROT>
0

>  <SCORE.INTER.SOLV>
3.65306

>  <SCORE.INTER.VDW>
-17.076

>  <SCORE.INTER.norm>
-1.83874

>  <SCORE.INTRA>
0

>  <SCORE.INTRA.DIHEDRAL>
0

>  <SCORE.INTRA.DIHEDRAL.0>
0

>  <SCORE.INTRA.POLAR>
0

>  <SCORE.INTRA.POLAR.0>
0

>  <SCORE.INTRA.REPUL>
0

>  <SCORE.INTRA.REPUL.0>
0

>  <SCORE.INTRA.SOLV>
0

>  <SCORE.INTRA.SOLV.lig_0>
-4.28148

>  <SCORE.INTRA.VDW>
0

>  <SCORE.INTRA.VDW.0>
0

>  <SCORE.INTRA.norm>
0

>  <SCORE.RESTR>
0

>  <SCORE.RESTR.CAVITY>
0

>  <SCORE.RESTR.norm>
0

>  <SCORE.SYSTEM>
0

>  <SCORE.SYSTEM.CONST>
0

>  <SCORE.SYSTEM.DIHEDRAL>
0

>  <SCORE.SYSTEM.SOLV>
0

>  <SCORE.SYSTEM.norm>
0

>  <SCORE.heavy>
10

>  <SCORE.norm>
-1.83874

>  <RMSD>
2.493

$$$$
ligand
 OpenBabel11021811423D
libRbt.so/2013.1/901 2013/11/27
 10 11  0  0  0  0  0  0  0  0999 V2000
   11.8158   11.1079    8.7065 N   0  0  0  0  0  0  0  0  0  0  0  0
   11.9092    9.9029    8.0394 C   0  0  0  0  0  0  0  0  0  0  0  0
   11.7009    9.8018    6.7208 N   0  0  0  0  0  0  0  0  0  0  0  0
   11.3921   10.9916    6.1322 C   0  0  0  0  0  0  0  0  0  0  0  0
   11.2812   12.2317    6.7426 C   0  0  0  0  0  0  0  0  0  0  0  0
   11.5034   12.3466    8.1419 C   0  0  0  0  0  0  0  0  0  0  0  0
   11.4593   13.3333    8.8768 O   0  0  0  0  0  0  0  0  0  0  0  0
   10.9532   13.1597    5.7837 N   0  0  0  0  0  0  0  0  0  0  0  0
   10.8687   12.4871    4.6119 C   0  0  0  0  0  0  0  0  0  0  0  0
   11.1321   11.1493    4.7923 N   0  0  0  0  0  0  0  0  0  0  0  0
  1  2  1  0  0  0  0
  1  6  1  0  0  0  0
  2  3  2  0  0  0  0
  3  4  1  0  0  0  0
  4  5  2  0  0  0  0
  4 10  1  0  0  0  0
  5  6  1  0  0  0  0
  5  8  1  0  0  0  0
  6  7  2  0  0  0  0
  8  9  1  0  0  0  0
  9 10  2  0  0  0  0
M  END
>  <CHROM.1>
11.40326210,11.68104467,6.89448091,-0.75546691,1.33034078,-2.35338315

>  <Name>
ligand

>  <RI>
0

>  <Rbt.Current_Directory>
/home/itssahil/PROJECTS/Mol_Feturizer/New_Systems/rnas/2EEU

>  <Rbt.Executable>
rbdock ($Id: //depot/dev/client3/rdock/2013.1/src/exe/rbdock.cxx#4 $)

>  <Rbt.Library>
libRbt.so (2013.1, Build901 2013/11/27)

>  <Rbt.Parameter_File>
/export/apps/rDock/src/rDock_2013.1_src/data/scripts/dock_solv.prm

>  <Rbt.Receptor>
prm/pocket_docking_6.prm

>  <SCORE>
-18.4125

>  <SCORE.INTER>
-18.4125

>  <SCORE.INTER.CONST>
1

>  <SCORE.INTER.POLAR>
0

>  <SCORE.INTER.ROT>
0

>  <SCORE.INTER.SOLV>
3.68126

>  <SCORE.INTER.VDW>
-17.1021

>  <SCORE.INTER.norm>
-1.84125

>  <SCORE.INTRA>
0

>  <SCORE.INTRA.DIHEDRAL>
0

>  <SCORE.INTRA.DIHEDRAL.0>
0

>  <SCORE.INTRA.POLAR>
0

>  <SCORE.INTRA.POLAR.0>
0

>  <SCORE.INTRA.REPUL>
0

>  <SCORE.INTRA.REPUL.0>
0

>  <SCORE.INTRA.SOLV>
0

>  <SCORE.INTRA.SOLV.lig_0>
-4.28148

>  <SCORE.INTRA.VDW>
0

>  <SCORE.INTRA.VDW.0>
0

>  <SCORE.INTRA.norm>
0

>  <SCORE.RESTR>
0

>  <SCORE.RESTR.CAVITY>
0

>  <SCORE.RESTR.norm>
0

>  <SCORE.SYSTEM>
0

>  <SCORE.SYSTEM.CONST>
0

>  <SCORE.SYSTEM.DIHEDRAL>
0

>  <SCORE.SYSTEM.SOLV>
0

>  <SCORE.SYSTEM.norm>
0

>  <SCORE.heavy>
10

>  <SCORE.norm>
-1.84125

>  <RMSD>
2.493

$$$$
ligand
 OpenBabel11021811423D
libRbt.so/2013.1/901 2013/11/27
 10 11  0  0  0  0  0  0  0  0999 V2000
   11.8203   11.1027    8.7039 N   0  0  0  0  0  0  0  0  0  0  0  0
   11.9181    9.9005    8.0326 C   0  0  0  0  0  0  0  0  0  0  0  0
   11.7113    9.8035    6.7135 N   0  0  0  0  0  0  0  0  0  0  0  0
   11.3995   10.9944    6.1288 C   0  0  0  0  0  0  0  0  0  0  0  0
   11.2842   12.2319    6.7437 C   0  0  0  0  0  0  0  0  0  0  0  0
   11.5047   12.3425    8.1435 C   0  0  0  0  0  0  0  0  0  0  0  0
   11.4568   13.3264    8.8819 O   0  0  0  0  0  0  0  0  0  0  0  0
   10.9543   13.1624    5.7877 N   0  0  0  0  0  0  0  0  0  0  0  0
   10.8729   12.4938    4.6135 C   0  0  0  0  0  0  0  0  0  0  0  0
   11.1403   11.1561    4.7893 N   0  0  0  0  0  0  0  0  0  0  0  0
  1  2  1  0  0  0  0
  1  6  1  0  0  0  0
  2  3  2  0  0  0  0
  3  4  1  0  0  0  0
  4  5  2  0  0  0  0
  4 10  1  0  0  0  0
  5  6  1  0  0  0  0
  5  8  1  0  0  0  0
  6  7  2  0  0  0  0
  8  9  1  0  0  0  0
  9 10  2  0  0  0  0
M  END
>  <CHROM.1>
11.40777963,11.68112463,6.89362035,-0.76735443,1.32883293,-2.33823291

>  <Name>
ligand

>  <RI>
0

>  <Rbt.Current_Directory>
/home/itssahil/PROJECTS/Mol_Feturizer/New_Systems/rnas/2EEU

>  <Rbt.Executable>
rbdock ($Id: //depot/dev/client3/rdock/2013.1/src/exe/rbdock.cxx#4 $)

>  <Rbt.Library>
libRbt.so (2013.1, Build901 2013/11/27)

>  <Rbt.Parameter_File>
/export/apps/rDock/src/rDock_2013.1_src/data/scripts/dock_solv.prm

>  <Rbt.Receptor>
prm/pocket_docking_8.prm

>  <SCORE>
-18.3825

>  <SCORE.INTER>
-18.3825

>  <SCORE.INTER.CONST>
1

>  <SCORE.INTER.POLAR>
0

>  <SCORE.INTER.ROT>
0

>  <SCORE.INTER.SOLV>
3.67016

>  <SCORE.INTER.VDW>
-17.0784

>  <SCORE.INTER.norm>
-1.83825

>  <SCORE.INTRA>
0

>  <SCORE.INTRA.DIHEDRAL>
0

>  <SCORE.INTRA.DIHEDRAL.0>
0

>  <SCORE.INTRA.POLAR>
0

>  <SCORE.INTRA.POLAR.0>
0

>  <SCORE.INTRA.REPUL>
0

>  <SCORE.INTRA.REPUL.0>
0

>  <SCORE.INTRA.SOLV>
0

>  <SCORE.INTRA.SOLV.lig_0>
-4.28148

>  <SCORE.INTRA.VDW>
0

>  <SCORE.INTRA.VDW.0>
0

>  <SCORE.INTRA.norm>
0

>  <SCORE.RESTR>
0

>  <SCORE.RESTR.CAVITY>
0

>  <SCORE.RESTR.norm>
0

>  <SCORE.SYSTEM>
0

>  <SCORE.SYSTEM.CONST>
0

>  <SCORE.SYSTEM.DIHEDRAL>
0

>  <SCORE.SYSTEM.SOLV>
0

>  <SCORE.SYSTEM.norm>
0

>  <SCORE.heavy>
10

>  <SCORE.norm>
-1.83825

>  <RMSD>
2.493

$$$$
ligand
 OpenBabel11021811423D
libRbt.so/2013.1/901 2013/11/27
 10 11  0  0  0  0  0  0  0  0999 V2000
   11.7426   11.0577    8.7463 N   0  0  0  0  0  0  0  0  0  0  0  0
   11.8864    9.8654    8.0657 C   0  0  0  0  0  0  0  0  0  0  0  0
   11.7195    9.7783    6.7403 N   0  0  0  0  0  0  0  0  0  0  0  0
   11.3979   10.9684    6.1592 C   0  0  0  0  0  0  0  0  0  0  0  0
   11.2373   12.1962    6.7832 C   0  0  0  0  0  0  0  0  0  0  0  0
   11.4153   12.2963    8.1899 C   0  0  0  0  0  0  0  0  0  0  0  0
   11.3243   13.2707    8.9368 O   0  0  0  0  0  0  0  0  0  0  0  0
   10.9141   13.1296    5.8278 N   0  0  0  0  0  0  0  0  0  0  0  0
   10.8812   12.4722    4.6449 C   0  0  0  0  0  0  0  0  0  0  0  0
   11.1734   11.1390    4.8145 N   0  0  0  0  0  0  0  0  0  0  0  0
  1  2  1  0  0  0  0
  1  6  1  0  0  0  0
  2  3  2  0  0  0  0
  3  4  1  0  0  0  0
  4  5  2  0  0  0  0
  4 10  1  0  0  0  0
  5  6  1  0  0  0  0
  5  8  1  0  0  0  0
  6  7  2  0  0  0  0
  8  9  1  0  0  0  0
  9 10  2  0  0  0  0
M  END
>  <CHROM.1>
11.36893788,11.64668776,6.93097755,-0.91922079,1.32980950,-2.18011228

>  <Name>
ligand

>  <RI>
0

>  <Rbt.Current_Directory>
/home/itssahil/PROJECTS/Mol_Feturizer/New_Systems/rnas/2EEU

>  <Rbt.Executable>
rbdock ($Id: //depot/dev/client3/rdock/2013.1/src/exe/rbdock.cxx#4 $)

>  <Rbt.Library>
libRbt.so (2013.1, Build901 2013/11/27)

>  <Rbt.Parameter_File>
/export/apps/rDock/src/rDock_2013.1_src/data/scripts/dock_solv.prm

>  <Rbt.Receptor>
prm/blind_docking_100.prm

>  <SCORE>
-18.382

>  <SCORE.INTER>
-18.382

>  <SCORE.INTER.CONST>
1

>  <SCORE.INTER.POLAR>
0

>  <SCORE.INTER.ROT>
0

>  <SCORE.INTER.SOLV>
3.65793

>  <SCORE.INTER.VDW>
-17.074

>  <SCORE.INTER.norm>
-1.8382

>  <SCORE.INTRA>
0

>  <SCORE.INTRA.DIHEDRAL>
0

>  <SCORE.INTRA.DIHEDRAL.0>
0

>  <SCORE.INTRA.POLAR>
0

>  <SCORE.INTRA.POLAR.0>
0

>  <SCORE.INTRA.REPUL>
0

>  <SCORE.INTRA.REPUL.0>
0

>  <SCORE.INTRA.SOLV>
0

>  <SCORE.INTRA.SOLV.lig_0>
-4.28148

>  <SCORE.INTRA.VDW>
0

>  <SCORE.INTRA.VDW.0>
0

>  <SCORE.INTRA.norm>
0

>  <SCORE.RESTR>
0

>  <SCORE.RESTR.CAVITY>
0

>  <SCORE.RESTR.norm>
0

>  <SCORE.SYSTEM>
0

>  <SCORE.SYSTEM.CONST>
0

>  <SCORE.SYSTEM.DIHEDRAL>
0

>  <SCORE.SYSTEM.SOLV>
0

>  <SCORE.SYSTEM.norm>
0

>  <SCORE.heavy>
10

>  <SCORE.norm>
-1.8382

>  <RMSD>
2.494

$$$$
ligand
 OpenBabel11021811423D
libRbt.so/2013.1/901 2013/11/27
 10 11  0  0  0  0  0  0  0  0999 V2000
   11.7374   11.0709    8.7436 N   0  0  0  0  0  0  0  0  0  0  0  0
   11.8963    9.8814    8.0614 C   0  0  0  0  0  0  0  0  0  0  0  0
   11.7348    9.7949    6.7352 N   0  0  0  0  0  0  0  0  0  0  0  0
   11.4021   10.9825    6.1552 C   0  0  0  0  0  0  0  0  0  0  0  0
   11.2262   12.2074    6.7808 C   0  0  0  0  0  0  0  0  0  0  0  0
   11.3984   12.3069    8.1883 C   0  0  0  0  0  0  0  0  0  0  0  0
   11.2944   13.2789    8.9366 O   0  0  0  0  0  0  0  0  0  0  0  0
   10.8959   13.1389    5.8261 N   0  0  0  0  0  0  0  0  0  0  0  0
   10.8740   12.4834    4.6419 C   0  0  0  0  0  0  0  0  0  0  0  0
   11.1801   11.1530    4.8101 N   0  0  0  0  0  0  0  0  0  0  0  0
  1  2  1  0  0  0  0
  1  6  1  0  0  0  0
  2  3  2  0  0  0  0
  3  4  1  0  0  0  0
  4  5  2  0  0  0  0
  4 10  1  0  0  0  0
  5  6  1  0  0  0  0
  5  8  1  0  0  0  0
  6  7  2  0  0  0  0
  8  9  1  0  0  0  0
  9 10  2  0  0  0  0
M  END
>  <CHROM.1>
11.36326028,11.65905212,6.92806782,-0.95545108,1.32259741,-2.14317656

>  <Name>
ligand

>  <RI>
0

>  <Rbt.Current_Directory>
/home/itssahil/PROJECTS/Mol_Feturizer/New_Systems/rnas/2EEU

>  <Rbt.Executable>
rbdock ($Id: //depot/dev/client3/rdock/2013.1/src/exe/rbdock.cxx#4 $)

>  <Rbt.Library>
libRbt.so (2013.1, Build901 2013/11/27)

>  <Rbt.Parameter_File>
/export/apps/rDock/src/rDock_2013.1_src/data/scripts/dock_solv.prm

>  <Rbt.Receptor>
prm/blind_docking_40.prm

>  <SCORE>
-18.3539

>  <SCORE.INTER>
-18.3539

>  <SCORE.INTER.CONST>
1

>  <SCORE.INTER.POLAR>
0

>  <SCORE.INTER.ROT>
0

>  <SCORE.INTER.SOLV>
3.65839

>  <SCORE.INTER.VDW>
-17.0554

>  <SCORE.INTER.norm>
-1.83539

>  <SCORE.INTRA>
0

>  <SCORE.INTRA.DIHEDRAL>
0

>  <SCORE.INTRA.DIHEDRAL.0>
0

>  <SCORE.INTRA.POLAR>
0

>  <SCORE.INTRA.POLAR.0>
0

>  <SCORE.INTRA.REPUL>
0

>  <SCORE.INTRA.REPUL.0>
0

>  <SCORE.INTRA.SOLV>
0

>  <SCORE.INTRA.SOLV.lig_0>
-4.28148

>  <SCORE.INTRA.VDW>
0

>  <SCORE.INTRA.VDW.0>
0

>  <SCORE.INTRA.norm>
0

>  <SCORE.RESTR>
0

>  <SCORE.RESTR.CAVITY>
0

>  <SCORE.RESTR.norm>
0

>  <SCORE.SYSTEM>
0

>  <SCORE.SYSTEM.CONST>
0

>  <SCORE.SYSTEM.DIHEDRAL>
0

>  <SCORE.SYSTEM.SOLV>
0

>  <SCORE.SYSTEM.norm>
0

>  <SCORE.heavy>
10

>  <SCORE.norm>
-1.83539

>  <RMSD>
2.494

$$$$
ligand
 OpenBabel11021811423D
libRbt.so/2013.1/901 2013/11/27
 10 11  0  0  0  0  0  0  0  0999 V2000
   11.7696   11.0670    8.7239 N   0  0  0  0  0  0  0  0  0  0  0  0
   11.9245    9.8811    8.0344 C   0  0  0  0  0  0  0  0  0  0  0  0
   11.7518    9.8010    6.7093 N   0  0  0  0  0  0  0  0  0  0  0  0
   11.4123   10.9909    6.1381 C   0  0  0  0  0  0  0  0  0  0  0  0
   11.2399   12.2124    6.7713 C   0  0  0  0  0  0  0  0  0  0  0  0
   11.4241   12.3052    8.1777 C   0  0  0  0  0  0  0  0  0  0  0  0
   11.3251   13.2733    8.9316 O   0  0  0  0  0  0  0  0  0  0  0  0
   10.9001   13.1481    5.8240 N   0  0  0  0  0  0  0  0  0  0  0  0
   10.8691   12.4985    4.6368 C   0  0  0  0  0  0  0  0  0  0  0  0
   11.1786   11.1678    4.7957 N   0  0  0  0  0  0  0  0  0  0  0  0
  1  2  1  0  0  0  0
  1  6  1  0  0  0  0
  2  3  2  0  0  0  0
  3  4  1  0  0  0  0
  4  5  2  0  0  0  0
  4 10  1  0  0  0  0
  5  6  1  0  0  0  0
  5  8  1  0  0  0  0
  6  7  2  0  0  0  0
  8  9  1  0  0  0  0
  9 10  2  0  0  0  0
M  END
>  <CHROM.1>
11.37910310,11.66353568,6.91457502,-0.93003397,1.31661899,-2.16281343

>  <Name>
ligand

>  <RI>
0

>  <Rbt.Current_Directory>
/home/itssahil/PROJECTS/Mol_Feturizer/New_Systems/rnas/2EEU

>  <Rbt.Executable>
rbdock ($Id: //depot/dev/client3/rdock/2013.1/src/exe/rbdock.cxx#4 $)

>  <Rbt.Library>
libRbt.so (2013.1, Build901 2013/11/27)

>  <Rbt.Parameter_File>
/export/apps/rDock/src/rDock_2013.1_src/data/scripts/dock_solv.prm

>  <Rbt.Receptor>
prm/blind_docking_60.prm

>  <SCORE>
-18.3896

>  <SCORE.INTER>
-18.3896

>  <SCORE.INTER.CONST>
1

>  <SCORE.INTER.POLAR>
0

>  <SCORE.INTER.ROT>
0

>  <SCORE.INTER.SOLV>
3.62391

>  <SCORE.INTER.VDW>
-17.0677

>  <SCORE.INTER.norm>
-1.83896

>  <SCORE.INTRA>
0

>  <SCORE.INTRA.DIHEDRAL>
0

>  <SCORE.INTRA.DIHEDRAL.0>
0

>  <SCORE.INTRA.POLAR>
0

>  <SCORE.INTRA.POLAR.0>
0

>  <SCORE.INTRA.REPUL>
0

>  <SCORE.INTRA.REPUL.0>
0

>  <SCORE.INTRA.SOLV>
0

>  <SCORE.INTRA.SOLV.lig_0>
-4.28148

>  <SCORE.INTRA.VDW>
0

>  <SCORE.INTRA.VDW.0>
0

>  <SCORE.INTRA.norm>
0

>  <SCORE.RESTR>
0

>  <SCORE.RESTR.CAVITY>
0

>  <SCORE.RESTR.norm>
0

>  <SCORE.SYSTEM>
0

>  <SCORE.SYSTEM.CONST>
0

>  <SCORE.SYSTEM.DIHEDRAL>
0

>  <SCORE.SYSTEM.SOLV>
0

>  <SCORE.SYSTEM.norm>
0

>  <SCORE.heavy>
10

>  <SCORE.norm>
-1.83896

>  <RMSD>
2.494

$$$$
ligand
 OpenBabel11021811423D
libRbt.so/2013.1/901 2013/11/27
 10 11  0  0  0  0  0  0  0  0999 V2000
   11.7650   11.0707    8.7280 N   0  0  0  0  0  0  0  0  0  0  0  0
   11.9270    9.8856    8.0389 C   0  0  0  0  0  0  0  0  0  0  0  0
   11.7568    9.8044    6.7135 N   0  0  0  0  0  0  0  0  0  0  0  0
   11.4123   10.9925    6.1416 C   0  0  0  0  0  0  0  0  0  0  0  0
   11.2328   12.2132    6.7743 C   0  0  0  0  0  0  0  0  0  0  0  0
   11.4141   12.3071    8.1810 C   0  0  0  0  0  0  0  0  0  0  0  0
   11.3089   13.2748    8.9347 O   0  0  0  0  0  0  0  0  0  0  0  0
   10.8898   13.1471    5.8264 N   0  0  0  0  0  0  0  0  0  0  0  0
   10.8640   12.4971    4.6392 C   0  0  0  0  0  0  0  0  0  0  0  0
   11.1800   11.1681    4.7988 N   0  0  0  0  0  0  0  0  0  0  0  0
  1  2  1  0  0  0  0
  1  6  1  0  0  0  0
  2  3  2  0  0  0  0
  3  4  1  0  0  0  0
  4  5  2  0  0  0  0
  4 10  1  0  0  0  0
  5  6  1  0  0  0  0
  5  8  1  0  0  0  0
  6  7  2  0  0  0  0
  8  9  1  0  0  0  0
  9 10  2  0  0  0  0
M  END
>  <CHROM.1>
11.37445719,11.66509416,6.91795319,-0.94649085,1.31332465,-2.14703608

>  <Name>
ligand

>  <RI>
0

>  <Rbt.Current_Directory>
/home/itssahil/PROJECTS/Mol_Feturizer/New_Systems/rnas/2EEU

>  <Rbt.Executable>
rbdock ($Id: //depot/dev/client3/rdock/2013.1/src/exe/rbdock.cxx#4 $)

>  <Rbt.Library>
libRbt.so (2013.1, Build901 2013/11/27)

>  <Rbt.Parameter_File>
/export/apps/rDock/src/rDock_2013.1_src/data/scripts/dock_solv.prm

>  <Rbt.Receptor>
prm/pocket_docking_3.prm

>  <SCORE>
-18.3918

>  <SCORE.INTER>
-18.3918

>  <SCORE.INTER.CONST>
1

>  <SCORE.INTER.POLAR>
0

>  <SCORE.INTER.ROT>
0

>  <SCORE.INTER.SOLV>
3.62416

>  <SCORE.INTER.VDW>
-17.0693

>  <SCORE.INTER.norm>
-1.83918

>  <SCORE.INTRA>
0

>  <SCORE.INTRA.DIHEDRAL>
0

>  <SCORE.INTRA.DIHEDRAL.0>
0

>  <SCORE.INTRA.POLAR>
0

>  <SCORE.INTRA.POLAR.0>
0

>  <SCORE.INTRA.REPUL>
0

>  <SCORE.INTRA.REPUL.0>
0

>  <SCORE.INTRA.SOLV>
0

>  <SCORE.INTRA.SOLV.lig_0>
-4.28148

>  <SCORE.INTRA.VDW>
0

>  <SCORE.INTRA.VDW.0>
0

>  <SCORE.INTRA.norm>
0

>  <SCORE.RESTR>
0

>  <SCORE.RESTR.CAVITY>
0

>  <SCORE.RESTR.norm>
0

>  <SCORE.SYSTEM>
0

>  <SCORE.SYSTEM.CONST>
0

>  <SCORE.SYSTEM.DIHEDRAL>
0

>  <SCORE.SYSTEM.SOLV>
0

>  <SCORE.SYSTEM.norm>
0

>  <SCORE.heavy>
10

>  <SCORE.norm>
-1.83918

>  <RMSD>
2.494

$$$$
ligand
 OpenBabel11021811423D
libRbt.so/2013.1/901 2013/11/27
 10 11  0  0  0  0  0  0  0  0999 V2000
   11.7634   11.0752    8.7279 N   0  0  0  0  0  0  0  0  0  0  0  0
   11.9224    9.8897    8.0388 C   0  0  0  0  0  0  0  0  0  0  0  0
   11.7514    9.8088    6.7135 N   0  0  0  0  0  0  0  0  0  0  0  0
   11.4095   10.9977    6.1416 C   0  0  0  0  0  0  0  0  0  0  0  0
   11.2330   12.2189    6.7744 C   0  0  0  0  0  0  0  0  0  0  0  0
   11.4152   12.3124    8.1810 C   0  0  0  0  0  0  0  0  0  0  0  0
   11.3127   13.2804    8.9347 O   0  0  0  0  0  0  0  0  0  0  0  0
   10.8918   13.1535    5.8265 N   0  0  0  0  0  0  0  0  0  0  0  0
   10.8640   12.5036    4.6394 C   0  0  0  0  0  0  0  0  0  0  0  0
   11.1769   11.1738    4.7990 N   0  0  0  0  0  0  0  0  0  0  0  0
  1  2  1  0  0  0  0
  1  6  1  0  0  0  0
  2  3  2  0  0  0  0
  3  4  1  0  0  0  0
  4  5  2  0  0  0  0
  4 10  1  0  0  0  0
  5  6  1  0  0  0  0
  5  8  1  0  0  0  0
  6  7  2  0  0  0  0
  8  9  1  0  0  0  0
  9 10  2  0  0  0  0
M  END
>  <CHROM.1>
11.37350747,11.67043252,6.91797726,-0.93998734,1.31505771,-2.15336432

>  <Name>
ligand

>  <RI>
0

>  <Rbt.Current_Directory>
/home/itssahil/PROJECTS/Mol_Feturizer/New_Systems/rnas/2EEU

>  <Rbt.Executable>
rbdock ($Id: //depot/dev/client3/rdock/2013.1/src/exe/rbdock.cxx#4 $)

>  <Rbt.Library>
libRbt.so (2013.1, Build901 2013/11/27)

>  <Rbt.Parameter_File>
/export/apps/rDock/src/rDock_2013.1_src/data/scripts/dock_solv.prm

>  <Rbt.Receptor>
prm/pocket_docking_5.prm

>  <SCORE>
-18.3904

>  <SCORE.INTER>
-18.3904

>  <SCORE.INTER.CONST>
1

>  <SCORE.INTER.POLAR>
0

>  <SCORE.INTER.ROT>
0

>  <SCORE.INTER.SOLV>
3.62833

>  <SCORE.INTER.VDW>
-17.0697

>  <SCORE.INTER.norm>
-1.83904

>  <SCORE.INTRA>
0

>  <SCORE.INTRA.DIHEDRAL>
0

>  <SCORE.INTRA.DIHEDRAL.0>
0

>  <SCORE.INTRA.POLAR>
0

>  <SCORE.INTRA.POLAR.0>
0

>  <SCORE.INTRA.REPUL>
0

>  <SCORE.INTRA.REPUL.0>
0

>  <SCORE.INTRA.SOLV>
0

>  <SCORE.INTRA.SOLV.lig_0>
-4.28148

>  <SCORE.INTRA.VDW>
0

>  <SCORE.INTRA.VDW.0>
0

>  <SCORE.INTRA.norm>
0

>  <SCORE.RESTR>
0

>  <SCORE.RESTR.CAVITY>
0

>  <SCORE.RESTR.norm>
0

>  <SCORE.SYSTEM>
0

>  <SCORE.SYSTEM.CONST>
0

>  <SCORE.SYSTEM.DIHEDRAL>
0

>  <SCORE.SYSTEM.SOLV>
0

>  <SCORE.SYSTEM.norm>
0

>  <SCORE.heavy>
10

>  <SCORE.norm>
-1.83904

>  <RMSD>
2.494

$$$$
ligand
 OpenBabel11021811423D
libRbt.so/2013.1/901 2013/11/27
 10 11  0  0  0  0  0  0  0  0999 V2000
   11.7592   11.0505    8.7348 N   0  0  0  0  0  0  0  0  0  0  0  0
   11.9455    9.8724    8.0398 C   0  0  0  0  0  0  0  0  0  0  0  0
   11.7890    9.7972    6.7124 N   0  0  0  0  0  0  0  0  0  0  0  0
   11.4319   10.9836    6.1447 C   0  0  0  0  0  0  0  0  0  0  0  0
   11.2281   12.1974    6.7834 C   0  0  0  0  0  0  0  0  0  0  0  0
   11.3949   12.2849    8.1923 C   0  0  0  0  0  0  0  0  0  0  0  0
   11.2680   13.2461    8.9511 O   0  0  0  0  0  0  0  0  0  0  0  0
   10.8799   13.1321    5.8382 N   0  0  0  0  0  0  0  0  0  0  0  0
   10.8750   12.4895    4.6468 C   0  0  0  0  0  0  0  0  0  0  0  0
   11.2095   11.1643    4.8010 N   0  0  0  0  0  0  0  0  0  0  0  0
  1  2  1  0  0  0  0
  1  6  1  0  0  0  0
  2  3  2  0  0  0  0
  3  4  1  0  0  0  0
  4  5  2  0  0  0  0
  4 10  1  0  0  0  0
  5  6  1  0  0  0  0
  5  8  1  0  0  0  0
  6  7  2  0  0  0  0
  8  9  1  0  0  0  0
  9 10  2  0  0  0  0
M  END
>  <CHROM.1>
11.37666456,11.65054037,6.92494324,-1.00770505,1.30528774,-2.08153145

>  <Name>
ligand

>  <RI>
0

>  <Rbt.Current_Directory>
/home/itssahil/PROJECTS/Mol_Feturizer/New_Systems/rnas/2EEU

>  <Rbt.Executable>
rbdock ($Id: //depot/dev/client3/rdock/2013.1/src/exe/rbdock.cxx#4 $)

>  <Rbt.Library>
libRbt.so (2013.1, Build901 2013/11/27)

>  <Rbt.Parameter_File>
/export/apps/rDock/src/rDock_2013.1_src/data/scripts/dock_solv.prm

>  <Rbt.Receptor>
prm/pocket_docking_5.prm

>  <SCORE>
-18.3544

>  <SCORE.INTER>
-18.3544

>  <SCORE.INTER.CONST>
1

>  <SCORE.INTER.POLAR>
0

>  <SCORE.INTER.ROT>
0

>  <SCORE.INTER.SOLV>
3.61694

>  <SCORE.INTER.VDW>
-17.0419

>  <SCORE.INTER.norm>
-1.83544

>  <SCORE.INTRA>
0

>  <SCORE.INTRA.DIHEDRAL>
0

>  <SCORE.INTRA.DIHEDRAL.0>
0

>  <SCORE.INTRA.POLAR>
0

>  <SCORE.INTRA.POLAR.0>
0

>  <SCORE.INTRA.REPUL>
0

>  <SCORE.INTRA.REPUL.0>
0

>  <SCORE.INTRA.SOLV>
0

>  <SCORE.INTRA.SOLV.lig_0>
-4.28148

>  <SCORE.INTRA.VDW>
0

>  <SCORE.INTRA.VDW.0>
0

>  <SCORE.INTRA.norm>
0

>  <SCORE.RESTR>
0

>  <SCORE.RESTR.CAVITY>
0

>  <SCORE.RESTR.norm>
0

>  <SCORE.SYSTEM>
0

>  <SCORE.SYSTEM.CONST>
0

>  <SCORE.SYSTEM.DIHEDRAL>
0

>  <SCORE.SYSTEM.SOLV>
0

>  <SCORE.SYSTEM.norm>
0

>  <SCORE.heavy>
10

>  <SCORE.norm>
-1.83544

>  <RMSD>
2.494

$$$$
ligand
 OpenBabel11021811423D
libRbt.so/2013.1/901 2013/11/27
 10 11  0  0  0  0  0  0  0  0999 V2000
   11.7557   11.0693    8.7381 N   0  0  0  0  0  0  0  0  0  0  0  0
   11.9115    9.8795    8.0557 C   0  0  0  0  0  0  0  0  0  0  0  0
   11.7462    9.7929    6.7300 N   0  0  0  0  0  0  0  0  0  0  0  0
   11.4133   10.9807    6.1506 C   0  0  0  0  0  0  0  0  0  0  0  0
   11.2405   12.2060    6.7765 C   0  0  0  0  0  0  0  0  0  0  0  0
   11.4167   12.3056    8.1834 C   0  0  0  0  0  0  0  0  0  0  0  0
   11.3159   13.2779    8.9318 O   0  0  0  0  0  0  0  0  0  0  0  0
   10.9087   13.1376    5.8224 N   0  0  0  0  0  0  0  0  0  0  0  0
   10.8828   12.4819    4.6384 C   0  0  0  0  0  0  0  0  0  0  0  0
   11.1879   11.1512    4.8061 N   0  0  0  0  0  0  0  0  0  0  0  0
  1  2  1  0  0  0  0
  1  6  1  0  0  0  0
  2  3  2  0  0  0  0
  3  4  1  0  0  0  0
  4  5  2  0  0  0  0
  4 10  1  0  0  0  0
  5  6  1  0  0  0  0
  5  8  1  0  0  0  0
  6  7  2  0  0  0  0
  8  9  1  0  0  0  0
  9 10  2  0  0  0  0
M  END
>  <CHROM.1>
11.37735739,11.65750610,6.92343711,-0.94360655,1.32206400,-2.15487928

>  <Name>
ligand

>  <RI>
0

>  <Rbt.Current_Directory>
/home/itssahil/PROJECTS/Mol_Feturizer/New_Systems/rnas/2EEU

>  <Rbt.Executable>
rbdock ($Id: //depot/dev/client3/rdock/2013.1/src/exe/rbdock.cxx#4 $)

>  <Rbt.Library>
libRbt.so (2013.1, Build901 2013/11/27)

>  <Rbt.Parameter_File>
/export/apps/rDock/src/rDock_2013.1_src/data/scripts/dock_solv.prm

>  <Rbt.Receptor>
prm/pocket_docking_6.prm

>  <SCORE>
-18.3598

>  <SCORE.INTER>
-18.3598

>  <SCORE.INTER.CONST>
1

>  <SCORE.INTER.POLAR>
0

>  <SCORE.INTER.ROT>
0

>  <SCORE.INTER.SOLV>
3.64712

>  <SCORE.INTER.VDW>
-17.0556

>  <SCORE.INTER.norm>
-1.83598

>  <SCORE.INTRA>
0

>  <SCORE.INTRA.DIHEDRAL>
0

>  <SCORE.INTRA.DIHEDRAL.0>
0

>  <SCORE.INTRA.POLAR>
0

>  <SCORE.INTRA.POLAR.0>
0

>  <SCORE.INTRA.REPUL>
0

>  <SCORE.INTRA.REPUL.0>
0

>  <SCORE.INTRA.SOLV>
0

>  <SCORE.INTRA.SOLV.lig_0>
-4.28148

>  <SCORE.INTRA.VDW>
0

>  <SCORE.INTRA.VDW.0>
0

>  <SCORE.INTRA.norm>
0

>  <SCORE.RESTR>
0

>  <SCORE.RESTR.CAVITY>
0

>  <SCORE.RESTR.norm>
0

>  <SCORE.SYSTEM>
0

>  <SCORE.SYSTEM.CONST>
0

>  <SCORE.SYSTEM.DIHEDRAL>
0

>  <SCORE.SYSTEM.SOLV>
0

>  <SCORE.SYSTEM.norm>
0

>  <SCORE.heavy>
10

>  <SCORE.norm>
-1.83598

>  <RMSD>
2.494

$$$$
ligand
 OpenBabel11021811423D
libRbt.so/2013.1/901 2013/11/27
 10 11  0  0  0  0  0  0  0  0999 V2000
   11.7406   11.0705    8.7433 N   0  0  0  0  0  0  0  0  0  0  0  0
   11.8925    9.8787    8.0636 C   0  0  0  0  0  0  0  0  0  0  0  0
   11.7269    9.7896    6.7381 N   0  0  0  0  0  0  0  0  0  0  0  0
   11.3978   10.9772    6.1561 C   0  0  0  0  0  0  0  0  0  0  0  0
   11.2291   12.2045    6.7791 C   0  0  0  0  0  0  0  0  0  0  0  0
   11.4056   12.3066    8.1858 C   0  0  0  0  0  0  0  0  0  0  0  0
   11.3080   13.2809    8.9320 O   0  0  0  0  0  0  0  0  0  0  0  0
   10.9003   13.1350    5.8229 N   0  0  0  0  0  0  0  0  0  0  0  0
   10.8723   12.4767    4.6405 C   0  0  0  0  0  0  0  0  0  0  0  0
   11.1730   11.1455    4.8111 N   0  0  0  0  0  0  0  0  0  0  0  0
  1  2  1  0  0  0  0
  1  6  1  0  0  0  0
  2  3  2  0  0  0  0
  3  4  1  0  0  0  0
  4  5  2  0  0  0  0
  4 10  1  0  0  0  0
  5  6  1  0  0  0  0
  5  8  1  0  0  0  0
  6  7  2  0  0  0  0
  8  9  1  0  0  0  0
  9 10  2  0  0  0  0
M  END
>  <CHROM.1>
11.36414547,11.65586389,6.92733843,-0.93617509,1.32478794,-2.16433156

>  <Name>
ligand

>  <RI>
0

>  <Rbt.Current_Directory>
/home/itssahil/PROJECTS/Mol_Feturizer/New_Systems/rnas/2EEU

>  <Rbt.Executable>
rbdock ($Id: //depot/dev/client3/rdock/2013.1/src/exe/rbdock.cxx#4 $)

>  <Rbt.Library>
libRbt.so (2013.1, Build901 2013/11/27)

>  <Rbt.Parameter_File>
/export/apps/rDock/src/rDock_2013.1_src/data/scripts/dock_solv.prm

>  <Rbt.Receptor>
prm/pocket_docking_7.prm

>  <SCORE>
-18.3866

>  <SCORE.INTER>
-18.3866

>  <SCORE.INTER.CONST>
1

>  <SCORE.INTER.POLAR>
0

>  <SCORE.INTER.ROT>
0

>  <SCORE.INTER.SOLV>
3.65854

>  <SCORE.INTER.VDW>
-17.0772

>  <SCORE.INTER.norm>
-1.83866

>  <SCORE.INTRA>
0

>  <SCORE.INTRA.DIHEDRAL>
0

>  <SCORE.INTRA.DIHEDRAL.0>
0

>  <SCORE.INTRA.POLAR>
0

>  <SCORE.INTRA.POLAR.0>
0

>  <SCORE.INTRA.REPUL>
0

>  <SCORE.INTRA.REPUL.0>
0

>  <SCORE.INTRA.SOLV>
0

>  <SCORE.INTRA.SOLV.lig_0>
-4.28148

>  <SCORE.INTRA.VDW>
0

>  <SCORE.INTRA.VDW.0>
0

>  <SCORE.INTRA.norm>
0

>  <SCORE.RESTR>
0

>  <SCORE.RESTR.CAVITY>
0

>  <SCORE.RESTR.norm>
0

>  <SCORE.SYSTEM>
0

>  <SCORE.SYSTEM.CONST>
0

>  <SCORE.SYSTEM.DIHEDRAL>
0

>  <SCORE.SYSTEM.SOLV>
0

>  <SCORE.SYSTEM.norm>
0

>  <SCORE.heavy>
10

>  <SCORE.norm>
-1.83866

>  <RMSD>
2.494

$$$$
ligand
 OpenBabel11021811423D
libRbt.so/2013.1/901 2013/11/27
 10 11  0  0  0  0  0  0  0  0999 V2000
   11.7649   11.0548    8.7325 N   0  0  0  0  0  0  0  0  0  0  0  0
   11.9421    9.8742    8.0395 C   0  0  0  0  0  0  0  0  0  0  0  0
   11.7813    9.7971    6.7127 N   0  0  0  0  0  0  0  0  0  0  0  0
   11.4297   10.9845    6.1435 C   0  0  0  0  0  0  0  0  0  0  0  0
   11.2350   12.2009    6.7803 C   0  0  0  0  0  0  0  0  0  0  0  0
   11.4064   12.2903    8.1885 C   0  0  0  0  0  0  0  0  0  0  0  0
   11.2876   13.2538    8.9456 O   0  0  0  0  0  0  0  0  0  0  0  0
   10.8897   13.1356    5.8341 N   0  0  0  0  0  0  0  0  0  0  0  0
   10.8775   12.4906    4.6440 C   0  0  0  0  0  0  0  0  0  0  0  0
   11.2044   11.1637    4.8001 N   0  0  0  0  0  0  0  0  0  0  0  0
  1  2  1  0  0  0  0
  1  6  1  0  0  0  0
  2  3  2  0  0  0  0
  3  4  1  0  0  0  0
  4  5  2  0  0  0  0
  4 10  1  0  0  0  0
  5  6  1  0  0  0  0
  5  8  1  0  0  0  0
  6  7  2  0  0  0  0
  8  9  1  0  0  0  0
  9 10  2  0  0  0  0
M  END
>  <CHROM.1>
11.38072376,11.65341595,6.92248522,-0.98651194,1.30904171,-2.10408768

>  <Name>
ligand

>  <RI>
0

>  <Rbt.Current_Directory>
/home/itssahil/PROJECTS/Mol_Feturizer/New_Systems/rnas/2EEU

>  <Rbt.Executable>
rbdock ($Id: //depot/dev/client3/rdock/2013.1/src/exe/rbdock.cxx#4 $)

>  <Rbt.Library>
libRbt.so (2013.1, Build901 2013/11/27)

>  <Rbt.Parameter_File>
/export/apps/rDock/src/rDock_2013.1_src/data/scripts/dock_solv.prm

>  <Rbt.Receptor>
prm/pocket_docking_8.prm

>  <SCORE>
-18.3588

>  <SCORE.INTER>
-18.3588

>  <SCORE.INTER.CONST>
1

>  <SCORE.INTER.POLAR>
0

>  <SCORE.INTER.ROT>
0

>  <SCORE.INTER.SOLV>
3.6181

>  <SCORE.INTER.VDW>
-17.0452

>  <SCORE.INTER.norm>
-1.83588

>  <SCORE.INTRA>
0

>  <SCORE.INTRA.DIHEDRAL>
0

>  <SCORE.INTRA.DIHEDRAL.0>
0

>  <SCORE.INTRA.POLAR>
0

>  <SCORE.INTRA.POLAR.0>
0

>  <SCORE.INTRA.REPUL>
0

>  <SCORE.INTRA.REPUL.0>
0

>  <SCORE.INTRA.SOLV>
0

>  <SCORE.INTRA.SOLV.lig_0>
-4.28148

>  <SCORE.INTRA.VDW>
0

>  <SCORE.INTRA.VDW.0>
0

>  <SCORE.INTRA.norm>
0

>  <SCORE.RESTR>
0

>  <SCORE.RESTR.CAVITY>
0

>  <SCORE.RESTR.norm>
0

>  <SCORE.SYSTEM>
0

>  <SCORE.SYSTEM.CONST>
0

>  <SCORE.SYSTEM.DIHEDRAL>
0

>  <SCORE.SYSTEM.SOLV>
0

>  <SCORE.SYSTEM.norm>
0

>  <SCORE.heavy>
10

>  <SCORE.norm>
-1.83588

>  <RMSD>
2.494

$$$$
ligand
 OpenBabel11021811423D
libRbt.so/2013.1/901 2013/11/27
 10 11  0  0  0  0  0  0  0  0999 V2000
   11.7694   11.0538    8.7288 N   0  0  0  0  0  0  0  0  0  0  0  0
   11.8831    9.8578    8.0489 C   0  0  0  0  0  0  0  0  0  0  0  0
   11.6960    9.7710    6.7261 N   0  0  0  0  0  0  0  0  0  0  0  0
   11.3864   10.9652    6.1470 C   0  0  0  0  0  0  0  0  0  0  0  0
   11.2558   12.1969    6.7705 C   0  0  0  0  0  0  0  0  0  0  0  0
   11.4554   12.2967    8.1743 C   0  0  0  0  0  0  0  0  0  0  0  0
   11.3917   13.2740    8.9202 O   0  0  0  0  0  0  0  0  0  0  0  0
   10.9349   13.1337    5.8177 N   0  0  0  0  0  0  0  0  0  0  0  0
   10.8740   12.4747    4.6369 C   0  0  0  0  0  0  0  0  0  0  0  0
   11.1457   11.1369    4.8053 N   0  0  0  0  0  0  0  0  0  0  0  0
  1  2  1  0  0  0  0
  1  6  1  0  0  0  0
  2  3  2  0  0  0  0
  3  4  1  0  0  0  0
  4  5  2  0  0  0  0
  4 10  1  0  0  0  0
  5  6  1  0  0  0  0
  5  8  1  0  0  0  0
  6  7  2  0  0  0  0
  8  9  1  0  0  0  0
  9 10  2  0  0  0  0
M  END
>  <CHROM.1>
11.38004579,11.64545490,6.91761364,-0.82744356,1.33470329,-2.27141456

>  <Name>
ligand

>  <RI>
0

>  <Rbt.Current_Directory>
/home/itssahil/PROJECTS/Mol_Feturizer/New_Systems/rnas/2EEU

>  <Rbt.Executable>
rbdock ($Id: //depot/dev/client3/rdock/2013.1/src/exe/rbdock.cxx#4 $)

>  <Rbt.Library>
libRbt.so (2013.1, Build901 2013/11/27)

>  <Rbt.Parameter_File>
/export/apps/rDock/src/rDock_2013.1_src/data/scripts/dock_solv.prm

>  <Rbt.Receptor>
prm/pocket_docking_8.prm

>  <SCORE>
-18.3453

>  <SCORE.INTER>
-18.3453

>  <SCORE.INTER.CONST>
1

>  <SCORE.INTER.POLAR>
0

>  <SCORE.INTER.ROT>
0

>  <SCORE.INTER.SOLV>
3.6542

>  <SCORE.INTER.VDW>
-17.0482

>  <SCORE.INTER.norm>
-1.83453

>  <SCORE.INTRA>
0

>  <SCORE.INTRA.DIHEDRAL>
0

>  <SCORE.INTRA.DIHEDRAL.0>
0

>  <SCORE.INTRA.POLAR>
0

>  <SCORE.INTRA.POLAR.0>
0

>  <SCORE.INTRA.REPUL>
0

>  <SCORE.INTRA.REPUL.0>
0

>  <SCORE.INTRA.SOLV>
0

>  <SCORE.INTRA.SOLV.lig_0>
-4.28148

>  <SCORE.INTRA.VDW>
0

>  <SCORE.INTRA.VDW.0>
0

>  <SCORE.INTRA.norm>
0

>  <SCORE.RESTR>
0

>  <SCORE.RESTR.CAVITY>
0

>  <SCORE.RESTR.norm>
0

>  <SCORE.SYSTEM>
0

>  <SCORE.SYSTEM.CONST>
0

>  <SCORE.SYSTEM.DIHEDRAL>
0

>  <SCORE.SYSTEM.SOLV>
0

>  <SCORE.SYSTEM.norm>
0

>  <SCORE.heavy>
10

>  <SCORE.norm>
-1.83453

>  <RMSD>
2.494

$$$$
ligand
 OpenBabel11021811423D
libRbt.so/2013.1/901 2013/11/27
 10 11  0  0  0  0  0  0  0  0999 V2000
   11.7647   11.0752    8.7253 N   0  0  0  0  0  0  0  0  0  0  0  0
   11.9225    9.8883    8.0383 C   0  0  0  0  0  0  0  0  0  0  0  0
   11.7499    9.8050    6.7134 N   0  0  0  0  0  0  0  0  0  0  0  0
   11.4076   10.9928    6.1397 C   0  0  0  0  0  0  0  0  0  0  0  0
   11.2323   12.2153    6.7703 C   0  0  0  0  0  0  0  0  0  0  0  0
   11.4162   12.3114    8.1765 C   0  0  0  0  0  0  0  0  0  0  0  0
   11.3148   13.2809    8.9284 O   0  0  0  0  0  0  0  0  0  0  0  0
   10.8902   13.1482    5.8210 N   0  0  0  0  0  0  0  0  0  0  0  0
   10.8608   12.4959    4.6352 C   0  0  0  0  0  0  0  0  0  0  0  0
   11.1735   11.1664    4.7970 N   0  0  0  0  0  0  0  0  0  0  0  0
  1  2  1  0  0  0  0
  1  6  1  0  0  0  0
  2  3  2  0  0  0  0
  3  4  1  0  0  0  0
  4  5  2  0  0  0  0
  4 10  1  0  0  0  0
  5  6  1  0  0  0  0
  5  8  1  0  0  0  0
  6  7  2  0  0  0  0
  8  9  1  0  0  0  0
  9 10  2  0  0  0  0
M  END
>  <CHROM.1>
11.37278312,11.66705134,6.91476714,-0.93540298,1.31462336,-2.15973284

>  <Name>
ligand

>  <RI>
0

>  <Rbt.Current_Directory>
/home/itssahil/PROJECTS/Mol_Feturizer/New_Systems/rnas/2EEU

>  <Rbt.Executable>
rbdock ($Id: //depot/dev/client3/rdock/2013.1/src/exe/rbdock.cxx#4 $)

>  <Rbt.Library>
libRbt.so (2013.1, Build901 2013/11/27)

>  <Rbt.Parameter_File>
/export/apps/rDock/src/rDock_2013.1_src/data/scripts/dock_solv.prm

>  <Rbt.Receptor>
prm/blind_docking_100.prm

>  <SCORE>
-18.3897

>  <SCORE.INTER>
-18.3897

>  <SCORE.INTER.CONST>
1

>  <SCORE.INTER.POLAR>
0

>  <SCORE.INTER.ROT>
0

>  <SCORE.INTER.SOLV>
3.62872

>  <SCORE.INTER.VDW>
-17.0694

>  <SCORE.INTER.norm>
-1.83897

>  <SCORE.INTRA>
0

>  <SCORE.INTRA.DIHEDRAL>
0

>  <SCORE.INTRA.DIHEDRAL.0>
0

>  <SCORE.INTRA.POLAR>
0

>  <SCORE.INTRA.POLAR.0>
0

>  <SCORE.INTRA.REPUL>
0

>  <SCORE.INTRA.REPUL.0>
0

>  <SCORE.INTRA.SOLV>
0

>  <SCORE.INTRA.SOLV.lig_0>
-4.28148

>  <SCORE.INTRA.VDW>
0

>  <SCORE.INTRA.VDW.0>
0

>  <SCORE.INTRA.norm>
0

>  <SCORE.RESTR>
0

>  <SCORE.RESTR.CAVITY>
0

>  <SCORE.RESTR.norm>
0

>  <SCORE.SYSTEM>
0

>  <SCORE.SYSTEM.CONST>
0

>  <SCORE.SYSTEM.DIHEDRAL>
0

>  <SCORE.SYSTEM.SOLV>
0

>  <SCORE.SYSTEM.norm>
0

>  <SCORE.heavy>
10

>  <SCORE.norm>
-1.83897

>  <RMSD>
2.495

$$$$
ligand
 OpenBabel11021811423D
libRbt.so/2013.1/901 2013/11/27
 10 11  0  0  0  0  0  0  0  0999 V2000
   11.7402   11.0742    8.7424 N   0  0  0  0  0  0  0  0  0  0  0  0
   11.8912    9.8817    8.0637 C   0  0  0  0  0  0  0  0  0  0  0  0
   11.7262    9.7917    6.7383 N   0  0  0  0  0  0  0  0  0  0  0  0
   11.3985   10.9791    6.1551 C   0  0  0  0  0  0  0  0  0  0  0  0
   11.2306   12.2070    6.7771 C   0  0  0  0  0  0  0  0  0  0  0  0
   11.4067   12.3102    8.1839 C   0  0  0  0  0  0  0  0  0  0  0  0
   11.3096   13.2852    8.9292 O   0  0  0  0  0  0  0  0  0  0  0  0
   10.9032   13.1372    5.8201 N   0  0  0  0  0  0  0  0  0  0  0  0
   10.8751   12.4779    4.6381 C   0  0  0  0  0  0  0  0  0  0  0  0
   11.1744   11.1465    4.8099 N   0  0  0  0  0  0  0  0  0  0  0  0
  1  2  1  0  0  0  0
  1  6  1  0  0  0  0
  2  3  2  0  0  0  0
  3  4  1  0  0  0  0
  4  5  2  0  0  0  0
  4 10  1  0  0  0  0
  5  6  1  0  0  0  0
  5  8  1  0  0  0  0
  6  7  2  0  0  0  0
  8  9  1  0  0  0  0
  9 10  2  0  0  0  0
M  END
>  <CHROM.1>
11.36511135,11.65842528,6.92585443,-0.93548905,1.32584030,-2.16579893

>  <Name>
ligand

>  <RI>
0

>  <Rbt.Current_Directory>
/home/itssahil/PROJECTS/Mol_Feturizer/New_Systems/rnas/2EEU

>  <Rbt.Executable>
rbdock ($Id: //depot/dev/client3/rdock/2013.1/src/exe/rbdock.cxx#4 $)

>  <Rbt.Library>
libRbt.so (2013.1, Build901 2013/11/27)

>  <Rbt.Parameter_File>
/export/apps/rDock/src/rDock_2013.1_src/data/scripts/dock_solv.prm

>  <Rbt.Receptor>
prm/blind_docking_100.prm

>  <SCORE>
-18.3865

>  <SCORE.INTER>
-18.3865

>  <SCORE.INTER.CONST>
1

>  <SCORE.INTER.POLAR>
0

>  <SCORE.INTER.ROT>
0

>  <SCORE.INTER.SOLV>
3.66279

>  <SCORE.INTER.VDW>
-17.0786

>  <SCORE.INTER.norm>
-1.83865

>  <SCORE.INTRA>
0

>  <SCORE.INTRA.DIHEDRAL>
0

>  <SCORE.INTRA.DIHEDRAL.0>
0

>  <SCORE.INTRA.POLAR>
0

>  <SCORE.INTRA.POLAR.0>
0

>  <SCORE.INTRA.REPUL>
0

>  <SCORE.INTRA.REPUL.0>
0

>  <SCORE.INTRA.SOLV>
0

>  <SCORE.INTRA.SOLV.lig_0>
-4.28148

>  <SCORE.INTRA.VDW>
0

>  <SCORE.INTRA.VDW.0>
0

>  <SCORE.INTRA.norm>
0

>  <SCORE.RESTR>
0

>  <SCORE.RESTR.CAVITY>
0

>  <SCORE.RESTR.norm>
0

>  <SCORE.SYSTEM>
0

>  <SCORE.SYSTEM.CONST>
0

>  <SCORE.SYSTEM.DIHEDRAL>
0

>  <SCORE.SYSTEM.SOLV>
0

>  <SCORE.SYSTEM.norm>
0

>  <SCORE.heavy>
10

>  <SCORE.norm>
-1.83865

>  <RMSD>
2.495

$$$$
ligand
 OpenBabel11021811423D
libRbt.so/2013.1/901 2013/11/27
 10 11  0  0  0  0  0  0  0  0999 V2000
   11.7638   11.0779    8.7257 N   0  0  0  0  0  0  0  0  0  0  0  0
   11.9239    9.8902    8.0405 C   0  0  0  0  0  0  0  0  0  0  0  0
   11.7551    9.8053    6.7151 N   0  0  0  0  0  0  0  0  0  0  0  0
   11.4140   10.9924    6.1391 C   0  0  0  0  0  0  0  0  0  0  0  0
   11.2366   12.2155    6.7678 C   0  0  0  0  0  0  0  0  0  0  0  0
   11.4165   12.3133    8.1744 C   0  0  0  0  0  0  0  0  0  0  0  0
   11.3127   13.2836    8.9250 O   0  0  0  0  0  0  0  0  0  0  0  0
   10.8968   13.1472    5.8166 N   0  0  0  0  0  0  0  0  0  0  0  0
   10.8710   12.4937    4.6314 C   0  0  0  0  0  0  0  0  0  0  0  0
   11.1836   11.1644    4.7955 N   0  0  0  0  0  0  0  0  0  0  0  0
  1  2  1  0  0  0  0
  1  6  1  0  0  0  0
  2  3  2  0  0  0  0
  3  4  1  0  0  0  0
  4  5  2  0  0  0  0
  4 10  1  0  0  0  0
  5  6  1  0  0  0  0
  5  8  1  0  0  0  0
  6  7  2  0  0  0  0
  8  9  1  0  0  0  0
  9 10  2  0  0  0  0
M  END
>  <CHROM.1>
11.37679582,11.66751143,6.91332212,-0.94530319,1.31592805,-2.15128495

>  <Name>
ligand

>  <RI>
0

>  <Rbt.Current_Directory>
/home/itssahil/PROJECTS/Mol_Feturizer/New_Systems/rnas/2EEU

>  <Rbt.Executable>
rbdock ($Id: //depot/dev/client3/rdock/2013.1/src/exe/rbdock.cxx#4 $)

>  <Rbt.Library>
libRbt.so (2013.1, Build901 2013/11/27)

>  <Rbt.Parameter_File>
/export/apps/rDock/src/rDock_2013.1_src/data/scripts/dock_solv.prm

>  <Rbt.Receptor>
prm/pocket_docking_4.prm

>  <SCORE>
-18.3925

>  <SCORE.INTER>
-18.3925

>  <SCORE.INTER.CONST>
1

>  <SCORE.INTER.POLAR>
0

>  <SCORE.INTER.ROT>
0

>  <SCORE.INTER.SOLV>
3.63525

>  <SCORE.INTER.VDW>
-17.0734

>  <SCORE.INTER.norm>
-1.83925

>  <SCORE.INTRA>
0

>  <SCORE.INTRA.DIHEDRAL>
0

>  <SCORE.INTRA.DIHEDRAL.0>
0

>  <SCORE.INTRA.POLAR>
0

>  <SCORE.INTRA.POLAR.0>
0

>  <SCORE.INTRA.REPUL>
0

>  <SCORE.INTRA.REPUL.0>
0

>  <SCORE.INTRA.SOLV>
0

>  <SCORE.INTRA.SOLV.lig_0>
-4.28148

>  <SCORE.INTRA.VDW>
0

>  <SCORE.INTRA.VDW.0>
0

>  <SCORE.INTRA.norm>
0

>  <SCORE.RESTR>
0

>  <SCORE.RESTR.CAVITY>
0

>  <SCORE.RESTR.norm>
0

>  <SCORE.SYSTEM>
0

>  <SCORE.SYSTEM.CONST>
0

>  <SCORE.SYSTEM.DIHEDRAL>
0

>  <SCORE.SYSTEM.SOLV>
0

>  <SCORE.SYSTEM.norm>
0

>  <SCORE.heavy>
10

>  <SCORE.norm>
-1.83925

>  <RMSD>
2.495

$$$$
ligand
 OpenBabel11021811423D
libRbt.so/2013.1/901 2013/11/27
 10 11  0  0  0  0  0  0  0  0999 V2000
   11.7628   11.0788    8.7237 N   0  0  0  0  0  0  0  0  0  0  0  0
   11.9179    9.8917    8.0364 C   0  0  0  0  0  0  0  0  0  0  0  0
   11.7472    9.8094    6.7112 N   0  0  0  0  0  0  0  0  0  0  0  0
   11.4097   10.9986    6.1374 C   0  0  0  0  0  0  0  0  0  0  0  0
   11.2372   12.2214    6.7682 C   0  0  0  0  0  0  0  0  0  0  0  0
   11.4191   12.3163    8.1748 C   0  0  0  0  0  0  0  0  0  0  0  0
   11.3195   13.2858    8.9270 O   0  0  0  0  0  0  0  0  0  0  0  0
   10.8996   13.1557    5.8188 N   0  0  0  0  0  0  0  0  0  0  0  0
   10.8701   12.5041    4.6327 C   0  0  0  0  0  0  0  0  0  0  0  0
   11.1783   11.1735    4.7944 N   0  0  0  0  0  0  0  0  0  0  0  0
  1  2  1  0  0  0  0
  1  6  1  0  0  0  0
  2  3  2  0  0  0  0
  3  4  1  0  0  0  0
  4  5  2  0  0  0  0
  4 10  1  0  0  0  0
  5  6  1  0  0  0  0
  5  8  1  0  0  0  0
  6  7  2  0  0  0  0
  8  9  1  0  0  0  0
  9 10  2  0  0  0  0
M  END
>  <CHROM.1>
11.37569020,11.67262848,6.91270515,-0.93382498,1.31818538,-2.16083038

>  <Name>
ligand

>  <RI>
0

>  <Rbt.Current_Directory>
/home/itssahil/PROJECTS/Mol_Feturizer/New_Systems/rnas/2EEU

>  <Rbt.Executable>
rbdock ($Id: //depot/dev/client3/rdock/2013.1/src/exe/rbdock.cxx#4 $)

>  <Rbt.Library>
libRbt.so (2013.1, Build901 2013/11/27)

>  <Rbt.Parameter_File>
/export/apps/rDock/src/rDock_2013.1_src/data/scripts/dock_solv.prm

>  <Rbt.Receptor>
prm/pocket_docking_5.prm

>  <SCORE>
-18.3885

>  <SCORE.INTER>
-18.3885

>  <SCORE.INTER.CONST>
1

>  <SCORE.INTER.POLAR>
0

>  <SCORE.INTER.ROT>
0

>  <SCORE.INTER.SOLV>
3.63621

>  <SCORE.INTER.VDW>
-17.0711

>  <SCORE.INTER.norm>
-1.83885

>  <SCORE.INTRA>
0

>  <SCORE.INTRA.DIHEDRAL>
0

>  <SCORE.INTRA.DIHEDRAL.0>
0

>  <SCORE.INTRA.POLAR>
0

>  <SCORE.INTRA.POLAR.0>
0

>  <SCORE.INTRA.REPUL>
0

>  <SCORE.INTRA.REPUL.0>
0

>  <SCORE.INTRA.SOLV>
0

>  <SCORE.INTRA.SOLV.lig_0>
-4.28148

>  <SCORE.INTRA.VDW>
0

>  <SCORE.INTRA.VDW.0>
0

>  <SCORE.INTRA.norm>
0

>  <SCORE.RESTR>
0

>  <SCORE.RESTR.CAVITY>
0

>  <SCORE.RESTR.norm>
0

>  <SCORE.SYSTEM>
0

>  <SCORE.SYSTEM.CONST>
0

>  <SCORE.SYSTEM.DIHEDRAL>
0

>  <SCORE.SYSTEM.SOLV>
0

>  <SCORE.SYSTEM.norm>
0

>  <SCORE.heavy>
10

>  <SCORE.norm>
-1.83885

>  <RMSD>
2.495

$$$$
ligand
 OpenBabel11021811423D
libRbt.so/2013.1/901 2013/11/27
 10 11  0  0  0  0  0  0  0  0999 V2000
   11.8281   11.0893    8.6987 N   0  0  0  0  0  0  0  0  0  0  0  0
   11.9476    9.8922    8.0218 C   0  0  0  0  0  0  0  0  0  0  0  0
   11.7467    9.7983    6.7015 N   0  0  0  0  0  0  0  0  0  0  0  0
   11.4174   10.9869    6.1217 C   0  0  0  0  0  0  0  0  0  0  0  0
   11.2801   12.2194    6.7421 C   0  0  0  0  0  0  0  0  0  0  0  0
   11.4942   12.3266    8.1433 C   0  0  0  0  0  0  0  0  0  0  0  0
   11.4280   13.3059    8.8863 O   0  0  0  0  0  0  0  0  0  0  0  0
   10.9382   13.1491    5.7897 N   0  0  0  0  0  0  0  0  0  0  0  0
   10.8715   12.4850    4.6119 C   0  0  0  0  0  0  0  0  0  0  0  0
   11.1600   11.1510    4.7821 N   0  0  0  0  0  0  0  0  0  0  0  0
  1  2  1  0  0  0  0
  1  6  1  0  0  0  0
  2  3  2  0  0  0  0
  3  4  1  0  0  0  0
  4  5  2  0  0  0  0
  4 10  1  0  0  0  0
  5  6  1  0  0  0  0
  5  8  1  0  0  0  0
  6  7  2  0  0  0  0
  8  9  1  0  0  0  0
  9 10  2  0  0  0  0
M  END
>  <CHROM.1>
11.41211831,11.66991766,6.88983135,-0.82203710,1.31902352,-2.28028916

>  <Name>
ligand

>  <RI>
0

>  <Rbt.Current_Directory>
/home/itssahil/PROJECTS/Mol_Feturizer/New_Systems/rnas/2EEU

>  <Rbt.Executable>
rbdock ($Id: //depot/dev/client3/rdock/2013.1/src/exe/rbdock.cxx#4 $)

>  <Rbt.Library>
libRbt.so (2013.1, Build901 2013/11/27)

>  <Rbt.Parameter_File>
/export/apps/rDock/src/rDock_2013.1_src/data/scripts/dock_solv.prm

>  <Rbt.Receptor>
prm/pocket_docking_5.prm

>  <SCORE>
-18.3639

>  <SCORE.INTER>
-18.3639

>  <SCORE.INTER.CONST>
1

>  <SCORE.INTER.POLAR>
0

>  <SCORE.INTER.ROT>
0

>  <SCORE.INTER.SOLV>
3.6376

>  <SCORE.INTER.VDW>
-17.0551

>  <SCORE.INTER.norm>
-1.83639

>  <SCORE.INTRA>
0

>  <SCORE.INTRA.DIHEDRAL>
0

>  <SCORE.INTRA.DIHEDRAL.0>
0

>  <SCORE.INTRA.POLAR>
0

>  <SCORE.INTRA.POLAR.0>
0

>  <SCORE.INTRA.REPUL>
0

>  <SCORE.INTRA.REPUL.0>
0

>  <SCORE.INTRA.SOLV>
0

>  <SCORE.INTRA.SOLV.lig_0>
-4.28148

>  <SCORE.INTRA.VDW>
0

>  <SCORE.INTRA.VDW.0>
0

>  <SCORE.INTRA.norm>
0

>  <SCORE.RESTR>
0

>  <SCORE.RESTR.CAVITY>
0

>  <SCORE.RESTR.norm>
0

>  <SCORE.SYSTEM>
0

>  <SCORE.SYSTEM.CONST>
0

>  <SCORE.SYSTEM.DIHEDRAL>
0

>  <SCORE.SYSTEM.SOLV>
0

>  <SCORE.SYSTEM.norm>
0

>  <SCORE.heavy>
10

>  <SCORE.norm>
-1.83639

>  <RMSD>
2.495

$$$$
ligand
 OpenBabel11021811423D
libRbt.so/2013.1/901 2013/11/27
 10 11  0  0  0  0  0  0  0  0999 V2000
   11.7662   11.1009    8.7162 N   0  0  0  0  0  0  0  0  0  0  0  0
   11.9064    9.9066    8.0382 C   0  0  0  0  0  0  0  0  0  0  0  0
   11.7265    9.8145    6.7148 N   0  0  0  0  0  0  0  0  0  0  0  0
   11.3959   11.0017    6.1330 C   0  0  0  0  0  0  0  0  0  0  0  0
   11.2384   12.2313    6.7544 C   0  0  0  0  0  0  0  0  0  0  0  0
   11.4301   12.3367    8.1588 C   0  0  0  0  0  0  0  0  0  0  0  0
   11.3440   13.3134    8.9033 O   0  0  0  0  0  0  0  0  0  0  0  0
   10.9031   13.1605    5.7991 N   0  0  0  0  0  0  0  0  0  0  0  0
   10.8602   12.4991    4.6188 C   0  0  0  0  0  0  0  0  0  0  0  0
   11.1575   11.1672    4.7900 N   0  0  0  0  0  0  0  0  0  0  0  0
  1  2  1  0  0  0  0
  1  6  1  0  0  0  0
  2  3  2  0  0  0  0
  3  4  1  0  0  0  0
  4  5  2  0  0  0  0
  4 10  1  0  0  0  0
  5  6  1  0  0  0  0
  5  8  1  0  0  0  0
  6  7  2  0  0  0  0
  8  9  1  0  0  0  0
  9 10  2  0  0  0  0
M  END
>  <CHROM.1>
11.37290262,11.68264335,6.90266722,-0.89209074,1.32183311,-2.20984485

>  <Name>
ligand

>  <RI>
0

>  <Rbt.Current_Directory>
/home/itssahil/PROJECTS/Mol_Feturizer/New_Systems/rnas/2EEU

>  <Rbt.Executable>
rbdock ($Id: //depot/dev/client3/rdock/2013.1/src/exe/rbdock.cxx#4 $)

>  <Rbt.Library>
libRbt.so (2013.1, Build901 2013/11/27)

>  <Rbt.Parameter_File>
/export/apps/rDock/src/rDock_2013.1_src/data/scripts/dock_solv.prm

>  <Rbt.Receptor>
prm/blind_docking_100.prm

>  <SCORE>
-18.3751

>  <SCORE.INTER>
-18.3751

>  <SCORE.INTER.CONST>
1

>  <SCORE.INTER.POLAR>
0

>  <SCORE.INTER.ROT>
0

>  <SCORE.INTER.SOLV>
3.66032

>  <SCORE.INTER.VDW>
-17.0702

>  <SCORE.INTER.norm>
-1.83751

>  <SCORE.INTRA>
0

>  <SCORE.INTRA.DIHEDRAL>
0

>  <SCORE.INTRA.DIHEDRAL.0>
0

>  <SCORE.INTRA.POLAR>
0

>  <SCORE.INTRA.POLAR.0>
0

>  <SCORE.INTRA.REPUL>
0

>  <SCORE.INTRA.REPUL.0>
0

>  <SCORE.INTRA.SOLV>
0

>  <SCORE.INTRA.SOLV.lig_0>
-4.28148

>  <SCORE.INTRA.VDW>
0

>  <SCORE.INTRA.VDW.0>
0

>  <SCORE.INTRA.norm>
0

>  <SCORE.RESTR>
0

>  <SCORE.RESTR.CAVITY>
0

>  <SCORE.RESTR.norm>
0

>  <SCORE.SYSTEM>
0

>  <SCORE.SYSTEM.CONST>
0

>  <SCORE.SYSTEM.DIHEDRAL>
0

>  <SCORE.SYSTEM.SOLV>
0

>  <SCORE.SYSTEM.norm>
0

>  <SCORE.heavy>
10

>  <SCORE.norm>
-1.83751

>  <RMSD>
2.496

$$$$
ligand
 OpenBabel11021811423D
libRbt.so/2013.1/901 2013/11/27
 10 11  0  0  0  0  0  0  0  0999 V2000
   11.7660   11.0728    8.7248 N   0  0  0  0  0  0  0  0  0  0  0  0
   11.9332    9.8854    8.0408 C   0  0  0  0  0  0  0  0  0  0  0  0
   11.7676    9.7988    6.7151 N   0  0  0  0  0  0  0  0  0  0  0  0
   11.4221   10.9839    6.1376 C   0  0  0  0  0  0  0  0  0  0  0  0
   11.2374   12.2066    6.7651 C   0  0  0  0  0  0  0  0  0  0  0  0
   11.4140   12.3062    8.1720 C   0  0  0  0  0  0  0  0  0  0  0  0
   11.3039   13.2764    8.9217 O   0  0  0  0  0  0  0  0  0  0  0  0
   10.8953   13.1360    5.8125 N   0  0  0  0  0  0  0  0  0  0  0  0
   10.8750   12.4815    4.6278 C   0  0  0  0  0  0  0  0  0  0  0  0
   11.1937   11.1538    4.7934 N   0  0  0  0  0  0  0  0  0  0  0  0
  1  2  1  0  0  0  0
  1  6  1  0  0  0  0
  2  3  2  0  0  0  0
  3  4  1  0  0  0  0
  4  5  2  0  0  0  0
  4 10  1  0  0  0  0
  5  6  1  0  0  0  0
  5  8  1  0  0  0  0
  6  7  2  0  0  0  0
  8  9  1  0  0  0  0
  9 10  2  0  0  0  0
M  END
>  <CHROM.1>
11.38000351,11.65932265,6.91129332,-0.96255653,1.31303681,-2.13526867

>  <Name>
ligand

>  <RI>
0

>  <Rbt.Current_Directory>
/home/itssahil/PROJECTS/Mol_Feturizer/New_Systems/rnas/2EEU

>  <Rbt.Executable>
rbdock ($Id: //depot/dev/client3/rdock/2013.1/src/exe/rbdock.cxx#4 $)

>  <Rbt.Library>
libRbt.so (2013.1, Build901 2013/11/27)

>  <Rbt.Parameter_File>
/export/apps/rDock/src/rDock_2013.1_src/data/scripts/dock_solv.prm

>  <Rbt.Receptor>
prm/blind_docking_100.prm

>  <SCORE>
-18.392

>  <SCORE.INTER>
-18.392

>  <SCORE.INTER.CONST>
1

>  <SCORE.INTER.POLAR>
0

>  <SCORE.INTER.ROT>
0

>  <SCORE.INTER.SOLV>
3.63094

>  <SCORE.INTER.VDW>
-17.0716

>  <SCORE.INTER.norm>
-1.8392

>  <SCORE.INTRA>
0

>  <SCORE.INTRA.DIHEDRAL>
0

>  <SCORE.INTRA.DIHEDRAL.0>
0

>  <SCORE.INTRA.POLAR>
0

>  <SCORE.INTRA.POLAR.0>
0

>  <SCORE.INTRA.REPUL>
0

>  <SCORE.INTRA.REPUL.0>
0

>  <SCORE.INTRA.SOLV>
0

>  <SCORE.INTRA.SOLV.lig_0>
-4.28148

>  <SCORE.INTRA.VDW>
0

>  <SCORE.INTRA.VDW.0>
0

>  <SCORE.INTRA.norm>
0

>  <SCORE.RESTR>
0

>  <SCORE.RESTR.CAVITY>
0

>  <SCORE.RESTR.norm>
0

>  <SCORE.SYSTEM>
0

>  <SCORE.SYSTEM.CONST>
0

>  <SCORE.SYSTEM.DIHEDRAL>
0

>  <SCORE.SYSTEM.SOLV>
0

>  <SCORE.SYSTEM.norm>
0

>  <SCORE.heavy>
10

>  <SCORE.norm>
-1.8392

>  <RMSD>
2.496

$$$$
ligand
 OpenBabel11021811423D
libRbt.so/2013.1/901 2013/11/27
 10 11  0  0  0  0  0  0  0  0999 V2000
   11.7738   11.0742    8.7169 N   0  0  0  0  0  0  0  0  0  0  0  0
   11.9193    9.8837    8.0334 C   0  0  0  0  0  0  0  0  0  0  0  0
   11.7409    9.7972    6.7094 N   0  0  0  0  0  0  0  0  0  0  0  0
   11.4058   10.9858    6.1329 C   0  0  0  0  0  0  0  0  0  0  0  0
   11.2428   12.2118    6.7600 C   0  0  0  0  0  0  0  0  0  0  0  0
   11.4330   12.3113    8.1651 C   0  0  0  0  0  0  0  0  0  0  0  0
   11.3424   13.2841    8.9141 O   0  0  0  0  0  0  0  0  0  0  0  0
   10.9044   13.1441    5.8088 N   0  0  0  0  0  0  0  0  0  0  0  0
   10.8651   12.4880    4.6254 C   0  0  0  0  0  0  0  0  0  0  0  0
   11.1678   11.1566    4.7905 N   0  0  0  0  0  0  0  0  0  0  0  0
  1  2  1  0  0  0  0
  1  6  1  0  0  0  0
  2  3  2  0  0  0  0
  3  4  1  0  0  0  0
  4  5  2  0  0  0  0
  4 10  1  0  0  0  0
  5  6  1  0  0  0  0
  5  8  1  0  0  0  0
  6  7  2  0  0  0  0
  8  9  1  0  0  0  0
  9 10  2  0  0  0  0
M  END
>  <CHROM.1>
11.37944053,11.66292630,6.90579655,-0.90434956,1.31897609,-2.19324729

>  <Name>
ligand

>  <RI>
0

>  <Rbt.Current_Directory>
/home/itssahil/PROJECTS/Mol_Feturizer/New_Systems/rnas/2EEU

>  <Rbt.Executable>
rbdock ($Id: //depot/dev/client3/rdock/2013.1/src/exe/rbdock.cxx#4 $)

>  <Rbt.Library>
libRbt.so (2013.1, Build901 2013/11/27)

>  <Rbt.Parameter_File>
/export/apps/rDock/src/rDock_2013.1_src/data/scripts/dock_solv.prm

>  <Rbt.Receptor>
prm/blind_docking_100.prm

>  <SCORE>
-18.3845

>  <SCORE.INTER>
-18.3845

>  <SCORE.INTER.CONST>
1

>  <SCORE.INTER.POLAR>
0

>  <SCORE.INTER.ROT>
0

>  <SCORE.INTER.SOLV>
3.63463

>  <SCORE.INTER.VDW>
-17.0678

>  <SCORE.INTER.norm>
-1.83845

>  <SCORE.INTRA>
0

>  <SCORE.INTRA.DIHEDRAL>
0

>  <SCORE.INTRA.DIHEDRAL.0>
0

>  <SCORE.INTRA.POLAR>
0

>  <SCORE.INTRA.POLAR.0>
0

>  <SCORE.INTRA.REPUL>
0

>  <SCORE.INTRA.REPUL.0>
0

>  <SCORE.INTRA.SOLV>
0

>  <SCORE.INTRA.SOLV.lig_0>
-4.28148

>  <SCORE.INTRA.VDW>
0

>  <SCORE.INTRA.VDW.0>
0

>  <SCORE.INTRA.norm>
0

>  <SCORE.RESTR>
0

>  <SCORE.RESTR.CAVITY>
0

>  <SCORE.RESTR.norm>
0

>  <SCORE.SYSTEM>
0

>  <SCORE.SYSTEM.CONST>
0

>  <SCORE.SYSTEM.DIHEDRAL>
0

>  <SCORE.SYSTEM.SOLV>
0

>  <SCORE.SYSTEM.norm>
0

>  <SCORE.heavy>
10

>  <SCORE.norm>
-1.83845

>  <RMSD>
2.496

$$$$
ligand
 OpenBabel11021811423D
libRbt.so/2013.1/901 2013/11/27
 10 11  0  0  0  0  0  0  0  0999 V2000
   11.7647   11.0698    8.7272 N   0  0  0  0  0  0  0  0  0  0  0  0
   11.9326    9.8838    8.0410 C   0  0  0  0  0  0  0  0  0  0  0  0
   11.7641    9.7989    6.7156 N   0  0  0  0  0  0  0  0  0  0  0  0
   11.4150   10.9841    6.1406 C   0  0  0  0  0  0  0  0  0  0  0  0
   11.2295   12.2055    6.7704 C   0  0  0  0  0  0  0  0  0  0  0  0
   11.4090   12.3034    8.1771 C   0  0  0  0  0  0  0  0  0  0  0  0
   11.2988   13.2723    8.9284 O   0  0  0  0  0  0  0  0  0  0  0  0
   10.8834   13.1357    5.8200 N   0  0  0  0  0  0  0  0  0  0  0  0
   10.8617   12.4830    4.6343 C   0  0  0  0  0  0  0  0  0  0  0  0
   11.1833   11.1556    4.7973 N   0  0  0  0  0  0  0  0  0  0  0  0
  1  2  1  0  0  0  0
  1  6  1  0  0  0  0
  2  3  2  0  0  0  0
  3  4  1  0  0  0  0
  4  5  2  0  0  0  0
  4 10  1  0  0  0  0
  5  6  1  0  0  0  0
  5  8  1  0  0  0  0
  6  7  2  0  0  0  0
  8  9  1  0  0  0  0
  9 10  2  0  0  0  0
M  END
>  <CHROM.1>
11.37342557,11.65832714,6.91542565,-0.95901839,1.31021223,-2.13719195

>  <Name>
ligand

>  <RI>
0

>  <Rbt.Current_Directory>
/home/itssahil/PROJECTS/Mol_Feturizer/New_Systems/rnas/2EEU

>  <Rbt.Executable>
rbdock ($Id: //depot/dev/client3/rdock/2013.1/src/exe/rbdock.cxx#4 $)

>  <Rbt.Library>
libRbt.so (2013.1, Build901 2013/11/27)

>  <Rbt.Parameter_File>
/export/apps/rDock/src/rDock_2013.1_src/data/scripts/dock_solv.prm

>  <Rbt.Receptor>
prm/blind_docking_40.prm

>  <SCORE>
-18.392

>  <SCORE.INTER>
-18.392

>  <SCORE.INTER.CONST>
1

>  <SCORE.INTER.POLAR>
0

>  <SCORE.INTER.ROT>
0

>  <SCORE.INTER.SOLV>
3.6236

>  <SCORE.INTER.VDW>
-17.0692

>  <SCORE.INTER.norm>
-1.8392

>  <SCORE.INTRA>
0

>  <SCORE.INTRA.DIHEDRAL>
0

>  <SCORE.INTRA.DIHEDRAL.0>
0

>  <SCORE.INTRA.POLAR>
0

>  <SCORE.INTRA.POLAR.0>
0

>  <SCORE.INTRA.REPUL>
0

>  <SCORE.INTRA.REPUL.0>
0

>  <SCORE.INTRA.SOLV>
0

>  <SCORE.INTRA.SOLV.lig_0>
-4.28148

>  <SCORE.INTRA.VDW>
0

>  <SCORE.INTRA.VDW.0>
0

>  <SCORE.INTRA.norm>
0

>  <SCORE.RESTR>
0

>  <SCORE.RESTR.CAVITY>
0

>  <SCORE.RESTR.norm>
0

>  <SCORE.SYSTEM>
0

>  <SCORE.SYSTEM.CONST>
0

>  <SCORE.SYSTEM.DIHEDRAL>
0

>  <SCORE.SYSTEM.SOLV>
0

>  <SCORE.SYSTEM.norm>
0

>  <SCORE.heavy>
10

>  <SCORE.norm>
-1.8392

>  <RMSD>
2.496

$$$$
ligand
 OpenBabel11021811423D
libRbt.so/2013.1/901 2013/11/27
 10 11  0  0  0  0  0  0  0  0999 V2000
   11.7795   11.0641    8.7141 N   0  0  0  0  0  0  0  0  0  0  0  0
   11.9201    9.8752    8.0268 C   0  0  0  0  0  0  0  0  0  0  0  0
   11.7405    9.7935    6.7027 N   0  0  0  0  0  0  0  0  0  0  0  0
   11.4097   10.9852    6.1301 C   0  0  0  0  0  0  0  0  0  0  0  0
   11.2517   12.2098    6.7611 C   0  0  0  0  0  0  0  0  0  0  0  0
   11.4432   12.3042    8.1664 C   0  0  0  0  0  0  0  0  0  0  0  0
   11.3567   13.2750    8.9185 O   0  0  0  0  0  0  0  0  0  0  0  0
   10.9164   13.1464    5.8131 N   0  0  0  0  0  0  0  0  0  0  0  0
   10.8738   12.4942    4.6277 C   0  0  0  0  0  0  0  0  0  0  0  0
   11.1715   11.1611    4.7884 N   0  0  0  0  0  0  0  0  0  0  0  0
  1  2  1  0  0  0  0
  1  6  1  0  0  0  0
  2  3  2  0  0  0  0
  3  4  1  0  0  0  0
  4  5  2  0  0  0  0
  4 10  1  0  0  0  0
  5  6  1  0  0  0  0
  5  8  1  0  0  0  0
  6  7  2  0  0  0  0
  8  9  1  0  0  0  0
  9 10  2  0  0  0  0
M  END
>  <CHROM.1>
11.38635632,11.65998661,6.90513098,-0.89328206,1.32173015,-2.20083100

>  <Name>
ligand

>  <RI>
0

>  <Rbt.Current_Directory>
/home/itssahil/PROJECTS/Mol_Feturizer/New_Systems/rnas/2EEU

>  <Rbt.Executable>
rbdock ($Id: //depot/dev/client3/rdock/2013.1/src/exe/rbdock.cxx#4 $)

>  <Rbt.Library>
libRbt.so (2013.1, Build901 2013/11/27)

>  <Rbt.Parameter_File>
/export/apps/rDock/src/rDock_2013.1_src/data/scripts/dock_solv.prm

>  <Rbt.Receptor>
prm/pocket_docking_3.prm

>  <SCORE>
-18.3795

>  <SCORE.INTER>
-18.3795

>  <SCORE.INTER.CONST>
1

>  <SCORE.INTER.POLAR>
0

>  <SCORE.INTER.ROT>
0

>  <SCORE.INTER.SOLV>
3.62862

>  <SCORE.INTER.VDW>
-17.0625

>  <SCORE.INTER.norm>
-1.83795

>  <SCORE.INTRA>
0

>  <SCORE.INTRA.DIHEDRAL>
0

>  <SCORE.INTRA.DIHEDRAL.0>
0

>  <SCORE.INTRA.POLAR>
0

>  <SCORE.INTRA.POLAR.0>
0

>  <SCORE.INTRA.REPUL>
0

>  <SCORE.INTRA.REPUL.0>
0

>  <SCORE.INTRA.SOLV>
0

>  <SCORE.INTRA.SOLV.lig_0>
-4.28148

>  <SCORE.INTRA.VDW>
0

>  <SCORE.INTRA.VDW.0>
0

>  <SCORE.INTRA.norm>
0

>  <SCORE.RESTR>
0

>  <SCORE.RESTR.CAVITY>
0

>  <SCORE.RESTR.norm>
0

>  <SCORE.SYSTEM>
0

>  <SCORE.SYSTEM.CONST>
0

>  <SCORE.SYSTEM.DIHEDRAL>
0

>  <SCORE.SYSTEM.SOLV>
0

>  <SCORE.SYSTEM.norm>
0

>  <SCORE.heavy>
10

>  <SCORE.norm>
-1.83795

>  <RMSD>
2.496

$$$$
ligand
 OpenBabel11021811423D
libRbt.so/2013.1/901 2013/11/27
 10 11  0  0  0  0  0  0  0  0999 V2000
   11.7777   11.0792    8.7107 N   0  0  0  0  0  0  0  0  0  0  0  0
   11.9092    9.8861    8.0289 C   0  0  0  0  0  0  0  0  0  0  0  0
   11.7253    9.7989    6.7057 N   0  0  0  0  0  0  0  0  0  0  0  0
   11.3998   10.9896    6.1282 C   0  0  0  0  0  0  0  0  0  0  0  0
   11.2509   12.2183    6.7536 C   0  0  0  0  0  0  0  0  0  0  0  0
   11.4471   12.3185    8.1578 C   0  0  0  0  0  0  0  0  0  0  0  0
   11.3686   13.2935    8.9053 O   0  0  0  0  0  0  0  0  0  0  0  0
   10.9183   13.1521    5.8019 N   0  0  0  0  0  0  0  0  0  0  0  0
   10.8684   12.4944    4.6198 C   0  0  0  0  0  0  0  0  0  0  0  0
   11.1587   11.1603    4.7864 N   0  0  0  0  0  0  0  0  0  0  0  0
  1  2  1  0  0  0  0
  1  6  1  0  0  0  0
  2  3  2  0  0  0  0
  3  4  1  0  0  0  0
  4  5  2  0  0  0  0
  4 10  1  0  0  0  0
  5  6  1  0  0  0  0
  5  8  1  0  0  0  0
  6  7  2  0  0  0  0
  8  9  1  0  0  0  0
  9 10  2  0  0  0  0
M  END
>  <CHROM.1>
11.38274795,11.66842067,6.89992391,-0.86925810,1.32469888,-2.22909396

>  <Name>
ligand

>  <RI>
0

>  <Rbt.Current_Directory>
/home/itssahil/PROJECTS/Mol_Feturizer/New_Systems/rnas/2EEU

>  <Rbt.Executable>
rbdock ($Id: //depot/dev/client3/rdock/2013.1/src/exe/rbdock.cxx#4 $)

>  <Rbt.Library>
libRbt.so (2013.1, Build901 2013/11/27)

>  <Rbt.Parameter_File>
/export/apps/rDock/src/rDock_2013.1_src/data/scripts/dock_solv.prm

>  <Rbt.Receptor>
prm/pocket_docking_4.prm

>  <SCORE>
-18.3728

>  <SCORE.INTER>
-18.3728

>  <SCORE.INTER.CONST>
1

>  <SCORE.INTER.POLAR>
0

>  <SCORE.INTER.ROT>
0

>  <SCORE.INTER.SOLV>
3.64771

>  <SCORE.INTER.VDW>
-17.0644

>  <SCORE.INTER.norm>
-1.83728

>  <SCORE.INTRA>
0

>  <SCORE.INTRA.DIHEDRAL>
0

>  <SCORE.INTRA.DIHEDRAL.0>
0

>  <SCORE.INTRA.POLAR>
0

>  <SCORE.INTRA.POLAR.0>
0

>  <SCORE.INTRA.REPUL>
0

>  <SCORE.INTRA.REPUL.0>
0

>  <SCORE.INTRA.SOLV>
0

>  <SCORE.INTRA.SOLV.lig_0>
-4.28148

>  <SCORE.INTRA.VDW>
0

>  <SCORE.INTRA.VDW.0>
0

>  <SCORE.INTRA.norm>
0

>  <SCORE.RESTR>
0

>  <SCORE.RESTR.CAVITY>
0

>  <SCORE.RESTR.norm>
0

>  <SCORE.SYSTEM>
0

>  <SCORE.SYSTEM.CONST>
0

>  <SCORE.SYSTEM.DIHEDRAL>
0

>  <SCORE.SYSTEM.SOLV>
0

>  <SCORE.SYSTEM.norm>
0

>  <SCORE.heavy>
10

>  <SCORE.norm>
-1.83728

>  <RMSD>
2.496

$$$$
ligand
 OpenBabel11021811423D
libRbt.so/2013.1/901 2013/11/27
 10 11  0  0  0  0  0  0  0  0999 V2000
   11.7689   11.0817    8.7195 N   0  0  0  0  0  0  0  0  0  0  0  0
   11.9215    9.8911    8.0377 C   0  0  0  0  0  0  0  0  0  0  0  0
   11.7500    9.8030    6.7129 N   0  0  0  0  0  0  0  0  0  0  0  0
   11.4143   10.9901    6.1338 C   0  0  0  0  0  0  0  0  0  0  0  0
   11.2444   12.2161    6.7590 C   0  0  0  0  0  0  0  0  0  0  0  0
   11.4272   12.3173    8.1650 C   0  0  0  0  0  0  0  0  0  0  0  0
   11.3297   13.2904    8.9127 O   0  0  0  0  0  0  0  0  0  0  0  0
   10.9080   13.1466    5.8054 N   0  0  0  0  0  0  0  0  0  0  0  0
   10.8767   12.4895    4.6223 C   0  0  0  0  0  0  0  0  0  0  0  0
   11.1826   11.1591    4.7901 N   0  0  0  0  0  0  0  0  0  0  0  0
  1  2  1  0  0  0  0
  1  6  1  0  0  0  0
  2  3  2  0  0  0  0
  3  4  1  0  0  0  0
  4  5  2  0  0  0  0
  4 10  1  0  0  0  0
  5  6  1  0  0  0  0
  5  8  1  0  0  0  0
  6  7  2  0  0  0  0
  8  9  1  0  0  0  0
  9 10  2  0  0  0  0
M  END
>  <CHROM.1>
11.38194263,11.66776557,6.90594351,-0.92808362,1.31938735,-2.17107141

>  <Name>
ligand

>  <RI>
0

>  <Rbt.Current_Directory>
/home/itssahil/PROJECTS/Mol_Feturizer/New_Systems/rnas/2EEU

>  <Rbt.Executable>
rbdock ($Id: //depot/dev/client3/rdock/2013.1/src/exe/rbdock.cxx#4 $)

>  <Rbt.Library>
libRbt.so (2013.1, Build901 2013/11/27)

>  <Rbt.Parameter_File>
/export/apps/rDock/src/rDock_2013.1_src/data/scripts/dock_solv.prm

>  <Rbt.Receptor>
prm/pocket_docking_4.prm

>  <SCORE>
-18.3888

>  <SCORE.INTER>
-18.3888

>  <SCORE.INTER.CONST>
1

>  <SCORE.INTER.POLAR>
0

>  <SCORE.INTER.ROT>
0

>  <SCORE.INTER.SOLV>
3.6437

>  <SCORE.INTER.VDW>
-17.0738

>  <SCORE.INTER.norm>
-1.83888

>  <SCORE.INTRA>
0

>  <SCORE.INTRA.DIHEDRAL>
0

>  <SCORE.INTRA.DIHEDRAL.0>
0

>  <SCORE.INTRA.POLAR>
0

>  <SCORE.INTRA.POLAR.0>
0

>  <SCORE.INTRA.REPUL>
0

>  <SCORE.INTRA.REPUL.0>
0

>  <SCORE.INTRA.SOLV>
0

>  <SCORE.INTRA.SOLV.lig_0>
-4.28148

>  <SCORE.INTRA.VDW>
0

>  <SCORE.INTRA.VDW.0>
0

>  <SCORE.INTRA.norm>
0

>  <SCORE.RESTR>
0

>  <SCORE.RESTR.CAVITY>
0

>  <SCORE.RESTR.norm>
0

>  <SCORE.SYSTEM>
0

>  <SCORE.SYSTEM.CONST>
0

>  <SCORE.SYSTEM.DIHEDRAL>
0

>  <SCORE.SYSTEM.SOLV>
0

>  <SCORE.SYSTEM.norm>
0

>  <SCORE.heavy>
10

>  <SCORE.norm>
-1.83888

>  <RMSD>
2.496

$$$$
ligand
 OpenBabel11021811423D
libRbt.so/2013.1/901 2013/11/27
 10 11  0  0  0  0  0  0  0  0999 V2000
   11.7677   11.0723    8.7242 N   0  0  0  0  0  0  0  0  0  0  0  0
   11.9310    9.8844    8.0402 C   0  0  0  0  0  0  0  0  0  0  0  0
   11.7644    9.7981    6.7147 N   0  0  0  0  0  0  0  0  0  0  0  0
   11.4221   10.9841    6.1371 C   0  0  0  0  0  0  0  0  0  0  0  0
   11.2415   12.2074    6.7646 C   0  0  0  0  0  0  0  0  0  0  0  0
   11.4190   12.3067    8.1714 C   0  0  0  0  0  0  0  0  0  0  0  0
   11.3123   13.2774    8.9210 O   0  0  0  0  0  0  0  0  0  0  0  0
   10.9015   13.1377    5.8120 N   0  0  0  0  0  0  0  0  0  0  0  0
   10.8787   12.4831    4.6274 C   0  0  0  0  0  0  0  0  0  0  0  0
   11.1935   11.1545    4.7931 N   0  0  0  0  0  0  0  0  0  0  0  0
  1  2  1  0  0  0  0
  1  6  1  0  0  0  0
  2  3  2  0  0  0  0
  3  4  1  0  0  0  0
  4  5  2  0  0  0  0
  4 10  1  0  0  0  0
  5  6  1  0  0  0  0
  5  8  1  0  0  0  0
  6  7  2  0  0  0  0
  8  9  1  0  0  0  0
  9 10  2  0  0  0  0
M  END
>  <CHROM.1>
11.38246585,11.65975375,6.91076400,-0.95442350,1.31524711,-2.14329170

>  <Name>
ligand

>  <RI>
0

>  <Rbt.Current_Directory>
/home/itssahil/PROJECTS/Mol_Feturizer/New_Systems/rnas/2EEU

>  <Rbt.Executable>
rbdock ($Id: //depot/dev/client3/rdock/2013.1/src/exe/rbdock.cxx#4 $)

>  <Rbt.Library>
libRbt.so (2013.1, Build901 2013/11/27)

>  <Rbt.Parameter_File>
/export/apps/rDock/src/rDock_2013.1_src/data/scripts/dock_solv.prm

>  <Rbt.Receptor>
prm/pocket_docking_4.prm

>  <SCORE>
-18.3919

>  <SCORE.INTER>
-18.3919

>  <SCORE.INTER.CONST>
1

>  <SCORE.INTER.POLAR>
0

>  <SCORE.INTER.ROT>
0

>  <SCORE.INTER.SOLV>
3.63292

>  <SCORE.INTER.VDW>
-17.0722

>  <SCORE.INTER.norm>
-1.83919

>  <SCORE.INTRA>
0

>  <SCORE.INTRA.DIHEDRAL>
0

>  <SCORE.INTRA.DIHEDRAL.0>
0

>  <SCORE.INTRA.POLAR>
0

>  <SCORE.INTRA.POLAR.0>
0

>  <SCORE.INTRA.REPUL>
0

>  <SCORE.INTRA.REPUL.0>
0

>  <SCORE.INTRA.SOLV>
0

>  <SCORE.INTRA.SOLV.lig_0>
-4.28148

>  <SCORE.INTRA.VDW>
0

>  <SCORE.INTRA.VDW.0>
0

>  <SCORE.INTRA.norm>
0

>  <SCORE.RESTR>
0

>  <SCORE.RESTR.CAVITY>
0

>  <SCORE.RESTR.norm>
0

>  <SCORE.SYSTEM>
0

>  <SCORE.SYSTEM.CONST>
0

>  <SCORE.SYSTEM.DIHEDRAL>
0

>  <SCORE.SYSTEM.SOLV>
0

>  <SCORE.SYSTEM.norm>
0

>  <SCORE.heavy>
10

>  <SCORE.norm>
-1.83919

>  <RMSD>
2.496

$$$$
ligand
 OpenBabel11021811423D
libRbt.so/2013.1/901 2013/11/27
 10 11  0  0  0  0  0  0  0  0999 V2000
   11.7682   11.0769    8.7222 N   0  0  0  0  0  0  0  0  0  0  0  0
   11.9230    9.8878    8.0383 C   0  0  0  0  0  0  0  0  0  0  0  0
   11.7494    9.8012    6.7137 N   0  0  0  0  0  0  0  0  0  0  0  0
   11.4091   10.9882    6.1370 C   0  0  0  0  0  0  0  0  0  0  0  0
   11.2368   12.2127    6.7644 C   0  0  0  0  0  0  0  0  0  0  0  0
   11.4219   12.3124    8.1702 C   0  0  0  0  0  0  0  0  0  0  0  0
   11.3230   13.2841    8.9195 O   0  0  0  0  0  0  0  0  0  0  0  0
   10.8960   13.1437    5.8128 N   0  0  0  0  0  0  0  0  0  0  0  0
   10.8644   12.4883    4.6288 C   0  0  0  0  0  0  0  0  0  0  0  0
   11.1745   11.1585    4.7940 N   0  0  0  0  0  0  0  0  0  0  0  0
  1  2  1  0  0  0  0
  1  6  1  0  0  0  0
  2  3  2  0  0  0  0
  3  4  1  0  0  0  0
  4  5  2  0  0  0  0
  4 10  1  0  0  0  0
  5  6  1  0  0  0  0
  5  8  1  0  0  0  0
  6  7  2  0  0  0  0
  8  9  1  0  0  0  0
  9 10  2  0  0  0  0
M  END
>  <CHROM.1>
11.37625163,11.66460505,6.91024326,-0.92853382,1.31597925,-2.16912038

>  <Name>
ligand

>  <RI>
0

>  <Rbt.Current_Directory>
/home/itssahil/PROJECTS/Mol_Feturizer/New_Systems/rnas/2EEU

>  <Rbt.Executable>
rbdock ($Id: //depot/dev/client3/rdock/2013.1/src/exe/rbdock.cxx#4 $)

>  <Rbt.Library>
libRbt.so (2013.1, Build901 2013/11/27)

>  <Rbt.Parameter_File>
/export/apps/rDock/src/rDock_2013.1_src/data/scripts/dock_solv.prm

>  <Rbt.Receptor>
prm/pocket_docking_6.prm

>  <SCORE>
-18.3902

>  <SCORE.INTER>
-18.3902

>  <SCORE.INTER.CONST>
1

>  <SCORE.INTER.POLAR>
0

>  <SCORE.INTER.ROT>
0

>  <SCORE.INTER.SOLV>
3.63323

>  <SCORE.INTER.VDW>
-17.0712

>  <SCORE.INTER.norm>
-1.83902

>  <SCORE.INTRA>
0

>  <SCORE.INTRA.DIHEDRAL>
0

>  <SCORE.INTRA.DIHEDRAL.0>
0

>  <SCORE.INTRA.POLAR>
0

>  <SCORE.INTRA.POLAR.0>
0

>  <SCORE.INTRA.REPUL>
0

>  <SCORE.INTRA.REPUL.0>
0

>  <SCORE.INTRA.SOLV>
0

>  <SCORE.INTRA.SOLV.lig_0>
-4.28148

>  <SCORE.INTRA.VDW>
0

>  <SCORE.INTRA.VDW.0>
0

>  <SCORE.INTRA.norm>
0

>  <SCORE.RESTR>
0

>  <SCORE.RESTR.CAVITY>
0

>  <SCORE.RESTR.norm>
0

>  <SCORE.SYSTEM>
0

>  <SCORE.SYSTEM.CONST>
0

>  <SCORE.SYSTEM.DIHEDRAL>
0

>  <SCORE.SYSTEM.SOLV>
0

>  <SCORE.SYSTEM.norm>
0

>  <SCORE.heavy>
10

>  <SCORE.norm>
-1.83902

>  <RMSD>
2.496

$$$$
ligand
 OpenBabel11021811423D
libRbt.so/2013.1/901 2013/11/27
 10 11  0  0  0  0  0  0  0  0999 V2000
   11.7643   11.0752    8.7259 N   0  0  0  0  0  0  0  0  0  0  0  0
   11.9290    9.8878    8.0413 C   0  0  0  0  0  0  0  0  0  0  0  0
   11.7614    9.8017    6.7159 N   0  0  0  0  0  0  0  0  0  0  0  0
   11.4166   10.9874    6.1391 C   0  0  0  0  0  0  0  0  0  0  0  0
   11.2344   12.2101    6.7672 C   0  0  0  0  0  0  0  0  0  0  0  0
   11.4130   12.3092    8.1739 C   0  0  0  0  0  0  0  0  0  0  0  0
   11.3052   13.2794    8.9239 O   0  0  0  0  0  0  0  0  0  0  0  0
   10.8921   13.1402    5.8153 N   0  0  0  0  0  0  0  0  0  0  0  0
   10.8694   12.4860    4.6304 C   0  0  0  0  0  0  0  0  0  0  0  0
   11.1866   11.1579    4.7953 N   0  0  0  0  0  0  0  0  0  0  0  0
  1  2  1  0  0  0  0
  1  6  1  0  0  0  0
  2  3  2  0  0  0  0
  3  4  1  0  0  0  0
  4  5  2  0  0  0  0
  4 10  1  0  0  0  0
  5  6  1  0  0  0  0
  5  8  1  0  0  0  0
  6  7  2  0  0  0  0
  8  9  1  0  0  0  0
  9 10  2  0  0  0  0
M  END
>  <CHROM.1>
11.37646549,11.66266814,6.91300172,-0.95525295,1.31336658,-2.14209423

>  <Name>
ligand

>  <RI>
0

>  <Rbt.Current_Directory>
/home/itssahil/PROJECTS/Mol_Feturizer/New_Systems/rnas/2EEU

>  <Rbt.Executable>
rbdock ($Id: //depot/dev/client3/rdock/2013.1/src/exe/rbdock.cxx#4 $)

>  <Rbt.Library>
libRbt.so (2013.1, Build901 2013/11/27)

>  <Rbt.Parameter_File>
/export/apps/rDock/src/rDock_2013.1_src/data/scripts/dock_solv.prm

>  <Rbt.Receptor>
prm/pocket_docking_7.prm

>  <SCORE>
-18.3931

>  <SCORE.INTER>
-18.3931

>  <SCORE.INTER.CONST>
1

>  <SCORE.INTER.POLAR>
0

>  <SCORE.INTER.ROT>
0

>  <SCORE.INTER.SOLV>
3.63165

>  <SCORE.INTER.VDW>
-17.0726

>  <SCORE.INTER.norm>
-1.83931

>  <SCORE.INTRA>
0

>  <SCORE.INTRA.DIHEDRAL>
0

>  <SCORE.INTRA.DIHEDRAL.0>
0

>  <SCORE.INTRA.POLAR>
0

>  <SCORE.INTRA.POLAR.0>
0

>  <SCORE.INTRA.REPUL>
0

>  <SCORE.INTRA.REPUL.0>
0

>  <SCORE.INTRA.SOLV>
0

>  <SCORE.INTRA.SOLV.lig_0>
-4.28148

>  <SCORE.INTRA.VDW>
0

>  <SCORE.INTRA.VDW.0>
0

>  <SCORE.INTRA.norm>
0

>  <SCORE.RESTR>
0

>  <SCORE.RESTR.CAVITY>
0

>  <SCORE.RESTR.norm>
0

>  <SCORE.SYSTEM>
0

>  <SCORE.SYSTEM.CONST>
0

>  <SCORE.SYSTEM.DIHEDRAL>
0

>  <SCORE.SYSTEM.SOLV>
0

>  <SCORE.SYSTEM.norm>
0

>  <SCORE.heavy>
10

>  <SCORE.norm>
-1.83931

>  <RMSD>
2.496

$$$$
ligand
 OpenBabel11021811423D
libRbt.so/2013.1/901 2013/11/27
 10 11  0  0  0  0  0  0  0  0999 V2000
   11.7662   11.0758    8.7250 N   0  0  0  0  0  0  0  0  0  0  0  0
   11.9267    9.8879    8.0404 C   0  0  0  0  0  0  0  0  0  0  0  0
   11.7545    9.8014    6.7157 N   0  0  0  0  0  0  0  0  0  0  0  0
   11.4096   10.9873    6.1394 C   0  0  0  0  0  0  0  0  0  0  0  0
   11.2314   12.2106    6.7675 C   0  0  0  0  0  0  0  0  0  0  0  0
   11.4150   12.3101    8.1736 C   0  0  0  0  0  0  0  0  0  0  0  0
   11.3113   13.2809    8.9235 O   0  0  0  0  0  0  0  0  0  0  0  0
   10.8873   13.1408    5.8163 N   0  0  0  0  0  0  0  0  0  0  0  0
   10.8595   12.4861    4.6319 C   0  0  0  0  0  0  0  0  0  0  0  0
   11.1752   11.1575    4.7964 N   0  0  0  0  0  0  0  0  0  0  0  0
  1  2  1  0  0  0  0
  1  6  1  0  0  0  0
  2  3  2  0  0  0  0
  3  4  1  0  0  0  0
  4  5  2  0  0  0  0
  4 10  1  0  0  0  0
  5  6  1  0  0  0  0
  5  8  1  0  0  0  0
  6  7  2  0  0  0  0
  8  9  1  0  0  0  0
  9 10  2  0  0  0  0
M  END
>  <CHROM.1>
11.37313059,11.66303297,6.91315789,-0.94073520,1.31280008,-2.15662726

>  <Name>
ligand

>  <RI>
0

>  <Rbt.Current_Directory>
/home/itssahil/PROJECTS/Mol_Feturizer/New_Systems/rnas/2EEU

>  <Rbt.Executable>
rbdock ($Id: //depot/dev/client3/rdock/2013.1/src/exe/rbdock.cxx#4 $)

>  <Rbt.Library>
libRbt.so (2013.1, Build901 2013/11/27)

>  <Rbt.Parameter_File>
/export/apps/rDock/src/rDock_2013.1_src/data/scripts/dock_solv.prm

>  <Rbt.Receptor>
prm/pocket_docking_8.prm

>  <SCORE>
-18.3911

>  <SCORE.INTER>
-18.3911

>  <SCORE.INTER.CONST>
1

>  <SCORE.INTER.POLAR>
0

>  <SCORE.INTER.ROT>
0

>  <SCORE.INTER.SOLV>
3.62851

>  <SCORE.INTER.VDW>
-17.0703

>  <SCORE.INTER.norm>
-1.83911

>  <SCORE.INTRA>
0

>  <SCORE.INTRA.DIHEDRAL>
0

>  <SCORE.INTRA.DIHEDRAL.0>
0

>  <SCORE.INTRA.POLAR>
0

>  <SCORE.INTRA.POLAR.0>
0

>  <SCORE.INTRA.REPUL>
0

>  <SCORE.INTRA.REPUL.0>
0

>  <SCORE.INTRA.SOLV>
0

>  <SCORE.INTRA.SOLV.lig_0>
-4.28148

>  <SCORE.INTRA.VDW>
0

>  <SCORE.INTRA.VDW.0>
0

>  <SCORE.INTRA.norm>
0

>  <SCORE.RESTR>
0

>  <SCORE.RESTR.CAVITY>
0

>  <SCORE.RESTR.norm>
0

>  <SCORE.SYSTEM>
0

>  <SCORE.SYSTEM.CONST>
0

>  <SCORE.SYSTEM.DIHEDRAL>
0

>  <SCORE.SYSTEM.SOLV>
0

>  <SCORE.SYSTEM.norm>
0

>  <SCORE.heavy>
10

>  <SCORE.norm>
-1.83911

>  <RMSD>
2.496

$$$$
ligand
 OpenBabel11021811423D
libRbt.so/2013.1/901 2013/11/27
 10 11  0  0  0  0  0  0  0  0999 V2000
   11.7961   11.0545    8.6814 N   0  0  0  0  0  0  0  0  0  0  0  0
   11.8879    9.8634    7.9896 C   0  0  0  0  0  0  0  0  0  0  0  0
   11.6884    9.7914    6.6677 N   0  0  0  0  0  0  0  0  0  0  0  0
   11.3901   10.9950    6.1023 C   0  0  0  0  0  0  0  0  0  0  0  0
   11.2814   12.2225    6.7381 C   0  0  0  0  0  0  0  0  0  0  0  0
   11.4943   12.3066    8.1410 C   0  0  0  0  0  0  0  0  0  0  0  0
   11.4501   13.2777    8.8964 O   0  0  0  0  0  0  0  0  0  0  0  0
   10.9651   13.1723    5.7968 N   0  0  0  0  0  0  0  0  0  0  0  0
   10.8853   12.5252    4.6105 C   0  0  0  0  0  0  0  0  0  0  0  0
   11.1404   11.1824    4.7643 N   0  0  0  0  0  0  0  0  0  0  0  0
  1  2  1  0  0  0  0
  1  6  1  0  0  0  0
  2  3  2  0  0  0  0
  3  4  1  0  0  0  0
  4  5  2  0  0  0  0
  4 10  1  0  0  0  0
  5  6  1  0  0  0  0
  5  8  1  0  0  0  0
  6  7  2  0  0  0  0
  8  9  1  0  0  0  0
  9 10  2  0  0  0  0
M  END
>  <CHROM.1>
11.39945404,11.66810400,6.87911701,-0.76119469,1.33907598,-2.32662071

>  <Name>
ligand

>  <RI>
0

>  <Rbt.Current_Directory>
/home/itssahil/PROJECTS/Mol_Feturizer/New_Systems/rnas/2EEU

>  <Rbt.Executable>
rbdock ($Id: //depot/dev/client3/rdock/2013.1/src/exe/rbdock.cxx#4 $)

>  <Rbt.Library>
libRbt.so (2013.1, Build901 2013/11/27)

>  <Rbt.Parameter_File>
/export/apps/rDock/src/rDock_2013.1_src/data/scripts/dock_solv.prm

>  <Rbt.Receptor>
prm/pocket_docking_3.prm

>  <SCORE>
-18.3237

>  <SCORE.INTER>
-18.3237

>  <SCORE.INTER.CONST>
1

>  <SCORE.INTER.POLAR>
0

>  <SCORE.INTER.ROT>
0

>  <SCORE.INTER.SOLV>
3.64433

>  <SCORE.INTER.VDW>
-17.0306

>  <SCORE.INTER.norm>
-1.83237

>  <SCORE.INTRA>
0

>  <SCORE.INTRA.DIHEDRAL>
0

>  <SCORE.INTRA.DIHEDRAL.0>
0

>  <SCORE.INTRA.POLAR>
0

>  <SCORE.INTRA.POLAR.0>
0

>  <SCORE.INTRA.REPUL>
0

>  <SCORE.INTRA.REPUL.0>
0

>  <SCORE.INTRA.SOLV>
0

>  <SCORE.INTRA.SOLV.lig_0>
-4.28148

>  <SCORE.INTRA.VDW>
0

>  <SCORE.INTRA.VDW.0>
0

>  <SCORE.INTRA.norm>
0

>  <SCORE.RESTR>
0

>  <SCORE.RESTR.CAVITY>
0

>  <SCORE.RESTR.norm>
0

>  <SCORE.SYSTEM>
0

>  <SCORE.SYSTEM.CONST>
0

>  <SCORE.SYSTEM.DIHEDRAL>
0

>  <SCORE.SYSTEM.SOLV>
0

>  <SCORE.SYSTEM.norm>
0

>  <SCORE.heavy>
10

>  <SCORE.norm>
-1.83237

>  <RMSD>
2.497

$$$$
ligand
 OpenBabel11021811423D
libRbt.so/2013.1/901 2013/11/27
 10 11  0  0  0  0  0  0  0  0999 V2000
   11.7863   11.0685    8.7045 N   0  0  0  0  0  0  0  0  0  0  0  0
   11.9094    9.8748    8.0223 C   0  0  0  0  0  0  0  0  0  0  0  0
   11.7243    9.7892    6.6992 N   0  0  0  0  0  0  0  0  0  0  0  0
   11.4067   10.9823    6.1222 C   0  0  0  0  0  0  0  0  0  0  0  0
   11.2665   12.2118    6.7480 C   0  0  0  0  0  0  0  0  0  0  0  0
   11.4639   12.3102    8.1522 C   0  0  0  0  0  0  0  0  0  0  0  0
   11.3924   13.2855    8.9000 O   0  0  0  0  0  0  0  0  0  0  0  0
   10.9398   13.1481    5.7967 N   0  0  0  0  0  0  0  0  0  0  0  0
   10.8849   12.4910    4.6145 C   0  0  0  0  0  0  0  0  0  0  0  0
   11.1662   11.1550    4.7805 N   0  0  0  0  0  0  0  0  0  0  0  0
  1  2  1  0  0  0  0
  1  6  1  0  0  0  0
  2  3  2  0  0  0  0
  3  4  1  0  0  0  0
  4  5  2  0  0  0  0
  4 10  1  0  0  0  0
  5  6  1  0  0  0  0
  5  8  1  0  0  0  0
  6  7  2  0  0  0  0
  8  9  1  0  0  0  0
  9 10  2  0  0  0  0
M  END
>  <CHROM.1>
11.39459501,11.66094921,6.89411214,-0.85030731,1.32976353,-2.24719461

>  <Name>
ligand

>  <RI>
0

>  <Rbt.Current_Directory>
/home/itssahil/PROJECTS/Mol_Feturizer/New_Systems/rnas/2EEU

>  <Rbt.Executable>
rbdock ($Id: //depot/dev/client3/rdock/2013.1/src/exe/rbdock.cxx#4 $)

>  <Rbt.Library>
libRbt.so (2013.1, Build901 2013/11/27)

>  <Rbt.Parameter_File>
/export/apps/rDock/src/rDock_2013.1_src/data/scripts/dock_solv.prm

>  <Rbt.Receptor>
prm/pocket_docking_5.prm

>  <SCORE>
-18.3612

>  <SCORE.INTER>
-18.3612

>  <SCORE.INTER.CONST>
1

>  <SCORE.INTER.POLAR>
0

>  <SCORE.INTER.ROT>
0

>  <SCORE.INTER.SOLV>
3.64903

>  <SCORE.INTER.VDW>
-17.0571

>  <SCORE.INTER.norm>
-1.83612

>  <SCORE.INTRA>
0

>  <SCORE.INTRA.DIHEDRAL>
0

>  <SCORE.INTRA.DIHEDRAL.0>
0

>  <SCORE.INTRA.POLAR>
0

>  <SCORE.INTRA.POLAR.0>
0

>  <SCORE.INTRA.REPUL>
0

>  <SCORE.INTRA.REPUL.0>
0

>  <SCORE.INTRA.SOLV>
0

>  <SCORE.INTRA.SOLV.lig_0>
-4.28148

>  <SCORE.INTRA.VDW>
0

>  <SCORE.INTRA.VDW.0>
0

>  <SCORE.INTRA.norm>
0

>  <SCORE.RESTR>
0

>  <SCORE.RESTR.CAVITY>
0

>  <SCORE.RESTR.norm>
0

>  <SCORE.SYSTEM>
0

>  <SCORE.SYSTEM.CONST>
0

>  <SCORE.SYSTEM.DIHEDRAL>
0

>  <SCORE.SYSTEM.SOLV>
0

>  <SCORE.SYSTEM.norm>
0

>  <SCORE.heavy>
10

>  <SCORE.norm>
-1.83612

>  <RMSD>
2.497

$$$$
ligand
 OpenBabel11021811423D
libRbt.so/2013.1/901 2013/11/27
 10 11  0  0  0  0  0  0  0  0999 V2000
   11.7709   11.1028    8.7103 N   0  0  0  0  0  0  0  0  0  0  0  0
   11.9103    9.9091    8.0312 C   0  0  0  0  0  0  0  0  0  0  0  0
   11.7344    9.8193    6.7071 N   0  0  0  0  0  0  0  0  0  0  0  0
   11.4084   11.0081    6.1258 C   0  0  0  0  0  0  0  0  0  0  0  0
   11.2518   12.2372    6.7484 C   0  0  0  0  0  0  0  0  0  0  0  0
   11.4394   12.3402    8.1536 C   0  0  0  0  0  0  0  0  0  0  0  0
   11.3533   13.3161    8.8991 O   0  0  0  0  0  0  0  0  0  0  0  0
   10.9217   13.1685    5.7934 N   0  0  0  0  0  0  0  0  0  0  0  0
   10.8809   12.5088    4.6121 C   0  0  0  0  0  0  0  0  0  0  0  0
   11.1746   11.1759    4.7824 N   0  0  0  0  0  0  0  0  0  0  0  0
  1  2  1  0  0  0  0
  1  6  1  0  0  0  0
  2  3  2  0  0  0  0
  3  4  1  0  0  0  0
  4  5  2  0  0  0  0
  4 10  1  0  0  0  0
  5  6  1  0  0  0  0
  5  8  1  0  0  0  0
  6  7  2  0  0  0  0
  8  9  1  0  0  0  0
  9 10  2  0  0  0  0
M  END
>  <CHROM.1>
11.38459163,11.68798923,6.89639868,-0.89662673,1.32557966,-2.20407902

>  <Name>
ligand

>  <RI>
0

>  <Rbt.Current_Directory>
/home/itssahil/PROJECTS/Mol_Feturizer/New_Systems/rnas/2EEU

>  <Rbt.Executable>
rbdock ($Id: //depot/dev/client3/rdock/2013.1/src/exe/rbdock.cxx#4 $)

>  <Rbt.Library>
libRbt.so (2013.1, Build901 2013/11/27)

>  <Rbt.Parameter_File>
/export/apps/rDock/src/rDock_2013.1_src/data/scripts/dock_solv.prm

>  <Rbt.Receptor>
prm/pocket_docking_6.prm

>  <SCORE>
-18.3678

>  <SCORE.INTER>
-18.3678

>  <SCORE.INTER.CONST>
1

>  <SCORE.INTER.POLAR>
0

>  <SCORE.INTER.ROT>
0

>  <SCORE.INTER.SOLV>
3.6676

>  <SCORE.INTER.VDW>
-17.0677

>  <SCORE.INTER.norm>
-1.83678

>  <SCORE.INTRA>
0

>  <SCORE.INTRA.DIHEDRAL>
0

>  <SCORE.INTRA.DIHEDRAL.0>
0

>  <SCORE.INTRA.POLAR>
0

>  <SCORE.INTRA.POLAR.0>
0

>  <SCORE.INTRA.REPUL>
0

>  <SCORE.INTRA.REPUL.0>
0

>  <SCORE.INTRA.SOLV>
0

>  <SCORE.INTRA.SOLV.lig_0>
-4.28148

>  <SCORE.INTRA.VDW>
0

>  <SCORE.INTRA.VDW.0>
0

>  <SCORE.INTRA.norm>
0

>  <SCORE.RESTR>
0

>  <SCORE.RESTR.CAVITY>
0

>  <SCORE.RESTR.norm>
0

>  <SCORE.SYSTEM>
0

>  <SCORE.SYSTEM.CONST>
0

>  <SCORE.SYSTEM.DIHEDRAL>
0

>  <SCORE.SYSTEM.SOLV>
0

>  <SCORE.SYSTEM.norm>
0

>  <SCORE.heavy>
10

>  <SCORE.norm>
-1.83678

>  <RMSD>
2.497

$$$$
ligand
 OpenBabel11021811423D
libRbt.so/2013.1/901 2013/11/27
 10 11  0  0  0  0  0  0  0  0999 V2000
   11.7902   11.0884    8.6932 N   0  0  0  0  0  0  0  0  0  0  0  0
   11.9091    9.8910    8.0167 C   0  0  0  0  0  0  0  0  0  0  0  0
   11.7178    9.7988    6.6949 N   0  0  0  0  0  0  0  0  0  0  0  0
   11.3986   10.9891    6.1132 C   0  0  0  0  0  0  0  0  0  0  0  0
   11.2624   12.2220    6.7332 C   0  0  0  0  0  0  0  0  0  0  0  0
   11.4664   12.3276    8.1359 C   0  0  0  0  0  0  0  0  0  0  0  0
   11.3991   13.3068    8.8790 O   0  0  0  0  0  0  0  0  0  0  0  0
   10.9321   13.1537    5.7786 N   0  0  0  0  0  0  0  0  0  0  0  0
   10.8712   12.4905    4.6001 C   0  0  0  0  0  0  0  0  0  0  0  0
   11.1521   11.1551    4.7717 N   0  0  0  0  0  0  0  0  0  0  0  0
  1  2  1  0  0  0  0
  1  6  1  0  0  0  0
  2  3  2  0  0  0  0
  3  4  1  0  0  0  0
  4  5  2  0  0  0  0
  4 10  1  0  0  0  0
  5  6  1  0  0  0  0
  5  8  1  0  0  0  0
  6  7  2  0  0  0  0
  8  9  1  0  0  0  0
  9 10  2  0  0  0  0
M  END
>  <CHROM.1>
11.39067658,11.67181840,6.88160744,-0.83311934,1.32754423,-2.26907545

>  <Name>
ligand

>  <RI>
0

>  <Rbt.Current_Directory>
/home/itssahil/PROJECTS/Mol_Feturizer/New_Systems/rnas/2EEU

>  <Rbt.Executable>
rbdock ($Id: //depot/dev/client3/rdock/2013.1/src/exe/rbdock.cxx#4 $)

>  <Rbt.Library>
libRbt.so (2013.1, Build901 2013/11/27)

>  <Rbt.Parameter_File>
/export/apps/rDock/src/rDock_2013.1_src/data/scripts/dock_solv.prm

>  <Rbt.Receptor>
prm/blind_docking_100.prm

>  <SCORE>
-18.4301

>  <SCORE.INTER>
-18.4301

>  <SCORE.INTER.CONST>
1

>  <SCORE.INTER.POLAR>
0

>  <SCORE.INTER.ROT>
0

>  <SCORE.INTER.SOLV>
3.66022

>  <SCORE.INTER.VDW>
-17.1068

>  <SCORE.INTER.norm>
-1.84301

>  <SCORE.INTRA>
0

>  <SCORE.INTRA.DIHEDRAL>
0

>  <SCORE.INTRA.DIHEDRAL.0>
0

>  <SCORE.INTRA.POLAR>
0

>  <SCORE.INTRA.POLAR.0>
0

>  <SCORE.INTRA.REPUL>
0

>  <SCORE.INTRA.REPUL.0>
0

>  <SCORE.INTRA.SOLV>
0

>  <SCORE.INTRA.SOLV.lig_0>
-4.28148

>  <SCORE.INTRA.VDW>
0

>  <SCORE.INTRA.VDW.0>
0

>  <SCORE.INTRA.norm>
0

>  <SCORE.RESTR>
0

>  <SCORE.RESTR.CAVITY>
0

>  <SCORE.RESTR.norm>
0

>  <SCORE.SYSTEM>
0

>  <SCORE.SYSTEM.CONST>
0

>  <SCORE.SYSTEM.DIHEDRAL>
0

>  <SCORE.SYSTEM.SOLV>
0

>  <SCORE.SYSTEM.norm>
0

>  <SCORE.heavy>
10

>  <SCORE.norm>
-1.84301

>  <RMSD>
2.499

$$$$
ligand
 OpenBabel11021811423D
libRbt.so/2013.1/901 2013/11/27
 10 11  0  0  0  0  0  0  0  0999 V2000
   11.7867   11.0957    8.6948 N   0  0  0  0  0  0  0  0  0  0  0  0
   11.9032    9.8971    8.0199 C   0  0  0  0  0  0  0  0  0  0  0  0
   11.7118    9.8035    6.6982 N   0  0  0  0  0  0  0  0  0  0  0  0
   11.3952   10.9937    6.1148 C   0  0  0  0  0  0  0  0  0  0  0  0
   11.2615   12.2277    6.7331 C   0  0  0  0  0  0  0  0  0  0  0  0
   11.4655   12.3347    8.1358 C   0  0  0  0  0  0  0  0  0  0  0  0
   11.4003   13.3151    8.8775 O   0  0  0  0  0  0  0  0  0  0  0  0
   10.9333   13.1588    5.7773 N   0  0  0  0  0  0  0  0  0  0  0  0
   10.8711   12.4942    4.5996 C   0  0  0  0  0  0  0  0  0  0  0  0
   11.1491   11.1584    4.7731 N   0  0  0  0  0  0  0  0  0  0  0  0
  1  2  1  0  0  0  0
  1  6  1  0  0  0  0
  2  3  2  0  0  0  0
  3  4  1  0  0  0  0
  4  5  2  0  0  0  0
  4 10  1  0  0  0  0
  5  6  1  0  0  0  0
  5  8  1  0  0  0  0
  6  7  2  0  0  0  0
  8  9  1  0  0  0  0
  9 10  2  0  0  0  0
M  END
>  <CHROM.1>
11.38859510,11.67744656,6.88230943,-0.82779480,1.32920800,-2.27559194

>  <Name>
ligand

>  <RI>
0

>  <Rbt.Current_Directory>
/home/itssahil/PROJECTS/Mol_Feturizer/New_Systems/rnas/2EEU

>  <Rbt.Executable>
rbdock ($Id: //depot/dev/client3/rdock/2013.1/src/exe/rbdock.cxx#4 $)

>  <Rbt.Library>
libRbt.so (2013.1, Build901 2013/11/27)

>  <Rbt.Parameter_File>
/export/apps/rDock/src/rDock_2013.1_src/data/scripts/dock_solv.prm

>  <Rbt.Receptor>
prm/blind_docking_100.prm

>  <SCORE>
-18.4285

>  <SCORE.INTER>
-18.4285

>  <SCORE.INTER.CONST>
1

>  <SCORE.INTER.POLAR>
0

>  <SCORE.INTER.ROT>
0

>  <SCORE.INTER.SOLV>
3.67014

>  <SCORE.INTER.VDW>
-17.109

>  <SCORE.INTER.norm>
-1.84285

>  <SCORE.INTRA>
0

>  <SCORE.INTRA.DIHEDRAL>
0

>  <SCORE.INTRA.DIHEDRAL.0>
0

>  <SCORE.INTRA.POLAR>
0

>  <SCORE.INTRA.POLAR.0>
0

>  <SCORE.INTRA.REPUL>
0

>  <SCORE.INTRA.REPUL.0>
0

>  <SCORE.INTRA.SOLV>
0

>  <SCORE.INTRA.SOLV.lig_0>
-4.28148

>  <SCORE.INTRA.VDW>
0

>  <SCORE.INTRA.VDW.0>
0

>  <SCORE.INTRA.norm>
0

>  <SCORE.RESTR>
0

>  <SCORE.RESTR.CAVITY>
0

>  <SCORE.RESTR.norm>
0

>  <SCORE.SYSTEM>
0

>  <SCORE.SYSTEM.CONST>
0

>  <SCORE.SYSTEM.DIHEDRAL>
0

>  <SCORE.SYSTEM.SOLV>
0

>  <SCORE.SYSTEM.norm>
0

>  <SCORE.heavy>
10

>  <SCORE.norm>
-1.84285

>  <RMSD>
2.499

$$$$
ligand
 OpenBabel11021811423D
libRbt.so/2013.1/901 2013/11/27
 10 11  0  0  0  0  0  0  0  0999 V2000
   11.7706   11.1216    8.7035 N   0  0  0  0  0  0  0  0  0  0  0  0
   11.8874    9.9186    8.0367 C   0  0  0  0  0  0  0  0  0  0  0  0
   11.6975    9.8162    6.7155 N   0  0  0  0  0  0  0  0  0  0  0  0
   11.3819   11.0027    6.1238 C   0  0  0  0  0  0  0  0  0  0  0  0
   11.2479   12.2408    6.7338 C   0  0  0  0  0  0  0  0  0  0  0  0
   11.4504   12.3571    8.1359 C   0  0  0  0  0  0  0  0  0  0  0  0
   11.3846   13.3424    8.8710 O   0  0  0  0  0  0  0  0  0  0  0  0
   10.9211   13.1656    5.7714 N   0  0  0  0  0  0  0  0  0  0  0  0
   10.8601   12.4932    4.5981 C   0  0  0  0  0  0  0  0  0  0  0  0
   11.1374   11.1585    4.7808 N   0  0  0  0  0  0  0  0  0  0  0  0
  1  2  1  0  0  0  0
  1  6  1  0  0  0  0
  2  3  2  0  0  0  0
  3  4  1  0  0  0  0
  4  5  2  0  0  0  0
  4 10  1  0  0  0  0
  5  6  1  0  0  0  0
  5  8  1  0  0  0  0
  6  7  2  0  0  0  0
  8  9  1  0  0  0  0
  9 10  2  0  0  0  0
M  END
>  <CHROM.1>
11.37469634,11.69149754,6.88679019,-0.83052591,1.33019477,-2.27958308

>  <Name>
ligand

>  <RI>
0

>  <Rbt.Current_Directory>
/home/itssahil/PROJECTS/Mol_Feturizer/New_Systems/rnas/2EEU

>  <Rbt.Executable>
rbdock ($Id: //depot/dev/client3/rdock/2013.1/src/exe/rbdock.cxx#4 $)

>  <Rbt.Library>
libRbt.so (2013.1, Build901 2013/11/27)

>  <Rbt.Parameter_File>
/export/apps/rDock/src/rDock_2013.1_src/data/scripts/dock_solv.prm

>  <Rbt.Receptor>
prm/blind_docking_60.prm

>  <SCORE>
-18.4144

>  <SCORE.INTER>
-18.4144

>  <SCORE.INTER.CONST>
1

>  <SCORE.INTER.POLAR>
0

>  <SCORE.INTER.ROT>
0

>  <SCORE.INTER.SOLV>
3.69977

>  <SCORE.INTER.VDW>
-17.1095

>  <SCORE.INTER.norm>
-1.84144

>  <SCORE.INTRA>
0

>  <SCORE.INTRA.DIHEDRAL>
0

>  <SCORE.INTRA.DIHEDRAL.0>
0

>  <SCORE.INTRA.POLAR>
0

>  <SCORE.INTRA.POLAR.0>
0

>  <SCORE.INTRA.REPUL>
0

>  <SCORE.INTRA.REPUL.0>
0

>  <SCORE.INTRA.SOLV>
0

>  <SCORE.INTRA.SOLV.lig_0>
-4.28148

>  <SCORE.INTRA.VDW>
0

>  <SCORE.INTRA.VDW.0>
0

>  <SCORE.INTRA.norm>
0

>  <SCORE.RESTR>
0

>  <SCORE.RESTR.CAVITY>
0

>  <SCORE.RESTR.norm>
0

>  <SCORE.SYSTEM>
0

>  <SCORE.SYSTEM.CONST>
0

>  <SCORE.SYSTEM.DIHEDRAL>
0

>  <SCORE.SYSTEM.SOLV>
0

>  <SCORE.SYSTEM.norm>
0

>  <SCORE.heavy>
10

>  <SCORE.norm>
-1.84144

>  <RMSD>
2.499

$$$$
ligand
 OpenBabel11021811423D
libRbt.so/2013.1/901 2013/11/27
 10 11  0  0  0  0  0  0  0  0999 V2000
   11.7909   11.0950    8.6900 N   0  0  0  0  0  0  0  0  0  0  0  0
   11.9119    9.8988    8.0117 C   0  0  0  0  0  0  0  0  0  0  0  0
   11.7155    9.8072    6.6906 N   0  0  0  0  0  0  0  0  0  0  0  0
   11.3890   10.9969    6.1114 C   0  0  0  0  0  0  0  0  0  0  0  0
   11.2503   12.2285    6.7334 C   0  0  0  0  0  0  0  0  0  0  0  0
   11.4597   12.3334    8.1354 C   0  0  0  0  0  0  0  0  0  0  0  0
   11.3914   13.3115    8.8798 O   0  0  0  0  0  0  0  0  0  0  0  0
   10.9122   13.1598    5.7812 N   0  0  0  0  0  0  0  0  0  0  0  0
   10.8492   12.4977    4.6022 C   0  0  0  0  0  0  0  0  0  0  0  0
   11.1362   11.1633    4.7712 N   0  0  0  0  0  0  0  0  0  0  0  0
  1  2  1  0  0  0  0
  1  6  1  0  0  0  0
  2  3  2  0  0  0  0
  3  4  1  0  0  0  0
  4  5  2  0  0  0  0
  4 10  1  0  0  0  0
  5  6  1  0  0  0  0
  5  8  1  0  0  0  0
  6  7  2  0  0  0  0
  8  9  1  0  0  0  0
  9 10  2  0  0  0  0
M  END
>  <CHROM.1>
11.38144952,11.67869502,6.88065697,-0.83096576,1.32171541,-2.27007259

>  <Name>
ligand

>  <RI>
0

>  <Rbt.Current_Directory>
/home/itssahil/PROJECTS/Mol_Feturizer/New_Systems/rnas/2EEU

>  <Rbt.Executable>
rbdock ($Id: //depot/dev/client3/rdock/2013.1/src/exe/rbdock.cxx#4 $)

>  <Rbt.Library>
libRbt.so (2013.1, Build901 2013/11/27)

>  <Rbt.Parameter_File>
/export/apps/rDock/src/rDock_2013.1_src/data/scripts/dock_solv.prm

>  <Rbt.Receptor>
prm/pocket_docking_3.prm

>  <SCORE>
-18.3816

>  <SCORE.INTER>
-18.3816

>  <SCORE.INTER.CONST>
1

>  <SCORE.INTER.POLAR>
0

>  <SCORE.INTER.ROT>
0

>  <SCORE.INTER.SOLV>
3.65094

>  <SCORE.INTER.VDW>
-17.0714

>  <SCORE.INTER.norm>
-1.83816

>  <SCORE.INTRA>
0

>  <SCORE.INTRA.DIHEDRAL>
0

>  <SCORE.INTRA.DIHEDRAL.0>
0

>  <SCORE.INTRA.POLAR>
0

>  <SCORE.INTRA.POLAR.0>
0

>  <SCORE.INTRA.REPUL>
0

>  <SCORE.INTRA.REPUL.0>
0

>  <SCORE.INTRA.SOLV>
0

>  <SCORE.INTRA.SOLV.lig_0>
-4.28148

>  <SCORE.INTRA.VDW>
0

>  <SCORE.INTRA.VDW.0>
0

>  <SCORE.INTRA.norm>
0

>  <SCORE.RESTR>
0

>  <SCORE.RESTR.CAVITY>
0

>  <SCORE.RESTR.norm>
0

>  <SCORE.SYSTEM>
0

>  <SCORE.SYSTEM.CONST>
0

>  <SCORE.SYSTEM.DIHEDRAL>
0

>  <SCORE.SYSTEM.SOLV>
0

>  <SCORE.SYSTEM.norm>
0

>  <SCORE.heavy>
10

>  <SCORE.norm>
-1.83816

>  <RMSD>
2.499

$$$$
ligand
 OpenBabel11021811423D
libRbt.so/2013.1/901 2013/11/27
 10 11  0  0  0  0  0  0  0  0999 V2000
   11.7799   11.1027    8.6991 N   0  0  0  0  0  0  0  0  0  0  0  0
   11.9088    9.9052    8.0245 C   0  0  0  0  0  0  0  0  0  0  0  0
   11.7285    9.8112    6.7013 N   0  0  0  0  0  0  0  0  0  0  0  0
   11.4095   11.0000    6.1161 C   0  0  0  0  0  0  0  0  0  0  0  0
   11.2636   12.2328    6.7340 C   0  0  0  0  0  0  0  0  0  0  0  0
   11.4559   12.3402    8.1382 C   0  0  0  0  0  0  0  0  0  0  0  0
   11.3790   13.3197    8.8799 O   0  0  0  0  0  0  0  0  0  0  0  0
   10.9376   13.1625    5.7760 N   0  0  0  0  0  0  0  0  0  0  0  0
   10.8887   12.4982    4.5976 C   0  0  0  0  0  0  0  0  0  0  0  0
   11.1732   11.1640    4.7726 N   0  0  0  0  0  0  0  0  0  0  0  0
  1  2  1  0  0  0  0
  1  6  1  0  0  0  0
  2  3  2  0  0  0  0
  3  4  1  0  0  0  0
  4  5  2  0  0  0  0
  4 10  1  0  0  0  0
  5  6  1  0  0  0  0
  5  8  1  0  0  0  0
  6  7  2  0  0  0  0
  8  9  1  0  0  0  0
  9 10  2  0  0  0  0
M  END
>  <CHROM.1>
11.39281320,11.68319897,6.88386622,-0.86910357,1.32968691,-2.23491350

>  <Name>
ligand

>  <RI>
0

>  <Rbt.Current_Directory>
/home/itssahil/PROJECTS/Mol_Feturizer/New_Systems/rnas/2EEU

>  <Rbt.Executable>
rbdock ($Id: //depot/dev/client3/rdock/2013.1/src/exe/rbdock.cxx#4 $)

>  <Rbt.Library>
libRbt.so (2013.1, Build901 2013/11/27)

>  <Rbt.Parameter_File>
/export/apps/rDock/src/rDock_2013.1_src/data/scripts/dock_solv.prm

>  <Rbt.Receptor>
prm/pocket_docking_6.prm

>  <SCORE>
-18.3961

>  <SCORE.INTER>
-18.3961

>  <SCORE.INTER.CONST>
1

>  <SCORE.INTER.POLAR>
0

>  <SCORE.INTER.ROT>
0

>  <SCORE.INTER.SOLV>
3.67841

>  <SCORE.INTER.VDW>
-17.0902

>  <SCORE.INTER.norm>
-1.83961

>  <SCORE.INTRA>
0

>  <SCORE.INTRA.DIHEDRAL>
0

>  <SCORE.INTRA.DIHEDRAL.0>
0

>  <SCORE.INTRA.POLAR>
0

>  <SCORE.INTRA.POLAR.0>
0

>  <SCORE.INTRA.REPUL>
0

>  <SCORE.INTRA.REPUL.0>
0

>  <SCORE.INTRA.SOLV>
0

>  <SCORE.INTRA.SOLV.lig_0>
-4.28148

>  <SCORE.INTRA.VDW>
0

>  <SCORE.INTRA.VDW.0>
0

>  <SCORE.INTRA.norm>
0

>  <SCORE.RESTR>
0

>  <SCORE.RESTR.CAVITY>
0

>  <SCORE.RESTR.norm>
0

>  <SCORE.SYSTEM>
0

>  <SCORE.SYSTEM.CONST>
0

>  <SCORE.SYSTEM.DIHEDRAL>
0

>  <SCORE.SYSTEM.SOLV>
0

>  <SCORE.SYSTEM.norm>
0

>  <SCORE.heavy>
10

>  <SCORE.norm>
-1.83961

>  <RMSD>
2.499

$$$$
ligand
 OpenBabel11021811423D
libRbt.so/2013.1/901 2013/11/27
 10 11  0  0  0  0  0  0  0  0999 V2000
   11.7834   11.0921    8.6988 N   0  0  0  0  0  0  0  0  0  0  0  0
   11.9058    9.8948    8.0227 C   0  0  0  0  0  0  0  0  0  0  0  0
   11.7232    9.8032    6.6996 N   0  0  0  0  0  0  0  0  0  0  0  0
   11.4089   10.9940    6.1161 C   0  0  0  0  0  0  0  0  0  0  0  0
   11.2695   12.2267    6.7357 C   0  0  0  0  0  0  0  0  0  0  0  0
   11.4643   12.3317    8.1398 C   0  0  0  0  0  0  0  0  0  0  0  0
   11.3929   13.3107    8.8827 O   0  0  0  0  0  0  0  0  0  0  0  0
   10.9465   13.1590    5.7792 N   0  0  0  0  0  0  0  0  0  0  0  0
   10.8929   12.4963    4.6001 C   0  0  0  0  0  0  0  0  0  0  0  0
   11.1714   11.1606    4.7732 N   0  0  0  0  0  0  0  0  0  0  0  0
  1  2  1  0  0  0  0
  1  6  1  0  0  0  0
  2  3  2  0  0  0  0
  3  4  1  0  0  0  0
  4  5  2  0  0  0  0
  4 10  1  0  0  0  0
  5  6  1  0  0  0  0
  5  8  1  0  0  0  0
  6  7  2  0  0  0  0
  8  9  1  0  0  0  0
  9 10  2  0  0  0  0
M  END
>  <CHROM.1>
11.39640014,11.67643299,6.88473730,-0.85249398,1.33241697,-2.24992392

>  <Name>
ligand

>  <RI>
0

>  <Rbt.Current_Directory>
/home/itssahil/PROJECTS/Mol_Feturizer/New_Systems/rnas/2EEU

>  <Rbt.Executable>
rbdock ($Id: //depot/dev/client3/rdock/2013.1/src/exe/rbdock.cxx#4 $)

>  <Rbt.Library>
libRbt.so (2013.1, Build901 2013/11/27)

>  <Rbt.Parameter_File>
/export/apps/rDock/src/rDock_2013.1_src/data/scripts/dock_solv.prm

>  <Rbt.Receptor>
prm/pocket_docking_8.prm

>  <SCORE>
-18.3918

>  <SCORE.INTER>
-18.3918

>  <SCORE.INTER.CONST>
1

>  <SCORE.INTER.POLAR>
0

>  <SCORE.INTER.ROT>
0

>  <SCORE.INTER.SOLV>
3.67401

>  <SCORE.INTER.VDW>
-17.0859

>  <SCORE.INTER.norm>
-1.83918

>  <SCORE.INTRA>
0

>  <SCORE.INTRA.DIHEDRAL>
0

>  <SCORE.INTRA.DIHEDRAL.0>
0

>  <SCORE.INTRA.POLAR>
0

>  <SCORE.INTRA.POLAR.0>
0

>  <SCORE.INTRA.REPUL>
0

>  <SCORE.INTRA.REPUL.0>
0

>  <SCORE.INTRA.SOLV>
0

>  <SCORE.INTRA.SOLV.lig_0>
-4.28148

>  <SCORE.INTRA.VDW>
0

>  <SCORE.INTRA.VDW.0>
0

>  <SCORE.INTRA.norm>
0

>  <SCORE.RESTR>
0

>  <SCORE.RESTR.CAVITY>
0

>  <SCORE.RESTR.norm>
0

>  <SCORE.SYSTEM>
0

>  <SCORE.SYSTEM.CONST>
0

>  <SCORE.SYSTEM.DIHEDRAL>
0

>  <SCORE.SYSTEM.SOLV>
0

>  <SCORE.SYSTEM.norm>
0

>  <SCORE.heavy>
10

>  <SCORE.norm>
-1.83918

>  <RMSD>
2.499

$$$$
ligand
 OpenBabel11021811423D
libRbt.so/2013.1/901 2013/11/27
 10 11  0  0  0  0  0  0  0  0999 V2000
   11.7824   11.1035    8.6965 N   0  0  0  0  0  0  0  0  0  0  0  0
   11.9137    9.9065    8.0216 C   0  0  0  0  0  0  0  0  0  0  0  0
   11.7323    9.8122    6.6986 N   0  0  0  0  0  0  0  0  0  0  0  0
   11.4095   11.0002    6.1138 C   0  0  0  0  0  0  0  0  0  0  0  0
   11.2609   12.2325    6.7321 C   0  0  0  0  0  0  0  0  0  0  0  0
   11.4544   12.3402    8.1362 C   0  0  0  0  0  0  0  0  0  0  0  0
   11.3756   13.3194    8.8781 O   0  0  0  0  0  0  0  0  0  0  0  0
   10.9314   13.1615    5.7746 N   0  0  0  0  0  0  0  0  0  0  0  0
   10.8831   12.4972    4.5961 C   0  0  0  0  0  0  0  0  0  0  0  0
   11.1713   11.1637    4.7706 N   0  0  0  0  0  0  0  0  0  0  0  0
  1  2  1  0  0  0  0
  1  6  1  0  0  0  0
  2  3  2  0  0  0  0
  3  4  1  0  0  0  0
  4  5  2  0  0  0  0
  4 10  1  0  0  0  0
  5  6  1  0  0  0  0
  5  8  1  0  0  0  0
  6  7  2  0  0  0  0
  8  9  1  0  0  0  0
  9 10  2  0  0  0  0
M  END
>  <CHROM.1>
11.39176467,11.68325116,6.88175754,-0.87260454,1.32691761,-2.23137366

>  <Name>
ligand

>  <RI>
0

>  <Rbt.Current_Directory>
/home/itssahil/PROJECTS/Mol_Feturizer/New_Systems/rnas/2EEU

>  <Rbt.Executable>
rbdock ($Id: //depot/dev/client3/rdock/2013.1/src/exe/rbdock.cxx#4 $)

>  <Rbt.Library>
libRbt.so (2013.1, Build901 2013/11/27)

>  <Rbt.Parameter_File>
/export/apps/rDock/src/rDock_2013.1_src/data/scripts/dock_solv.prm

>  <Rbt.Receptor>
prm/blind_docking_40.prm

>  <SCORE>
-18.3969

>  <SCORE.INTER>
-18.3969

>  <SCORE.INTER.CONST>
1

>  <SCORE.INTER.POLAR>
0

>  <SCORE.INTER.ROT>
0

>  <SCORE.INTER.SOLV>
3.67309

>  <SCORE.INTER.VDW>
-17.089

>  <SCORE.INTER.norm>
-1.83969

>  <SCORE.INTRA>
0

>  <SCORE.INTRA.DIHEDRAL>
0

>  <SCORE.INTRA.DIHEDRAL.0>
0

>  <SCORE.INTRA.POLAR>
0

>  <SCORE.INTRA.POLAR.0>
0

>  <SCORE.INTRA.REPUL>
0

>  <SCORE.INTRA.REPUL.0>
0

>  <SCORE.INTRA.SOLV>
0

>  <SCORE.INTRA.SOLV.lig_0>
-4.28148

>  <SCORE.INTRA.VDW>
0

>  <SCORE.INTRA.VDW.0>
0

>  <SCORE.INTRA.norm>
0

>  <SCORE.RESTR>
0

>  <SCORE.RESTR.CAVITY>
0

>  <SCORE.RESTR.norm>
0

>  <SCORE.SYSTEM>
0

>  <SCORE.SYSTEM.CONST>
0

>  <SCORE.SYSTEM.DIHEDRAL>
0

>  <SCORE.SYSTEM.SOLV>
0

>  <SCORE.SYSTEM.norm>
0

>  <SCORE.heavy>
10

>  <SCORE.norm>
-1.83969

>  <RMSD>
2.500

$$$$
ligand
 OpenBabel11021811423D
libRbt.so/2013.1/901 2013/11/27
 10 11  0  0  0  0  0  0  0  0999 V2000
   11.7614   11.1066    8.6826 N   0  0  0  0  0  0  0  0  0  0  0  0
   11.8552    9.9094    8.0019 C   0  0  0  0  0  0  0  0  0  0  0  0
   11.6613    9.8256    6.6799 N   0  0  0  0  0  0  0  0  0  0  0  0
   11.3662   11.0243    6.1025 C   0  0  0  0  0  0  0  0  0  0  0  0
   11.2557   12.2575    6.7269 C   0  0  0  0  0  0  0  0  0  0  0  0
   11.4627   12.3540    8.1298 C   0  0  0  0  0  0  0  0  0  0  0  0
   11.4161   13.3319    8.8763 O   0  0  0  0  0  0  0  0  0  0  0  0
   10.9441   13.1991    5.7757 N   0  0  0  0  0  0  0  0  0  0  0  0
   10.8689   12.5415    4.5950 C   0  0  0  0  0  0  0  0  0  0  0  0
   11.1223   11.2000    4.7618 N   0  0  0  0  0  0  0  0  0  0  0  0
  1  2  1  0  0  0  0
  1  6  1  0  0  0  0
  2  3  2  0  0  0  0
  3  4  1  0  0  0  0
  4  5  2  0  0  0  0
  4 10  1  0  0  0  0
  5  6  1  0  0  0  0
  5  8  1  0  0  0  0
  6  7  2  0  0  0  0
  8  9  1  0  0  0  0
  9 10  2  0  0  0  0
M  END
>  <CHROM.1>
11.37279320,11.70434475,6.87329674,-0.77263464,1.34248569,-2.32442254

>  <Name>
ligand

>  <RI>
0

>  <Rbt.Current_Directory>
/home/itssahil/PROJECTS/Mol_Feturizer/New_Systems/rnas/2EEU

>  <Rbt.Executable>
rbdock ($Id: //depot/dev/client3/rdock/2013.1/src/exe/rbdock.cxx#4 $)

>  <Rbt.Library>
libRbt.so (2013.1, Build901 2013/11/27)

>  <Rbt.Parameter_File>
/export/apps/rDock/src/rDock_2013.1_src/data/scripts/dock_solv.prm

>  <Rbt.Receptor>
prm/blind_docking_60.prm

>  <SCORE>
-18.3492

>  <SCORE.INTER>
-18.3492

>  <SCORE.INTER.CONST>
1

>  <SCORE.INTER.POLAR>
0

>  <SCORE.INTER.ROT>
0

>  <SCORE.INTER.SOLV>
3.70056

>  <SCORE.INTER.VDW>
-17.0663

>  <SCORE.INTER.norm>
-1.83492

>  <SCORE.INTRA>
0

>  <SCORE.INTRA.DIHEDRAL>
0

>  <SCORE.INTRA.DIHEDRAL.0>
0

>  <SCORE.INTRA.POLAR>
0

>  <SCORE.INTRA.POLAR.0>
0

>  <SCORE.INTRA.REPUL>
0

>  <SCORE.INTRA.REPUL.0>
0

>  <SCORE.INTRA.SOLV>
0

>  <SCORE.INTRA.SOLV.lig_0>
-4.28148

>  <SCORE.INTRA.VDW>
0

>  <SCORE.INTRA.VDW.0>
0

>  <SCORE.INTRA.norm>
0

>  <SCORE.RESTR>
0

>  <SCORE.RESTR.CAVITY>
0

>  <SCORE.RESTR.norm>
0

>  <SCORE.SYSTEM>
0

>  <SCORE.SYSTEM.CONST>
0

>  <SCORE.SYSTEM.DIHEDRAL>
0

>  <SCORE.SYSTEM.SOLV>
0

>  <SCORE.SYSTEM.norm>
0

>  <SCORE.heavy>
10

>  <SCORE.norm>
-1.83492

>  <RMSD>
2.500

$$$$
ligand
 OpenBabel11021811423D
libRbt.so/2013.1/901 2013/11/27
 10 11  0  0  0  0  0  0  0  0999 V2000
   11.7861   11.0942    8.6930 N   0  0  0  0  0  0  0  0  0  0  0  0
   11.9067    9.8964    8.0175 C   0  0  0  0  0  0  0  0  0  0  0  0
   11.7168    9.8030    6.6956 N   0  0  0  0  0  0  0  0  0  0  0  0
   11.3972   10.9927    6.1126 C   0  0  0  0  0  0  0  0  0  0  0  0
   11.2593   12.2259    6.7316 C   0  0  0  0  0  0  0  0  0  0  0  0
   11.4619   12.3326    8.1345 C   0  0  0  0  0  0  0  0  0  0  0  0
   11.3931   13.3124    8.8767 O   0  0  0  0  0  0  0  0  0  0  0  0
   10.9293   13.1566    5.7760 N   0  0  0  0  0  0  0  0  0  0  0  0
   10.8701   12.4925    4.5979 C   0  0  0  0  0  0  0  0  0  0  0  0
   11.1519   11.1574    4.7708 N   0  0  0  0  0  0  0  0  0  0  0  0
  1  2  1  0  0  0  0
  1  6  1  0  0  0  0
  2  3  2  0  0  0  0
  3  4  1  0  0  0  0
  4  5  2  0  0  0  0
  4 10  1  0  0  0  0
  5  6  1  0  0  0  0
  5  8  1  0  0  0  0
  6  7  2  0  0  0  0
  8  9  1  0  0  0  0
  9 10  2  0  0  0  0
M  END
>  <CHROM.1>
11.38793977,11.67591100,6.88052788,-0.83843877,1.32756692,-2.26464410

>  <Name>
ligand

>  <RI>
0

>  <Rbt.Current_Directory>
/home/itssahil/PROJECTS/Mol_Feturizer/New_Systems/rnas/2EEU

>  <Rbt.Executable>
rbdock ($Id: //depot/dev/client3/rdock/2013.1/src/exe/rbdock.cxx#4 $)

>  <Rbt.Library>
libRbt.so (2013.1, Build901 2013/11/27)

>  <Rbt.Parameter_File>
/export/apps/rDock/src/rDock_2013.1_src/data/scripts/dock_solv.prm

>  <Rbt.Receptor>
prm/blind_docking_80.prm

>  <SCORE>
-18.4305

>  <SCORE.INTER>
-18.4305

>  <SCORE.INTER.CONST>
1

>  <SCORE.INTER.POLAR>
0

>  <SCORE.INTER.ROT>
0

>  <SCORE.INTER.SOLV>
3.6657

>  <SCORE.INTER.VDW>
-17.1089

>  <SCORE.INTER.norm>
-1.84305

>  <SCORE.INTRA>
0

>  <SCORE.INTRA.DIHEDRAL>
0

>  <SCORE.INTRA.DIHEDRAL.0>
0

>  <SCORE.INTRA.POLAR>
0

>  <SCORE.INTRA.POLAR.0>
0

>  <SCORE.INTRA.REPUL>
0

>  <SCORE.INTRA.REPUL.0>
0

>  <SCORE.INTRA.SOLV>
0

>  <SCORE.INTRA.SOLV.lig_0>
-4.28148

>  <SCORE.INTRA.VDW>
0

>  <SCORE.INTRA.VDW.0>
0

>  <SCORE.INTRA.norm>
0

>  <SCORE.RESTR>
0

>  <SCORE.RESTR.CAVITY>
0

>  <SCORE.RESTR.norm>
0

>  <SCORE.SYSTEM>
0

>  <SCORE.SYSTEM.CONST>
0

>  <SCORE.SYSTEM.DIHEDRAL>
0

>  <SCORE.SYSTEM.SOLV>
0

>  <SCORE.SYSTEM.norm>
0

>  <SCORE.heavy>
10

>  <SCORE.norm>
-1.84305

>  <RMSD>
2.500

$$$$
ligand
 OpenBabel11021811423D
libRbt.so/2013.1/901 2013/11/27
 10 11  0  0  0  0  0  0  0  0999 V2000
   11.7783   11.0980    8.6969 N   0  0  0  0  0  0  0  0  0  0  0  0
   11.9218    9.9044    8.0184 C   0  0  0  0  0  0  0  0  0  0  0  0
   11.7492    9.8138    6.6939 N   0  0  0  0  0  0  0  0  0  0  0  0
   11.4223   11.0018    6.1116 C   0  0  0  0  0  0  0  0  0  0  0  0
   11.2617   12.2308    6.7334 C   0  0  0  0  0  0  0  0  0  0  0  0
   11.4457   12.3345    8.1391 C   0  0  0  0  0  0  0  0  0  0  0  0
   11.3558   13.3105    8.8841 O   0  0  0  0  0  0  0  0  0  0  0  0
   10.9321   13.1611    5.7773 N   0  0  0  0  0  0  0  0  0  0  0  0
   10.8955   12.5010    4.5961 C   0  0  0  0  0  0  0  0  0  0  0  0
   11.1914   11.1688    4.7675 N   0  0  0  0  0  0  0  0  0  0  0  0
  1  2  1  0  0  0  0
  1  6  1  0  0  0  0
  2  3  2  0  0  0  0
  3  4  1  0  0  0  0
  4  5  2  0  0  0  0
  4 10  1  0  0  0  0
  5  6  1  0  0  0  0
  5  8  1  0  0  0  0
  6  7  2  0  0  0  0
  8  9  1  0  0  0  0
  9 10  2  0  0  0  0
M  END
>  <CHROM.1>
11.39522873,11.68185284,6.88185984,-0.90959618,1.32538465,-2.19177387

>  <Name>
ligand

>  <RI>
0

>  <Rbt.Current_Directory>
/home/itssahil/PROJECTS/Mol_Feturizer/New_Systems/rnas/2EEU

>  <Rbt.Executable>
rbdock ($Id: //depot/dev/client3/rdock/2013.1/src/exe/rbdock.cxx#4 $)

>  <Rbt.Library>
libRbt.so (2013.1, Build901 2013/11/27)

>  <Rbt.Parameter_File>
/export/apps/rDock/src/rDock_2013.1_src/data/scripts/dock_solv.prm

>  <Rbt.Receptor>
prm/blind_docking_80.prm

>  <SCORE>
-18.3924

>  <SCORE.INTER>
-18.3924

>  <SCORE.INTER.CONST>
1

>  <SCORE.INTER.POLAR>
0

>  <SCORE.INTER.ROT>
0

>  <SCORE.INTER.SOLV>
3.66513

>  <SCORE.INTER.VDW>
-17.0833

>  <SCORE.INTER.norm>
-1.83924

>  <SCORE.INTRA>
0

>  <SCORE.INTRA.DIHEDRAL>
0

>  <SCORE.INTRA.DIHEDRAL.0>
0

>  <SCORE.INTRA.POLAR>
0

>  <SCORE.INTRA.POLAR.0>
0

>  <SCORE.INTRA.REPUL>
0

>  <SCORE.INTRA.REPUL.0>
0

>  <SCORE.INTRA.SOLV>
0

>  <SCORE.INTRA.SOLV.lig_0>
-4.28148

>  <SCORE.INTRA.VDW>
0

>  <SCORE.INTRA.VDW.0>
0

>  <SCORE.INTRA.norm>
0

>  <SCORE.RESTR>
0

>  <SCORE.RESTR.CAVITY>
0

>  <SCORE.RESTR.norm>
0

>  <SCORE.SYSTEM>
0

>  <SCORE.SYSTEM.CONST>
0

>  <SCORE.SYSTEM.DIHEDRAL>
0

>  <SCORE.SYSTEM.SOLV>
0

>  <SCORE.SYSTEM.norm>
0

>  <SCORE.heavy>
10

>  <SCORE.norm>
-1.83924

>  <RMSD>
2.500

$$$$
ligand
 OpenBabel11021811423D
libRbt.so/2013.1/901 2013/11/27
 10 11  0  0  0  0  0  0  0  0999 V2000
   11.7834   11.1023    8.6926 N   0  0  0  0  0  0  0  0  0  0  0  0
   11.9214    9.9074    8.0153 C   0  0  0  0  0  0  0  0  0  0  0  0
   11.7343    9.8135    6.6930 N   0  0  0  0  0  0  0  0  0  0  0  0
   11.3988   10.9996    6.1116 C   0  0  0  0  0  0  0  0  0  0  0  0
   11.2430   12.2297    6.7324 C   0  0  0  0  0  0  0  0  0  0  0  0
   11.4425   12.3370    8.1356 C   0  0  0  0  0  0  0  0  0  0  0  0
   11.3592   13.3145    8.8794 O   0  0  0  0  0  0  0  0  0  0  0  0
   10.9012   13.1573    5.7779 N   0  0  0  0  0  0  0  0  0  0  0  0
   10.8526   12.4944    4.5986 C   0  0  0  0  0  0  0  0  0  0  0  0
   11.1527   11.1631    4.7698 N   0  0  0  0  0  0  0  0  0  0  0  0
  1  2  1  0  0  0  0
  1  6  1  0  0  0  0
  2  3  2  0  0  0  0
  3  4  1  0  0  0  0
  4  5  2  0  0  0  0
  4 10  1  0  0  0  0
  5  6  1  0  0  0  0
  5  8  1  0  0  0  0
  6  7  2  0  0  0  0
  8  9  1  0  0  0  0
  9 10  2  0  0  0  0
M  END
>  <CHROM.1>
11.37914298,11.68138342,6.88058429,-0.87753028,1.31737686,-2.22514638

>  <Name>
ligand

>  <RI>
0

>  <Rbt.Current_Directory>
/home/itssahil/PROJECTS/Mol_Feturizer/New_Systems/rnas/2EEU

>  <Rbt.Executable>
rbdock ($Id: //depot/dev/client3/rdock/2013.1/src/exe/rbdock.cxx#4 $)

>  <Rbt.Library>
libRbt.so (2013.1, Build901 2013/11/27)

>  <Rbt.Parameter_File>
/export/apps/rDock/src/rDock_2013.1_src/data/scripts/dock_solv.prm

>  <Rbt.Receptor>
prm/pocket_docking_3.prm

>  <SCORE>
-18.3942

>  <SCORE.INTER>
-18.3942

>  <SCORE.INTER.CONST>
1

>  <SCORE.INTER.POLAR>
0

>  <SCORE.INTER.ROT>
0

>  <SCORE.INTER.SOLV>
3.65149

>  <SCORE.INTER.VDW>
-17.08

>  <SCORE.INTER.norm>
-1.83942

>  <SCORE.INTRA>
0

>  <SCORE.INTRA.DIHEDRAL>
0

>  <SCORE.INTRA.DIHEDRAL.0>
0

>  <SCORE.INTRA.POLAR>
0

>  <SCORE.INTRA.POLAR.0>
0

>  <SCORE.INTRA.REPUL>
0

>  <SCORE.INTRA.REPUL.0>
0

>  <SCORE.INTRA.SOLV>
0

>  <SCORE.INTRA.SOLV.lig_0>
-4.28148

>  <SCORE.INTRA.VDW>
0

>  <SCORE.INTRA.VDW.0>
0

>  <SCORE.INTRA.norm>
0

>  <SCORE.RESTR>
0

>  <SCORE.RESTR.CAVITY>
0

>  <SCORE.RESTR.norm>
0

>  <SCORE.SYSTEM>
0

>  <SCORE.SYSTEM.CONST>
0

>  <SCORE.SYSTEM.DIHEDRAL>
0

>  <SCORE.SYSTEM.SOLV>
0

>  <SCORE.SYSTEM.norm>
0

>  <SCORE.heavy>
10

>  <SCORE.norm>
-1.83942

>  <RMSD>
2.500

$$$$
ligand
 OpenBabel11021811423D
libRbt.so/2013.1/901 2013/11/27
 10 11  0  0  0  0  0  0  0  0999 V2000
   11.7827   11.0940    8.6999 N   0  0  0  0  0  0  0  0  0  0  0  0
   11.9094    9.8949    8.0279 C   0  0  0  0  0  0  0  0  0  0  0  0
   11.7281    9.7982    6.7050 N   0  0  0  0  0  0  0  0  0  0  0  0
   11.4104   10.9860    6.1173 C   0  0  0  0  0  0  0  0  0  0  0  0
   11.2667   12.2204    6.7325 C   0  0  0  0  0  0  0  0  0  0  0  0
   11.4601   12.3307    8.1364 C   0  0  0  0  0  0  0  0  0  0  0  0
   11.3851   13.3120    8.8760 O   0  0  0  0  0  0  0  0  0  0  0  0
   10.9414   13.1484    5.7727 N   0  0  0  0  0  0  0  0  0  0  0  0
   10.8907   12.4816    4.5958 C   0  0  0  0  0  0  0  0  0  0  0  0
   11.1734   11.1473    4.7736 N   0  0  0  0  0  0  0  0  0  0  0  0
  1  2  1  0  0  0  0
  1  6  1  0  0  0  0
  2  3  2  0  0  0  0
  3  4  1  0  0  0  0
  4  5  2  0  0  0  0
  4 10  1  0  0  0  0
  5  6  1  0  0  0  0
  5  8  1  0  0  0  0
  6  7  2  0  0  0  0
  8  9  1  0  0  0  0
  9 10  2  0  0  0  0
M  END
>  <CHROM.1>
11.39523016,11.67100319,6.88356908,-0.86313562,1.33040564,-2.24296563

>  <Name>
ligand

>  <RI>
0

>  <Rbt.Current_Directory>
/home/itssahil/PROJECTS/Mol_Feturizer/New_Systems/rnas/2EEU

>  <Rbt.Executable>
rbdock ($Id: //depot/dev/client3/rdock/2013.1/src/exe/rbdock.cxx#4 $)

>  <Rbt.Library>
libRbt.so (2013.1, Build901 2013/11/27)

>  <Rbt.Parameter_File>
/export/apps/rDock/src/rDock_2013.1_src/data/scripts/dock_solv.prm

>  <Rbt.Receptor>
prm/pocket_docking_3.prm

>  <SCORE>
-18.3982

>  <SCORE.INTER>
-18.3982

>  <SCORE.INTER.CONST>
1

>  <SCORE.INTER.POLAR>
0

>  <SCORE.INTER.ROT>
0

>  <SCORE.INTER.SOLV>
3.67563

>  <SCORE.INTER.VDW>
-17.0907

>  <SCORE.INTER.norm>
-1.83982

>  <SCORE.INTRA>
0

>  <SCORE.INTRA.DIHEDRAL>
0

>  <SCORE.INTRA.DIHEDRAL.0>
0

>  <SCORE.INTRA.POLAR>
0

>  <SCORE.INTRA.POLAR.0>
0

>  <SCORE.INTRA.REPUL>
0

>  <SCORE.INTRA.REPUL.0>
0

>  <SCORE.INTRA.SOLV>
0

>  <SCORE.INTRA.SOLV.lig_0>
-4.28148

>  <SCORE.INTRA.VDW>
0

>  <SCORE.INTRA.VDW.0>
0

>  <SCORE.INTRA.norm>
0

>  <SCORE.RESTR>
0

>  <SCORE.RESTR.CAVITY>
0

>  <SCORE.RESTR.norm>
0

>  <SCORE.SYSTEM>
0

>  <SCORE.SYSTEM.CONST>
0

>  <SCORE.SYSTEM.DIHEDRAL>
0

>  <SCORE.SYSTEM.SOLV>
0

>  <SCORE.SYSTEM.norm>
0

>  <SCORE.heavy>
10

>  <SCORE.norm>
-1.83982

>  <RMSD>
2.500

$$$$
ligand
 OpenBabel11021811423D
libRbt.so/2013.1/901 2013/11/27
 10 11  0  0  0  0  0  0  0  0999 V2000
   11.7673   11.1124    8.7108 N   0  0  0  0  0  0  0  0  0  0  0  0
   11.8897    9.9058    8.0514 C   0  0  0  0  0  0  0  0  0  0  0  0
   11.7100    9.7963    6.7293 N   0  0  0  0  0  0  0  0  0  0  0  0
   11.3987   10.9795    6.1288 C   0  0  0  0  0  0  0  0  0  0  0  0
   11.2596   12.2207    6.7311 C   0  0  0  0  0  0  0  0  0  0  0  0
   11.4512   12.3446    8.1341 C   0  0  0  0  0  0  0  0  0  0  0  0
   11.3795   13.3338    8.8634 O   0  0  0  0  0  0  0  0  0  0  0  0
   10.9400   13.1403    5.7612 N   0  0  0  0  0  0  0  0  0  0  0  0
   10.8882   12.4616    4.5911 C   0  0  0  0  0  0  0  0  0  0  0  0
   11.1646   11.1280    4.7831 N   0  0  0  0  0  0  0  0  0  0  0  0
  1  2  1  0  0  0  0
  1  6  1  0  0  0  0
  2  3  2  0  0  0  0
  3  4  1  0  0  0  0
  4  5  2  0  0  0  0
  4 10  1  0  0  0  0
  5  6  1  0  0  0  0
  5  8  1  0  0  0  0
  6  7  2  0  0  0  0
  8  9  1  0  0  0  0
  9 10  2  0  0  0  0
M  END
>  <CHROM.1>
11.38535095,11.67235324,6.88798058,-0.85649014,1.33493475,-2.25971543

>  <Name>
ligand

>  <RI>
0

>  <Rbt.Current_Directory>
/home/itssahil/PROJECTS/Mol_Feturizer/New_Systems/rnas/2EEU

>  <Rbt.Executable>
rbdock ($Id: //depot/dev/client3/rdock/2013.1/src/exe/rbdock.cxx#4 $)

>  <Rbt.Library>
libRbt.so (2013.1, Build901 2013/11/27)

>  <Rbt.Parameter_File>
/export/apps/rDock/src/rDock_2013.1_src/data/scripts/dock_solv.prm

>  <Rbt.Receptor>
prm/pocket_docking_6.prm

>  <SCORE>
-18.3912

>  <SCORE.INTER>
-18.3912

>  <SCORE.INTER.CONST>
1

>  <SCORE.INTER.POLAR>
0

>  <SCORE.INTER.ROT>
0

>  <SCORE.INTER.SOLV>
3.71064

>  <SCORE.INTER.VDW>
-17.0977

>  <SCORE.INTER.norm>
-1.83912

>  <SCORE.INTRA>
0

>  <SCORE.INTRA.DIHEDRAL>
0

>  <SCORE.INTRA.DIHEDRAL.0>
0

>  <SCORE.INTRA.POLAR>
0

>  <SCORE.INTRA.POLAR.0>
0

>  <SCORE.INTRA.REPUL>
0

>  <SCORE.INTRA.REPUL.0>
0

>  <SCORE.INTRA.SOLV>
0

>  <SCORE.INTRA.SOLV.lig_0>
-4.28148

>  <SCORE.INTRA.VDW>
0

>  <SCORE.INTRA.VDW.0>
0

>  <SCORE.INTRA.norm>
0

>  <SCORE.RESTR>
0

>  <SCORE.RESTR.CAVITY>
0

>  <SCORE.RESTR.norm>
0

>  <SCORE.SYSTEM>
0

>  <SCORE.SYSTEM.CONST>
0

>  <SCORE.SYSTEM.DIHEDRAL>
0

>  <SCORE.SYSTEM.SOLV>
0

>  <SCORE.SYSTEM.norm>
0

>  <SCORE.heavy>
10

>  <SCORE.norm>
-1.83912

>  <RMSD>
2.500

$$$$
ligand
 OpenBabel11021811423D
libRbt.so/2013.1/901 2013/11/27
 10 11  0  0  0  0  0  0  0  0999 V2000
   11.7883   11.1025    8.6911 N   0  0  0  0  0  0  0  0  0  0  0  0
   11.9203    9.9060    8.0153 C   0  0  0  0  0  0  0  0  0  0  0  0
   11.7328    9.8114    6.6931 N   0  0  0  0  0  0  0  0  0  0  0  0
   11.4034   10.9984    6.1102 C   0  0  0  0  0  0  0  0  0  0  0  0
   11.2539   12.2301    6.7294 C   0  0  0  0  0  0  0  0  0  0  0  0
   11.4538   12.3382    8.1325 C   0  0  0  0  0  0  0  0  0  0  0  0
   11.3755   13.3170    8.8750 O   0  0  0  0  0  0  0  0  0  0  0  0
   10.9169   13.1582    5.7737 N   0  0  0  0  0  0  0  0  0  0  0  0
   10.8650   12.4941    4.5953 C   0  0  0  0  0  0  0  0  0  0  0  0
   11.1583   11.1615    4.7681 N   0  0  0  0  0  0  0  0  0  0  0  0
  1  2  1  0  0  0  0
  1  6  1  0  0  0  0
  2  3  2  0  0  0  0
  3  4  1  0  0  0  0
  4  5  2  0  0  0  0
  4 10  1  0  0  0  0
  5  6  1  0  0  0  0
  5  8  1  0  0  0  0
  6  7  2  0  0  0  0
  8  9  1  0  0  0  0
  9 10  2  0  0  0  0
M  END
>  <CHROM.1>
11.38721111,11.68127761,6.87829902,-0.86512423,1.32146835,-2.23843101

>  <Name>
ligand

>  <RI>
0

>  <Rbt.Current_Directory>
/home/itssahil/PROJECTS/Mol_Feturizer/New_Systems/rnas/2EEU

>  <Rbt.Executable>
rbdock ($Id: //depot/dev/client3/rdock/2013.1/src/exe/rbdock.cxx#4 $)

>  <Rbt.Library>
libRbt.so (2013.1, Build901 2013/11/27)

>  <Rbt.Parameter_File>
/export/apps/rDock/src/rDock_2013.1_src/data/scripts/dock_solv.prm

>  <Rbt.Receptor>
prm/pocket_docking_8.prm

>  <SCORE>
-18.4351

>  <SCORE.INTER>
-18.4351

>  <SCORE.INTER.CONST>
1

>  <SCORE.INTER.POLAR>
0

>  <SCORE.INTER.ROT>
0

>  <SCORE.INTER.SOLV>
3.65977

>  <SCORE.INTER.VDW>
-17.11

>  <SCORE.INTER.norm>
-1.84351

>  <SCORE.INTRA>
0

>  <SCORE.INTRA.DIHEDRAL>
0

>  <SCORE.INTRA.DIHEDRAL.0>
0

>  <SCORE.INTRA.POLAR>
0

>  <SCORE.INTRA.POLAR.0>
0

>  <SCORE.INTRA.REPUL>
0

>  <SCORE.INTRA.REPUL.0>
0

>  <SCORE.INTRA.SOLV>
0

>  <SCORE.INTRA.SOLV.lig_0>
-4.28148

>  <SCORE.INTRA.VDW>
0

>  <SCORE.INTRA.VDW.0>
0

>  <SCORE.INTRA.norm>
0

>  <SCORE.RESTR>
0

>  <SCORE.RESTR.CAVITY>
0

>  <SCORE.RESTR.norm>
0

>  <SCORE.SYSTEM>
0

>  <SCORE.SYSTEM.CONST>
0

>  <SCORE.SYSTEM.DIHEDRAL>
0

>  <SCORE.SYSTEM.SOLV>
0

>  <SCORE.SYSTEM.norm>
0

>  <SCORE.heavy>
10

>  <SCORE.norm>
-1.84351

>  <RMSD>
2.500

$$$$
ligand
 OpenBabel11021811423D
libRbt.so/2013.1/901 2013/11/27
 10 11  0  0  0  0  0  0  0  0999 V2000
   11.7807   11.0864    8.6682 N   0  0  0  0  0  0  0  0  0  0  0  0
   11.8911    9.9000    7.9711 C   0  0  0  0  0  0  0  0  0  0  0  0
   11.6959    9.8312    6.6485 N   0  0  0  0  0  0  0  0  0  0  0  0
   11.3818   11.0331    6.0878 C   0  0  0  0  0  0  0  0  0  0  0  0
   11.2541   12.2559    6.7290 C   0  0  0  0  0  0  0  0  0  0  0  0
   11.4623   12.3366    8.1328 C   0  0  0  0  0  0  0  0  0  0  0  0
   11.4024   13.3034    8.8925 O   0  0  0  0  0  0  0  0  0  0  0  0
   10.9266   13.2055    5.7913 N   0  0  0  0  0  0  0  0  0  0  0  0
   10.8589   12.5628    4.6018 C   0  0  0  0  0  0  0  0  0  0  0  0
   11.1328   11.2231    4.7501 N   0  0  0  0  0  0  0  0  0  0  0  0
  1  2  1  0  0  0  0
  1  6  1  0  0  0  0
  2  3  2  0  0  0  0
  3  4  1  0  0  0  0
  4  5  2  0  0  0  0
  4 10  1  0  0  0  0
  5  6  1  0  0  0  0
  5  8  1  0  0  0  0
  6  7  2  0  0  0  0
  8  9  1  0  0  0  0
  9 10  2  0  0  0  0
M  END
>  <CHROM.1>
11.37968830,11.70263037,6.86775962,-0.80985346,1.33007590,-2.27469358

>  <Name>
ligand

>  <RI>
0

>  <Rbt.Current_Directory>
/home/itssahil/PROJECTS/Mol_Feturizer/New_Systems/rnas/2EEU

>  <Rbt.Executable>
rbdock ($Id: //depot/dev/client3/rdock/2013.1/src/exe/rbdock.cxx#4 $)

>  <Rbt.Library>
libRbt.so (2013.1, Build901 2013/11/27)

>  <Rbt.Parameter_File>
/export/apps/rDock/src/rDock_2013.1_src/data/scripts/dock_solv.prm

>  <Rbt.Receptor>
prm/pocket_docking_8.prm

>  <SCORE>
-18.3631

>  <SCORE.INTER>
-18.3631

>  <SCORE.INTER.CONST>
1

>  <SCORE.INTER.POLAR>
0

>  <SCORE.INTER.ROT>
0

>  <SCORE.INTER.SOLV>
3.64323

>  <SCORE.INTER.VDW>
-17.0565

>  <SCORE.INTER.norm>
-1.83631

>  <SCORE.INTRA>
0

>  <SCORE.INTRA.DIHEDRAL>
0

>  <SCORE.INTRA.DIHEDRAL.0>
0

>  <SCORE.INTRA.POLAR>
0

>  <SCORE.INTRA.POLAR.0>
0

>  <SCORE.INTRA.REPUL>
0

>  <SCORE.INTRA.REPUL.0>
0

>  <SCORE.INTRA.SOLV>
0

>  <SCORE.INTRA.SOLV.lig_0>
-4.28148

>  <SCORE.INTRA.VDW>
0

>  <SCORE.INTRA.VDW.0>
0

>  <SCORE.INTRA.norm>
0

>  <SCORE.RESTR>
0

>  <SCORE.RESTR.CAVITY>
0

>  <SCORE.RESTR.norm>
0

>  <SCORE.SYSTEM>
0

>  <SCORE.SYSTEM.CONST>
0

>  <SCORE.SYSTEM.DIHEDRAL>
0

>  <SCORE.SYSTEM.SOLV>
0

>  <SCORE.SYSTEM.norm>
0

>  <SCORE.heavy>
10

>  <SCORE.norm>
-1.83631

>  <RMSD>
2.500

$$$$
ligand
 OpenBabel11021811423D
libRbt.so/2013.1/901 2013/11/27
 10 11  0  0  0  0  0  0  0  0999 V2000
   11.7820   11.0875    8.7000 N   0  0  0  0  0  0  0  0  0  0  0  0
   11.9103    9.8873    8.0301 C   0  0  0  0  0  0  0  0  0  0  0  0
   11.7309    9.7884    6.7071 N   0  0  0  0  0  0  0  0  0  0  0  0
   11.4133   10.9752    6.1171 C   0  0  0  0  0  0  0  0  0  0  0  0
   11.2681   12.2105    6.7302 C   0  0  0  0  0  0  0  0  0  0  0  0
   11.4595   12.3231    8.1342 C   0  0  0  0  0  0  0  0  0  0  0  0
   11.3828   13.3055    8.8721 O   0  0  0  0  0  0  0  0  0  0  0  0
   10.9436   13.1368    5.7685 N   0  0  0  0  0  0  0  0  0  0  0  0
   10.8949   12.4681    4.5925 C   0  0  0  0  0  0  0  0  0  0  0  0
   11.1781   11.1343    4.7728 N   0  0  0  0  0  0  0  0  0  0  0  0
  1  2  1  0  0  0  0
  1  6  1  0  0  0  0
  2  3  2  0  0  0  0
  3  4  1  0  0  0  0
  4  5  2  0  0  0  0
  4 10  1  0  0  0  0
  5  6  1  0  0  0  0
  5  8  1  0  0  0  0
  6  7  2  0  0  0  0
  8  9  1  0  0  0  0
  9 10  2  0  0  0  0
M  END
>  <CHROM.1>
11.39668131,11.66135902,6.88225048,-0.86928631,1.33082747,-2.23854956

>  <Name>
ligand

>  <RI>
0

>  <Rbt.Current_Directory>
/home/itssahil/PROJECTS/Mol_Feturizer/New_Systems/rnas/2EEU

>  <Rbt.Executable>
rbdock ($Id: //depot/dev/client3/rdock/2013.1/src/exe/rbdock.cxx#4 $)

>  <Rbt.Library>
libRbt.so (2013.1, Build901 2013/11/27)

>  <Rbt.Parameter_File>
/export/apps/rDock/src/rDock_2013.1_src/data/scripts/dock_solv.prm

>  <Rbt.Receptor>
prm/blind_docking_100.prm

>  <SCORE>
-18.3608

>  <SCORE.INTER>
-18.3608

>  <SCORE.INTER.CONST>
1

>  <SCORE.INTER.POLAR>
0

>  <SCORE.INTER.ROT>
0

>  <SCORE.INTER.SOLV>
3.67543

>  <SCORE.INTER.VDW>
-17.0657

>  <SCORE.INTER.norm>
-1.83608

>  <SCORE.INTRA>
0

>  <SCORE.INTRA.DIHEDRAL>
0

>  <SCORE.INTRA.DIHEDRAL.0>
0

>  <SCORE.INTRA.POLAR>
0

>  <SCORE.INTRA.POLAR.0>
0

>  <SCORE.INTRA.REPUL>
0

>  <SCORE.INTRA.REPUL.0>
0

>  <SCORE.INTRA.SOLV>
0

>  <SCORE.INTRA.SOLV.lig_0>
-4.28148

>  <SCORE.INTRA.VDW>
0

>  <SCORE.INTRA.VDW.0>
0

>  <SCORE.INTRA.norm>
0

>  <SCORE.RESTR>
0

>  <SCORE.RESTR.CAVITY>
0

>  <SCORE.RESTR.norm>
0

>  <SCORE.SYSTEM>
0

>  <SCORE.SYSTEM.CONST>
0

>  <SCORE.SYSTEM.DIHEDRAL>
0

>  <SCORE.SYSTEM.SOLV>
0

>  <SCORE.SYSTEM.norm>
0

>  <SCORE.heavy>
10

>  <SCORE.norm>
-1.83608

>  <RMSD>
2.501

$$$$
ligand
 OpenBabel11021811423D
libRbt.so/2013.1/901 2013/11/27
 10 11  0  0  0  0  0  0  0  0999 V2000
   11.7860   11.1025    8.6915 N   0  0  0  0  0  0  0  0  0  0  0  0
   11.9247    9.9060    8.0172 C   0  0  0  0  0  0  0  0  0  0  0  0
   11.7402    9.8092    6.6948 N   0  0  0  0  0  0  0  0  0  0  0  0
   11.4066   10.9941    6.1100 C   0  0  0  0  0  0  0  0  0  0  0  0
   11.2503   12.2258    6.7277 C   0  0  0  0  0  0  0  0  0  0  0  0
   11.4469   12.3362    8.1311 C   0  0  0  0  0  0  0  0  0  0  0  0
   11.3627   13.3154    8.8725 O   0  0  0  0  0  0  0  0  0  0  0  0
   10.9109   13.1514    5.7704 N   0  0  0  0  0  0  0  0  0  0  0  0
   10.8643   12.4858    4.5926 C   0  0  0  0  0  0  0  0  0  0  0  0
   11.1634   11.1547    4.7673 N   0  0  0  0  0  0  0  0  0  0  0  0
  1  2  1  0  0  0  0
  1  6  1  0  0  0  0
  2  3  2  0  0  0  0
  3  4  1  0  0  0  0
  4  5  2  0  0  0  0
  4 10  1  0  0  0  0
  5  6  1  0  0  0  0
  5  8  1  0  0  0  0
  6  7  2  0  0  0  0
  8  9  1  0  0  0  0
  9 10  2  0  0  0  0
M  END
>  <CHROM.1>
11.38578082,11.67769140,6.87742523,-0.88259516,1.31907746,-2.22250940

>  <Name>
ligand

>  <RI>
0

>  <Rbt.Current_Directory>
/home/itssahil/PROJECTS/Mol_Feturizer/New_Systems/rnas/2EEU

>  <Rbt.Executable>
rbdock ($Id: //depot/dev/client3/rdock/2013.1/src/exe/rbdock.cxx#4 $)

>  <Rbt.Library>
libRbt.so (2013.1, Build901 2013/11/27)

>  <Rbt.Parameter_File>
/export/apps/rDock/src/rDock_2013.1_src/data/scripts/dock_solv.prm

>  <Rbt.Receptor>
prm/blind_docking_40.prm

>  <SCORE>
-18.3979

>  <SCORE.INTER>
-18.3979

>  <SCORE.INTER.CONST>
1

>  <SCORE.INTER.POLAR>
0

>  <SCORE.INTER.ROT>
0

>  <SCORE.INTER.SOLV>
3.65781

>  <SCORE.INTER.VDW>
-17.0846

>  <SCORE.INTER.norm>
-1.83979

>  <SCORE.INTRA>
0

>  <SCORE.INTRA.DIHEDRAL>
0

>  <SCORE.INTRA.DIHEDRAL.0>
0

>  <SCORE.INTRA.POLAR>
0

>  <SCORE.INTRA.POLAR.0>
0

>  <SCORE.INTRA.REPUL>
0

>  <SCORE.INTRA.REPUL.0>
0

>  <SCORE.INTRA.SOLV>
0

>  <SCORE.INTRA.SOLV.lig_0>
-4.28148

>  <SCORE.INTRA.VDW>
0

>  <SCORE.INTRA.VDW.0>
0

>  <SCORE.INTRA.norm>
0

>  <SCORE.RESTR>
0

>  <SCORE.RESTR.CAVITY>
0

>  <SCORE.RESTR.norm>
0

>  <SCORE.SYSTEM>
0

>  <SCORE.SYSTEM.CONST>
0

>  <SCORE.SYSTEM.DIHEDRAL>
0

>  <SCORE.SYSTEM.SOLV>
0

>  <SCORE.SYSTEM.norm>
0

>  <SCORE.heavy>
10

>  <SCORE.norm>
-1.83979

>  <RMSD>
2.501

$$$$
ligand
 OpenBabel11021811423D
libRbt.so/2013.1/901 2013/11/27
 10 11  0  0  0  0  0  0  0  0999 V2000
   11.7798   11.1016    8.7002 N   0  0  0  0  0  0  0  0  0  0  0  0
   11.9162    9.9025    8.0301 C   0  0  0  0  0  0  0  0  0  0  0  0
   11.7375    9.8026    6.7071 N   0  0  0  0  0  0  0  0  0  0  0  0
   11.4121   10.9873    6.1173 C   0  0  0  0  0  0  0  0  0  0  0  0
   11.2586   12.2214    6.7305 C   0  0  0  0  0  0  0  0  0  0  0  0
   11.4491   12.3351    8.1345 C   0  0  0  0  0  0  0  0  0  0  0  0
   11.3659   13.3169    8.8726 O   0  0  0  0  0  0  0  0  0  0  0  0
   10.9280   13.1457    5.7689 N   0  0  0  0  0  0  0  0  0  0  0  0
   10.8839   12.4769    4.5928 C   0  0  0  0  0  0  0  0  0  0  0  0
   11.1759   11.1450    4.7730 N   0  0  0  0  0  0  0  0  0  0  0  0
  1  2  1  0  0  0  0
  1  6  1  0  0  0  0
  2  3  2  0  0  0  0
  3  4  1  0  0  0  0
  4  5  2  0  0  0  0
  4 10  1  0  0  0  0
  5  6  1  0  0  0  0
  5  8  1  0  0  0  0
  6  7  2  0  0  0  0
  8  9  1  0  0  0  0
  9 10  2  0  0  0  0
M  END
>  <CHROM.1>
11.39082282,11.67320141,6.88252896,-0.88652316,1.32559274,-2.22168274

>  <Name>
ligand

>  <RI>
0

>  <Rbt.Current_Directory>
/home/itssahil/PROJECTS/Mol_Feturizer/New_Systems/rnas/2EEU

>  <Rbt.Executable>
rbdock ($Id: //depot/dev/client3/rdock/2013.1/src/exe/rbdock.cxx#4 $)

>  <Rbt.Library>
libRbt.so (2013.1, Build901 2013/11/27)

>  <Rbt.Parameter_File>
/export/apps/rDock/src/rDock_2013.1_src/data/scripts/dock_solv.prm

>  <Rbt.Receptor>
prm/blind_docking_80.prm

>  <SCORE>
-18.4044

>  <SCORE.INTER>
-18.4044

>  <SCORE.INTER.CONST>
1

>  <SCORE.INTER.POLAR>
0

>  <SCORE.INTER.ROT>
0

>  <SCORE.INTER.SOLV>
3.67488

>  <SCORE.INTER.VDW>
-17.0945

>  <SCORE.INTER.norm>
-1.84044

>  <SCORE.INTRA>
0

>  <SCORE.INTRA.DIHEDRAL>
0

>  <SCORE.INTRA.DIHEDRAL.0>
0

>  <SCORE.INTRA.POLAR>
0

>  <SCORE.INTRA.POLAR.0>
0

>  <SCORE.INTRA.REPUL>
0

>  <SCORE.INTRA.REPUL.0>
0

>  <SCORE.INTRA.SOLV>
0

>  <SCORE.INTRA.SOLV.lig_0>
-4.28148

>  <SCORE.INTRA.VDW>
0

>  <SCORE.INTRA.VDW.0>
0

>  <SCORE.INTRA.norm>
0

>  <SCORE.RESTR>
0

>  <SCORE.RESTR.CAVITY>
0

>  <SCORE.RESTR.norm>
0

>  <SCORE.SYSTEM>
0

>  <SCORE.SYSTEM.CONST>
0

>  <SCORE.SYSTEM.DIHEDRAL>
0

>  <SCORE.SYSTEM.SOLV>
0

>  <SCORE.SYSTEM.norm>
0

>  <SCORE.heavy>
10

>  <SCORE.norm>
-1.84044

>  <RMSD>
2.501

$$$$
ligand
 OpenBabel11021811423D
libRbt.so/2013.1/901 2013/11/27
 10 11  0  0  0  0  0  0  0  0999 V2000
   11.8001   11.0860    8.6827 N   0  0  0  0  0  0  0  0  0  0  0  0
   11.9187    9.8896    8.0043 C   0  0  0  0  0  0  0  0  0  0  0  0
   11.7203    9.7981    6.6835 N   0  0  0  0  0  0  0  0  0  0  0  0
   11.3943   10.9881    6.1048 C   0  0  0  0  0  0  0  0  0  0  0  0
   11.2579   12.2199    6.7268 C   0  0  0  0  0  0  0  0  0  0  0  0
   11.4694   12.3247    8.1284 C   0  0  0  0  0  0  0  0  0  0  0  0
   11.4035   13.3030    8.8728 O   0  0  0  0  0  0  0  0  0  0  0  0
   10.9195   13.1516    5.7750 N   0  0  0  0  0  0  0  0  0  0  0  0
   10.8540   12.4894    4.5961 C   0  0  0  0  0  0  0  0  0  0  0  0
   11.1397   11.1546    4.7649 N   0  0  0  0  0  0  0  0  0  0  0  0
  1  2  1  0  0  0  0
  1  6  1  0  0  0  0
  2  3  2  0  0  0  0
  3  4  1  0  0  0  0
  4  5  2  0  0  0  0
  4 10  1  0  0  0  0
  5  6  1  0  0  0  0
  5  8  1  0  0  0  0
  6  7  2  0  0  0  0
  8  9  1  0  0  0  0
  9 10  2  0  0  0  0
M  END
>  <CHROM.1>
11.38864574,11.66999935,6.87389983,-0.82339570,1.32164881,-2.27751146

>  <Name>
ligand

>  <RI>
0

>  <Rbt.Current_Directory>
/home/itssahil/PROJECTS/Mol_Feturizer/New_Systems/rnas/2EEU

>  <Rbt.Executable>
rbdock ($Id: //depot/dev/client3/rdock/2013.1/src/exe/rbdock.cxx#4 $)

>  <Rbt.Library>
libRbt.so (2013.1, Build901 2013/11/27)

>  <Rbt.Parameter_File>
/export/apps/rDock/src/rDock_2013.1_src/data/scripts/dock_solv.prm

>  <Rbt.Receptor>
prm/pocket_docking_3.prm

>  <SCORE>
-18.3792

>  <SCORE.INTER>
-18.3792

>  <SCORE.INTER.CONST>
1

>  <SCORE.INTER.POLAR>
0

>  <SCORE.INTER.ROT>
0

>  <SCORE.INTER.SOLV>
3.64326

>  <SCORE.INTER.VDW>
-17.0673

>  <SCORE.INTER.norm>
-1.83792

>  <SCORE.INTRA>
0

>  <SCORE.INTRA.DIHEDRAL>
0

>  <SCORE.INTRA.DIHEDRAL.0>
0

>  <SCORE.INTRA.POLAR>
0

>  <SCORE.INTRA.POLAR.0>
0

>  <SCORE.INTRA.REPUL>
0

>  <SCORE.INTRA.REPUL.0>
0

>  <SCORE.INTRA.SOLV>
0

>  <SCORE.INTRA.SOLV.lig_0>
-4.28148

>  <SCORE.INTRA.VDW>
0

>  <SCORE.INTRA.VDW.0>
0

>  <SCORE.INTRA.norm>
0

>  <SCORE.RESTR>
0

>  <SCORE.RESTR.CAVITY>
0

>  <SCORE.RESTR.norm>
0

>  <SCORE.SYSTEM>
0

>  <SCORE.SYSTEM.CONST>
0

>  <SCORE.SYSTEM.DIHEDRAL>
0

>  <SCORE.SYSTEM.SOLV>
0

>  <SCORE.SYSTEM.norm>
0

>  <SCORE.heavy>
10

>  <SCORE.norm>
-1.83792

>  <RMSD>
2.501

$$$$
ligand
 OpenBabel11021811423D
libRbt.so/2013.1/901 2013/11/27
 10 11  0  0  0  0  0  0  0  0999 V2000
   11.7883   11.1126    8.6866 N   0  0  0  0  0  0  0  0  0  0  0  0
   11.9169    9.9140    8.0139 C   0  0  0  0  0  0  0  0  0  0  0  0
   11.7224    9.8151    6.6931 N   0  0  0  0  0  0  0  0  0  0  0  0
   11.3896   11.0002    6.1081 C   0  0  0  0  0  0  0  0  0  0  0  0
   11.2432   12.2338    6.7242 C   0  0  0  0  0  0  0  0  0  0  0  0
   11.4505   12.3464    8.1259 C   0  0  0  0  0  0  0  0  0  0  0  0
   11.3759   13.3276    8.8656 O   0  0  0  0  0  0  0  0  0  0  0  0
   10.9008   13.1588    5.7673 N   0  0  0  0  0  0  0  0  0  0  0  0
   10.8428   12.4909    4.5913 C   0  0  0  0  0  0  0  0  0  0  0  0
   11.1373   11.1589    4.7669 N   0  0  0  0  0  0  0  0  0  0  0  0
  1  2  1  0  0  0  0
  1  6  1  0  0  0  0
  2  3  2  0  0  0  0
  3  4  1  0  0  0  0
  4  5  2  0  0  0  0
  4 10  1  0  0  0  0
  5  6  1  0  0  0  0
  5  8  1  0  0  0  0
  6  7  2  0  0  0  0
  8  9  1  0  0  0  0
  9 10  2  0  0  0  0
M  END
>  <CHROM.1>
11.37736200,11.68548794,6.87412716,-0.84892217,1.31795857,-2.25732282

>  <Name>
ligand

>  <RI>
0

>  <Rbt.Current_Directory>
/home/itssahil/PROJECTS/Mol_Feturizer/New_Systems/rnas/2EEU

>  <Rbt.Executable>
rbdock ($Id: //depot/dev/client3/rdock/2013.1/src/exe/rbdock.cxx#4 $)

>  <Rbt.Library>
libRbt.so (2013.1, Build901 2013/11/27)

>  <Rbt.Parameter_File>
/export/apps/rDock/src/rDock_2013.1_src/data/scripts/dock_solv.prm

>  <Rbt.Receptor>
prm/pocket_docking_6.prm

>  <SCORE>
-18.4205

>  <SCORE.INTER>
-18.4205

>  <SCORE.INTER.CONST>
1

>  <SCORE.INTER.POLAR>
0

>  <SCORE.INTER.ROT>
0

>  <SCORE.INTER.SOLV>
3.6623

>  <SCORE.INTER.VDW>
-17.1011

>  <SCORE.INTER.norm>
-1.84205

>  <SCORE.INTRA>
0

>  <SCORE.INTRA.DIHEDRAL>
0

>  <SCORE.INTRA.DIHEDRAL.0>
0

>  <SCORE.INTRA.POLAR>
0

>  <SCORE.INTRA.POLAR.0>
0

>  <SCORE.INTRA.REPUL>
0

>  <SCORE.INTRA.REPUL.0>
0

>  <SCORE.INTRA.SOLV>
0

>  <SCORE.INTRA.SOLV.lig_0>
-4.28148

>  <SCORE.INTRA.VDW>
0

>  <SCORE.INTRA.VDW.0>
0

>  <SCORE.INTRA.norm>
0

>  <SCORE.RESTR>
0

>  <SCORE.RESTR.CAVITY>
0

>  <SCORE.RESTR.norm>
0

>  <SCORE.SYSTEM>
0

>  <SCORE.SYSTEM.CONST>
0

>  <SCORE.SYSTEM.DIHEDRAL>
0

>  <SCORE.SYSTEM.SOLV>
0

>  <SCORE.SYSTEM.norm>
0

>  <SCORE.heavy>
10

>  <SCORE.norm>
-1.84205

>  <RMSD>
2.501

$$$$
ligand
 OpenBabel11021811423D
libRbt.so/2013.1/901 2013/11/27
 10 11  0  0  0  0  0  0  0  0999 V2000
   11.7918   11.0953    8.6849 N   0  0  0  0  0  0  0  0  0  0  0  0
   11.9387    9.9035    8.0040 C   0  0  0  0  0  0  0  0  0  0  0  0
   11.7553    9.8129    6.6809 N   0  0  0  0  0  0  0  0  0  0  0  0
   11.4139   10.9988    6.1027 C   0  0  0  0  0  0  0  0  0  0  0  0
   11.2491   12.2259    6.7272 C   0  0  0  0  0  0  0  0  0  0  0  0
   11.4446   12.3297    8.1313 C   0  0  0  0  0  0  0  0  0  0  0  0
   11.3535   13.3042    8.8780 O   0  0  0  0  0  0  0  0  0  0  0  0
   10.9038   13.1545    5.7750 N   0  0  0  0  0  0  0  0  0  0  0  0
   10.8621   12.4953    4.5934 C   0  0  0  0  0  0  0  0  0  0  0  0
   11.1700   11.1653    4.7608 N   0  0  0  0  0  0  0  0  0  0  0  0
  1  2  1  0  0  0  0
  1  6  1  0  0  0  0
  2  3  2  0  0  0  0
  3  4  1  0  0  0  0
  4  5  2  0  0  0  0
  4 10  1  0  0  0  0
  5  6  1  0  0  0  0
  5  8  1  0  0  0  0
  6  7  2  0  0  0  0
  8  9  1  0  0  0  0
  9 10  2  0  0  0  0
M  END
>  <CHROM.1>
11.38826695,11.67790185,6.87389141,-0.89963741,1.31386697,-2.20042138

>  <Name>
ligand

>  <RI>
0

>  <Rbt.Current_Directory>
/home/itssahil/PROJECTS/Mol_Feturizer/New_Systems/rnas/2EEU

>  <Rbt.Executable>
rbdock ($Id: //depot/dev/client3/rdock/2013.1/src/exe/rbdock.cxx#4 $)

>  <Rbt.Library>
libRbt.so (2013.1, Build901 2013/11/27)

>  <Rbt.Parameter_File>
/export/apps/rDock/src/rDock_2013.1_src/data/scripts/dock_solv.prm

>  <Rbt.Receptor>
prm/blind_docking_40.prm

>  <SCORE>
-18.4286

>  <SCORE.INTER>
-18.4286

>  <SCORE.INTER.CONST>
1

>  <SCORE.INTER.POLAR>
0

>  <SCORE.INTER.ROT>
0

>  <SCORE.INTER.SOLV>
3.63609

>  <SCORE.INTER.VDW>
-17.0978

>  <SCORE.INTER.norm>
-1.84286

>  <SCORE.INTRA>
0

>  <SCORE.INTRA.DIHEDRAL>
0

>  <SCORE.INTRA.DIHEDRAL.0>
0

>  <SCORE.INTRA.POLAR>
0

>  <SCORE.INTRA.POLAR.0>
0

>  <SCORE.INTRA.REPUL>
0

>  <SCORE.INTRA.REPUL.0>
0

>  <SCORE.INTRA.SOLV>
0

>  <SCORE.INTRA.SOLV.lig_0>
-4.28148

>  <SCORE.INTRA.VDW>
0

>  <SCORE.INTRA.VDW.0>
0

>  <SCORE.INTRA.norm>
0

>  <SCORE.RESTR>
0

>  <SCORE.RESTR.CAVITY>
0

>  <SCORE.RESTR.norm>
0

>  <SCORE.SYSTEM>
0

>  <SCORE.SYSTEM.CONST>
0

>  <SCORE.SYSTEM.DIHEDRAL>
0

>  <SCORE.SYSTEM.SOLV>
0

>  <SCORE.SYSTEM.norm>
0

>  <SCORE.heavy>
10

>  <SCORE.norm>
-1.84286

>  <RMSD>
2.502

$$$$
ligand
 OpenBabel11021811423D
libRbt.so/2013.1/901 2013/11/27
 10 11  0  0  0  0  0  0  0  0999 V2000
   11.7763   11.1031    8.6884 N   0  0  0  0  0  0  0  0  0  0  0  0
   11.9049    9.9060    8.0132 C   0  0  0  0  0  0  0  0  0  0  0  0
   11.7180    9.8114    6.6909 N   0  0  0  0  0  0  0  0  0  0  0  0
   11.3927   10.9992    6.1073 C   0  0  0  0  0  0  0  0  0  0  0  0
   11.2466   12.2316    6.7259 C   0  0  0  0  0  0  0  0  0  0  0  0
   11.4459   12.3396    8.1292 C   0  0  0  0  0  0  0  0  0  0  0  0
   11.3701   13.3190    8.8712 O   0  0  0  0  0  0  0  0  0  0  0  0
   10.9130   13.1604    5.7697 N   0  0  0  0  0  0  0  0  0  0  0  0
   10.8598   12.4959    4.5915 C   0  0  0  0  0  0  0  0  0  0  0  0
   11.1489   11.1625    4.7650 N   0  0  0  0  0  0  0  0  0  0  0  0
  1  2  1  0  0  0  0
  1  6  1  0  0  0  0
  2  3  2  0  0  0  0
  3  4  1  0  0  0  0
  4  5  2  0  0  0  0
  4 10  1  0  0  0  0
  5  6  1  0  0  0  0
  5  8  1  0  0  0  0
  6  7  2  0  0  0  0
  8  9  1  0  0  0  0
  9 10  2  0  0  0  0
M  END
>  <CHROM.1>
11.37809436,11.68243065,6.87515311,-0.85939766,1.32427462,-2.24437783

>  <Name>
ligand

>  <RI>
0

>  <Rbt.Current_Directory>
/home/itssahil/PROJECTS/Mol_Feturizer/New_Systems/rnas/2EEU

>  <Rbt.Executable>
rbdock ($Id: //depot/dev/client3/rdock/2013.1/src/exe/rbdock.cxx#4 $)

>  <Rbt.Library>
libRbt.so (2013.1, Build901 2013/11/27)

>  <Rbt.Parameter_File>
/export/apps/rDock/src/rDock_2013.1_src/data/scripts/dock_solv.prm

>  <Rbt.Receptor>
prm/pocket_docking_6.prm

>  <SCORE>
-18.426

>  <SCORE.INTER>
-18.426

>  <SCORE.INTER.CONST>
1

>  <SCORE.INTER.POLAR>
0

>  <SCORE.INTER.ROT>
0

>  <SCORE.INTER.SOLV>
3.66852

>  <SCORE.INTER.VDW>
-17.1069

>  <SCORE.INTER.norm>
-1.8426

>  <SCORE.INTRA>
0

>  <SCORE.INTRA.DIHEDRAL>
0

>  <SCORE.INTRA.DIHEDRAL.0>
0

>  <SCORE.INTRA.POLAR>
0

>  <SCORE.INTRA.POLAR.0>
0

>  <SCORE.INTRA.REPUL>
0

>  <SCORE.INTRA.REPUL.0>
0

>  <SCORE.INTRA.SOLV>
0

>  <SCORE.INTRA.SOLV.lig_0>
-4.28148

>  <SCORE.INTRA.VDW>
0

>  <SCORE.INTRA.VDW.0>
0

>  <SCORE.INTRA.norm>
0

>  <SCORE.RESTR>
0

>  <SCORE.RESTR.CAVITY>
0

>  <SCORE.RESTR.norm>
0

>  <SCORE.SYSTEM>
0

>  <SCORE.SYSTEM.CONST>
0

>  <SCORE.SYSTEM.DIHEDRAL>
0

>  <SCORE.SYSTEM.SOLV>
0

>  <SCORE.SYSTEM.norm>
0

>  <SCORE.heavy>
10

>  <SCORE.norm>
-1.8426

>  <RMSD>
2.502

$$$$
ligand
 OpenBabel11021811423D
libRbt.so/2013.1/901 2013/11/27
 10 11  0  0  0  0  0  0  0  0999 V2000
   11.7880   11.1158    8.6852 N   0  0  0  0  0  0  0  0  0  0  0  0
   11.9232    9.9182    8.0122 C   0  0  0  0  0  0  0  0  0  0  0  0
   11.7315    9.8191    6.6910 N   0  0  0  0  0  0  0  0  0  0  0  0
   11.3943   11.0029    6.1060 C   0  0  0  0  0  0  0  0  0  0  0  0
   11.2411   12.2356    6.7225 C   0  0  0  0  0  0  0  0  0  0  0  0
   11.4455   12.3484    8.1246 C   0  0  0  0  0  0  0  0  0  0  0  0
   11.3651   13.3288    8.8647 O   0  0  0  0  0  0  0  0  0  0  0  0
   10.8961   13.1595    5.7655 N   0  0  0  0  0  0  0  0  0  0  0  0
   10.8432   12.4919    4.5891 C   0  0  0  0  0  0  0  0  0  0  0  0
   11.1435   11.1612    4.7644 N   0  0  0  0  0  0  0  0  0  0  0  0
  1  2  1  0  0  0  0
  1  6  1  0  0  0  0
  2  3  2  0  0  0  0
  3  4  1  0  0  0  0
  4  5  2  0  0  0  0
  4 10  1  0  0  0  0
  5  6  1  0  0  0  0
  5  8  1  0  0  0  0
  6  7  2  0  0  0  0
  8  9  1  0  0  0  0
  9 10  2  0  0  0  0
M  END
>  <CHROM.1>
11.37754079,11.68778706,6.87238569,-0.86575789,1.31544271,-2.24050364

>  <Name>
ligand

>  <RI>
0

>  <Rbt.Current_Directory>
/home/itssahil/PROJECTS/Mol_Feturizer/New_Systems/rnas/2EEU

>  <Rbt.Executable>
rbdock ($Id: //depot/dev/client3/rdock/2013.1/src/exe/rbdock.cxx#4 $)

>  <Rbt.Library>
libRbt.so (2013.1, Build901 2013/11/27)

>  <Rbt.Parameter_File>
/export/apps/rDock/src/rDock_2013.1_src/data/scripts/dock_solv.prm

>  <Rbt.Receptor>
prm/pocket_docking_7.prm

>  <SCORE>
-18.422

>  <SCORE.INTER>
-18.422

>  <SCORE.INTER.CONST>
1

>  <SCORE.INTER.POLAR>
0

>  <SCORE.INTER.ROT>
0

>  <SCORE.INTER.SOLV>
3.65989

>  <SCORE.INTER.VDW>
-17.1013

>  <SCORE.INTER.norm>
-1.8422

>  <SCORE.INTRA>
0

>  <SCORE.INTRA.DIHEDRAL>
0

>  <SCORE.INTRA.DIHEDRAL.0>
0

>  <SCORE.INTRA.POLAR>
0

>  <SCORE.INTRA.POLAR.0>
0

>  <SCORE.INTRA.REPUL>
0

>  <SCORE.INTRA.REPUL.0>
0

>  <SCORE.INTRA.SOLV>
0

>  <SCORE.INTRA.SOLV.lig_0>
-4.28148

>  <SCORE.INTRA.VDW>
0

>  <SCORE.INTRA.VDW.0>
0

>  <SCORE.INTRA.norm>
0

>  <SCORE.RESTR>
0

>  <SCORE.RESTR.CAVITY>
0

>  <SCORE.RESTR.norm>
0

>  <SCORE.SYSTEM>
0

>  <SCORE.SYSTEM.CONST>
0

>  <SCORE.SYSTEM.DIHEDRAL>
0

>  <SCORE.SYSTEM.SOLV>
0

>  <SCORE.SYSTEM.norm>
0

>  <SCORE.heavy>
10

>  <SCORE.norm>
-1.8422

>  <RMSD>
2.502

$$$$
ligand
 OpenBabel11021811423D
libRbt.so/2013.1/901 2013/11/27
 10 11  0  0  0  0  0  0  0  0999 V2000
   11.7861   11.0751    8.6888 N   0  0  0  0  0  0  0  0  0  0  0  0
   11.9271    9.8807    8.0110 C   0  0  0  0  0  0  0  0  0  0  0  0
   11.7444    9.7877    6.6881 N   0  0  0  0  0  0  0  0  0  0  0  0
   11.4101   10.9740    6.1064 C   0  0  0  0  0  0  0  0  0  0  0  0
   11.2515   12.2036    6.7276 C   0  0  0  0  0  0  0  0  0  0  0  0
   11.4463   12.3100    8.1316 C   0  0  0  0  0  0  0  0  0  0  0  0
   11.3599   13.2868    8.8758 O   0  0  0  0  0  0  0  0  0  0  0  0
   10.9122   13.1316    5.7727 N   0  0  0  0  0  0  0  0  0  0  0  0
   10.8679   12.4695    4.5928 C   0  0  0  0  0  0  0  0  0  0  0  0
   11.1683   11.1383    4.7639 N   0  0  0  0  0  0  0  0  0  0  0  0
  1  2  1  0  0  0  0
  1  6  1  0  0  0  0
  2  3  2  0  0  0  0
  3  4  1  0  0  0  0
  4  5  2  0  0  0  0
  4 10  1  0  0  0  0
  5  6  1  0  0  0  0
  5  8  1  0  0  0  0
  6  7  2  0  0  0  0
  8  9  1  0  0  0  0
  9 10  2  0  0  0  0
M  END
>  <CHROM.1>
11.38749711,11.65519405,6.87587223,-0.88949630,1.31885483,-2.21282175

>  <Name>
ligand

>  <RI>
0

>  <Rbt.Current_Directory>
/home/itssahil/PROJECTS/Mol_Feturizer/New_Systems/rnas/2EEU

>  <Rbt.Executable>
rbdock ($Id: //depot/dev/client3/rdock/2013.1/src/exe/rbdock.cxx#4 $)

>  <Rbt.Library>
libRbt.so (2013.1, Build901 2013/11/27)

>  <Rbt.Parameter_File>
/export/apps/rDock/src/rDock_2013.1_src/data/scripts/dock_solv.prm

>  <Rbt.Receptor>
prm/blind_docking_100.prm

>  <SCORE>
-18.3576

>  <SCORE.INTER>
-18.3576

>  <SCORE.INTER.CONST>
1

>  <SCORE.INTER.POLAR>
0

>  <SCORE.INTER.ROT>
0

>  <SCORE.INTER.SOLV>
3.63814

>  <SCORE.INTER.VDW>
-17.0511

>  <SCORE.INTER.norm>
-1.83576

>  <SCORE.INTRA>
0

>  <SCORE.INTRA.DIHEDRAL>
0

>  <SCORE.INTRA.DIHEDRAL.0>
0

>  <SCORE.INTRA.POLAR>
0

>  <SCORE.INTRA.POLAR.0>
0

>  <SCORE.INTRA.REPUL>
0

>  <SCORE.INTRA.REPUL.0>
0

>  <SCORE.INTRA.SOLV>
0

>  <SCORE.INTRA.SOLV.lig_0>
-4.28148

>  <SCORE.INTRA.VDW>
0

>  <SCORE.INTRA.VDW.0>
0

>  <SCORE.INTRA.norm>
0

>  <SCORE.RESTR>
0

>  <SCORE.RESTR.CAVITY>
0

>  <SCORE.RESTR.norm>
0

>  <SCORE.SYSTEM>
0

>  <SCORE.SYSTEM.CONST>
0

>  <SCORE.SYSTEM.DIHEDRAL>
0

>  <SCORE.SYSTEM.SOLV>
0

>  <SCORE.SYSTEM.norm>
0

>  <SCORE.heavy>
10

>  <SCORE.norm>
-1.83576

>  <RMSD>
2.503

$$$$
ligand
 OpenBabel11021811423D
libRbt.so/2013.1/901 2013/11/27
 10 11  0  0  0  0  0  0  0  0999 V2000
   11.5410   11.1740    8.5284 N   0  0  0  0  0  0  0  0  0  0  0  0
   11.7918    9.9664    7.9083 C   0  0  0  0  0  0  0  0  0  0  0  0
   11.7134    9.8189    6.5800 N   0  0  0  0  0  0  0  0  0  0  0  0
   11.3645   10.9655    5.9312 C   0  0  0  0  0  0  0  0  0  0  0  0
   11.0987   12.2054    6.4922 C   0  0  0  0  0  0  0  0  0  0  0  0
   11.1824   12.3696    7.9017 C   0  0  0  0  0  0  0  0  0  0  0  0
   10.9920   13.3653    8.6001 O   0  0  0  0  0  0  0  0  0  0  0  0
   10.7857   13.0813    5.4807 N   0  0  0  0  0  0  0  0  0  0  0  0
   10.8628   12.3781    4.3266 C   0  0  0  0  0  0  0  0  0  0  0  0
   11.2158   11.0711    4.5694 N   0  0  0  0  0  0  0  0  0  0  0  0
  1  2  1  0  0  0  0
  1  6  1  0  0  0  0
  2  3  2  0  0  0  0
  3  4  1  0  0  0  0
  4  5  2  0  0  0  0
  4 10  1  0  0  0  0
  5  6  1  0  0  0  0
  5  8  1  0  0  0  0
  6  7  2  0  0  0  0
  8  9  1  0  0  0  0
  9 10  2  0  0  0  0
M  END
>  <CHROM.1>
11.25045986,11.67033297,6.67061468,-1.24248059,1.30804126,-1.90720009

>  <Name>
ligand

>  <RI>
0

>  <Rbt.Current_Directory>
/home/itssahil/PROJECTS/Mol_Feturizer/New_Systems/rnas/2EEU

>  <Rbt.Executable>
rbdock ($Id: //depot/dev/client3/rdock/2013.1/src/exe/rbdock.cxx#4 $)

>  <Rbt.Library>
libRbt.so (2013.1, Build901 2013/11/27)

>  <Rbt.Parameter_File>
/export/apps/rDock/src/rDock_2013.1_src/data/scripts/dock_solv.prm

>  <Rbt.Receptor>
prm/blind_docking_20.prm

>  <SCORE>
-17.5869

>  <SCORE.INTER>
-17.5953

>  <SCORE.INTER.CONST>
1

>  <SCORE.INTER.POLAR>
0

>  <SCORE.INTER.ROT>
0

>  <SCORE.INTER.SOLV>
3.86105

>  <SCORE.INTER.VDW>
-16.6172

>  <SCORE.INTER.norm>
-1.75953

>  <SCORE.INTRA>
0

>  <SCORE.INTRA.DIHEDRAL>
0

>  <SCORE.INTRA.DIHEDRAL.0>
0

>  <SCORE.INTRA.POLAR>
0

>  <SCORE.INTRA.POLAR.0>
0

>  <SCORE.INTRA.REPUL>
0

>  <SCORE.INTRA.REPUL.0>
0

>  <SCORE.INTRA.SOLV>
0

>  <SCORE.INTRA.SOLV.lig_0>
-4.28148

>  <SCORE.INTRA.VDW>
0

>  <SCORE.INTRA.VDW.0>
0

>  <SCORE.INTRA.norm>
0

>  <SCORE.RESTR>
0.00844288

>  <SCORE.RESTR.CAVITY>
0.00844288

>  <SCORE.RESTR.norm>
0.000844288

>  <SCORE.SYSTEM>
0

>  <SCORE.SYSTEM.CONST>
0

>  <SCORE.SYSTEM.DIHEDRAL>
0

>  <SCORE.SYSTEM.SOLV>
0

>  <SCORE.SYSTEM.norm>
0

>  <SCORE.heavy>
10

>  <SCORE.norm>
-1.75869

>  <RMSD>
2.584

$$$$
ligand
 OpenBabel11021811423D
libRbt.so/2013.1/901 2013/11/27
 10 11  0  0  0  0  0  0  0  0999 V2000
   11.5362   11.1717    8.5302 N   0  0  0  0  0  0  0  0  0  0  0  0
   11.7992    9.9663    7.9109 C   0  0  0  0  0  0  0  0  0  0  0  0
   11.7270    9.8185    6.5823 N   0  0  0  0  0  0  0  0  0  0  0  0
   11.3712   10.9622    5.9323 C   0  0  0  0  0  0  0  0  0  0  0  0
   11.0931   12.1998    6.4925 C   0  0  0  0  0  0  0  0  0  0  0  0
   11.1701   12.3645    7.9023 C   0  0  0  0  0  0  0  0  0  0  0  0
   10.9689   13.3585    8.6001 O   0  0  0  0  0  0  0  0  0  0  0  0
   10.7768   13.0733    5.4799 N   0  0  0  0  0  0  0  0  0  0  0  0
   10.8641   12.3709    4.3260 C   0  0  0  0  0  0  0  0  0  0  0  0
   11.2268   11.0669    4.5700 N   0  0  0  0  0  0  0  0  0  0  0  0
  1  2  1  0  0  0  0
  1  6  1  0  0  0  0
  2  3  2  0  0  0  0
  3  4  1  0  0  0  0
  4  5  2  0  0  0  0
  4 10  1  0  0  0  0
  5  6  1  0  0  0  0
  5  8  1  0  0  0  0
  6  7  2  0  0  0  0
  8  9  1  0  0  0  0
  9 10  2  0  0  0  0
M  END
>  <CHROM.1>
11.24856950,11.66599198,6.67140175,-1.26611316,1.30148701,-1.88425565

>  <Name>
ligand

>  <RI>
0

>  <Rbt.Current_Directory>
/home/itssahil/PROJECTS/Mol_Feturizer/New_Systems/rnas/2EEU

>  <Rbt.Executable>
rbdock ($Id: //depot/dev/client3/rdock/2013.1/src/exe/rbdock.cxx#4 $)

>  <Rbt.Library>
libRbt.so (2013.1, Build901 2013/11/27)

>  <Rbt.Parameter_File>
/export/apps/rDock/src/rDock_2013.1_src/data/scripts/dock_solv.prm

>  <Rbt.Receptor>
prm/blind_docking_20.prm

>  <SCORE>
-17.5441

>  <SCORE.INTER>
-17.5442

>  <SCORE.INTER.CONST>
1

>  <SCORE.INTER.POLAR>
0

>  <SCORE.INTER.ROT>
0

>  <SCORE.INTER.SOLV>
3.85728

>  <SCORE.INTER.VDW>
-16.5819

>  <SCORE.INTER.norm>
-1.75442

>  <SCORE.INTRA>
0

>  <SCORE.INTRA.DIHEDRAL>
0

>  <SCORE.INTRA.DIHEDRAL.0>
0

>  <SCORE.INTRA.POLAR>
0

>  <SCORE.INTRA.POLAR.0>
0

>  <SCORE.INTRA.REPUL>
0

>  <SCORE.INTRA.REPUL.0>
0

>  <SCORE.INTRA.SOLV>
0

>  <SCORE.INTRA.SOLV.lig_0>
-4.28148

>  <SCORE.INTRA.VDW>
0

>  <SCORE.INTRA.VDW.0>
0

>  <SCORE.INTRA.norm>
0

>  <SCORE.RESTR>
0.000117572

>  <SCORE.RESTR.CAVITY>
0.000117572

>  <SCORE.RESTR.norm>
1.17572e-05

>  <SCORE.SYSTEM>
0

>  <SCORE.SYSTEM.CONST>
0

>  <SCORE.SYSTEM.DIHEDRAL>
0

>  <SCORE.SYSTEM.SOLV>
0

>  <SCORE.SYSTEM.norm>
0

>  <SCORE.heavy>
10

>  <SCORE.norm>
-1.75441

>  <RMSD>
2.584

$$$$
ligand
 OpenBabel11021811423D
libRbt.so/2013.1/901 2013/11/27
 10 11  0  0  0  0  0  0  0  0999 V2000
   11.5359   11.1729    8.5317 N   0  0  0  0  0  0  0  0  0  0  0  0
   11.7982    9.9670    7.9132 C   0  0  0  0  0  0  0  0  0  0  0  0
   11.7251    9.8182    6.5848 N   0  0  0  0  0  0  0  0  0  0  0  0
   11.3691   10.9615    5.9341 C   0  0  0  0  0  0  0  0  0  0  0  0
   11.0917   12.1996    6.4936 C   0  0  0  0  0  0  0  0  0  0  0  0
   11.1697   12.3653    7.9031 C   0  0  0  0  0  0  0  0  0  0  0  0
   10.9691   13.3599    8.6004 O   0  0  0  0  0  0  0  0  0  0  0  0
   10.7748   13.0724    5.4805 N   0  0  0  0  0  0  0  0  0  0  0  0
   10.8612   12.3691    4.3271 C   0  0  0  0  0  0  0  0  0  0  0  0
   11.2238   11.0652    4.5718 N   0  0  0  0  0  0  0  0  0  0  0  0
  1  2  1  0  0  0  0
  1  6  1  0  0  0  0
  2  3  2  0  0  0  0
  3  4  1  0  0  0  0
  4  5  2  0  0  0  0
  4 10  1  0  0  0  0
  5  6  1  0  0  0  0
  5  8  1  0  0  0  0
  6  7  2  0  0  0  0
  8  9  1  0  0  0  0
  9 10  2  0  0  0  0
M  END
>  <CHROM.1>
11.24712144,11.66586515,6.67274668,-1.26345634,1.30147633,-1.88756767

>  <Name>
ligand

>  <RI>
0

>  <Rbt.Current_Directory>
/home/itssahil/PROJECTS/Mol_Feturizer/New_Systems/rnas/2EEU

>  <Rbt.Executable>
rbdock ($Id: //depot/dev/client3/rdock/2013.1/src/exe/rbdock.cxx#4 $)

>  <Rbt.Library>
libRbt.so (2013.1, Build901 2013/11/27)

>  <Rbt.Parameter_File>
/export/apps/rDock/src/rDock_2013.1_src/data/scripts/dock_solv.prm

>  <Rbt.Receptor>
prm/blind_docking_20.prm

>  <SCORE>
-17.5458

>  <SCORE.INTER>
-17.5461

>  <SCORE.INTER.CONST>
1

>  <SCORE.INTER.POLAR>
0

>  <SCORE.INTER.ROT>
0

>  <SCORE.INTER.SOLV>
3.8579

>  <SCORE.INTER.VDW>
-16.5834

>  <SCORE.INTER.norm>
-1.75461

>  <SCORE.INTRA>
0

>  <SCORE.INTRA.DIHEDRAL>
0

>  <SCORE.INTRA.DIHEDRAL.0>
0

>  <SCORE.INTRA.POLAR>
0

>  <SCORE.INTRA.POLAR.0>
0

>  <SCORE.INTRA.REPUL>
0

>  <SCORE.INTRA.REPUL.0>
0

>  <SCORE.INTRA.SOLV>
0

>  <SCORE.INTRA.SOLV.lig_0>
-4.28148

>  <SCORE.INTRA.VDW>
0

>  <SCORE.INTRA.VDW.0>
0

>  <SCORE.INTRA.norm>
0

>  <SCORE.RESTR>
0.000379269

>  <SCORE.RESTR.CAVITY>
0.000379269

>  <SCORE.RESTR.norm>
3.79269e-05

>  <SCORE.SYSTEM>
0

>  <SCORE.SYSTEM.CONST>
0

>  <SCORE.SYSTEM.DIHEDRAL>
0

>  <SCORE.SYSTEM.SOLV>
0

>  <SCORE.SYSTEM.norm>
0

>  <SCORE.heavy>
10

>  <SCORE.norm>
-1.75458

>  <RMSD>
2.584

$$$$
ligand
 OpenBabel11021811423D
libRbt.so/2013.1/901 2013/11/27
 10 11  0  0  0  0  0  0  0  0999 V2000
   11.5314   11.1717    8.5264 N   0  0  0  0  0  0  0  0  0  0  0  0
   11.7776    9.9637    7.9052 C   0  0  0  0  0  0  0  0  0  0  0  0
   11.6994    9.8180    6.5767 N   0  0  0  0  0  0  0  0  0  0  0  0
   11.3555   10.9667    5.9289 C   0  0  0  0  0  0  0  0  0  0  0  0
   11.0944   12.2071    6.4911 C   0  0  0  0  0  0  0  0  0  0  0  0
   11.1780   12.3694    7.9008 C   0  0  0  0  0  0  0  0  0  0  0  0
   10.9912   13.3651    8.6002 O   0  0  0  0  0  0  0  0  0  0  0  0
   10.7855   13.0853    5.4804 N   0  0  0  0  0  0  0  0  0  0  0  0
   10.8605   12.3830    4.3255 C   0  0  0  0  0  0  0  0  0  0  0  0
   11.2080   11.0744    4.5671 N   0  0  0  0  0  0  0  0  0  0  0  0
  1  2  1  0  0  0  0
  1  6  1  0  0  0  0
  2  3  2  0  0  0  0
  3  4  1  0  0  0  0
  4  5  2  0  0  0  0
  4 10  1  0  0  0  0
  5  6  1  0  0  0  0
  5  8  1  0  0  0  0
  6  7  2  0  0  0  0
  8  9  1  0  0  0  0
  9 10  2  0  0  0  0
M  END
>  <CHROM.1>
11.24390476,11.67118048,6.66900839,-1.23932710,1.31205659,-1.90918443

>  <Name>
ligand

>  <RI>
0

>  <Rbt.Current_Directory>
/home/itssahil/PROJECTS/Mol_Feturizer/New_Systems/rnas/2EEU

>  <Rbt.Executable>
rbdock ($Id: //depot/dev/client3/rdock/2013.1/src/exe/rbdock.cxx#4 $)

>  <Rbt.Library>
libRbt.so (2013.1, Build901 2013/11/27)

>  <Rbt.Parameter_File>
/export/apps/rDock/src/rDock_2013.1_src/data/scripts/dock_solv.prm

>  <Rbt.Receptor>
prm/blind_docking_20.prm

>  <SCORE>
-17.5753

>  <SCORE.INTER>
-17.5809

>  <SCORE.INTER.CONST>
1

>  <SCORE.INTER.POLAR>
0

>  <SCORE.INTER.ROT>
0

>  <SCORE.INTER.SOLV>
3.866

>  <SCORE.INTER.VDW>
-16.6093

>  <SCORE.INTER.norm>
-1.75809

>  <SCORE.INTRA>
0

>  <SCORE.INTRA.DIHEDRAL>
0

>  <SCORE.INTRA.DIHEDRAL.0>
0

>  <SCORE.INTRA.POLAR>
0

>  <SCORE.INTRA.POLAR.0>
0

>  <SCORE.INTRA.REPUL>
0

>  <SCORE.INTRA.REPUL.0>
0

>  <SCORE.INTRA.SOLV>
0

>  <SCORE.INTRA.SOLV.lig_0>
-4.28148

>  <SCORE.INTRA.VDW>
0

>  <SCORE.INTRA.VDW.0>
0

>  <SCORE.INTRA.norm>
0

>  <SCORE.RESTR>
0.00558249

>  <SCORE.RESTR.CAVITY>
0.00558249

>  <SCORE.RESTR.norm>
0.000558249

>  <SCORE.SYSTEM>
0

>  <SCORE.SYSTEM.CONST>
0

>  <SCORE.SYSTEM.DIHEDRAL>
0

>  <SCORE.SYSTEM.SOLV>
0

>  <SCORE.SYSTEM.norm>
0

>  <SCORE.heavy>
10

>  <SCORE.norm>
-1.75753

>  <RMSD>
2.585

$$$$
ligand
 OpenBabel11021811423D
libRbt.so/2013.1/901 2013/11/27
 10 11  0  0  0  0  0  0  0  0999 V2000
   11.5449   11.1642    8.5263 N   0  0  0  0  0  0  0  0  0  0  0  0
   11.8044    9.9589    7.9054 C   0  0  0  0  0  0  0  0  0  0  0  0
   11.7250    9.8114    6.5771 N   0  0  0  0  0  0  0  0  0  0  0  0
   11.3659   10.9554    5.9293 C   0  0  0  0  0  0  0  0  0  0  0  0
   11.0910   12.1929    6.4914 C   0  0  0  0  0  0  0  0  0  0  0  0
   11.1757   12.3571    7.9008 C   0  0  0  0  0  0  0  0  0  0  0  0
   10.9783   13.3510    8.6000 O   0  0  0  0  0  0  0  0  0  0  0  0
   10.7693   13.0667    5.4808 N   0  0  0  0  0  0  0  0  0  0  0  0
   10.8503   12.3647    4.3263 C   0  0  0  0  0  0  0  0  0  0  0  0
   11.2142   11.0605    4.5678 N   0  0  0  0  0  0  0  0  0  0  0  0
  1  2  1  0  0  0  0
  1  6  1  0  0  0  0
  2  3  2  0  0  0  0
  3  4  1  0  0  0  0
  4  5  2  0  0  0  0
  4 10  1  0  0  0  0
  5  6  1  0  0  0  0
  5  8  1  0  0  0  0
  6  7  2  0  0  0  0
  8  9  1  0  0  0  0
  9 10  2  0  0  0  0
M  END
>  <CHROM.1>
11.24736814,11.65899233,6.66929744,-1.24673031,1.29989758,-1.90264976

>  <Name>
ligand

>  <RI>
0

>  <Rbt.Current_Directory>
/home/itssahil/PROJECTS/Mol_Feturizer/New_Systems/rnas/2EEU

>  <Rbt.Executable>
rbdock ($Id: //depot/dev/client3/rdock/2013.1/src/exe/rbdock.cxx#4 $)

>  <Rbt.Library>
libRbt.so (2013.1, Build901 2013/11/27)

>  <Rbt.Parameter_File>
/export/apps/rDock/src/rDock_2013.1_src/data/scripts/dock_solv.prm

>  <Rbt.Receptor>
prm/blind_docking_20.prm

>  <SCORE>
-17.5486

>  <SCORE.INTER>
-17.5492

>  <SCORE.INTER.CONST>
1

>  <SCORE.INTER.POLAR>
0

>  <SCORE.INTER.ROT>
0

>  <SCORE.INTER.SOLV>
3.84444

>  <SCORE.INTER.VDW>
-16.5809

>  <SCORE.INTER.norm>
-1.75492

>  <SCORE.INTRA>
0

>  <SCORE.INTRA.DIHEDRAL>
0

>  <SCORE.INTRA.DIHEDRAL.0>
0

>  <SCORE.INTRA.POLAR>
0

>  <SCORE.INTRA.POLAR.0>
0

>  <SCORE.INTRA.REPUL>
0

>  <SCORE.INTRA.REPUL.0>
0

>  <SCORE.INTRA.SOLV>
0

>  <SCORE.INTRA.SOLV.lig_0>
-4.28148

>  <SCORE.INTRA.VDW>
0

>  <SCORE.INTRA.VDW.0>
0

>  <SCORE.INTRA.norm>
0

>  <SCORE.RESTR>
0.00059143

>  <SCORE.RESTR.CAVITY>
0.00059143

>  <SCORE.RESTR.norm>
5.9143e-05

>  <SCORE.SYSTEM>
0

>  <SCORE.SYSTEM.CONST>
0

>  <SCORE.SYSTEM.DIHEDRAL>
0

>  <SCORE.SYSTEM.SOLV>
0

>  <SCORE.SYSTEM.norm>
0

>  <SCORE.heavy>
10

>  <SCORE.norm>
-1.75486

>  <RMSD>
2.585

$$$$
ligand
 OpenBabel11021811423D
libRbt.so/2013.1/901 2013/11/27
 10 11  0  0  0  0  0  0  0  0999 V2000
   11.5419   11.1645    8.5263 N   0  0  0  0  0  0  0  0  0  0  0  0
   11.8011    9.9591    7.9053 C   0  0  0  0  0  0  0  0  0  0  0  0
   11.7233    9.8120    6.5770 N   0  0  0  0  0  0  0  0  0  0  0  0
   11.3660   10.9565    5.9290 C   0  0  0  0  0  0  0  0  0  0  0  0
   11.0914   12.1941    6.4910 C   0  0  0  0  0  0  0  0  0  0  0  0
   11.1744   12.3579    7.9005 C   0  0  0  0  0  0  0  0  0  0  0  0
   10.9770   13.3517    8.5997 O   0  0  0  0  0  0  0  0  0  0  0  0
   10.7717   13.0684    5.4802 N   0  0  0  0  0  0  0  0  0  0  0  0
   10.8535   12.3665    4.3256 C   0  0  0  0  0  0  0  0  0  0  0  0
   11.2160   11.0620    4.5673 N   0  0  0  0  0  0  0  0  0  0  0  0
  1  2  1  0  0  0  0
  1  6  1  0  0  0  0
  2  3  2  0  0  0  0
  3  4  1  0  0  0  0
  4  5  2  0  0  0  0
  4 10  1  0  0  0  0
  5  6  1  0  0  0  0
  5  8  1  0  0  0  0
  6  7  2  0  0  0  0
  8  9  1  0  0  0  0
  9 10  2  0  0  0  0
M  END
>  <CHROM.1>
11.24705423,11.65997731,6.66897442,-1.25019869,1.30108991,-1.89907256

>  <Name>
ligand

>  <RI>
0

>  <Rbt.Current_Directory>
/home/itssahil/PROJECTS/Mol_Feturizer/New_Systems/rnas/2EEU

>  <Rbt.Executable>
rbdock ($Id: //depot/dev/client3/rdock/2013.1/src/exe/rbdock.cxx#4 $)

>  <Rbt.Library>
libRbt.so (2013.1, Build901 2013/11/27)

>  <Rbt.Parameter_File>
/export/apps/rDock/src/rDock_2013.1_src/data/scripts/dock_solv.prm

>  <Rbt.Receptor>
prm/blind_docking_20.prm

>  <SCORE>
-17.5465

>  <SCORE.INTER>
-17.5465

>  <SCORE.INTER.CONST>
1

>  <SCORE.INTER.POLAR>
0

>  <SCORE.INTER.ROT>
0

>  <SCORE.INTER.SOLV>
3.84766

>  <SCORE.INTER.VDW>
-16.5802

>  <SCORE.INTER.norm>
-1.75465

>  <SCORE.INTRA>
0

>  <SCORE.INTRA.DIHEDRAL>
0

>  <SCORE.INTRA.DIHEDRAL.0>
0

>  <SCORE.INTRA.POLAR>
0

>  <SCORE.INTRA.POLAR.0>
0

>  <SCORE.INTRA.REPUL>
0

>  <SCORE.INTRA.REPUL.0>
0

>  <SCORE.INTRA.SOLV>
0

>  <SCORE.INTRA.SOLV.lig_0>
-4.28148

>  <SCORE.INTRA.VDW>
0

>  <SCORE.INTRA.VDW.0>
0

>  <SCORE.INTRA.norm>
0

>  <SCORE.RESTR>
1.09472e-06

>  <SCORE.RESTR.CAVITY>
1.09472e-06

>  <SCORE.RESTR.norm>
1.09472e-07

>  <SCORE.SYSTEM>
0

>  <SCORE.SYSTEM.CONST>
0

>  <SCORE.SYSTEM.DIHEDRAL>
0

>  <SCORE.SYSTEM.SOLV>
0

>  <SCORE.SYSTEM.norm>
0

>  <SCORE.heavy>
10

>  <SCORE.norm>
-1.75465

>  <RMSD>
2.585

$$$$
ligand
 OpenBabel11021811423D
libRbt.so/2013.1/901 2013/11/27
 10 11  0  0  0  0  0  0  0  0999 V2000
   11.5432   11.1673    8.5271 N   0  0  0  0  0  0  0  0  0  0  0  0
   11.8039    9.9621    7.9066 C   0  0  0  0  0  0  0  0  0  0  0  0
   11.7249    9.8140    6.5784 N   0  0  0  0  0  0  0  0  0  0  0  0
   11.3648   10.9575    5.9301 C   0  0  0  0  0  0  0  0  0  0  0  0
   11.0887   12.1949    6.4917 C   0  0  0  0  0  0  0  0  0  0  0  0
   11.1729   12.3597    7.9011 C   0  0  0  0  0  0  0  0  0  0  0  0
   10.9745   13.3536    8.5999 O   0  0  0  0  0  0  0  0  0  0  0  0
   10.7664   13.0681    5.4808 N   0  0  0  0  0  0  0  0  0  0  0  0
   10.8482   12.3657    4.3265 C   0  0  0  0  0  0  0  0  0  0  0  0
   11.2133   11.0619    4.5686 N   0  0  0  0  0  0  0  0  0  0  0  0
  1  2  1  0  0  0  0
  1  6  1  0  0  0  0
  2  3  2  0  0  0  0
  3  4  1  0  0  0  0
  4  5  2  0  0  0  0
  4 10  1  0  0  0  0
  5  6  1  0  0  0  0
  5  8  1  0  0  0  0
  6  7  2  0  0  0  0
  8  9  1  0  0  0  0
  9 10  2  0  0  0  0
M  END
>  <CHROM.1>
11.24548703,11.66120215,6.66983432,-1.24852745,1.29908012,-1.90126120

>  <Name>
ligand

>  <RI>
0

>  <Rbt.Current_Directory>
/home/itssahil/PROJECTS/Mol_Feturizer/New_Systems/rnas/2EEU

>  <Rbt.Executable>
rbdock ($Id: //depot/dev/client3/rdock/2013.1/src/exe/rbdock.cxx#4 $)

>  <Rbt.Library>
libRbt.so (2013.1, Build901 2013/11/27)

>  <Rbt.Parameter_File>
/export/apps/rDock/src/rDock_2013.1_src/data/scripts/dock_solv.prm

>  <Rbt.Receptor>
prm/blind_docking_20.prm

>  <SCORE>
-17.5461

>  <SCORE.INTER>
-17.5461

>  <SCORE.INTER.CONST>
1

>  <SCORE.INTER.POLAR>
0

>  <SCORE.INTER.ROT>
0

>  <SCORE.INTER.SOLV>
3.84583

>  <SCORE.INTER.VDW>
-16.5794

>  <SCORE.INTER.norm>
-1.75461

>  <SCORE.INTRA>
0

>  <SCORE.INTRA.DIHEDRAL>
0

>  <SCORE.INTRA.DIHEDRAL.0>
0

>  <SCORE.INTRA.POLAR>
0

>  <SCORE.INTRA.POLAR.0>
0

>  <SCORE.INTRA.REPUL>
0

>  <SCORE.INTRA.REPUL.0>
0

>  <SCORE.INTRA.SOLV>
0

>  <SCORE.INTRA.SOLV.lig_0>
-4.28148

>  <SCORE.INTRA.VDW>
0

>  <SCORE.INTRA.VDW.0>
0

>  <SCORE.INTRA.norm>
0

>  <SCORE.RESTR>
0

>  <SCORE.RESTR.CAVITY>
0

>  <SCORE.RESTR.norm>
0

>  <SCORE.SYSTEM>
0

>  <SCORE.SYSTEM.CONST>
0

>  <SCORE.SYSTEM.DIHEDRAL>
0

>  <SCORE.SYSTEM.SOLV>
0

>  <SCORE.SYSTEM.norm>
0

>  <SCORE.heavy>
10

>  <SCORE.norm>
-1.75461

>  <RMSD>
2.585

$$$$
ligand
 OpenBabel11021811423D
libRbt.so/2013.1/901 2013/11/27
 10 11  0  0  0  0  0  0  0  0999 V2000
   11.5432   11.1612    8.5210 N   0  0  0  0  0  0  0  0  0  0  0  0
   11.8008    9.9572    7.8969 C   0  0  0  0  0  0  0  0  0  0  0  0
   11.7229    9.8138    6.5681 N   0  0  0  0  0  0  0  0  0  0  0  0
   11.3674   10.9605    5.9232 C   0  0  0  0  0  0  0  0  0  0  0  0
   11.0945   12.1970    6.4885 C   0  0  0  0  0  0  0  0  0  0  0  0
   11.1776   12.3569    7.8984 C   0  0  0  0  0  0  0  0  0  0  0  0
   10.9815   13.3491    8.6003 O   0  0  0  0  0  0  0  0  0  0  0  0
   10.7763   13.0745    5.4800 N   0  0  0  0  0  0  0  0  0  0  0  0
   10.8572   12.3757    4.3235 C   0  0  0  0  0  0  0  0  0  0  0  0
   11.2178   11.0699    4.5618 N   0  0  0  0  0  0  0  0  0  0  0  0
  1  2  1  0  0  0  0
  1  6  1  0  0  0  0
  2  3  2  0  0  0  0
  3  4  1  0  0  0  0
  4  5  2  0  0  0  0
  4 10  1  0  0  0  0
  5  6  1  0  0  0  0
  5  8  1  0  0  0  0
  6  7  2  0  0  0  0
  8  9  1  0  0  0  0
  9 10  2  0  0  0  0
M  END
>  <CHROM.1>
11.24937275,11.66219981,6.66503072,-1.24897135,1.30253691,-1.89755601

>  <Name>
ligand

>  <RI>
0

>  <Rbt.Current_Directory>
/home/itssahil/PROJECTS/Mol_Feturizer/New_Systems/rnas/2EEU

>  <Rbt.Executable>
rbdock ($Id: //depot/dev/client3/rdock/2013.1/src/exe/rbdock.cxx#4 $)

>  <Rbt.Library>
libRbt.so (2013.1, Build901 2013/11/27)

>  <Rbt.Parameter_File>
/export/apps/rDock/src/rDock_2013.1_src/data/scripts/dock_solv.prm

>  <Rbt.Receptor>
prm/blind_docking_20.prm

>  <SCORE>
-17.5476

>  <SCORE.INTER>
-17.5489

>  <SCORE.INTER.CONST>
1

>  <SCORE.INTER.POLAR>
0

>  <SCORE.INTER.ROT>
0

>  <SCORE.INTER.SOLV>
3.84503

>  <SCORE.INTER.VDW>
-16.581

>  <SCORE.INTER.norm>
-1.75489

>  <SCORE.INTRA>
0

>  <SCORE.INTRA.DIHEDRAL>
0

>  <SCORE.INTRA.DIHEDRAL.0>
0

>  <SCORE.INTRA.POLAR>
0

>  <SCORE.INTRA.POLAR.0>
0

>  <SCORE.INTRA.REPUL>
0

>  <SCORE.INTRA.REPUL.0>
0

>  <SCORE.INTRA.SOLV>
0

>  <SCORE.INTRA.SOLV.lig_0>
-4.28148

>  <SCORE.INTRA.VDW>
0

>  <SCORE.INTRA.VDW.0>
0

>  <SCORE.INTRA.norm>
0

>  <SCORE.RESTR>
0.0012887

>  <SCORE.RESTR.CAVITY>
0.0012887

>  <SCORE.RESTR.norm>
0.00012887

>  <SCORE.SYSTEM>
0

>  <SCORE.SYSTEM.CONST>
0

>  <SCORE.SYSTEM.DIHEDRAL>
0

>  <SCORE.SYSTEM.SOLV>
0

>  <SCORE.SYSTEM.norm>
0

>  <SCORE.heavy>
10

>  <SCORE.norm>
-1.75476

>  <RMSD>
2.586

$$$$
ligand
 OpenBabel11021811423D
libRbt.so/2013.1/901 2013/11/27
 10 11  0  0  0  0  0  0  0  0999 V2000
   11.4230   10.8432    5.6238 N   0  0  0  0  0  0  0  0  0  0  0  0
   11.0733   12.1439    5.3217 C   0  0  0  0  0  0  0  0  0  0  0  0
   11.0198   13.1015    6.2557 N   0  0  0  0  0  0  0  0  0  0  0  0
   11.3387   12.6546    7.5031 C   0  0  0  0  0  0  0  0  0  0  0  0
   11.6957   11.3666    7.8726 C   0  0  0  0  0  0  0  0  0  0  0  0
   11.7567   10.3456    6.8856 C   0  0  0  0  0  0  0  0  0  0  0  0
   12.0467    9.1537    6.9896 O   0  0  0  0  0  0  0  0  0  0  0  0
   11.9335   11.3535    9.2260 N   0  0  0  0  0  0  0  0  0  0  0  0
   11.7232   12.6167    9.6647 C   0  0  0  0  0  0  0  0  0  0  0  0
   11.3542   13.4426    8.6285 N   0  0  0  0  0  0  0  0  0  0  0  0
  1  2  1  0  0  0  0
  1  6  1  0  0  0  0
  2  3  2  0  0  0  0
  3  4  1  0  0  0  0
  4  5  2  0  0  0  0
  4 10  1  0  0  0  0
  5  6  1  0  0  0  0
  5  8  1  0  0  0  0
  6  7  2  0  0  0  0
  8  9  1  0  0  0  0
  9 10  2  0  0  0  0
M  END
>  <CHROM.1>
11.54561002,11.65439974,7.38702867,1.51536575,1.29154613,-2.22339800

>  <Name>
ligand

>  <RI>
0

>  <Rbt.Current_Directory>
/home/itssahil/PROJECTS/Mol_Feturizer/New_Systems/rnas/2EEU

>  <Rbt.Executable>
rbdock ($Id: //depot/dev/client3/rdock/2013.1/src/exe/rbdock.cxx#4 $)

>  <Rbt.Library>
libRbt.so (2013.1, Build901 2013/11/27)

>  <Rbt.Parameter_File>
/export/apps/rDock/src/rDock_2013.1_src/data/scripts/dock_solv.prm

>  <Rbt.Receptor>
prm/blind_docking_60.prm

>  <SCORE>
-16.9513

>  <SCORE.INTER>
-16.9513

>  <SCORE.INTER.CONST>
1

>  <SCORE.INTER.POLAR>
0

>  <SCORE.INTER.ROT>
0

>  <SCORE.INTER.SOLV>
3.65248

>  <SCORE.INTER.VDW>
-16.1184

>  <SCORE.INTER.norm>
-1.69513

>  <SCORE.INTRA>
0

>  <SCORE.INTRA.DIHEDRAL>
0

>  <SCORE.INTRA.DIHEDRAL.0>
0

>  <SCORE.INTRA.POLAR>
0

>  <SCORE.INTRA.POLAR.0>
0

>  <SCORE.INTRA.REPUL>
0

>  <SCORE.INTRA.REPUL.0>
0

>  <SCORE.INTRA.SOLV>
0

>  <SCORE.INTRA.SOLV.lig_0>
-4.28148

>  <SCORE.INTRA.VDW>
0

>  <SCORE.INTRA.VDW.0>
0

>  <SCORE.INTRA.norm>
0

>  <SCORE.RESTR>
0

>  <SCORE.RESTR.CAVITY>
0

>  <SCORE.RESTR.norm>
0

>  <SCORE.SYSTEM>
0

>  <SCORE.SYSTEM.CONST>
0

>  <SCORE.SYSTEM.DIHEDRAL>
0

>  <SCORE.SYSTEM.SOLV>
0

>  <SCORE.SYSTEM.norm>
0

>  <SCORE.heavy>
10

>  <SCORE.norm>
-1.69513

>  <RMSD>
2.849

$$$$
ligand
 OpenBabel11021811423D
libRbt.so/2013.1/901 2013/11/27
 10 11  0  0  0  0  0  0  0  0999 V2000
   11.4298   10.8638    5.6081 N   0  0  0  0  0  0  0  0  0  0  0  0
   11.0804   12.1661    5.3124 C   0  0  0  0  0  0  0  0  0  0  0  0
   11.0194   13.1172    6.2525 N   0  0  0  0  0  0  0  0  0  0  0  0
   11.3304   12.6623    7.4990 C   0  0  0  0  0  0  0  0  0  0  0  0
   11.6865   11.3722    7.8622 C   0  0  0  0  0  0  0  0  0  0  0  0
   11.7556   10.3581    6.8686 C   0  0  0  0  0  0  0  0  0  0  0  0
   12.0464    9.1659    6.9665 O   0  0  0  0  0  0  0  0  0  0  0  0
   11.9152   11.3503    9.2170 N   0  0  0  0  0  0  0  0  0  0  0  0
   11.7002   12.6102    9.6629 C   0  0  0  0  0  0  0  0  0  0  0  0
   11.3372   13.4426    8.6298 N   0  0  0  0  0  0  0  0  0  0  0  0
  1  2  1  0  0  0  0
  1  6  1  0  0  0  0
  2  3  2  0  0  0  0
  3  4  1  0  0  0  0
  4  5  2  0  0  0  0
  4 10  1  0  0  0  0
  5  6  1  0  0  0  0
  5  8  1  0  0  0  0
  6  7  2  0  0  0  0
  8  9  1  0  0  0  0
  9 10  2  0  0  0  0
M  END
>  <CHROM.1>
11.53938579,11.66318311,7.37751941,1.49263387,1.29455423,-2.19473877

>  <Name>
ligand

>  <RI>
0

>  <Rbt.Current_Directory>
/home/itssahil/PROJECTS/Mol_Feturizer/New_Systems/rnas/2EEU

>  <Rbt.Executable>
rbdock ($Id: //depot/dev/client3/rdock/2013.1/src/exe/rbdock.cxx#4 $)

>  <Rbt.Library>
libRbt.so (2013.1, Build901 2013/11/27)

>  <Rbt.Parameter_File>
/export/apps/rDock/src/rDock_2013.1_src/data/scripts/dock_solv.prm

>  <Rbt.Receptor>
prm/blind_docking_80.prm

>  <SCORE>
-16.9485

>  <SCORE.INTER>
-16.9485

>  <SCORE.INTER.CONST>
1

>  <SCORE.INTER.POLAR>
0

>  <SCORE.INTER.ROT>
0

>  <SCORE.INTER.SOLV>
3.66485

>  <SCORE.INTER.VDW>
-16.1206

>  <SCORE.INTER.norm>
-1.69485

>  <SCORE.INTRA>
0

>  <SCORE.INTRA.DIHEDRAL>
0

>  <SCORE.INTRA.DIHEDRAL.0>
0

>  <SCORE.INTRA.POLAR>
0

>  <SCORE.INTRA.POLAR.0>
0

>  <SCORE.INTRA.REPUL>
0

>  <SCORE.INTRA.REPUL.0>
0

>  <SCORE.INTRA.SOLV>
0

>  <SCORE.INTRA.SOLV.lig_0>
-4.28148

>  <SCORE.INTRA.VDW>
0

>  <SCORE.INTRA.VDW.0>
0

>  <SCORE.INTRA.norm>
0

>  <SCORE.RESTR>
0

>  <SCORE.RESTR.CAVITY>
0

>  <SCORE.RESTR.norm>
0

>  <SCORE.SYSTEM>
0

>  <SCORE.SYSTEM.CONST>
0

>  <SCORE.SYSTEM.DIHEDRAL>
0

>  <SCORE.SYSTEM.SOLV>
0

>  <SCORE.SYSTEM.norm>
0

>  <SCORE.heavy>
10

>  <SCORE.norm>
-1.69485

>  <RMSD>
2.849

$$$$
ligand
 OpenBabel11021811423D
libRbt.so/2013.1/901 2013/11/27
 10 11  0  0  0  0  0  0  0  0999 V2000
   11.4218   10.8662    5.6100 N   0  0  0  0  0  0  0  0  0  0  0  0
   11.0704   12.1688    5.3177 C   0  0  0  0  0  0  0  0  0  0  0  0
   11.0146   13.1189    6.2592 N   0  0  0  0  0  0  0  0  0  0  0  0
   11.3330   12.6627    7.5034 C   0  0  0  0  0  0  0  0  0  0  0  0
   11.6915   11.3723    7.8631 C   0  0  0  0  0  0  0  0  0  0  0  0
   11.7550   10.3592    6.8681 C   0  0  0  0  0  0  0  0  0  0  0  0
   12.0467    9.1670    6.9631 O   0  0  0  0  0  0  0  0  0  0  0  0
   11.9281   11.3490    9.2166 N   0  0  0  0  0  0  0  0  0  0  0  0
   11.7154   12.6084    9.6650 C   0  0  0  0  0  0  0  0  0  0  0  0
   11.3462   13.4418    8.6350 N   0  0  0  0  0  0  0  0  0  0  0  0
  1  2  1  0  0  0  0
  1  6  1  0  0  0  0
  2  3  2  0  0  0  0
  3  4  1  0  0  0  0
  4  5  2  0  0  0  0
  4 10  1  0  0  0  0
  5  6  1  0  0  0  0
  5  8  1  0  0  0  0
  6  7  2  0  0  0  0
  8  9  1  0  0  0  0
  9 10  2  0  0  0  0
M  END
>  <CHROM.1>
11.54149956,11.66376056,7.37964594,1.50930744,1.29092543,-2.20971810

>  <Name>
ligand

>  <RI>
0

>  <Rbt.Current_Directory>
/home/itssahil/PROJECTS/Mol_Feturizer/New_Systems/rnas/2EEU

>  <Rbt.Executable>
rbdock ($Id: //depot/dev/client3/rdock/2013.1/src/exe/rbdock.cxx#4 $)

>  <Rbt.Library>
libRbt.so (2013.1, Build901 2013/11/27)

>  <Rbt.Parameter_File>
/export/apps/rDock/src/rDock_2013.1_src/data/scripts/dock_solv.prm

>  <Rbt.Receptor>
prm/blind_docking_100.prm

>  <SCORE>
-16.9207

>  <SCORE.INTER>
-16.9207

>  <SCORE.INTER.CONST>
1

>  <SCORE.INTER.POLAR>
0

>  <SCORE.INTER.ROT>
0

>  <SCORE.INTER.SOLV>
3.65884

>  <SCORE.INTER.VDW>
-16.1001

>  <SCORE.INTER.norm>
-1.69207

>  <SCORE.INTRA>
0

>  <SCORE.INTRA.DIHEDRAL>
0

>  <SCORE.INTRA.DIHEDRAL.0>
0

>  <SCORE.INTRA.POLAR>
0

>  <SCORE.INTRA.POLAR.0>
0

>  <SCORE.INTRA.REPUL>
0

>  <SCORE.INTRA.REPUL.0>
0

>  <SCORE.INTRA.SOLV>
0

>  <SCORE.INTRA.SOLV.lig_0>
-4.28148

>  <SCORE.INTRA.VDW>
0

>  <SCORE.INTRA.VDW.0>
0

>  <SCORE.INTRA.norm>
0

>  <SCORE.RESTR>
0

>  <SCORE.RESTR.CAVITY>
0

>  <SCORE.RESTR.norm>
0

>  <SCORE.SYSTEM>
0

>  <SCORE.SYSTEM.CONST>
0

>  <SCORE.SYSTEM.DIHEDRAL>
0

>  <SCORE.SYSTEM.SOLV>
0

>  <SCORE.SYSTEM.norm>
0

>  <SCORE.heavy>
10

>  <SCORE.norm>
-1.69207

>  <RMSD>
2.850

$$$$
ligand
 OpenBabel11021811423D
libRbt.so/2013.1/901 2013/11/27
 10 11  0  0  0  0  0  0  0  0999 V2000
   11.4250   10.8625    5.6087 N   0  0  0  0  0  0  0  0  0  0  0  0
   11.0757   12.1650    5.3137 C   0  0  0  0  0  0  0  0  0  0  0  0
   11.0212   13.1172    6.2532 N   0  0  0  0  0  0  0  0  0  0  0  0
   11.3385   12.6630    7.4984 C   0  0  0  0  0  0  0  0  0  0  0  0
   11.6949   11.3729    7.8608 C   0  0  0  0  0  0  0  0  0  0  0  0
   11.7570   10.3576    6.8680 C   0  0  0  0  0  0  0  0  0  0  0  0
   12.0468    9.1651    6.9655 O   0  0  0  0  0  0  0  0  0  0  0  0
   11.9310   11.3520    9.2144 N   0  0  0  0  0  0  0  0  0  0  0  0
   11.7202   12.6127    9.6602 C   0  0  0  0  0  0  0  0  0  0  0  0
   11.3526   13.4445    8.6284 N   0  0  0  0  0  0  0  0  0  0  0  0
  1  2  1  0  0  0  0
  1  6  1  0  0  0  0
  2  3  2  0  0  0  0
  3  4  1  0  0  0  0
  4  5  2  0  0  0  0
  4 10  1  0  0  0  0
  5  6  1  0  0  0  0
  5  8  1  0  0  0  0
  6  7  2  0  0  0  0
  8  9  1  0  0  0  0
  9 10  2  0  0  0  0
M  END
>  <CHROM.1>
11.54541199,11.66352420,7.37674509,1.51192401,1.29237290,-2.21429919

>  <Name>
ligand

>  <RI>
0

>  <Rbt.Current_Directory>
/home/itssahil/PROJECTS/Mol_Feturizer/New_Systems/rnas/2EEU

>  <Rbt.Executable>
rbdock ($Id: //depot/dev/client3/rdock/2013.1/src/exe/rbdock.cxx#4 $)

>  <Rbt.Library>
libRbt.so (2013.1, Build901 2013/11/27)

>  <Rbt.Parameter_File>
/export/apps/rDock/src/rDock_2013.1_src/data/scripts/dock_solv.prm

>  <Rbt.Receptor>
prm/blind_docking_100.prm

>  <SCORE>
-16.9577

>  <SCORE.INTER>
-16.9577

>  <SCORE.INTER.CONST>
1

>  <SCORE.INTER.POLAR>
0

>  <SCORE.INTER.ROT>
0

>  <SCORE.INTER.SOLV>
3.65964

>  <SCORE.INTER.VDW>
-16.125

>  <SCORE.INTER.norm>
-1.69577

>  <SCORE.INTRA>
0

>  <SCORE.INTRA.DIHEDRAL>
0

>  <SCORE.INTRA.DIHEDRAL.0>
0

>  <SCORE.INTRA.POLAR>
0

>  <SCORE.INTRA.POLAR.0>
0

>  <SCORE.INTRA.REPUL>
0

>  <SCORE.INTRA.REPUL.0>
0

>  <SCORE.INTRA.SOLV>
0

>  <SCORE.INTRA.SOLV.lig_0>
-4.28148

>  <SCORE.INTRA.VDW>
0

>  <SCORE.INTRA.VDW.0>
0

>  <SCORE.INTRA.norm>
0

>  <SCORE.RESTR>
0

>  <SCORE.RESTR.CAVITY>
0

>  <SCORE.RESTR.norm>
0

>  <SCORE.SYSTEM>
0

>  <SCORE.SYSTEM.CONST>
0

>  <SCORE.SYSTEM.DIHEDRAL>
0

>  <SCORE.SYSTEM.SOLV>
0

>  <SCORE.SYSTEM.norm>
0

>  <SCORE.heavy>
10

>  <SCORE.norm>
-1.69577

>  <RMSD>
2.850

$$$$
ligand
 OpenBabel11021811423D
libRbt.so/2013.1/901 2013/11/27
 10 11  0  0  0  0  0  0  0  0999 V2000
   11.4281   10.8632    5.6082 N   0  0  0  0  0  0  0  0  0  0  0  0
   11.0768   12.1651    5.3131 C   0  0  0  0  0  0  0  0  0  0  0  0
   11.0200   13.1170    6.2528 N   0  0  0  0  0  0  0  0  0  0  0  0
   11.3373   12.6632    7.4981 C   0  0  0  0  0  0  0  0  0  0  0  0
   11.6957   11.3736    7.8606 C   0  0  0  0  0  0  0  0  0  0  0  0
   11.7602   10.3586    6.8676 C   0  0  0  0  0  0  0  0  0  0  0  0
   12.0520    9.1666    6.9650 O   0  0  0  0  0  0  0  0  0  0  0  0
   11.9309   11.3528    9.2143 N   0  0  0  0  0  0  0  0  0  0  0  0
   11.7177   12.6131    9.6602 C   0  0  0  0  0  0  0  0  0  0  0  0
   11.3493   13.4444    8.6283 N   0  0  0  0  0  0  0  0  0  0  0  0
  1  2  1  0  0  0  0
  1  6  1  0  0  0  0
  2  3  2  0  0  0  0
  3  4  1  0  0  0  0
  4  5  2  0  0  0  0
  4 10  1  0  0  0  0
  5  6  1  0  0  0  0
  5  8  1  0  0  0  0
  6  7  2  0  0  0  0
  8  9  1  0  0  0  0
  9 10  2  0  0  0  0
M  END
>  <CHROM.1>
11.54604008,11.66405361,7.37644103,1.50627862,1.29138084,-2.20868688

>  <Name>
ligand

>  <RI>
0

>  <Rbt.Current_Directory>
/home/itssahil/PROJECTS/Mol_Feturizer/New_Systems/rnas/2EEU

>  <Rbt.Executable>
rbdock ($Id: //depot/dev/client3/rdock/2013.1/src/exe/rbdock.cxx#4 $)

>  <Rbt.Library>
libRbt.so (2013.1, Build901 2013/11/27)

>  <Rbt.Parameter_File>
/export/apps/rDock/src/rDock_2013.1_src/data/scripts/dock_solv.prm

>  <Rbt.Receptor>
prm/blind_docking_60.prm

>  <SCORE>
-16.9551

>  <SCORE.INTER>
-16.9551

>  <SCORE.INTER.CONST>
1

>  <SCORE.INTER.POLAR>
0

>  <SCORE.INTER.ROT>
0

>  <SCORE.INTER.SOLV>
3.65389

>  <SCORE.INTER.VDW>
-16.1214

>  <SCORE.INTER.norm>
-1.69551

>  <SCORE.INTRA>
0

>  <SCORE.INTRA.DIHEDRAL>
0

>  <SCORE.INTRA.DIHEDRAL.0>
0

>  <SCORE.INTRA.POLAR>
0

>  <SCORE.INTRA.POLAR.0>
0

>  <SCORE.INTRA.REPUL>
0

>  <SCORE.INTRA.REPUL.0>
0

>  <SCORE.INTRA.SOLV>
0

>  <SCORE.INTRA.SOLV.lig_0>
-4.28148

>  <SCORE.INTRA.VDW>
0

>  <SCORE.INTRA.VDW.0>
0

>  <SCORE.INTRA.norm>
0

>  <SCORE.RESTR>
0

>  <SCORE.RESTR.CAVITY>
0

>  <SCORE.RESTR.norm>
0

>  <SCORE.SYSTEM>
0

>  <SCORE.SYSTEM.CONST>
0

>  <SCORE.SYSTEM.DIHEDRAL>
0

>  <SCORE.SYSTEM.SOLV>
0

>  <SCORE.SYSTEM.norm>
0

>  <SCORE.heavy>
10

>  <SCORE.norm>
-1.69551

>  <RMSD>
2.850

$$$$
ligand
 OpenBabel11021811423D
libRbt.so/2013.1/901 2013/11/27
 10 11  0  0  0  0  0  0  0  0999 V2000
   11.4201   10.8676    5.6101 N   0  0  0  0  0  0  0  0  0  0  0  0
   11.0630   12.1690    5.3194 C   0  0  0  0  0  0  0  0  0  0  0  0
   11.0090   13.1190    6.2611 N   0  0  0  0  0  0  0  0  0  0  0  0
   11.3350   12.6640    7.5037 C   0  0  0  0  0  0  0  0  0  0  0  0
   11.6994   11.3748    7.8618 C   0  0  0  0  0  0  0  0  0  0  0  0
   11.7612   10.3618    6.8666 C   0  0  0  0  0  0  0  0  0  0  0  0
   12.0571    9.1705    6.9602 O   0  0  0  0  0  0  0  0  0  0  0  0
   11.9428   11.3524    9.2140 N   0  0  0  0  0  0  0  0  0  0  0  0
   11.7284   12.6112    9.6634 C   0  0  0  0  0  0  0  0  0  0  0  0
   11.3514   13.4433    8.6351 N   0  0  0  0  0  0  0  0  0  0  0  0
  1  2  1  0  0  0  0
  1  6  1  0  0  0  0
  2  3  2  0  0  0  0
  3  4  1  0  0  0  0
  4  5  2  0  0  0  0
  4 10  1  0  0  0  0
  5  6  1  0  0  0  0
  5  8  1  0  0  0  0
  6  7  2  0  0  0  0
  8  9  1  0  0  0  0
  9 10  2  0  0  0  0
M  END
>  <CHROM.1>
11.54604477,11.66570738,7.37901821,1.51680428,1.28537978,-2.21702841

>  <Name>
ligand

>  <RI>
0

>  <Rbt.Current_Directory>
/home/itssahil/PROJECTS/Mol_Feturizer/New_Systems/rnas/2EEU

>  <Rbt.Executable>
rbdock ($Id: //depot/dev/client3/rdock/2013.1/src/exe/rbdock.cxx#4 $)

>  <Rbt.Library>
libRbt.so (2013.1, Build901 2013/11/27)

>  <Rbt.Parameter_File>
/export/apps/rDock/src/rDock_2013.1_src/data/scripts/dock_solv.prm

>  <Rbt.Receptor>
prm/blind_docking_80.prm

>  <SCORE>
-16.9214

>  <SCORE.INTER>
-16.9214

>  <SCORE.INTER.CONST>
1

>  <SCORE.INTER.POLAR>
0

>  <SCORE.INTER.ROT>
0

>  <SCORE.INTER.SOLV>
3.64339

>  <SCORE.INTER.VDW>
-16.0954

>  <SCORE.INTER.norm>
-1.69214

>  <SCORE.INTRA>
0

>  <SCORE.INTRA.DIHEDRAL>
0

>  <SCORE.INTRA.DIHEDRAL.0>
0

>  <SCORE.INTRA.POLAR>
0

>  <SCORE.INTRA.POLAR.0>
0

>  <SCORE.INTRA.REPUL>
0

>  <SCORE.INTRA.REPUL.0>
0

>  <SCORE.INTRA.SOLV>
0

>  <SCORE.INTRA.SOLV.lig_0>
-4.28148

>  <SCORE.INTRA.VDW>
0

>  <SCORE.INTRA.VDW.0>
0

>  <SCORE.INTRA.norm>
0

>  <SCORE.RESTR>
0

>  <SCORE.RESTR.CAVITY>
0

>  <SCORE.RESTR.norm>
0

>  <SCORE.SYSTEM>
0

>  <SCORE.SYSTEM.CONST>
0

>  <SCORE.SYSTEM.DIHEDRAL>
0

>  <SCORE.SYSTEM.SOLV>
0

>  <SCORE.SYSTEM.norm>
0

>  <SCORE.heavy>
10

>  <SCORE.norm>
-1.69214

>  <RMSD>
2.850

$$$$
ligand
 OpenBabel11021811423D
libRbt.so/2013.1/901 2013/11/27
 10 11  0  0  0  0  0  0  0  0999 V2000
   11.4199   10.8682    5.6091 N   0  0  0  0  0  0  0  0  0  0  0  0
   11.0804   12.1742    5.3183 C   0  0  0  0  0  0  0  0  0  0  0  0
   11.0321   13.1234    6.2611 N   0  0  0  0  0  0  0  0  0  0  0  0
   11.3450   12.6626    7.5049 C   0  0  0  0  0  0  0  0  0  0  0  0
   11.6916   11.3687    7.8632 C   0  0  0  0  0  0  0  0  0  0  0  0
   11.7472   10.3564    6.8668 C   0  0  0  0  0  0  0  0  0  0  0  0
   12.0281    9.1615    6.9604 O   0  0  0  0  0  0  0  0  0  0  0  0
   11.9264   11.3413    9.2169 N   0  0  0  0  0  0  0  0  0  0  0  0
   11.7245   12.6019    9.6669 C   0  0  0  0  0  0  0  0  0  0  0  0
   11.3638   13.4400    8.6377 N   0  0  0  0  0  0  0  0  0  0  0  0
  1  2  1  0  0  0  0
  1  6  1  0  0  0  0
  2  3  2  0  0  0  0
  3  4  1  0  0  0  0
  4  5  2  0  0  0  0
  4 10  1  0  0  0  0
  5  6  1  0  0  0  0
  5  8  1  0  0  0  0
  6  7  2  0  0  0  0
  8  9  1  0  0  0  0
  9 10  2  0  0  0  0
M  END
>  <CHROM.1>
11.54469703,11.66208974,7.38000165,1.52568628,1.29870490,-2.22404386

>  <Name>
ligand

>  <RI>
0

>  <Rbt.Current_Directory>
/home/itssahil/PROJECTS/Mol_Feturizer/New_Systems/rnas/2EEU

>  <Rbt.Executable>
rbdock ($Id: //depot/dev/client3/rdock/2013.1/src/exe/rbdock.cxx#4 $)

>  <Rbt.Library>
libRbt.so (2013.1, Build901 2013/11/27)

>  <Rbt.Parameter_File>
/export/apps/rDock/src/rDock_2013.1_src/data/scripts/dock_solv.prm

>  <Rbt.Receptor>
prm/blind_docking_40.prm

>  <SCORE>
-16.8905

>  <SCORE.INTER>
-16.8905

>  <SCORE.INTER.CONST>
1

>  <SCORE.INTER.POLAR>
0

>  <SCORE.INTER.ROT>
0

>  <SCORE.INTER.SOLV>
3.68461

>  <SCORE.INTER.VDW>
-16.0885

>  <SCORE.INTER.norm>
-1.68905

>  <SCORE.INTRA>
0

>  <SCORE.INTRA.DIHEDRAL>
0

>  <SCORE.INTRA.DIHEDRAL.0>
0

>  <SCORE.INTRA.POLAR>
0

>  <SCORE.INTRA.POLAR.0>
0

>  <SCORE.INTRA.REPUL>
0

>  <SCORE.INTRA.REPUL.0>
0

>  <SCORE.INTRA.SOLV>
0

>  <SCORE.INTRA.SOLV.lig_0>
-4.28148

>  <SCORE.INTRA.VDW>
0

>  <SCORE.INTRA.VDW.0>
0

>  <SCORE.INTRA.norm>
0

>  <SCORE.RESTR>
0

>  <SCORE.RESTR.CAVITY>
0

>  <SCORE.RESTR.norm>
0

>  <SCORE.SYSTEM>
0

>  <SCORE.SYSTEM.CONST>
0

>  <SCORE.SYSTEM.DIHEDRAL>
0

>  <SCORE.SYSTEM.SOLV>
0

>  <SCORE.SYSTEM.norm>
0

>  <SCORE.heavy>
10

>  <SCORE.norm>
-1.68905

>  <RMSD>
2.851

$$$$
ligand
 OpenBabel11021811423D
libRbt.so/2013.1/901 2013/11/27
 10 11  0  0  0  0  0  0  0  0999 V2000
   11.4173   10.8556    5.6102 N   0  0  0  0  0  0  0  0  0  0  0  0
   11.0712   12.1591    5.3158 C   0  0  0  0  0  0  0  0  0  0  0  0
   11.0203   13.1112    6.2555 N   0  0  0  0  0  0  0  0  0  0  0  0
   11.3379   12.6560    7.5002 C   0  0  0  0  0  0  0  0  0  0  0  0
   11.6913   11.3649    7.8621 C   0  0  0  0  0  0  0  0  0  0  0  0
   11.7496   10.3496    6.8690 C   0  0  0  0  0  0  0  0  0  0  0  0
   12.0363    9.1563    6.9659 O   0  0  0  0  0  0  0  0  0  0  0  0
   11.9290   11.3432    9.2154 N   0  0  0  0  0  0  0  0  0  0  0  0
   11.7221   12.6043    9.6616 C   0  0  0  0  0  0  0  0  0  0  0  0
   11.3555   13.4373    8.6303 N   0  0  0  0  0  0  0  0  0  0  0  0
  1  2  1  0  0  0  0
  1  6  1  0  0  0  0
  2  3  2  0  0  0  0
  3  4  1  0  0  0  0
  4  5  2  0  0  0  0
  4 10  1  0  0  0  0
  5  6  1  0  0  0  0
  5  8  1  0  0  0  0
  6  7  2  0  0  0  0
  8  9  1  0  0  0  0
  9 10  2  0  0  0  0
M  END
>  <CHROM.1>
11.54204600,11.65602352,7.37821820,1.52129322,1.29374465,-2.22315202

>  <Name>
ligand

>  <RI>
0

>  <Rbt.Current_Directory>
/home/itssahil/PROJECTS/Mol_Feturizer/New_Systems/rnas/2EEU

>  <Rbt.Executable>
rbdock ($Id: //depot/dev/client3/rdock/2013.1/src/exe/rbdock.cxx#4 $)

>  <Rbt.Library>
libRbt.so (2013.1, Build901 2013/11/27)

>  <Rbt.Parameter_File>
/export/apps/rDock/src/rDock_2013.1_src/data/scripts/dock_solv.prm

>  <Rbt.Receptor>
prm/blind_docking_40.prm

>  <SCORE>
-16.9259

>  <SCORE.INTER>
-16.9259

>  <SCORE.INTER.CONST>
1

>  <SCORE.INTER.POLAR>
0

>  <SCORE.INTER.ROT>
0

>  <SCORE.INTER.SOLV>
3.67149

>  <SCORE.INTER.VDW>
-16.1078

>  <SCORE.INTER.norm>
-1.69259

>  <SCORE.INTRA>
0

>  <SCORE.INTRA.DIHEDRAL>
0

>  <SCORE.INTRA.DIHEDRAL.0>
0

>  <SCORE.INTRA.POLAR>
0

>  <SCORE.INTRA.POLAR.0>
0

>  <SCORE.INTRA.REPUL>
0

>  <SCORE.INTRA.REPUL.0>
0

>  <SCORE.INTRA.SOLV>
0

>  <SCORE.INTRA.SOLV.lig_0>
-4.28148

>  <SCORE.INTRA.VDW>
0

>  <SCORE.INTRA.VDW.0>
0

>  <SCORE.INTRA.norm>
0

>  <SCORE.RESTR>
0

>  <SCORE.RESTR.CAVITY>
0

>  <SCORE.RESTR.norm>
0

>  <SCORE.SYSTEM>
0

>  <SCORE.SYSTEM.CONST>
0

>  <SCORE.SYSTEM.DIHEDRAL>
0

>  <SCORE.SYSTEM.SOLV>
0

>  <SCORE.SYSTEM.norm>
0

>  <SCORE.heavy>
10

>  <SCORE.norm>
-1.69259

>  <RMSD>
2.851

$$$$
ligand
 OpenBabel11021811423D
libRbt.so/2013.1/901 2013/11/27
 10 11  0  0  0  0  0  0  0  0999 V2000
   11.4187   10.9212    5.6498 N   0  0  0  0  0  0  0  0  0  0  0  0
   11.0942   12.2313    5.3602 C   0  0  0  0  0  0  0  0  0  0  0  0
   11.0536   13.1796    6.3043 N   0  0  0  0  0  0  0  0  0  0  0  0
   11.3580   12.7135    7.5483 C   0  0  0  0  0  0  0  0  0  0  0  0
   11.6895   11.4152    7.9055 C   0  0  0  0  0  0  0  0  0  0  0  0
   11.7369   10.4040    6.9077 C   0  0  0  0  0  0  0  0  0  0  0  0
   12.0046    9.2060    7.0001 O   0  0  0  0  0  0  0  0  0  0  0  0
   11.9202   11.3832    9.2598 N   0  0  0  0  0  0  0  0  0  0  0  0
   11.7307   12.6453    9.7112 C   0  0  0  0  0  0  0  0  0  0  0  0
   11.3821   13.4888    8.6823 N   0  0  0  0  0  0  0  0  0  0  0  0
  1  2  1  0  0  0  0
  1  6  1  0  0  0  0
  2  3  2  0  0  0  0
  3  4  1  0  0  0  0
  4  5  2  0  0  0  0
  4 10  1  0  0  0  0
  5  6  1  0  0  0  0
  5  8  1  0  0  0  0
  6  7  2  0  0  0  0
  8  9  1  0  0  0  0
  9 10  2  0  0  0  0
M  END
>  <CHROM.1>
11.54716389,11.71099815,7.42233991,1.54264509,1.30899355,-2.23883800

>  <Name>
ligand

>  <RI>
0

>  <Rbt.Current_Directory>
/home/itssahil/PROJECTS/Mol_Feturizer/New_Systems/rnas/2EEU

>  <Rbt.Executable>
rbdock ($Id: //depot/dev/client3/rdock/2013.1/src/exe/rbdock.cxx#4 $)

>  <Rbt.Library>
libRbt.so (2013.1, Build901 2013/11/27)

>  <Rbt.Parameter_File>
/export/apps/rDock/src/rDock_2013.1_src/data/scripts/dock_solv.prm

>  <Rbt.Receptor>
prm/pocket_docking_5.prm

>  <SCORE>
-16.8115

>  <SCORE.INTER>
-16.8115

>  <SCORE.INTER.CONST>
1

>  <SCORE.INTER.POLAR>
0

>  <SCORE.INTER.ROT>
0

>  <SCORE.INTER.SOLV>
3.69241

>  <SCORE.INTER.VDW>
-16.0385

>  <SCORE.INTER.norm>
-1.68115

>  <SCORE.INTRA>
0

>  <SCORE.INTRA.DIHEDRAL>
0

>  <SCORE.INTRA.DIHEDRAL.0>
0

>  <SCORE.INTRA.POLAR>
0

>  <SCORE.INTRA.POLAR.0>
0

>  <SCORE.INTRA.REPUL>
0

>  <SCORE.INTRA.REPUL.0>
0

>  <SCORE.INTRA.SOLV>
0

>  <SCORE.INTRA.SOLV.lig_0>
-4.28148

>  <SCORE.INTRA.VDW>
0

>  <SCORE.INTRA.VDW.0>
0

>  <SCORE.INTRA.norm>
0

>  <SCORE.RESTR>
0

>  <SCORE.RESTR.CAVITY>
0

>  <SCORE.RESTR.norm>
0

>  <SCORE.SYSTEM>
0

>  <SCORE.SYSTEM.CONST>
0

>  <SCORE.SYSTEM.DIHEDRAL>
0

>  <SCORE.SYSTEM.SOLV>
0

>  <SCORE.SYSTEM.norm>
0

>  <SCORE.heavy>
10

>  <SCORE.norm>
-1.68115

>  <RMSD>
2.851

$$$$
ligand
 OpenBabel11021811423D
libRbt.so/2013.1/901 2013/11/27
 10 11  0  0  0  0  0  0  0  0999 V2000
   11.4088   10.8843    5.5978 N   0  0  0  0  0  0  0  0  0  0  0  0
   11.0740   12.1924    5.3107 C   0  0  0  0  0  0  0  0  0  0  0  0
   11.0305   13.1394    6.2559 N   0  0  0  0  0  0  0  0  0  0  0  0
   11.3432   12.6744    7.4982 C   0  0  0  0  0  0  0  0  0  0  0  0
   11.6853   11.3782    7.8528 C   0  0  0  0  0  0  0  0  0  0  0  0
   11.7357   10.3682    6.8539 C   0  0  0  0  0  0  0  0  0  0  0  0
   12.0121    9.1720    6.9441 O   0  0  0  0  0  0  0  0  0  0  0  0
   11.9217   11.3466    9.2062 N   0  0  0  0  0  0  0  0  0  0  0  0
   11.7252   12.6069    9.6595 C   0  0  0  0  0  0  0  0  0  0  0  0
   11.3665   13.4489    8.6328 N   0  0  0  0  0  0  0  0  0  0  0  0
  1  2  1  0  0  0  0
  1  6  1  0  0  0  0
  2  3  2  0  0  0  0
  3  4  1  0  0  0  0
  4  5  2  0  0  0  0
  4 10  1  0  0  0  0
  5  6  1  0  0  0  0
  5  8  1  0  0  0  0
  6  7  2  0  0  0  0
  8  9  1  0  0  0  0
  9 10  2  0  0  0  0
M  END
>  <CHROM.1>
11.53890123,11.67337072,7.37054754,1.53829815,1.30098575,-2.23372954

>  <Name>
ligand

>  <RI>
0

>  <Rbt.Current_Directory>
/home/itssahil/PROJECTS/Mol_Feturizer/New_Systems/rnas/2EEU

>  <Rbt.Executable>
rbdock ($Id: //depot/dev/client3/rdock/2013.1/src/exe/rbdock.cxx#4 $)

>  <Rbt.Library>
libRbt.so (2013.1, Build901 2013/11/27)

>  <Rbt.Parameter_File>
/export/apps/rDock/src/rDock_2013.1_src/data/scripts/dock_solv.prm

>  <Rbt.Receptor>
prm/pocket_docking_6.prm

>  <SCORE>
-16.8565

>  <SCORE.INTER>
-16.8565

>  <SCORE.INTER.CONST>
1

>  <SCORE.INTER.POLAR>
0

>  <SCORE.INTER.ROT>
0

>  <SCORE.INTER.SOLV>
3.70591

>  <SCORE.INTER.VDW>
-16.073

>  <SCORE.INTER.norm>
-1.68565

>  <SCORE.INTRA>
0

>  <SCORE.INTRA.DIHEDRAL>
0

>  <SCORE.INTRA.DIHEDRAL.0>
0

>  <SCORE.INTRA.POLAR>
0

>  <SCORE.INTRA.POLAR.0>
0

>  <SCORE.INTRA.REPUL>
0

>  <SCORE.INTRA.REPUL.0>
0

>  <SCORE.INTRA.SOLV>
0

>  <SCORE.INTRA.SOLV.lig_0>
-4.28148

>  <SCORE.INTRA.VDW>
0

>  <SCORE.INTRA.VDW.0>
0

>  <SCORE.INTRA.norm>
0

>  <SCORE.RESTR>
0

>  <SCORE.RESTR.CAVITY>
0

>  <SCORE.RESTR.norm>
0

>  <SCORE.SYSTEM>
0

>  <SCORE.SYSTEM.CONST>
0

>  <SCORE.SYSTEM.DIHEDRAL>
0

>  <SCORE.SYSTEM.SOLV>
0

>  <SCORE.SYSTEM.norm>
0

>  <SCORE.heavy>
10

>  <SCORE.norm>
-1.68565

>  <RMSD>
2.852

$$$$
ligand
 OpenBabel11021811423D
libRbt.so/2013.1/901 2013/11/27
 10 11  0  0  0  0  0  0  0  0999 V2000
   11.3944   10.8720    5.5766 N   0  0  0  0  0  0  0  0  0  0  0  0
   11.0561   12.1794    5.2909 C   0  0  0  0  0  0  0  0  0  0  0  0
   11.0128   13.1260    6.2367 N   0  0  0  0  0  0  0  0  0  0  0  0
   11.3295   12.6610    7.4780 C   0  0  0  0  0  0  0  0  0  0  0  0
   11.6752   11.3654    7.8312 C   0  0  0  0  0  0  0  0  0  0  0  0
   11.7254   10.3560    6.8316 C   0  0  0  0  0  0  0  0  0  0  0  0
   12.0047    9.1603    6.9206 O   0  0  0  0  0  0  0  0  0  0  0  0
   11.9150   11.3337    9.1839 N   0  0  0  0  0  0  0  0  0  0  0  0
   11.7169   12.5933    9.6383 C   0  0  0  0  0  0  0  0  0  0  0  0
   11.3539   13.4350    8.6129 N   0  0  0  0  0  0  0  0  0  0  0  0
  1  2  1  0  0  0  0
  1  6  1  0  0  0  0
  2  3  2  0  0  0  0
  3  4  1  0  0  0  0
  4  5  2  0  0  0  0
  4 10  1  0  0  0  0
  5  6  1  0  0  0  0
  5  8  1  0  0  0  0
  6  7  2  0  0  0  0
  8  9  1  0  0  0  0
  9 10  2  0  0  0  0
M  END
>  <CHROM.1>
11.52707328,11.66048148,7.34936353,1.54037443,1.29778981,-2.23525997

>  <Name>
ligand

>  <RI>
0

>  <Rbt.Current_Directory>
/home/itssahil/PROJECTS/Mol_Feturizer/New_Systems/rnas/2EEU

>  <Rbt.Executable>
rbdock ($Id: //depot/dev/client3/rdock/2013.1/src/exe/rbdock.cxx#4 $)

>  <Rbt.Library>
libRbt.so (2013.1, Build901 2013/11/27)

>  <Rbt.Parameter_File>
/export/apps/rDock/src/rDock_2013.1_src/data/scripts/dock_solv.prm

>  <Rbt.Receptor>
prm/blind_docking_60.prm

>  <SCORE>
-16.8783

>  <SCORE.INTER>
-16.8783

>  <SCORE.INTER.CONST>
1

>  <SCORE.INTER.POLAR>
0

>  <SCORE.INTER.ROT>
0

>  <SCORE.INTER.SOLV>
3.72088

>  <SCORE.INTER.VDW>
-16.0925

>  <SCORE.INTER.norm>
-1.68783

>  <SCORE.INTRA>
0

>  <SCORE.INTRA.DIHEDRAL>
0

>  <SCORE.INTRA.DIHEDRAL.0>
0

>  <SCORE.INTRA.POLAR>
0

>  <SCORE.INTRA.POLAR.0>
0

>  <SCORE.INTRA.REPUL>
0

>  <SCORE.INTRA.REPUL.0>
0

>  <SCORE.INTRA.SOLV>
0

>  <SCORE.INTRA.SOLV.lig_0>
-4.28148

>  <SCORE.INTRA.VDW>
0

>  <SCORE.INTRA.VDW.0>
0

>  <SCORE.INTRA.norm>
0

>  <SCORE.RESTR>
0

>  <SCORE.RESTR.CAVITY>
0

>  <SCORE.RESTR.norm>
0

>  <SCORE.SYSTEM>
0

>  <SCORE.SYSTEM.CONST>
0

>  <SCORE.SYSTEM.DIHEDRAL>
0

>  <SCORE.SYSTEM.SOLV>
0

>  <SCORE.SYSTEM.norm>
0

>  <SCORE.heavy>
10

>  <SCORE.norm>
-1.68783

>  <RMSD>
2.853

$$$$
ligand
 OpenBabel11021811423D
libRbt.so/2013.1/901 2013/11/27
 10 11  0  0  0  0  0  0  0  0999 V2000
   11.3870   10.9465    5.5934 N   0  0  0  0  0  0  0  0  0  0  0  0
   11.0800   12.2619    5.3088 C   0  0  0  0  0  0  0  0  0  0  0  0
   11.0874   13.2138    6.2501 N   0  0  0  0  0  0  0  0  0  0  0  0
   11.4208   12.7458    7.4859 C   0  0  0  0  0  0  0  0  0  0  0  0
   11.7372   11.4423    7.8377 C   0  0  0  0  0  0  0  0  0  0  0  0
   11.7335   10.4271    6.8428 C   0  0  0  0  0  0  0  0  0  0  0  0
   11.9800    9.2242    6.9317 O   0  0  0  0  0  0  0  0  0  0  0  0
   12.0090   11.4101    9.1844 N   0  0  0  0  0  0  0  0  0  0  0  0
   11.8588   12.6772    9.6365 C   0  0  0  0  0  0  0  0  0  0  0  0
   11.4954   13.5242    8.6156 N   0  0  0  0  0  0  0  0  0  0  0  0
  1  2  1  0  0  0  0
  1  6  1  0  0  0  0
  2  3  2  0  0  0  0
  3  4  1  0  0  0  0
  4  5  2  0  0  0  0
  4 10  1  0  0  0  0
  5  6  1  0  0  0  0
  5  8  1  0  0  0  0
  6  7  2  0  0  0  0
  8  9  1  0  0  0  0
  9 10  2  0  0  0  0
M  END
>  <CHROM.1>
11.58594307,11.73929975,7.35802683,1.68151980,1.30305570,-2.37647381

>  <Name>
ligand

>  <RI>
0

>  <Rbt.Current_Directory>
/home/itssahil/PROJECTS/Mol_Feturizer/New_Systems/rnas/2EEU

>  <Rbt.Executable>
rbdock ($Id: //depot/dev/client3/rdock/2013.1/src/exe/rbdock.cxx#4 $)

>  <Rbt.Library>
libRbt.so (2013.1, Build901 2013/11/27)

>  <Rbt.Parameter_File>
/export/apps/rDock/src/rDock_2013.1_src/data/scripts/dock_solv.prm

>  <Rbt.Receptor>
prm/blind_docking_40.prm

>  <SCORE>
-16.7452

>  <SCORE.INTER>
-16.7452

>  <SCORE.INTER.CONST>
1

>  <SCORE.INTER.POLAR>
0

>  <SCORE.INTER.ROT>
0

>  <SCORE.INTER.SOLV>
3.75174

>  <SCORE.INTER.VDW>
-16.0141

>  <SCORE.INTER.norm>
-1.67452

>  <SCORE.INTRA>
0

>  <SCORE.INTRA.DIHEDRAL>
0

>  <SCORE.INTRA.DIHEDRAL.0>
0

>  <SCORE.INTRA.POLAR>
0

>  <SCORE.INTRA.POLAR.0>
0

>  <SCORE.INTRA.REPUL>
0

>  <SCORE.INTRA.REPUL.0>
0

>  <SCORE.INTRA.SOLV>
0

>  <SCORE.INTRA.SOLV.lig_0>
-4.28148

>  <SCORE.INTRA.VDW>
0

>  <SCORE.INTRA.VDW.0>
0

>  <SCORE.INTRA.norm>
0

>  <SCORE.RESTR>
0

>  <SCORE.RESTR.CAVITY>
0

>  <SCORE.RESTR.norm>
0

>  <SCORE.SYSTEM>
0

>  <SCORE.SYSTEM.CONST>
0

>  <SCORE.SYSTEM.DIHEDRAL>
0

>  <SCORE.SYSTEM.SOLV>
0

>  <SCORE.SYSTEM.norm>
0

>  <SCORE.heavy>
10

>  <SCORE.norm>
-1.67452

>  <RMSD>
2.856

$$$$
ligand
 OpenBabel11021811423D
libRbt.so/2013.1/901 2013/11/27
 10 11  0  0  0  0  0  0  0  0999 V2000
   11.3759   10.9487    5.5866 N   0  0  0  0  0  0  0  0  0  0  0  0
   11.0842   12.2701    5.3138 C   0  0  0  0  0  0  0  0  0  0  0  0
   11.0902   13.2112    6.2660 N   0  0  0  0  0  0  0  0  0  0  0  0
   11.4056   12.7260    7.4998 C   0  0  0  0  0  0  0  0  0  0  0  0
   11.7061   11.4157    7.8401 C   0  0  0  0  0  0  0  0  0  0  0  0
   11.7039   10.4120    6.8337 C   0  0  0  0  0  0  0  0  0  0  0  0
   11.9382    9.2059    6.9113 O   0  0  0  0  0  0  0  0  0  0  0  0
   11.9628   11.3657    9.1891 N   0  0  0  0  0  0  0  0  0  0  0  0
   11.8194   12.6288    9.6542 C   0  0  0  0  0  0  0  0  0  0  0  0
   11.4752   13.4908    8.6391 N   0  0  0  0  0  0  0  0  0  0  0  0
  1  2  1  0  0  0  0
  1  6  1  0  0  0  0
  2  3  2  0  0  0  0
  3  4  1  0  0  0  0
  4  5  2  0  0  0  0
  4 10  1  0  0  0  0
  5  6  1  0  0  0  0
  5  8  1  0  0  0  0
  6  7  2  0  0  0  0
  8  9  1  0  0  0  0
  9 10  2  0  0  0  0
M  END
>  <CHROM.1>
11.56285824,11.71954095,7.36224191,1.67800751,1.31738092,-2.36164907

>  <Name>
ligand

>  <RI>
0

>  <Rbt.Current_Directory>
/home/itssahil/PROJECTS/Mol_Feturizer/New_Systems/rnas/2EEU

>  <Rbt.Executable>
rbdock ($Id: //depot/dev/client3/rdock/2013.1/src/exe/rbdock.cxx#4 $)

>  <Rbt.Library>
libRbt.so (2013.1, Build901 2013/11/27)

>  <Rbt.Parameter_File>
/export/apps/rDock/src/rDock_2013.1_src/data/scripts/dock_solv.prm

>  <Rbt.Receptor>
prm/blind_docking_40.prm

>  <SCORE>
-16.7654

>  <SCORE.INTER>
-16.7654

>  <SCORE.INTER.CONST>
1

>  <SCORE.INTER.POLAR>
0

>  <SCORE.INTER.ROT>
0

>  <SCORE.INTER.SOLV>
3.801

>  <SCORE.INTER.VDW>
-16.044

>  <SCORE.INTER.norm>
-1.67654

>  <SCORE.INTRA>
0

>  <SCORE.INTRA.DIHEDRAL>
0

>  <SCORE.INTRA.DIHEDRAL.0>
0

>  <SCORE.INTRA.POLAR>
0

>  <SCORE.INTRA.POLAR.0>
0

>  <SCORE.INTRA.REPUL>
0

>  <SCORE.INTRA.REPUL.0>
0

>  <SCORE.INTRA.SOLV>
0

>  <SCORE.INTRA.SOLV.lig_0>
-4.28148

>  <SCORE.INTRA.VDW>
0

>  <SCORE.INTRA.VDW.0>
0

>  <SCORE.INTRA.norm>
0

>  <SCORE.RESTR>
0

>  <SCORE.RESTR.CAVITY>
0

>  <SCORE.RESTR.norm>
0

>  <SCORE.SYSTEM>
0

>  <SCORE.SYSTEM.CONST>
0

>  <SCORE.SYSTEM.DIHEDRAL>
0

>  <SCORE.SYSTEM.SOLV>
0

>  <SCORE.SYSTEM.norm>
0

>  <SCORE.heavy>
10

>  <SCORE.norm>
-1.67654

>  <RMSD>
2.859

$$$$
ligand
 OpenBabel11021811423D
libRbt.so/2013.1/901 2013/11/27
 10 11  0  0  0  0  0  0  0  0999 V2000
   11.0978   12.9559    5.8404 N   0  0  0  0  0  0  0  0  0  0  0  0
   11.1428   13.5286    7.0956 C   0  0  0  0  0  0  0  0  0  0  0  0
   11.4137   12.8136    8.1945 N   0  0  0  0  0  0  0  0  0  0  0  0
   11.6303   11.4929    7.9371 C   0  0  0  0  0  0  0  0  0  0  0  0
   11.5985   10.8567    6.7054 C   0  0  0  0  0  0  0  0  0  0  0  0
   11.3139   11.6103    5.5342 C   0  0  0  0  0  0  0  0  0  0  0  0
   11.2371   11.2554    4.3579 O   0  0  0  0  0  0  0  0  0  0  0  0
   11.8718    9.5239    6.8982 N   0  0  0  0  0  0  0  0  0  0  0  0
   12.0662    9.3605    8.2278 C   0  0  0  0  0  0  0  0  0  0  0  0
   11.9232   10.5539    8.8964 N   0  0  0  0  0  0  0  0  0  0  0  0
  1  2  1  0  0  0  0
  1  6  1  0  0  0  0
  2  3  2  0  0  0  0
  3  4  1  0  0  0  0
  4  5  2  0  0  0  0
  4 10  1  0  0  0  0
  5  6  1  0  0  0  0
  5  8  1  0  0  0  0
  6  7  2  0  0  0  0
  8  9  1  0  0  0  0
  9 10  2  0  0  0  0
M  END
>  <CHROM.1>
11.52355194,11.39495914,6.91942725,2.82865080,1.35018249,-2.14751477

>  <Name>
ligand

>  <RI>
0

>  <Rbt.Current_Directory>
/home/itssahil/PROJECTS/Mol_Feturizer/New_Systems/rnas/2EEU

>  <Rbt.Executable>
rbdock ($Id: //depot/dev/client3/rdock/2013.1/src/exe/rbdock.cxx#4 $)

>  <Rbt.Library>
libRbt.so (2013.1, Build901 2013/11/27)

>  <Rbt.Parameter_File>
/export/apps/rDock/src/rDock_2013.1_src/data/scripts/dock_solv.prm

>  <Rbt.Receptor>
prm/blind_docking_40.prm

>  <SCORE>
-16.5876

>  <SCORE.INTER>
-16.5876

>  <SCORE.INTER.CONST>
1

>  <SCORE.INTER.POLAR>
0

>  <SCORE.INTER.ROT>
0

>  <SCORE.INTER.SOLV>
4.90513

>  <SCORE.INTER.VDW>
-16.2934

>  <SCORE.INTER.norm>
-1.65876

>  <SCORE.INTRA>
0

>  <SCORE.INTRA.DIHEDRAL>
0

>  <SCORE.INTRA.DIHEDRAL.0>
0

>  <SCORE.INTRA.POLAR>
0

>  <SCORE.INTRA.POLAR.0>
0

>  <SCORE.INTRA.REPUL>
0

>  <SCORE.INTRA.REPUL.0>
0

>  <SCORE.INTRA.SOLV>
0

>  <SCORE.INTRA.SOLV.lig_0>
-4.28148

>  <SCORE.INTRA.VDW>
0

>  <SCORE.INTRA.VDW.0>
0

>  <SCORE.INTRA.norm>
0

>  <SCORE.RESTR>
0

>  <SCORE.RESTR.CAVITY>
0

>  <SCORE.RESTR.norm>
0

>  <SCORE.SYSTEM>
0

>  <SCORE.SYSTEM.CONST>
0

>  <SCORE.SYSTEM.DIHEDRAL>
0

>  <SCORE.SYSTEM.SOLV>
0

>  <SCORE.SYSTEM.norm>
0

>  <SCORE.heavy>
10

>  <SCORE.norm>
-1.65876

>  <RMSD>
3.031

$$$$
ligand
 OpenBabel11021811423D
libRbt.so/2013.1/901 2013/11/27
 10 11  0  0  0  0  0  0  0  0999 V2000
   11.0915   12.9500    5.8442 N   0  0  0  0  0  0  0  0  0  0  0  0
   11.1175   13.5177    7.1022 C   0  0  0  0  0  0  0  0  0  0  0  0
   11.3792   12.7997    8.2014 N   0  0  0  0  0  0  0  0  0  0  0  0
   11.6073   11.4815    7.9412 C   0  0  0  0  0  0  0  0  0  0  0  0
   11.5946   10.8503    6.7065 C   0  0  0  0  0  0  0  0  0  0  0  0
   11.3198   11.6071    5.5351 C   0  0  0  0  0  0  0  0  0  0  0  0
   11.2597   11.2567    4.3565 O   0  0  0  0  0  0  0  0  0  0  0  0
   11.8738    9.5184    6.8972 N   0  0  0  0  0  0  0  0  0  0  0  0
   12.0528    9.3506    8.2284 C   0  0  0  0  0  0  0  0  0  0  0  0
   11.8941   10.5403    8.9001 N   0  0  0  0  0  0  0  0  0  0  0  0
  1  2  1  0  0  0  0
  1  6  1  0  0  0  0
  2  3  2  0  0  0  0
  3  4  1  0  0  0  0
  4  5  2  0  0  0  0
  4 10  1  0  0  0  0
  5  6  1  0  0  0  0
  5  8  1  0  0  0  0
  6  7  2  0  0  0  0
  8  9  1  0  0  0  0
  9 10  2  0  0  0  0
M  END
>  <CHROM.1>
11.51366209,11.38718184,6.92190616,2.76547728,1.35126339,-2.08167169

>  <Name>
ligand

>  <RI>
0

>  <Rbt.Current_Directory>
/home/itssahil/PROJECTS/Mol_Feturizer/New_Systems/rnas/2EEU

>  <Rbt.Executable>
rbdock ($Id: //depot/dev/client3/rdock/2013.1/src/exe/rbdock.cxx#4 $)

>  <Rbt.Library>
libRbt.so (2013.1, Build901 2013/11/27)

>  <Rbt.Parameter_File>
/export/apps/rDock/src/rDock_2013.1_src/data/scripts/dock_solv.prm

>  <Rbt.Receptor>
prm/blind_docking_40.prm

>  <SCORE>
-16.5833

>  <SCORE.INTER>
-16.5833

>  <SCORE.INTER.CONST>
1

>  <SCORE.INTER.POLAR>
0

>  <SCORE.INTER.ROT>
0

>  <SCORE.INTER.SOLV>
4.91135

>  <SCORE.INTER.VDW>
-16.2926

>  <SCORE.INTER.norm>
-1.65833

>  <SCORE.INTRA>
0

>  <SCORE.INTRA.DIHEDRAL>
0

>  <SCORE.INTRA.DIHEDRAL.0>
0

>  <SCORE.INTRA.POLAR>
0

>  <SCORE.INTRA.POLAR.0>
0

>  <SCORE.INTRA.REPUL>
0

>  <SCORE.INTRA.REPUL.0>
0

>  <SCORE.INTRA.SOLV>
0

>  <SCORE.INTRA.SOLV.lig_0>
-4.28148

>  <SCORE.INTRA.VDW>
0

>  <SCORE.INTRA.VDW.0>
0

>  <SCORE.INTRA.norm>
0

>  <SCORE.RESTR>
0

>  <SCORE.RESTR.CAVITY>
0

>  <SCORE.RESTR.norm>
0

>  <SCORE.SYSTEM>
0

>  <SCORE.SYSTEM.CONST>
0

>  <SCORE.SYSTEM.DIHEDRAL>
0

>  <SCORE.SYSTEM.SOLV>
0

>  <SCORE.SYSTEM.norm>
0

>  <SCORE.heavy>
10

>  <SCORE.norm>
-1.65833

>  <RMSD>
3.031

$$$$
ligand
 OpenBabel11021811423D
libRbt.so/2013.1/901 2013/11/27
 10 11  0  0  0  0  0  0  0  0999 V2000
   10.8401   12.8829    5.9350 N   0  0  0  0  0  0  0  0  0  0  0  0
   10.7243   13.3804    7.2174 C   0  0  0  0  0  0  0  0  0  0  0  0
   10.9973   12.6363    8.2964 N   0  0  0  0  0  0  0  0  0  0  0  0
   11.3884   11.3673    7.9897 C   0  0  0  0  0  0  0  0  0  0  0  0
   11.5231   10.8071    6.7285 C   0  0  0  0  0  0  0  0  0  0  0  0
   11.2372   11.5921    5.5785 C   0  0  0  0  0  0  0  0  0  0  0  0
   11.2898   11.3023    4.3832 O   0  0  0  0  0  0  0  0  0  0  0  0
   11.9387    9.5054    6.8739 N   0  0  0  0  0  0  0  0  0  0  0  0
   12.0532    9.2856    8.2047 C   0  0  0  0  0  0  0  0  0  0  0  0
   11.7202   10.4121    8.9200 N   0  0  0  0  0  0  0  0  0  0  0  0
  1  2  1  0  0  0  0
  1  6  1  0  0  0  0
  2  3  2  0  0  0  0
  3  4  1  0  0  0  0
  4  5  2  0  0  0  0
  4 10  1  0  0  0  0
  5  6  1  0  0  0  0
  5  8  1  0  0  0  0
  6  7  2  0  0  0  0
  8  9  1  0  0  0  0
  9 10  2  0  0  0  0
M  END
>  <CHROM.1>
11.36894892,11.31923228,6.96315075,2.39777408,1.26294389,-1.67470302

>  <Name>
ligand

>  <RI>
0

>  <Rbt.Current_Directory>
/home/itssahil/PROJECTS/Mol_Feturizer/New_Systems/rnas/2EEU

>  <Rbt.Executable>
rbdock ($Id: //depot/dev/client3/rdock/2013.1/src/exe/rbdock.cxx#4 $)

>  <Rbt.Library>
libRbt.so (2013.1, Build901 2013/11/27)

>  <Rbt.Parameter_File>
/export/apps/rDock/src/rDock_2013.1_src/data/scripts/dock_solv.prm

>  <Rbt.Receptor>
prm/blind_docking_20.prm

>  <SCORE>
-16.2705

>  <SCORE.INTER>
-16.2705

>  <SCORE.INTER.CONST>
1

>  <SCORE.INTER.POLAR>
0

>  <SCORE.INTER.ROT>
0

>  <SCORE.INTER.SOLV>
4.97758

>  <SCORE.INTER.VDW>
-16.1062

>  <SCORE.INTER.norm>
-1.62705

>  <SCORE.INTRA>
0

>  <SCORE.INTRA.DIHEDRAL>
0

>  <SCORE.INTRA.DIHEDRAL.0>
0

>  <SCORE.INTRA.POLAR>
0

>  <SCORE.INTRA.POLAR.0>
0

>  <SCORE.INTRA.REPUL>
0

>  <SCORE.INTRA.REPUL.0>
0

>  <SCORE.INTRA.SOLV>
0

>  <SCORE.INTRA.SOLV.lig_0>
-4.28148

>  <SCORE.INTRA.VDW>
0

>  <SCORE.INTRA.VDW.0>
0

>  <SCORE.INTRA.norm>
0

>  <SCORE.RESTR>
0

>  <SCORE.RESTR.CAVITY>
0

>  <SCORE.RESTR.norm>
0

>  <SCORE.SYSTEM>
0

>  <SCORE.SYSTEM.CONST>
0

>  <SCORE.SYSTEM.DIHEDRAL>
0

>  <SCORE.SYSTEM.SOLV>
0

>  <SCORE.SYSTEM.norm>
0

>  <SCORE.heavy>
10

>  <SCORE.norm>
-1.62705

>  <RMSD>
3.045

$$$$
ligand
 OpenBabel11021811423D
libRbt.so/2013.1/901 2013/11/27
 10 11  0  0  0  0  0  0  0  0999 V2000
   11.1141   13.4825    7.0102 N   0  0  0  0  0  0  0  0  0  0  0  0
   11.0515   12.9160    5.7529 C   0  0  0  0  0  0  0  0  0  0  0  0
   11.2798   11.6130    5.5477 N   0  0  0  0  0  0  0  0  0  0  0  0
   11.5752   10.9320    6.6907 C   0  0  0  0  0  0  0  0  0  0  0  0
   11.6554   11.4394    7.9787 C   0  0  0  0  0  0  0  0  0  0  0  0
   11.4119   12.8215    8.2041 C   0  0  0  0  0  0  0  0  0  0  0  0
   11.4282   13.4731    9.2485 O   0  0  0  0  0  0  0  0  0  0  0  0
   11.9798   10.4112    8.8307 N   0  0  0  0  0  0  0  0  0  0  0  0
   12.0925    9.3001    8.0658 C   0  0  0  0  0  0  0  0  0  0  0  0
   11.8507    9.5869    6.7425 N   0  0  0  0  0  0  0  0  0  0  0  0
  1  2  1  0  0  0  0
  1  6  1  0  0  0  0
  2  3  2  0  0  0  0
  3  4  1  0  0  0  0
  4  5  2  0  0  0  0
  4 10  1  0  0  0  0
  5  6  1  0  0  0  0
  5  8  1  0  0  0  0
  6  7  2  0  0  0  0
  8  9  1  0  0  0  0
  9 10  2  0  0  0  0
M  END
>  <CHROM.1>
11.54114852,11.63461656,7.44016609,2.48115307,-1.33234177,0.95737953

>  <Name>
ligand

>  <RI>
0

>  <Rbt.Current_Directory>
/home/itssahil/PROJECTS/Mol_Feturizer/New_Systems/rnas/2EEU

>  <Rbt.Executable>
rbdock ($Id: //depot/dev/client3/rdock/2013.1/src/exe/rbdock.cxx#4 $)

>  <Rbt.Library>
libRbt.so (2013.1, Build901 2013/11/27)

>  <Rbt.Parameter_File>
/export/apps/rDock/src/rDock_2013.1_src/data/scripts/dock_solv.prm

>  <Rbt.Receptor>
prm/pocket_docking_8.prm

>  <SCORE>
-16.6063

>  <SCORE.INTER>
-16.6063

>  <SCORE.INTER.CONST>
1

>  <SCORE.INTER.POLAR>
0

>  <SCORE.INTER.ROT>
0

>  <SCORE.INTER.SOLV>
3.98602

>  <SCORE.INTER.VDW>
-15.9995

>  <SCORE.INTER.norm>
-1.66063

>  <SCORE.INTRA>
0

>  <SCORE.INTRA.DIHEDRAL>
0

>  <SCORE.INTRA.DIHEDRAL.0>
0

>  <SCORE.INTRA.POLAR>
0

>  <SCORE.INTRA.POLAR.0>
0

>  <SCORE.INTRA.REPUL>
0

>  <SCORE.INTRA.REPUL.0>
0

>  <SCORE.INTRA.SOLV>
0

>  <SCORE.INTRA.SOLV.lig_0>
-4.28148

>  <SCORE.INTRA.VDW>
0

>  <SCORE.INTRA.VDW.0>
0

>  <SCORE.INTRA.norm>
0

>  <SCORE.RESTR>
0

>  <SCORE.RESTR.CAVITY>
0

>  <SCORE.RESTR.norm>
0

>  <SCORE.SYSTEM>
0

>  <SCORE.SYSTEM.CONST>
0

>  <SCORE.SYSTEM.DIHEDRAL>
0

>  <SCORE.SYSTEM.SOLV>
0

>  <SCORE.SYSTEM.norm>
0

>  <SCORE.heavy>
10

>  <SCORE.norm>
-1.66063

>  <RMSD>
3.345

$$$$
ligand
 OpenBabel11021811423D
libRbt.so/2013.1/901 2013/11/27
 10 11  0  0  0  0  0  0  0  0999 V2000
   11.1238   13.4836    6.9740 N   0  0  0  0  0  0  0  0  0  0  0  0
   11.0135   12.8993    5.7282 C   0  0  0  0  0  0  0  0  0  0  0  0
   11.2273   11.5921    5.5342 N   0  0  0  0  0  0  0  0  0  0  0  0
   11.5595   10.9261    6.6759 C   0  0  0  0  0  0  0  0  0  0  0  0
   11.6883   11.4516    7.9526 C   0  0  0  0  0  0  0  0  0  0  0  0
   11.4604   12.8383    8.1661 C   0  0  0  0  0  0  0  0  0  0  0  0
   11.5174   13.5048    9.1996 O   0  0  0  0  0  0  0  0  0  0  0  0
   12.0373   10.4340    8.8076 N   0  0  0  0  0  0  0  0  0  0  0  0
   12.1168    9.3113    8.0556 C   0  0  0  0  0  0  0  0  0  0  0  0
   11.8295    9.5803    6.7377 N   0  0  0  0  0  0  0  0  0  0  0  0
  1  2  1  0  0  0  0
  1  6  1  0  0  0  0
  2  3  2  0  0  0  0
  3  4  1  0  0  0  0
  4  5  2  0  0  0  0
  4 10  1  0  0  0  0
  5  6  1  0  0  0  0
  5  8  1  0  0  0  0
  6  7  2  0  0  0  0
  8  9  1  0  0  0  0
  9 10  2  0  0  0  0
M  END
>  <CHROM.1>
11.55600457,11.63968588,7.41565968,2.35386693,-1.31423021,0.81932837

>  <Name>
ligand

>  <RI>
0

>  <Rbt.Current_Directory>
/home/itssahil/PROJECTS/Mol_Feturizer/New_Systems/rnas/2EEU

>  <Rbt.Executable>
rbdock ($Id: //depot/dev/client3/rdock/2013.1/src/exe/rbdock.cxx#4 $)

>  <Rbt.Library>
libRbt.so (2013.1, Build901 2013/11/27)

>  <Rbt.Parameter_File>
/export/apps/rDock/src/rDock_2013.1_src/data/scripts/dock_solv.prm

>  <Rbt.Receptor>
prm/blind_docking_100.prm

>  <SCORE>
-16.584

>  <SCORE.INTER>
-16.584

>  <SCORE.INTER.CONST>
1

>  <SCORE.INTER.POLAR>
0

>  <SCORE.INTER.ROT>
0

>  <SCORE.INTER.SOLV>
3.97522

>  <SCORE.INTER.VDW>
-15.9811

>  <SCORE.INTER.norm>
-1.6584

>  <SCORE.INTRA>
0

>  <SCORE.INTRA.DIHEDRAL>
0

>  <SCORE.INTRA.DIHEDRAL.0>
0

>  <SCORE.INTRA.POLAR>
0

>  <SCORE.INTRA.POLAR.0>
0

>  <SCORE.INTRA.REPUL>
0

>  <SCORE.INTRA.REPUL.0>
0

>  <SCORE.INTRA.SOLV>
0

>  <SCORE.INTRA.SOLV.lig_0>
-4.28148

>  <SCORE.INTRA.VDW>
0

>  <SCORE.INTRA.VDW.0>
0

>  <SCORE.INTRA.norm>
0

>  <SCORE.RESTR>
0

>  <SCORE.RESTR.CAVITY>
0

>  <SCORE.RESTR.norm>
0

>  <SCORE.SYSTEM>
0

>  <SCORE.SYSTEM.CONST>
0

>  <SCORE.SYSTEM.DIHEDRAL>
0

>  <SCORE.SYSTEM.SOLV>
0

>  <SCORE.SYSTEM.norm>
0

>  <SCORE.heavy>
10

>  <SCORE.norm>
-1.6584

>  <RMSD>
3.349

$$$$
ligand
 OpenBabel11021811423D
libRbt.so/2013.1/901 2013/11/27
 10 11  0  0  0  0  0  0  0  0999 V2000
   11.0404   13.4488    7.0285 N   0  0  0  0  0  0  0  0  0  0  0  0
   10.9946   12.8823    5.7705 C   0  0  0  0  0  0  0  0  0  0  0  0
   11.2552   11.5854    5.5645 N   0  0  0  0  0  0  0  0  0  0  0  0
   11.5647   10.9107    6.7074 C   0  0  0  0  0  0  0  0  0  0  0  0
   11.6295   11.4186    7.9961 C   0  0  0  0  0  0  0  0  0  0  0  0
   11.3516   12.7941    8.2224 C   0  0  0  0  0  0  0  0  0  0  0  0
   11.3496   13.4447    9.2675 O   0  0  0  0  0  0  0  0  0  0  0  0
   11.9771   10.3978    8.8479 N   0  0  0  0  0  0  0  0  0  0  0  0
   12.1188    9.2905    8.0821 C   0  0  0  0  0  0  0  0  0  0  0  0
   11.8730    9.5728    6.7586 N   0  0  0  0  0  0  0  0  0  0  0  0
  1  2  1  0  0  0  0
  1  6  1  0  0  0  0
  2  3  2  0  0  0  0
  3  4  1  0  0  0  0
  4  5  2  0  0  0  0
  4 10  1  0  0  0  0
  5  6  1  0  0  0  0
  5  8  1  0  0  0  0
  6  7  2  0  0  0  0
  8  9  1  0  0  0  0
  9 10  2  0  0  0  0
M  END
>  <CHROM.1>
11.51170249,11.61149635,7.45756458,2.54390842,-1.31307996,1.01924737

>  <Name>
ligand

>  <RI>
0

>  <Rbt.Current_Directory>
/home/itssahil/PROJECTS/Mol_Feturizer/New_Systems/rnas/2EEU

>  <Rbt.Executable>
rbdock ($Id: //depot/dev/client3/rdock/2013.1/src/exe/rbdock.cxx#4 $)

>  <Rbt.Library>
libRbt.so (2013.1, Build901 2013/11/27)

>  <Rbt.Parameter_File>
/export/apps/rDock/src/rDock_2013.1_src/data/scripts/dock_solv.prm

>  <Rbt.Receptor>
prm/pocket_docking_8.prm

>  <SCORE>
-16.629

>  <SCORE.INTER>
-16.629

>  <SCORE.INTER.CONST>
1

>  <SCORE.INTER.POLAR>
0

>  <SCORE.INTER.ROT>
0

>  <SCORE.INTER.SOLV>
3.96169

>  <SCORE.INTER.VDW>
-16.0065

>  <SCORE.INTER.norm>
-1.6629

>  <SCORE.INTRA>
0

>  <SCORE.INTRA.DIHEDRAL>
0

>  <SCORE.INTRA.DIHEDRAL.0>
0

>  <SCORE.INTRA.POLAR>
0

>  <SCORE.INTRA.POLAR.0>
0

>  <SCORE.INTRA.REPUL>
0

>  <SCORE.INTRA.REPUL.0>
0

>  <SCORE.INTRA.SOLV>
0

>  <SCORE.INTRA.SOLV.lig_0>
-4.28148

>  <SCORE.INTRA.VDW>
0

>  <SCORE.INTRA.VDW.0>
0

>  <SCORE.INTRA.norm>
0

>  <SCORE.RESTR>
0

>  <SCORE.RESTR.CAVITY>
0

>  <SCORE.RESTR.norm>
0

>  <SCORE.SYSTEM>
0

>  <SCORE.SYSTEM.CONST>
0

>  <SCORE.SYSTEM.DIHEDRAL>
0

>  <SCORE.SYSTEM.SOLV>
0

>  <SCORE.SYSTEM.norm>
0

>  <SCORE.heavy>
10

>  <SCORE.norm>
-1.6629

>  <RMSD>
3.351

$$$$
ligand
 OpenBabel11021811423D
libRbt.so/2013.1/901 2013/11/27
 10 11  0  0  0  0  0  0  0  0999 V2000
   11.1031   13.4680    6.9939 N   0  0  0  0  0  0  0  0  0  0  0  0
   11.0471   12.8934    5.7400 C   0  0  0  0  0  0  0  0  0  0  0  0
   11.2823   11.5902    5.5436 N   0  0  0  0  0  0  0  0  0  0  0  0
   11.5776   10.9178    6.6916 C   0  0  0  0  0  0  0  0  0  0  0  0
   11.6515   11.4336    7.9767 C   0  0  0  0  0  0  0  0  0  0  0  0
   11.4006   12.8159    8.1928 C   0  0  0  0  0  0  0  0  0  0  0  0
   11.4106   13.4739    9.2331 O   0  0  0  0  0  0  0  0  0  0  0  0
   11.9784   10.4123    8.8360 N   0  0  0  0  0  0  0  0  0  0  0  0
   12.0988    9.2970    8.0784 C   0  0  0  0  0  0  0  0  0  0  0  0
   11.8596    9.5745    6.7526 N   0  0  0  0  0  0  0  0  0  0  0  0
  1  2  1  0  0  0  0
  1  6  1  0  0  0  0
  2  3  2  0  0  0  0
  3  4  1  0  0  0  0
  4  5  2  0  0  0  0
  4 10  1  0  0  0  0
  5  6  1  0  0  0  0
  5  8  1  0  0  0  0
  6  7  2  0  0  0  0
  8  9  1  0  0  0  0
  9 10  2  0  0  0  0
M  END
>  <CHROM.1>
11.53793449,11.62490438,7.43661450,2.50326772,-1.33001338,0.97265687

>  <Name>
ligand

>  <RI>
0

>  <Rbt.Current_Directory>
/home/itssahil/PROJECTS/Mol_Feturizer/New_Systems/rnas/2EEU

>  <Rbt.Executable>
rbdock ($Id: //depot/dev/client3/rdock/2013.1/src/exe/rbdock.cxx#4 $)

>  <Rbt.Library>
libRbt.so (2013.1, Build901 2013/11/27)

>  <Rbt.Parameter_File>
/export/apps/rDock/src/rDock_2013.1_src/data/scripts/dock_solv.prm

>  <Rbt.Receptor>
prm/blind_docking_80.prm

>  <SCORE>
-16.6113

>  <SCORE.INTER>
-16.6113

>  <SCORE.INTER.CONST>
1

>  <SCORE.INTER.POLAR>
0

>  <SCORE.INTER.ROT>
0

>  <SCORE.INTER.SOLV>
3.98951

>  <SCORE.INTER.VDW>
-16.004

>  <SCORE.INTER.norm>
-1.66113

>  <SCORE.INTRA>
0

>  <SCORE.INTRA.DIHEDRAL>
0

>  <SCORE.INTRA.DIHEDRAL.0>
0

>  <SCORE.INTRA.POLAR>
0

>  <SCORE.INTRA.POLAR.0>
0

>  <SCORE.INTRA.REPUL>
0

>  <SCORE.INTRA.REPUL.0>
0

>  <SCORE.INTRA.SOLV>
0

>  <SCORE.INTRA.SOLV.lig_0>
-4.28148

>  <SCORE.INTRA.VDW>
0

>  <SCORE.INTRA.VDW.0>
0

>  <SCORE.INTRA.norm>
0

>  <SCORE.RESTR>
0

>  <SCORE.RESTR.CAVITY>
0

>  <SCORE.RESTR.norm>
0

>  <SCORE.SYSTEM>
0

>  <SCORE.SYSTEM.CONST>
0

>  <SCORE.SYSTEM.DIHEDRAL>
0

>  <SCORE.SYSTEM.SOLV>
0

>  <SCORE.SYSTEM.norm>
0

>  <SCORE.heavy>
10

>  <SCORE.norm>
-1.66113

>  <RMSD>
3.352

$$$$
ligand
 OpenBabel11021811423D
libRbt.so/2013.1/901 2013/11/27
 10 11  0  0  0  0  0  0  0  0999 V2000
   11.1164   13.4633    7.0057 N   0  0  0  0  0  0  0  0  0  0  0  0
   11.0270   12.8724    5.7613 C   0  0  0  0  0  0  0  0  0  0  0  0
   11.2345   11.5625    5.5793 N   0  0  0  0  0  0  0  0  0  0  0  0
   11.5382   10.9007    6.7313 C   0  0  0  0  0  0  0  0  0  0  0  0
   11.6450   11.4329    8.0073 C   0  0  0  0  0  0  0  0  0  0  0  0
   11.4237   12.8225    8.2081 C   0  0  0  0  0  0  0  0  0  0  0  0
   11.4648   13.4947    9.2387 O   0  0  0  0  0  0  0  0  0  0  0  0
   11.9686   10.4178    8.8752 N   0  0  0  0  0  0  0  0  0  0  0  0
   12.0547    9.2900    8.1315 C   0  0  0  0  0  0  0  0  0  0  0  0
   11.7965    9.5533    6.8064 N   0  0  0  0  0  0  0  0  0  0  0  0
  1  2  1  0  0  0  0
  1  6  1  0  0  0  0
  2  3  2  0  0  0  0
  3  4  1  0  0  0  0
  4  5  2  0  0  0  0
  4 10  1  0  0  0  0
  5  6  1  0  0  0  0
  5  8  1  0  0  0  0
  6  7  2  0  0  0  0
  8  9  1  0  0  0  0
  9 10  2  0  0  0  0
M  END
>  <CHROM.1>
11.52519006,11.61875616,7.46672266,2.39460704,-1.33363235,0.85296251

>  <Name>
ligand

>  <RI>
0

>  <Rbt.Current_Directory>
/home/itssahil/PROJECTS/Mol_Feturizer/New_Systems/rnas/2EEU

>  <Rbt.Executable>
rbdock ($Id: //depot/dev/client3/rdock/2013.1/src/exe/rbdock.cxx#4 $)

>  <Rbt.Library>
libRbt.so (2013.1, Build901 2013/11/27)

>  <Rbt.Parameter_File>
/export/apps/rDock/src/rDock_2013.1_src/data/scripts/dock_solv.prm

>  <Rbt.Receptor>
prm/blind_docking_100.prm

>  <SCORE>
-16.5581

>  <SCORE.INTER>
-16.5581

>  <SCORE.INTER.CONST>
1

>  <SCORE.INTER.POLAR>
0

>  <SCORE.INTER.ROT>
0

>  <SCORE.INTER.SOLV>
4.01959

>  <SCORE.INTER.VDW>
-15.9786

>  <SCORE.INTER.norm>
-1.65581

>  <SCORE.INTRA>
0

>  <SCORE.INTRA.DIHEDRAL>
0

>  <SCORE.INTRA.DIHEDRAL.0>
0

>  <SCORE.INTRA.POLAR>
0

>  <SCORE.INTRA.POLAR.0>
0

>  <SCORE.INTRA.REPUL>
0

>  <SCORE.INTRA.REPUL.0>
0

>  <SCORE.INTRA.SOLV>
0

>  <SCORE.INTRA.SOLV.lig_0>
-4.28148

>  <SCORE.INTRA.VDW>
0

>  <SCORE.INTRA.VDW.0>
0

>  <SCORE.INTRA.norm>
0

>  <SCORE.RESTR>
0

>  <SCORE.RESTR.CAVITY>
0

>  <SCORE.RESTR.norm>
0

>  <SCORE.SYSTEM>
0

>  <SCORE.SYSTEM.CONST>
0

>  <SCORE.SYSTEM.DIHEDRAL>
0

>  <SCORE.SYSTEM.SOLV>
0

>  <SCORE.SYSTEM.norm>
0

>  <SCORE.heavy>
10

>  <SCORE.norm>
-1.65581

>  <RMSD>
3.358

$$$$
ligand
 OpenBabel11021811423D
libRbt.so/2013.1/901 2013/11/27
 10 11  0  0  0  0  0  0  0  0999 V2000
   11.0888   13.4452    7.0174 N   0  0  0  0  0  0  0  0  0  0  0  0
   11.0699   12.8695    5.7628 C   0  0  0  0  0  0  0  0  0  0  0  0
   11.3132   11.5666    5.5743 N   0  0  0  0  0  0  0  0  0  0  0  0
   11.5767   10.8957    6.7309 C   0  0  0  0  0  0  0  0  0  0  0  0
   11.6127   11.4126    8.0171 C   0  0  0  0  0  0  0  0  0  0  0  0
   11.3531   12.7946    8.2248 C   0  0  0  0  0  0  0  0  0  0  0  0
   11.3320   13.4534    9.2645 O   0  0  0  0  0  0  0  0  0  0  0  0
   11.9168   10.3926    8.8864 N   0  0  0  0  0  0  0  0  0  0  0  0
   12.0611    9.2770    8.1334 C   0  0  0  0  0  0  0  0  0  0  0  0
   11.8594    9.5529    6.8011 N   0  0  0  0  0  0  0  0  0  0  0  0
  1  2  1  0  0  0  0
  1  6  1  0  0  0  0
  2  3  2  0  0  0  0
  3  4  1  0  0  0  0
  4  5  2  0  0  0  0
  4 10  1  0  0  0  0
  5  6  1  0  0  0  0
  5  8  1  0  0  0  0
  6  7  2  0  0  0  0
  8  9  1  0  0  0  0
  9 10  2  0  0  0  0
M  END
>  <CHROM.1>
11.51431906,11.60325184,7.47386997,2.61326802,-1.34324528,1.07885356

>  <Name>
ligand

>  <RI>
0

>  <Rbt.Current_Directory>
/home/itssahil/PROJECTS/Mol_Feturizer/New_Systems/rnas/2EEU

>  <Rbt.Executable>
rbdock ($Id: //depot/dev/client3/rdock/2013.1/src/exe/rbdock.cxx#4 $)

>  <Rbt.Library>
libRbt.so (2013.1, Build901 2013/11/27)

>  <Rbt.Parameter_File>
/export/apps/rDock/src/rDock_2013.1_src/data/scripts/dock_solv.prm

>  <Rbt.Receptor>
prm/blind_docking_80.prm

>  <SCORE>
-16.5569

>  <SCORE.INTER>
-16.5569

>  <SCORE.INTER.CONST>
1

>  <SCORE.INTER.POLAR>
0

>  <SCORE.INTER.ROT>
0

>  <SCORE.INTER.SOLV>
4.01434

>  <SCORE.INTER.VDW>
-15.976

>  <SCORE.INTER.norm>
-1.65569

>  <SCORE.INTRA>
0

>  <SCORE.INTRA.DIHEDRAL>
0

>  <SCORE.INTRA.DIHEDRAL.0>
0

>  <SCORE.INTRA.POLAR>
0

>  <SCORE.INTRA.POLAR.0>
0

>  <SCORE.INTRA.REPUL>
0

>  <SCORE.INTRA.REPUL.0>
0

>  <SCORE.INTRA.SOLV>
0

>  <SCORE.INTRA.SOLV.lig_0>
-4.28148

>  <SCORE.INTRA.VDW>
0

>  <SCORE.INTRA.VDW.0>
0

>  <SCORE.INTRA.norm>
0

>  <SCORE.RESTR>
0

>  <SCORE.RESTR.CAVITY>
0

>  <SCORE.RESTR.norm>
0

>  <SCORE.SYSTEM>
0

>  <SCORE.SYSTEM.CONST>
0

>  <SCORE.SYSTEM.DIHEDRAL>
0

>  <SCORE.SYSTEM.SOLV>
0

>  <SCORE.SYSTEM.norm>
0

>  <SCORE.heavy>
10

>  <SCORE.norm>
-1.65569

>  <RMSD>
3.360

$$$$
ligand
 OpenBabel11021811423D
libRbt.so/2013.1/901 2013/11/27
 10 11  0  0  0  0  0  0  0  0999 V2000
   11.1164   13.4630    6.9144 N   0  0  0  0  0  0  0  0  0  0  0  0
   11.0251   12.8544    5.6788 C   0  0  0  0  0  0  0  0  0  0  0  0
   11.2390   11.5431    5.5141 N   0  0  0  0  0  0  0  0  0  0  0  0
   11.5511   10.8992    6.6740 C   0  0  0  0  0  0  0  0  0  0  0  0
   11.6601   11.4496    7.9421 C   0  0  0  0  0  0  0  0  0  0  0  0
   11.4320   12.8407    8.1244 C   0  0  0  0  0  0  0  0  0  0  0  0
   11.4736   13.5274    9.1453 O   0  0  0  0  0  0  0  0  0  0  0  0
   11.9928   10.4485    8.8226 N   0  0  0  0  0  0  0  0  0  0  0  0
   12.0820    9.3109    8.0943 C   0  0  0  0  0  0  0  0  0  0  0  0
   11.8170    9.5544    6.7668 N   0  0  0  0  0  0  0  0  0  0  0  0
  1  2  1  0  0  0  0
  1  6  1  0  0  0  0
  2  3  2  0  0  0  0
  3  4  1  0  0  0  0
  4  5  2  0  0  0  0
  4 10  1  0  0  0  0
  5  6  1  0  0  0  0
  5  8  1  0  0  0  0
  6  7  2  0  0  0  0
  8  9  1  0  0  0  0
  9 10  2  0  0  0  0
M  END
>  <CHROM.1>
11.53708077,11.62728758,7.39940869,2.39688891,-1.32684409,0.84124253

>  <Name>
ligand

>  <RI>
0

>  <Rbt.Current_Directory>
/home/itssahil/PROJECTS/Mol_Feturizer/New_Systems/rnas/2EEU

>  <Rbt.Executable>
rbdock ($Id: //depot/dev/client3/rdock/2013.1/src/exe/rbdock.cxx#4 $)

>  <Rbt.Library>
libRbt.so (2013.1, Build901 2013/11/27)

>  <Rbt.Parameter_File>
/export/apps/rDock/src/rDock_2013.1_src/data/scripts/dock_solv.prm

>  <Rbt.Receptor>
prm/blind_docking_80.prm

>  <SCORE>
-16.6053

>  <SCORE.INTER>
-16.6053

>  <SCORE.INTER.CONST>
1

>  <SCORE.INTER.POLAR>
0

>  <SCORE.INTER.ROT>
0

>  <SCORE.INTER.SOLV>
4.01999

>  <SCORE.INTER.VDW>
-16.0102

>  <SCORE.INTER.norm>
-1.66053

>  <SCORE.INTRA>
0

>  <SCORE.INTRA.DIHEDRAL>
0

>  <SCORE.INTRA.DIHEDRAL.0>
0

>  <SCORE.INTRA.POLAR>
0

>  <SCORE.INTRA.POLAR.0>
0

>  <SCORE.INTRA.REPUL>
0

>  <SCORE.INTRA.REPUL.0>
0

>  <SCORE.INTRA.SOLV>
0

>  <SCORE.INTRA.SOLV.lig_0>
-4.28148

>  <SCORE.INTRA.VDW>
0

>  <SCORE.INTRA.VDW.0>
0

>  <SCORE.INTRA.norm>
0

>  <SCORE.RESTR>
0

>  <SCORE.RESTR.CAVITY>
0

>  <SCORE.RESTR.norm>
0

>  <SCORE.SYSTEM>
0

>  <SCORE.SYSTEM.CONST>
0

>  <SCORE.SYSTEM.DIHEDRAL>
0

>  <SCORE.SYSTEM.SOLV>
0

>  <SCORE.SYSTEM.norm>
0

>  <SCORE.heavy>
10

>  <SCORE.norm>
-1.66053

>  <RMSD>
3.370

$$$$
ligand
 OpenBabel11021811423D
libRbt.so/2013.1/901 2013/11/27
 10 11  0  0  0  0  0  0  0  0999 V2000
   11.1295   13.4643    6.9116 N   0  0  0  0  0  0  0  0  0  0  0  0
   11.0420   12.8551    5.6760 C   0  0  0  0  0  0  0  0  0  0  0  0
   11.2518   11.5430    5.5133 N   0  0  0  0  0  0  0  0  0  0  0  0
   11.5557   10.8987    6.6752 C   0  0  0  0  0  0  0  0  0  0  0  0
   11.6606   11.4497    7.9434 C   0  0  0  0  0  0  0  0  0  0  0  0
   11.4368   12.8418    8.1236 C   0  0  0  0  0  0  0  0  0  0  0  0
   11.4759   13.5291    9.1442 O   0  0  0  0  0  0  0  0  0  0  0  0
   11.9852   10.4479    8.8263 N   0  0  0  0  0  0  0  0  0  0  0  0
   12.0737    9.3095    8.0992 C   0  0  0  0  0  0  0  0  0  0  0  0
   11.8161    9.5530    6.7703 N   0  0  0  0  0  0  0  0  0  0  0  0
  1  2  1  0  0  0  0
  1  6  1  0  0  0  0
  2  3  2  0  0  0  0
  3  4  1  0  0  0  0
  4  5  2  0  0  0  0
  4 10  1  0  0  0  0
  5  6  1  0  0  0  0
  5  8  1  0  0  0  0
  6  7  2  0  0  0  0
  8  9  1  0  0  0  0
  9 10  2  0  0  0  0
M  END
>  <CHROM.1>
11.54088659,11.62741663,7.39998535,2.40189146,-1.33292777,0.84537930

>  <Name>
ligand

>  <RI>
0

>  <Rbt.Current_Directory>
/home/itssahil/PROJECTS/Mol_Feturizer/New_Systems/rnas/2EEU

>  <Rbt.Executable>
rbdock ($Id: //depot/dev/client3/rdock/2013.1/src/exe/rbdock.cxx#4 $)

>  <Rbt.Library>
libRbt.so (2013.1, Build901 2013/11/27)

>  <Rbt.Parameter_File>
/export/apps/rDock/src/rDock_2013.1_src/data/scripts/dock_solv.prm

>  <Rbt.Receptor>
prm/blind_docking_80.prm

>  <SCORE>
-16.6088

>  <SCORE.INTER>
-16.6088

>  <SCORE.INTER.CONST>
1

>  <SCORE.INTER.POLAR>
0

>  <SCORE.INTER.ROT>
0

>  <SCORE.INTER.SOLV>
4.02683

>  <SCORE.INTER.VDW>
-16.0148

>  <SCORE.INTER.norm>
-1.66088

>  <SCORE.INTRA>
0

>  <SCORE.INTRA.DIHEDRAL>
0

>  <SCORE.INTRA.DIHEDRAL.0>
0

>  <SCORE.INTRA.POLAR>
0

>  <SCORE.INTRA.POLAR.0>
0

>  <SCORE.INTRA.REPUL>
0

>  <SCORE.INTRA.REPUL.0>
0

>  <SCORE.INTRA.SOLV>
0

>  <SCORE.INTRA.SOLV.lig_0>
-4.28148

>  <SCORE.INTRA.VDW>
0

>  <SCORE.INTRA.VDW.0>
0

>  <SCORE.INTRA.norm>
0

>  <SCORE.RESTR>
0

>  <SCORE.RESTR.CAVITY>
0

>  <SCORE.RESTR.norm>
0

>  <SCORE.SYSTEM>
0

>  <SCORE.SYSTEM.CONST>
0

>  <SCORE.SYSTEM.DIHEDRAL>
0

>  <SCORE.SYSTEM.SOLV>
0

>  <SCORE.SYSTEM.norm>
0

>  <SCORE.heavy>
10

>  <SCORE.norm>
-1.66088

>  <RMSD>
3.371

$$$$
ligand
 OpenBabel11021811423D
libRbt.so/2013.1/901 2013/11/27
 10 11  0  0  0  0  0  0  0  0999 V2000
   11.1255   13.4616    6.9049 N   0  0  0  0  0  0  0  0  0  0  0  0
   11.0415   12.8502    5.6701 C   0  0  0  0  0  0  0  0  0  0  0  0
   11.2553   11.5384    5.5098 N   0  0  0  0  0  0  0  0  0  0  0  0
   11.5593   10.8968    6.6731 C   0  0  0  0  0  0  0  0  0  0  0  0
   11.6608   11.4501    7.9406 C   0  0  0  0  0  0  0  0  0  0  0  0
   11.4328   12.8418    8.1183 C   0  0  0  0  0  0  0  0  0  0  0  0
   11.4686   13.5308    9.1379 O   0  0  0  0  0  0  0  0  0  0  0  0
   11.9869   10.4506    8.8255 N   0  0  0  0  0  0  0  0  0  0  0  0
   12.0797    9.3113    8.1005 C   0  0  0  0  0  0  0  0  0  0  0  0
   11.8233    9.5520    6.7707 N   0  0  0  0  0  0  0  0  0  0  0  0
  1  2  1  0  0  0  0
  1  6  1  0  0  0  0
  2  3  2  0  0  0  0
  3  4  1  0  0  0  0
  4  5  2  0  0  0  0
  4 10  1  0  0  0  0
  5  6  1  0  0  0  0
  5  8  1  0  0  0  0
  6  7  2  0  0  0  0
  8  9  1  0  0  0  0
  9 10  2  0  0  0  0
M  END
>  <CHROM.1>
11.54137453,11.62661050,7.39677511,2.41431143,-1.33176463,0.85586300

>  <Name>
ligand

>  <RI>
0

>  <Rbt.Current_Directory>
/home/itssahil/PROJECTS/Mol_Feturizer/New_Systems/rnas/2EEU

>  <Rbt.Executable>
rbdock ($Id: //depot/dev/client3/rdock/2013.1/src/exe/rbdock.cxx#4 $)

>  <Rbt.Library>
libRbt.so (2013.1, Build901 2013/11/27)

>  <Rbt.Parameter_File>
/export/apps/rDock/src/rDock_2013.1_src/data/scripts/dock_solv.prm

>  <Rbt.Receptor>
prm/pocket_docking_8.prm

>  <SCORE>
-16.6085

>  <SCORE.INTER>
-16.6085

>  <SCORE.INTER.CONST>
1

>  <SCORE.INTER.POLAR>
0

>  <SCORE.INTER.ROT>
0

>  <SCORE.INTER.SOLV>
4.02768

>  <SCORE.INTER.VDW>
-16.0149

>  <SCORE.INTER.norm>
-1.66085

>  <SCORE.INTRA>
0

>  <SCORE.INTRA.DIHEDRAL>
0

>  <SCORE.INTRA.DIHEDRAL.0>
0

>  <SCORE.INTRA.POLAR>
0

>  <SCORE.INTRA.POLAR.0>
0

>  <SCORE.INTRA.REPUL>
0

>  <SCORE.INTRA.REPUL.0>
0

>  <SCORE.INTRA.SOLV>
0

>  <SCORE.INTRA.SOLV.lig_0>
-4.28148

>  <SCORE.INTRA.VDW>
0

>  <SCORE.INTRA.VDW.0>
0

>  <SCORE.INTRA.norm>
0

>  <SCORE.RESTR>
0

>  <SCORE.RESTR.CAVITY>
0

>  <SCORE.RESTR.norm>
0

>  <SCORE.SYSTEM>
0

>  <SCORE.SYSTEM.CONST>
0

>  <SCORE.SYSTEM.DIHEDRAL>
0

>  <SCORE.SYSTEM.SOLV>
0

>  <SCORE.SYSTEM.norm>
0

>  <SCORE.heavy>
10

>  <SCORE.norm>
-1.66085

>  <RMSD>
3.373

$$$$
ligand
 OpenBabel11021811423D
libRbt.so/2013.1/901 2013/11/27
 10 11  0  0  0  0  0  0  0  0999 V2000
   11.0742   13.4633    6.8872 N   0  0  0  0  0  0  0  0  0  0  0  0
   11.0116   12.8508    5.6517 C   0  0  0  0  0  0  0  0  0  0  0  0
   11.2456   11.5422    5.4937 N   0  0  0  0  0  0  0  0  0  0  0  0
   11.5468   10.9050    6.6602 C   0  0  0  0  0  0  0  0  0  0  0  0
   11.6274   11.4595    7.9285 C   0  0  0  0  0  0  0  0  0  0  0  0
   11.3778   12.8479    8.1038 C   0  0  0  0  0  0  0  0  0  0  0  0
   11.3933   13.5373    9.1236 O   0  0  0  0  0  0  0  0  0  0  0  0
   11.9586   10.4648    8.8169 N   0  0  0  0  0  0  0  0  0  0  0  0
   12.0750    9.3269    8.0929 C   0  0  0  0  0  0  0  0  0  0  0  0
   11.8289    9.5640    6.7606 N   0  0  0  0  0  0  0  0  0  0  0  0
  1  2  1  0  0  0  0
  1  6  1  0  0  0  0
  2  3  2  0  0  0  0
  3  4  1  0  0  0  0
  4  5  2  0  0  0  0
  4 10  1  0  0  0  0
  5  6  1  0  0  0  0
  5  8  1  0  0  0  0
  6  7  2  0  0  0  0
  8  9  1  0  0  0  0
  9 10  2  0  0  0  0
M  END
>  <CHROM.1>
11.51104209,11.63438913,7.38350258,2.48518087,-1.32715468,0.92467041

>  <Name>
ligand

>  <RI>
0

>  <Rbt.Current_Directory>
/home/itssahil/PROJECTS/Mol_Feturizer/New_Systems/rnas/2EEU

>  <Rbt.Executable>
rbdock ($Id: //depot/dev/client3/rdock/2013.1/src/exe/rbdock.cxx#4 $)

>  <Rbt.Library>
libRbt.so (2013.1, Build901 2013/11/27)

>  <Rbt.Parameter_File>
/export/apps/rDock/src/rDock_2013.1_src/data/scripts/dock_solv.prm

>  <Rbt.Receptor>
prm/pocket_docking_7.prm

>  <SCORE>
-16.5679

>  <SCORE.INTER>
-16.5679

>  <SCORE.INTER.CONST>
1

>  <SCORE.INTER.POLAR>
0

>  <SCORE.INTER.ROT>
0

>  <SCORE.INTER.SOLV>
4.03562

>  <SCORE.INTER.VDW>
-15.9905

>  <SCORE.INTER.norm>
-1.65679

>  <SCORE.INTRA>
0

>  <SCORE.INTRA.DIHEDRAL>
0

>  <SCORE.INTRA.DIHEDRAL.0>
0

>  <SCORE.INTRA.POLAR>
0

>  <SCORE.INTRA.POLAR.0>
0

>  <SCORE.INTRA.REPUL>
0

>  <SCORE.INTRA.REPUL.0>
0

>  <SCORE.INTRA.SOLV>
0

>  <SCORE.INTRA.SOLV.lig_0>
-4.28148

>  <SCORE.INTRA.VDW>
0

>  <SCORE.INTRA.VDW.0>
0

>  <SCORE.INTRA.norm>
0

>  <SCORE.RESTR>
0

>  <SCORE.RESTR.CAVITY>
0

>  <SCORE.RESTR.norm>
0

>  <SCORE.SYSTEM>
0

>  <SCORE.SYSTEM.CONST>
0

>  <SCORE.SYSTEM.DIHEDRAL>
0

>  <SCORE.SYSTEM.SOLV>
0

>  <SCORE.SYSTEM.norm>
0

>  <SCORE.heavy>
10

>  <SCORE.norm>
-1.65679

>  <RMSD>
3.378

$$$$
ligand
 OpenBabel11021811423D
libRbt.so/2013.1/901 2013/11/27
 10 11  0  0  0  0  0  0  0  0999 V2000
   11.1165   13.4531    6.8750 N   0  0  0  0  0  0  0  0  0  0  0  0
   11.0568   12.8318    5.6438 C   0  0  0  0  0  0  0  0  0  0  0  0
   11.2871   11.5213    5.4964 N   0  0  0  0  0  0  0  0  0  0  0  0
   11.5817   10.8917    6.6687 C   0  0  0  0  0  0  0  0  0  0  0  0
   11.6591   11.4553    7.9333 C   0  0  0  0  0  0  0  0  0  0  0  0
   11.4134   12.8457    8.0973 C   0  0  0  0  0  0  0  0  0  0  0  0
   11.4271   13.5426    9.1120 O   0  0  0  0  0  0  0  0  0  0  0  0
   11.9836   10.4661    8.8302 N   0  0  0  0  0  0  0  0  0  0  0  0
   12.0991    9.3226    8.1150 C   0  0  0  0  0  0  0  0  0  0  0  0
   11.8590    9.5506    6.7801 N   0  0  0  0  0  0  0  0  0  0  0  0
  1  2  1  0  0  0  0
  1  6  1  0  0  0  0
  2  3  2  0  0  0  0
  3  4  1  0  0  0  0
  4  5  2  0  0  0  0
  4 10  1  0  0  0  0
  5  6  1  0  0  0  0
  5  8  1  0  0  0  0
  6  7  2  0  0  0  0
  8  9  1  0  0  0  0
  9 10  2  0  0  0  0
M  END
>  <CHROM.1>
11.54549467,11.62653160,7.38649265,2.49003423,-1.33211398,0.92201367

>  <Name>
ligand

>  <RI>
0

>  <Rbt.Current_Directory>
/home/itssahil/PROJECTS/Mol_Feturizer/New_Systems/rnas/2EEU

>  <Rbt.Executable>
rbdock ($Id: //depot/dev/client3/rdock/2013.1/src/exe/rbdock.cxx#4 $)

>  <Rbt.Library>
libRbt.so (2013.1, Build901 2013/11/27)

>  <Rbt.Parameter_File>
/export/apps/rDock/src/rDock_2013.1_src/data/scripts/dock_solv.prm

>  <Rbt.Receptor>
prm/pocket_docking_7.prm

>  <SCORE>
-16.608

>  <SCORE.INTER>
-16.608

>  <SCORE.INTER.CONST>
1

>  <SCORE.INTER.POLAR>
0

>  <SCORE.INTER.ROT>
0

>  <SCORE.INTER.SOLV>
4.03842

>  <SCORE.INTER.VDW>
-16.0181

>  <SCORE.INTER.norm>
-1.6608

>  <SCORE.INTRA>
0

>  <SCORE.INTRA.DIHEDRAL>
0

>  <SCORE.INTRA.DIHEDRAL.0>
0

>  <SCORE.INTRA.POLAR>
0

>  <SCORE.INTRA.POLAR.0>
0

>  <SCORE.INTRA.REPUL>
0

>  <SCORE.INTRA.REPUL.0>
0

>  <SCORE.INTRA.SOLV>
0

>  <SCORE.INTRA.SOLV.lig_0>
-4.28148

>  <SCORE.INTRA.VDW>
0

>  <SCORE.INTRA.VDW.0>
0

>  <SCORE.INTRA.norm>
0

>  <SCORE.RESTR>
0

>  <SCORE.RESTR.CAVITY>
0

>  <SCORE.RESTR.norm>
0

>  <SCORE.SYSTEM>
0

>  <SCORE.SYSTEM.CONST>
0

>  <SCORE.SYSTEM.DIHEDRAL>
0

>  <SCORE.SYSTEM.SOLV>
0

>  <SCORE.SYSTEM.norm>
0

>  <SCORE.heavy>
10

>  <SCORE.norm>
-1.6608

>  <RMSD>
3.385

$$$$
ligand
 OpenBabel11021811423D
libRbt.so/2013.1/901 2013/11/27
 10 11  0  0  0  0  0  0  0  0999 V2000
   11.1087   13.4429    6.8737 N   0  0  0  0  0  0  0  0  0  0  0  0
   11.0464   12.8173    5.6447 C   0  0  0  0  0  0  0  0  0  0  0  0
   11.2751   11.5061    5.5016 N   0  0  0  0  0  0  0  0  0  0  0  0
   11.5708   10.8802    6.6756 C   0  0  0  0  0  0  0  0  0  0  0  0
   11.6508   11.4482    7.9381 C   0  0  0  0  0  0  0  0  0  0  0  0
   11.4068   12.8395    8.0976 C   0  0  0  0  0  0  0  0  0  0  0  0
   11.4228   13.5398    9.1099 O   0  0  0  0  0  0  0  0  0  0  0  0
   11.9756   10.4618    8.8379 N   0  0  0  0  0  0  0  0  0  0  0  0
   12.0888    9.3157    8.1266 C   0  0  0  0  0  0  0  0  0  0  0  0
   11.8469    9.5393    6.7913 N   0  0  0  0  0  0  0  0  0  0  0  0
  1  2  1  0  0  0  0
  1  6  1  0  0  0  0
  2  3  2  0  0  0  0
  3  4  1  0  0  0  0
  4  5  2  0  0  0  0
  4 10  1  0  0  0  0
  5  6  1  0  0  0  0
  5  8  1  0  0  0  0
  6  7  2  0  0  0  0
  8  9  1  0  0  0  0
  9 10  2  0  0  0  0
M  END
>  <CHROM.1>
11.53649828,11.61765291,7.39087985,2.48216662,-1.33202703,0.91087023

>  <Name>
ligand

>  <RI>
0

>  <Rbt.Current_Directory>
/home/itssahil/PROJECTS/Mol_Feturizer/New_Systems/rnas/2EEU

>  <Rbt.Executable>
rbdock ($Id: //depot/dev/client3/rdock/2013.1/src/exe/rbdock.cxx#4 $)

>  <Rbt.Library>
libRbt.so (2013.1, Build901 2013/11/27)

>  <Rbt.Parameter_File>
/export/apps/rDock/src/rDock_2013.1_src/data/scripts/dock_solv.prm

>  <Rbt.Receptor>
prm/blind_docking_60.prm

>  <SCORE>
-16.6129

>  <SCORE.INTER>
-16.6129

>  <SCORE.INTER.CONST>
1

>  <SCORE.INTER.POLAR>
0

>  <SCORE.INTER.ROT>
0

>  <SCORE.INTER.SOLV>
4.04192

>  <SCORE.INTER.VDW>
-16.0226

>  <SCORE.INTER.norm>
-1.66129

>  <SCORE.INTRA>
0

>  <SCORE.INTRA.DIHEDRAL>
0

>  <SCORE.INTRA.DIHEDRAL.0>
0

>  <SCORE.INTRA.POLAR>
0

>  <SCORE.INTRA.POLAR.0>
0

>  <SCORE.INTRA.REPUL>
0

>  <SCORE.INTRA.REPUL.0>
0

>  <SCORE.INTRA.SOLV>
0

>  <SCORE.INTRA.SOLV.lig_0>
-4.28148

>  <SCORE.INTRA.VDW>
0

>  <SCORE.INTRA.VDW.0>
0

>  <SCORE.INTRA.norm>
0

>  <SCORE.RESTR>
0

>  <SCORE.RESTR.CAVITY>
0

>  <SCORE.RESTR.norm>
0

>  <SCORE.SYSTEM>
0

>  <SCORE.SYSTEM.CONST>
0

>  <SCORE.SYSTEM.DIHEDRAL>
0

>  <SCORE.SYSTEM.SOLV>
0

>  <SCORE.SYSTEM.norm>
0

>  <SCORE.heavy>
10

>  <SCORE.norm>
-1.66129

>  <RMSD>
3.388

$$$$
ligand
 OpenBabel11021811423D
libRbt.so/2013.1/901 2013/11/27
 10 11  0  0  0  0  0  0  0  0999 V2000
   11.0924   13.4213    6.8812 N   0  0  0  0  0  0  0  0  0  0  0  0
   11.0767   12.8073    5.6450 C   0  0  0  0  0  0  0  0  0  0  0  0
   11.3236   11.4999    5.4969 N   0  0  0  0  0  0  0  0  0  0  0  0
   11.5872   10.8655    6.6740 C   0  0  0  0  0  0  0  0  0  0  0  0
   11.6200   11.4218    7.9438 C   0  0  0  0  0  0  0  0  0  0  0  0
   11.3566   12.8089    8.1084 C   0  0  0  0  0  0  0  0  0  0  0  0
   11.3323   13.4994    9.1273 O   0  0  0  0  0  0  0  0  0  0  0  0
   11.9255   10.4299    8.8444 N   0  0  0  0  0  0  0  0  0  0  0  0
   12.0737    9.2920    8.1263 C   0  0  0  0  0  0  0  0  0  0  0  0
   11.8733    9.5263    6.7859 N   0  0  0  0  0  0  0  0  0  0  0  0
  1  2  1  0  0  0  0
  1  6  1  0  0  0  0
  2  3  2  0  0  0  0
  3  4  1  0  0  0  0
  4  5  2  0  0  0  0
  4 10  1  0  0  0  0
  5  6  1  0  0  0  0
  5  8  1  0  0  0  0
  6  7  2  0  0  0  0
  8  9  1  0  0  0  0
  9 10  2  0  0  0  0
M  END
>  <CHROM.1>
11.52193558,11.59544565,7.39475943,2.62419120,-1.34163619,1.05872813

>  <Name>
ligand

>  <RI>
0

>  <Rbt.Current_Directory>
/home/itssahil/PROJECTS/Mol_Feturizer/New_Systems/rnas/2EEU

>  <Rbt.Executable>
rbdock ($Id: //depot/dev/client3/rdock/2013.1/src/exe/rbdock.cxx#4 $)

>  <Rbt.Library>
libRbt.so (2013.1, Build901 2013/11/27)

>  <Rbt.Parameter_File>
/export/apps/rDock/src/rDock_2013.1_src/data/scripts/dock_solv.prm

>  <Rbt.Receptor>
prm/blind_docking_80.prm

>  <SCORE>
-16.517

>  <SCORE.INTER>
-16.517

>  <SCORE.INTER.CONST>
1

>  <SCORE.INTER.POLAR>
0

>  <SCORE.INTER.ROT>
0

>  <SCORE.INTER.SOLV>
4.03375

>  <SCORE.INTER.VDW>
-15.9559

>  <SCORE.INTER.norm>
-1.6517

>  <SCORE.INTRA>
0

>  <SCORE.INTRA.DIHEDRAL>
0

>  <SCORE.INTRA.DIHEDRAL.0>
0

>  <SCORE.INTRA.POLAR>
0

>  <SCORE.INTRA.POLAR.0>
0

>  <SCORE.INTRA.REPUL>
0

>  <SCORE.INTRA.REPUL.0>
0

>  <SCORE.INTRA.SOLV>
0

>  <SCORE.INTRA.SOLV.lig_0>
-4.28148

>  <SCORE.INTRA.VDW>
0

>  <SCORE.INTRA.VDW.0>
0

>  <SCORE.INTRA.norm>
0

>  <SCORE.RESTR>
0

>  <SCORE.RESTR.CAVITY>
0

>  <SCORE.RESTR.norm>
0

>  <SCORE.SYSTEM>
0

>  <SCORE.SYSTEM.CONST>
0

>  <SCORE.SYSTEM.DIHEDRAL>
0

>  <SCORE.SYSTEM.SOLV>
0

>  <SCORE.SYSTEM.norm>
0

>  <SCORE.heavy>
10

>  <SCORE.norm>
-1.6517

>  <RMSD>
3.389

$$$$
ligand
 OpenBabel11021811423D
libRbt.so/2013.1/901 2013/11/27
 10 11  0  0  0  0  0  0  0  0999 V2000
   11.5407   10.5814    6.0324 N   0  0  0  0  0  0  0  0  0  0  0  0
   11.8498    9.6503    7.0035 C   0  0  0  0  0  0  0  0  0  0  0  0
   11.9888    9.9857    8.2920 N   0  0  0  0  0  0  0  0  0  0  0  0
   11.7982   11.3148    8.5256 C   0  0  0  0  0  0  0  0  0  0  0  0
   11.4886   12.2987    7.5988 C   0  0  0  0  0  0  0  0  0  0  0  0
   11.3372   11.9491    6.2294 C   0  0  0  0  0  0  0  0  0  0  0  0
   11.0672   12.6498    5.2538 O   0  0  0  0  0  0  0  0  0  0  0  0
   11.3861   13.4997    8.2587 N   0  0  0  0  0  0  0  0  0  0  0  0
   11.6301   13.2417    9.5650 C   0  0  0  0  0  0  0  0  0  0  0  0
   11.8888   11.9054    9.7628 N   0  0  0  0  0  0  0  0  0  0  0  0
  1  2  1  0  0  0  0
  1  6  1  0  0  0  0
  2  3  2  0  0  0  0
  3  4  1  0  0  0  0
  4  5  2  0  0  0  0
  4 10  1  0  0  0  0
  5  6  1  0  0  0  0
  5  8  1  0  0  0  0
  6  7  2  0  0  0  0
  8  9  1  0  0  0  0
  9 10  2  0  0  0  0
M  END
>  <CHROM.1>
11.58777935,11.72313017,7.60601133,-1.96542423,-1.34499549,0.83670964

>  <Name>
ligand

>  <RI>
0

>  <Rbt.Current_Directory>
/home/itssahil/PROJECTS/Mol_Feturizer/New_Systems/rnas/2EEU

>  <Rbt.Executable>
rbdock ($Id: //depot/dev/client3/rdock/2013.1/src/exe/rbdock.cxx#4 $)

>  <Rbt.Library>
libRbt.so (2013.1, Build901 2013/11/27)

>  <Rbt.Parameter_File>
/export/apps/rDock/src/rDock_2013.1_src/data/scripts/dock_solv.prm

>  <Rbt.Receptor>
prm/blind_docking_40.prm

>  <SCORE>
-15.9749

>  <SCORE.INTER>
-15.9749

>  <SCORE.INTER.CONST>
1

>  <SCORE.INTER.POLAR>
0

>  <SCORE.INTER.ROT>
0

>  <SCORE.INTER.SOLV>
4.02807

>  <SCORE.INTER.VDW>
-15.5927

>  <SCORE.INTER.norm>
-1.59749

>  <SCORE.INTRA>
0

>  <SCORE.INTRA.DIHEDRAL>
0

>  <SCORE.INTRA.DIHEDRAL.0>
0

>  <SCORE.INTRA.POLAR>
0

>  <SCORE.INTRA.POLAR.0>
0

>  <SCORE.INTRA.REPUL>
0

>  <SCORE.INTRA.REPUL.0>
0

>  <SCORE.INTRA.SOLV>
0

>  <SCORE.INTRA.SOLV.lig_0>
-4.28148

>  <SCORE.INTRA.VDW>
0

>  <SCORE.INTRA.VDW.0>
0

>  <SCORE.INTRA.norm>
0

>  <SCORE.RESTR>
0

>  <SCORE.RESTR.CAVITY>
0

>  <SCORE.RESTR.norm>
0

>  <SCORE.SYSTEM>
0

>  <SCORE.SYSTEM.CONST>
0

>  <SCORE.SYSTEM.DIHEDRAL>
0

>  <SCORE.SYSTEM.SOLV>
0

>  <SCORE.SYSTEM.norm>
0

>  <SCORE.heavy>
10

>  <SCORE.norm>
-1.59749

>  <RMSD>
3.433

$$$$
ligand
 OpenBabel11021811423D
libRbt.so/2013.1/901 2013/11/27
 10 11  0  0  0  0  0  0  0  0999 V2000
   11.4936   10.6573    5.9406 N   0  0  0  0  0  0  0  0  0  0  0  0
   11.7959    9.6902    6.8782 C   0  0  0  0  0  0  0  0  0  0  0  0
   11.9417    9.9797    8.1771 N   0  0  0  0  0  0  0  0  0  0  0  0
   11.7650   11.3018    8.4567 C   0  0  0  0  0  0  0  0  0  0  0  0
   11.4627   12.3200    7.5653 C   0  0  0  0  0  0  0  0  0  0  0  0
   11.3042   12.0194    6.1851 C   0  0  0  0  0  0  0  0  0  0  0  0
   11.0387   12.7558    5.2350 O   0  0  0  0  0  0  0  0  0  0  0  0
   11.3740   13.4985    8.2665 N   0  0  0  0  0  0  0  0  0  0  0  0
   11.6189   13.1934    9.5624 C   0  0  0  0  0  0  0  0  0  0  0  0
   11.8648   11.8486    9.7133 N   0  0  0  0  0  0  0  0  0  0  0  0
  1  2  1  0  0  0  0
  1  6  1  0  0  0  0
  2  3  2  0  0  0  0
  3  4  1  0  0  0  0
  4  5  2  0  0  0  0
  4 10  1  0  0  0  0
  5  6  1  0  0  0  0
  5  8  1  0  0  0  0
  6  7  2  0  0  0  0
  8  9  1  0  0  0  0
  9 10  2  0  0  0  0
M  END
>  <CHROM.1>
11.55621988,11.74362724,7.55241656,-2.00506330,-1.35046036,0.83246242

>  <Name>
ligand

>  <RI>
0

>  <Rbt.Current_Directory>
/home/itssahil/PROJECTS/Mol_Feturizer/New_Systems/rnas/2EEU

>  <Rbt.Executable>
rbdock ($Id: //depot/dev/client3/rdock/2013.1/src/exe/rbdock.cxx#4 $)

>  <Rbt.Library>
libRbt.so (2013.1, Build901 2013/11/27)

>  <Rbt.Parameter_File>
/export/apps/rDock/src/rDock_2013.1_src/data/scripts/dock_solv.prm

>  <Rbt.Receptor>
prm/blind_docking_80.prm

>  <SCORE>
-15.9842

>  <SCORE.INTER>
-15.9842

>  <SCORE.INTER.CONST>
1

>  <SCORE.INTER.POLAR>
0

>  <SCORE.INTER.ROT>
0

>  <SCORE.INTER.SOLV>
4.03795

>  <SCORE.INTER.VDW>
-15.6021

>  <SCORE.INTER.norm>
-1.59842

>  <SCORE.INTRA>
0

>  <SCORE.INTRA.DIHEDRAL>
0

>  <SCORE.INTRA.DIHEDRAL.0>
0

>  <SCORE.INTRA.POLAR>
0

>  <SCORE.INTRA.POLAR.0>
0

>  <SCORE.INTRA.REPUL>
0

>  <SCORE.INTRA.REPUL.0>
0

>  <SCORE.INTRA.SOLV>
0

>  <SCORE.INTRA.SOLV.lig_0>
-4.28148

>  <SCORE.INTRA.VDW>
0

>  <SCORE.INTRA.VDW.0>
0

>  <SCORE.INTRA.norm>
0

>  <SCORE.RESTR>
0

>  <SCORE.RESTR.CAVITY>
0

>  <SCORE.RESTR.norm>
0

>  <SCORE.SYSTEM>
0

>  <SCORE.SYSTEM.CONST>
0

>  <SCORE.SYSTEM.DIHEDRAL>
0

>  <SCORE.SYSTEM.SOLV>
0

>  <SCORE.SYSTEM.norm>
0

>  <SCORE.heavy>
10

>  <SCORE.norm>
-1.59842

>  <RMSD>
3.458

$$$$
ligand
 OpenBabel11021811423D
libRbt.so/2013.1/901 2013/11/27
 10 11  0  0  0  0  0  0  0  0999 V2000
   11.4681   10.6802    6.0005 N   0  0  0  0  0  0  0  0  0  0  0  0
   11.8012    9.7150    6.9295 C   0  0  0  0  0  0  0  0  0  0  0  0
   11.9712   10.0038    8.2256 N   0  0  0  0  0  0  0  0  0  0  0  0
   11.7855   11.3233    8.5116 C   0  0  0  0  0  0  0  0  0  0  0  0
   11.4529   12.3396    7.6288 C   0  0  0  0  0  0  0  0  0  0  0  0
   11.2686   12.0396    6.2517 C   0  0  0  0  0  0  0  0  0  0  0  0
   10.9746   12.7747    5.3090 O   0  0  0  0  0  0  0  0  0  0  0  0
   11.3658   13.5158    8.3341 N   0  0  0  0  0  0  0  0  0  0  0  0
   11.6415   13.2111    9.6239 C   0  0  0  0  0  0  0  0  0  0  0  0
   11.9058   11.8689    9.7668 N   0  0  0  0  0  0  0  0  0  0  0  0
  1  2  1  0  0  0  0
  1  6  1  0  0  0  0
  2  3  2  0  0  0  0
  3  4  1  0  0  0  0
  4  5  2  0  0  0  0
  4 10  1  0  0  0  0
  5  6  1  0  0  0  0
  5  8  1  0  0  0  0
  6  7  2  0  0  0  0
  8  9  1  0  0  0  0
  9 10  2  0  0  0  0
M  END
>  <CHROM.1>
11.55263742,11.76429915,7.61280021,-2.03864954,-1.32766612,0.80167635

>  <Name>
ligand

>  <RI>
0

>  <Rbt.Current_Directory>
/home/itssahil/PROJECTS/Mol_Feturizer/New_Systems/rnas/2EEU

>  <Rbt.Executable>
rbdock ($Id: //depot/dev/client3/rdock/2013.1/src/exe/rbdock.cxx#4 $)

>  <Rbt.Library>
libRbt.so (2013.1, Build901 2013/11/27)

>  <Rbt.Parameter_File>
/export/apps/rDock/src/rDock_2013.1_src/data/scripts/dock_solv.prm

>  <Rbt.Receptor>
prm/blind_docking_80.prm

>  <SCORE>
-15.9941

>  <SCORE.INTER>
-15.9941

>  <SCORE.INTER.CONST>
1

>  <SCORE.INTER.POLAR>
0

>  <SCORE.INTER.ROT>
0

>  <SCORE.INTER.SOLV>
3.93617

>  <SCORE.INTER.VDW>
-15.5748

>  <SCORE.INTER.norm>
-1.59941

>  <SCORE.INTRA>
0

>  <SCORE.INTRA.DIHEDRAL>
0

>  <SCORE.INTRA.DIHEDRAL.0>
0

>  <SCORE.INTRA.POLAR>
0

>  <SCORE.INTRA.POLAR.0>
0

>  <SCORE.INTRA.REPUL>
0

>  <SCORE.INTRA.REPUL.0>
0

>  <SCORE.INTRA.SOLV>
0

>  <SCORE.INTRA.SOLV.lig_0>
-4.28148

>  <SCORE.INTRA.VDW>
0

>  <SCORE.INTRA.VDW.0>
0

>  <SCORE.INTRA.norm>
0

>  <SCORE.RESTR>
0

>  <SCORE.RESTR.CAVITY>
0

>  <SCORE.RESTR.norm>
0

>  <SCORE.SYSTEM>
0

>  <SCORE.SYSTEM.CONST>
0

>  <SCORE.SYSTEM.DIHEDRAL>
0

>  <SCORE.SYSTEM.SOLV>
0

>  <SCORE.SYSTEM.norm>
0

>  <SCORE.heavy>
10

>  <SCORE.norm>
-1.59941

>  <RMSD>
3.466

$$$$
ligand
 OpenBabel11021811423D
libRbt.so/2013.1/901 2013/11/27
 10 11  0  0  0  0  0  0  0  0999 V2000
   11.4675   10.7030    5.9437 N   0  0  0  0  0  0  0  0  0  0  0  0
   11.7788    9.7207    6.8623 C   0  0  0  0  0  0  0  0  0  0  0  0
   11.9433    9.9898    8.1633 N   0  0  0  0  0  0  0  0  0  0  0  0
   11.7756   11.3081    8.4654 C   0  0  0  0  0  0  0  0  0  0  0  0
   11.4653   12.3409    7.5938 C   0  0  0  0  0  0  0  0  0  0  0  0
   11.2869   12.0619    6.2115 C   0  0  0  0  0  0  0  0  0  0  0  0
   11.0113   12.8138    5.2764 O   0  0  0  0  0  0  0  0  0  0  0  0
   11.3908   13.5089    8.3139 N   0  0  0  0  0  0  0  0  0  0  0  0
   11.6520   13.1831    9.6016 C   0  0  0  0  0  0  0  0  0  0  0  0
   11.8946   11.8352    9.7286 N   0  0  0  0  0  0  0  0  0  0  0  0
  1  2  1  0  0  0  0
  1  6  1  0  0  0  0
  2  3  2  0  0  0  0
  3  4  1  0  0  0  0
  4  5  2  0  0  0  0
  4 10  1  0  0  0  0
  5  6  1  0  0  0  0
  5  8  1  0  0  0  0
  6  7  2  0  0  0  0
  8  9  1  0  0  0  0
  9 10  2  0  0  0  0
M  END
>  <CHROM.1>
11.55634522,11.76441983,7.57086228,-2.06151317,-1.34387629,0.79264447

>  <Name>
ligand

>  <RI>
0

>  <Rbt.Current_Directory>
/home/itssahil/PROJECTS/Mol_Feturizer/New_Systems/rnas/2EEU

>  <Rbt.Executable>
rbdock ($Id: //depot/dev/client3/rdock/2013.1/src/exe/rbdock.cxx#4 $)

>  <Rbt.Library>
libRbt.so (2013.1, Build901 2013/11/27)

>  <Rbt.Parameter_File>
/export/apps/rDock/src/rDock_2013.1_src/data/scripts/dock_solv.prm

>  <Rbt.Receptor>
prm/blind_docking_80.prm

>  <SCORE>
-15.9896

>  <SCORE.INTER>
-15.9896

>  <SCORE.INTER.CONST>
1

>  <SCORE.INTER.POLAR>
0

>  <SCORE.INTER.ROT>
0

>  <SCORE.INTER.SOLV>
3.99547

>  <SCORE.INTER.VDW>
-15.5916

>  <SCORE.INTER.norm>
-1.59896

>  <SCORE.INTRA>
0

>  <SCORE.INTRA.DIHEDRAL>
0

>  <SCORE.INTRA.DIHEDRAL.0>
0

>  <SCORE.INTRA.POLAR>
0

>  <SCORE.INTRA.POLAR.0>
0

>  <SCORE.INTRA.REPUL>
0

>  <SCORE.INTRA.REPUL.0>
0

>  <SCORE.INTRA.SOLV>
0

>  <SCORE.INTRA.SOLV.lig_0>
-4.28148

>  <SCORE.INTRA.VDW>
0

>  <SCORE.INTRA.VDW.0>
0

>  <SCORE.INTRA.norm>
0

>  <SCORE.RESTR>
0

>  <SCORE.RESTR.CAVITY>
0

>  <SCORE.RESTR.norm>
0

>  <SCORE.SYSTEM>
0

>  <SCORE.SYSTEM.CONST>
0

>  <SCORE.SYSTEM.DIHEDRAL>
0

>  <SCORE.SYSTEM.SOLV>
0

>  <SCORE.SYSTEM.norm>
0

>  <SCORE.heavy>
10

>  <SCORE.norm>
-1.59896

>  <RMSD>
3.474

$$$$
ligand
 OpenBabel11021811423D
libRbt.so/2013.1/901 2013/11/27
 10 11  0  0  0  0  0  0  0  0999 V2000
   11.4998   10.7011    5.9454 N   0  0  0  0  0  0  0  0  0  0  0  0
   11.8135    9.7179    6.8623 C   0  0  0  0  0  0  0  0  0  0  0  0
   11.9545    9.9811    8.1673 N   0  0  0  0  0  0  0  0  0  0  0  0
   11.7608   11.2945    8.4752 C   0  0  0  0  0  0  0  0  0  0  0  0
   11.4465   12.3279    7.6056 C   0  0  0  0  0  0  0  0  0  0  0  0
   11.2929   12.0550    6.2191 C   0  0  0  0  0  0  0  0  0  0  0  0
   11.0189   12.8084    5.2848 O   0  0  0  0  0  0  0  0  0  0  0  0
   11.3423   13.4897    8.3319 N   0  0  0  0  0  0  0  0  0  0  0  0
   11.5899   13.1598    9.6212 C   0  0  0  0  0  0  0  0  0  0  0  0
   11.8526   11.8152    9.7433 N   0  0  0  0  0  0  0  0  0  0  0  0
  1  2  1  0  0  0  0
  1  6  1  0  0  0  0
  2  3  2  0  0  0  0
  3  4  1  0  0  0  0
  4  5  2  0  0  0  0
  4 10  1  0  0  0  0
  5  6  1  0  0  0  0
  5  8  1  0  0  0  0
  6  7  2  0  0  0  0
  8  9  1  0  0  0  0
  9 10  2  0  0  0  0
M  END
>  <CHROM.1>
11.54727190,11.75307104,7.58037754,-1.96481175,-1.34148509,0.89328399

>  <Name>
ligand

>  <RI>
0

>  <Rbt.Current_Directory>
/home/itssahil/PROJECTS/Mol_Feturizer/New_Systems/rnas/2EEU

>  <Rbt.Executable>
rbdock ($Id: //depot/dev/client3/rdock/2013.1/src/exe/rbdock.cxx#4 $)

>  <Rbt.Library>
libRbt.so (2013.1, Build901 2013/11/27)

>  <Rbt.Parameter_File>
/export/apps/rDock/src/rDock_2013.1_src/data/scripts/dock_solv.prm

>  <Rbt.Receptor>
prm/blind_docking_80.prm

>  <SCORE>
-16.0122

>  <SCORE.INTER>
-16.0122

>  <SCORE.INTER.CONST>
1

>  <SCORE.INTER.POLAR>
0

>  <SCORE.INTER.ROT>
0

>  <SCORE.INTER.SOLV>
3.99625

>  <SCORE.INTER.VDW>
-15.6069

>  <SCORE.INTER.norm>
-1.60122

>  <SCORE.INTRA>
0

>  <SCORE.INTRA.DIHEDRAL>
0

>  <SCORE.INTRA.DIHEDRAL.0>
0

>  <SCORE.INTRA.POLAR>
0

>  <SCORE.INTRA.POLAR.0>
0

>  <SCORE.INTRA.REPUL>
0

>  <SCORE.INTRA.REPUL.0>
0

>  <SCORE.INTRA.SOLV>
0

>  <SCORE.INTRA.SOLV.lig_0>
-4.28148

>  <SCORE.INTRA.VDW>
0

>  <SCORE.INTRA.VDW.0>
0

>  <SCORE.INTRA.norm>
0

>  <SCORE.RESTR>
0

>  <SCORE.RESTR.CAVITY>
0

>  <SCORE.RESTR.norm>
0

>  <SCORE.SYSTEM>
0

>  <SCORE.SYSTEM.CONST>
0

>  <SCORE.SYSTEM.DIHEDRAL>
0

>  <SCORE.SYSTEM.SOLV>
0

>  <SCORE.SYSTEM.norm>
0

>  <SCORE.heavy>
10

>  <SCORE.norm>
-1.60122

>  <RMSD>
3.475

$$$$
ligand
 OpenBabel11021811423D
libRbt.so/2013.1/901 2013/11/27
 10 11  0  0  0  0  0  0  0  0999 V2000
   11.4424   10.7234    5.9773 N   0  0  0  0  0  0  0  0  0  0  0  0
   11.7651    9.7403    6.8910 C   0  0  0  0  0  0  0  0  0  0  0  0
   11.9461   10.0082    8.1901 N   0  0  0  0  0  0  0  0  0  0  0  0
   11.7823   11.3263    8.4954 C   0  0  0  0  0  0  0  0  0  0  0  0
   11.4610   12.3599    7.6286 C   0  0  0  0  0  0  0  0  0  0  0  0
   11.2651   12.0821    6.2485 C   0  0  0  0  0  0  0  0  0  0  0  0
   10.9778   12.8347    5.3176 O   0  0  0  0  0  0  0  0  0  0  0  0
   11.3956   13.5273    8.3507 N   0  0  0  0  0  0  0  0  0  0  0  0
   11.6731   13.2003    9.6346 C   0  0  0  0  0  0  0  0  0  0  0  0
   11.9173   11.8524    9.7575 N   0  0  0  0  0  0  0  0  0  0  0  0
  1  2  1  0  0  0  0
  1  6  1  0  0  0  0
  2  3  2  0  0  0  0
  3  4  1  0  0  0  0
  4  5  2  0  0  0  0
  4 10  1  0  0  0  0
  5  6  1  0  0  0  0
  5  8  1  0  0  0  0
  6  7  2  0  0  0  0
  8  9  1  0  0  0  0
  9 10  2  0  0  0  0
M  END
>  <CHROM.1>
11.55175190,11.78342634,7.60408343,-2.10014361,-1.33486062,0.75590136

>  <Name>
ligand

>  <RI>
0

>  <Rbt.Current_Directory>
/home/itssahil/PROJECTS/Mol_Feturizer/New_Systems/rnas/2EEU

>  <Rbt.Executable>
rbdock ($Id: //depot/dev/client3/rdock/2013.1/src/exe/rbdock.cxx#4 $)

>  <Rbt.Library>
libRbt.so (2013.1, Build901 2013/11/27)

>  <Rbt.Parameter_File>
/export/apps/rDock/src/rDock_2013.1_src/data/scripts/dock_solv.prm

>  <Rbt.Receptor>
prm/blind_docking_80.prm

>  <SCORE>
-16.0331

>  <SCORE.INTER>
-16.0331

>  <SCORE.INTER.CONST>
1

>  <SCORE.INTER.POLAR>
0

>  <SCORE.INTER.ROT>
0

>  <SCORE.INTER.SOLV>
3.94943

>  <SCORE.INTER.VDW>
-15.6052

>  <SCORE.INTER.norm>
-1.60331

>  <SCORE.INTRA>
0

>  <SCORE.INTRA.DIHEDRAL>
0

>  <SCORE.INTRA.DIHEDRAL.0>
0

>  <SCORE.INTRA.POLAR>
0

>  <SCORE.INTRA.POLAR.0>
0

>  <SCORE.INTRA.REPUL>
0

>  <SCORE.INTRA.REPUL.0>
0

>  <SCORE.INTRA.SOLV>
0

>  <SCORE.INTRA.SOLV.lig_0>
-4.28148

>  <SCORE.INTRA.VDW>
0

>  <SCORE.INTRA.VDW.0>
0

>  <SCORE.INTRA.norm>
0

>  <SCORE.RESTR>
0

>  <SCORE.RESTR.CAVITY>
0

>  <SCORE.RESTR.norm>
0

>  <SCORE.SYSTEM>
0

>  <SCORE.SYSTEM.CONST>
0

>  <SCORE.SYSTEM.DIHEDRAL>
0

>  <SCORE.SYSTEM.SOLV>
0

>  <SCORE.SYSTEM.norm>
0

>  <SCORE.heavy>
10

>  <SCORE.norm>
-1.60331

>  <RMSD>
3.480

$$$$
ligand
 OpenBabel11021811423D
libRbt.so/2013.1/901 2013/11/27
 10 11  0  0  0  0  0  0  0  0999 V2000
   11.1485   13.2488    6.5402 N   0  0  0  0  0  0  0  0  0  0  0  0
   11.0479   12.4952    5.3879 C   0  0  0  0  0  0  0  0  0  0  0  0
   11.2791   11.1766    5.3780 N   0  0  0  0  0  0  0  0  0  0  0  0
   11.6180   10.6805    6.6013 C   0  0  0  0  0  0  0  0  0  0  0  0
   11.7377   11.3805    7.7923 C   0  0  0  0  0  0  0  0  0  0  0  0
   11.4914   12.7803    7.8105 C   0  0  0  0  0  0  0  0  0  0  0  0
   11.5379   13.5850    8.7410 O   0  0  0  0  0  0  0  0  0  0  0  0
   12.0984   10.4967    8.7807 N   0  0  0  0  0  0  0  0  0  0  0  0
   12.1938    9.2812    8.1925 C   0  0  0  0  0  0  0  0  0  0  0  0
   11.9054    9.3602    6.8500 N   0  0  0  0  0  0  0  0  0  0  0  0
  1  2  1  0  0  0  0
  1  6  1  0  0  0  0
  2  3  2  0  0  0  0
  3  4  1  0  0  0  0
  4  5  2  0  0  0  0
  4 10  1  0  0  0  0
  5  6  1  0  0  0  0
  5  8  1  0  0  0  0
  6  7  2  0  0  0  0
  8  9  1  0  0  0  0
  9 10  2  0  0  0  0
M  END
>  <CHROM.1>
11.60388020,11.49016501,7.23440093,2.39273141,-1.30570927,0.71708128

>  <Name>
ligand

>  <RI>
0

>  <Rbt.Current_Directory>
/home/itssahil/PROJECTS/Mol_Feturizer/New_Systems/rnas/2EEU

>  <Rbt.Executable>
rbdock ($Id: //depot/dev/client3/rdock/2013.1/src/exe/rbdock.cxx#4 $)

>  <Rbt.Library>
libRbt.so (2013.1, Build901 2013/11/27)

>  <Rbt.Parameter_File>
/export/apps/rDock/src/rDock_2013.1_src/data/scripts/dock_solv.prm

>  <Rbt.Receptor>
prm/blind_docking_100.prm

>  <SCORE>
-16.5061

>  <SCORE.INTER>
-16.5061

>  <SCORE.INTER.CONST>
1

>  <SCORE.INTER.POLAR>
0

>  <SCORE.INTER.ROT>
0

>  <SCORE.INTER.SOLV>
4.12568

>  <SCORE.INTER.VDW>
-15.9793

>  <SCORE.INTER.norm>
-1.65061

>  <SCORE.INTRA>
0

>  <SCORE.INTRA.DIHEDRAL>
0

>  <SCORE.INTRA.DIHEDRAL.0>
0

>  <SCORE.INTRA.POLAR>
0

>  <SCORE.INTRA.POLAR.0>
0

>  <SCORE.INTRA.REPUL>
0

>  <SCORE.INTRA.REPUL.0>
0

>  <SCORE.INTRA.SOLV>
0

>  <SCORE.INTRA.SOLV.lig_0>
-4.28148

>  <SCORE.INTRA.VDW>
0

>  <SCORE.INTRA.VDW.0>
0

>  <SCORE.INTRA.norm>
0

>  <SCORE.RESTR>
0

>  <SCORE.RESTR.CAVITY>
0

>  <SCORE.RESTR.norm>
0

>  <SCORE.SYSTEM>
0

>  <SCORE.SYSTEM.CONST>
0

>  <SCORE.SYSTEM.DIHEDRAL>
0

>  <SCORE.SYSTEM.SOLV>
0

>  <SCORE.SYSTEM.norm>
0

>  <SCORE.heavy>
10

>  <SCORE.norm>
-1.65061

>  <RMSD>
3.487

$$$$
ligand
 OpenBabel11021811423D
libRbt.so/2013.1/901 2013/11/27
 10 11  0  0  0  0  0  0  0  0999 V2000
    1.4105   12.5631    5.1581 N   0  0  0  0  0  0  0  0  0  0  0  0
    1.6966   11.2441    4.8682 C   0  0  0  0  0  0  0  0  0  0  0  0
    2.0566   10.8473    3.6413 N   0  0  0  0  0  0  0  0  0  0  0  0
    2.1032   11.8670    2.7383 C   0  0  0  0  0  0  0  0  0  0  0  0
    1.8274   13.2071    2.9634 C   0  0  0  0  0  0  0  0  0  0  0  0
    1.4469   13.6357    4.2642 C   0  0  0  0  0  0  0  0  0  0  0  0
    1.1624   14.7585    4.6812 O   0  0  0  0  0  0  0  0  0  0  0  0
    1.9953   13.8891    1.7822 N   0  0  0  0  0  0  0  0  0  0  0  0
    2.3679   12.9718    0.8591 C   0  0  0  0  0  0  0  0  0  0  0  0
    2.4424   11.7161    1.4154 N   0  0  0  0  0  0  0  0  0  0  0  0
  1  2  1  0  0  0  0
  1  6  1  0  0  0  0
  2  3  2  0  0  0  0
  3  4  1  0  0  0  0
  4  5  2  0  0  0  0
  4 10  1  0  0  0  0
  5  6  1  0  0  0  0
  5  8  1  0  0  0  0
  6  7  2  0  0  0  0
  8  9  1  0  0  0  0
  9 10  2  0  0  0  0
M  END
>  <CHROM.1>
1.83769612,12.70790327,3.26637579,-2.76417929,1.28858475,-0.60619143

>  <Name>
ligand

>  <RI>
0

>  <Rbt.Current_Directory>
/home/itssahil/PROJECTS/Mol_Feturizer/New_Systems/rnas/2EEU

>  <Rbt.Executable>
rbdock ($Id: //depot/dev/client3/rdock/2013.1/src/exe/rbdock.cxx#4 $)

>  <Rbt.Library>
libRbt.so (2013.1, Build901 2013/11/27)

>  <Rbt.Parameter_File>
/export/apps/rDock/src/rDock_2013.1_src/data/scripts/dock_solv.prm

>  <Rbt.Receptor>
prm/blind_docking_40.prm

>  <SCORE>
-11.6093

>  <SCORE.INTER>
-11.6093

>  <SCORE.INTER.CONST>
1

>  <SCORE.INTER.POLAR>
0

>  <SCORE.INTER.ROT>
0

>  <SCORE.INTER.SOLV>
2.10223

>  <SCORE.INTER.VDW>
-12.0403

>  <SCORE.INTER.norm>
-1.16093

>  <SCORE.INTRA>
0

>  <SCORE.INTRA.DIHEDRAL>
0

>  <SCORE.INTRA.DIHEDRAL.0>
0

>  <SCORE.INTRA.POLAR>
0

>  <SCORE.INTRA.POLAR.0>
0

>  <SCORE.INTRA.REPUL>
0

>  <SCORE.INTRA.REPUL.0>
0

>  <SCORE.INTRA.SOLV>
0

>  <SCORE.INTRA.SOLV.lig_0>
-4.28148

>  <SCORE.INTRA.VDW>
0

>  <SCORE.INTRA.VDW.0>
0

>  <SCORE.INTRA.norm>
0

>  <SCORE.RESTR>
0

>  <SCORE.RESTR.CAVITY>
0

>  <SCORE.RESTR.norm>
0

>  <SCORE.SYSTEM>
0

>  <SCORE.SYSTEM.CONST>
0

>  <SCORE.SYSTEM.DIHEDRAL>
0

>  <SCORE.SYSTEM.SOLV>
0

>  <SCORE.SYSTEM.norm>
0

>  <SCORE.heavy>
10

>  <SCORE.norm>
-1.16093

>  <RMSD>
10.913

$$$$
ligand
 OpenBabel11021811423D
libRbt.so/2013.1/901 2013/11/27
 10 11  0  0  0  0  0  0  0  0999 V2000
   36.7811   19.1538    9.1254 N   0  0  0  0  0  0  0  0  0  0  0  0
   36.7501   17.7966    9.3757 C   0  0  0  0  0  0  0  0  0  0  0  0
   35.6021   17.1105    9.4369 N   0  0  0  0  0  0  0  0  0  0  0  0
   34.5004   17.8861    9.2322 C   0  0  0  0  0  0  0  0  0  0  0  0
   34.4627   19.2489    8.9786 C   0  0  0  0  0  0  0  0  0  0  0  0
   35.6780   19.9830    8.9100 C   0  0  0  0  0  0  0  0  0  0  0  0
   35.8745   21.1798    8.6990 O   0  0  0  0  0  0  0  0  0  0  0  0
   33.1495   19.6277    8.8363 N   0  0  0  0  0  0  0  0  0  0  0  0
   32.4071   18.5079    9.0012 C   0  0  0  0  0  0  0  0  0  0  0  0
   33.2088   17.4178    9.2480 N   0  0  0  0  0  0  0  0  0  0  0  0
  1  2  1  0  0  0  0
  1  6  1  0  0  0  0
  2  3  2  0  0  0  0
  3  4  1  0  0  0  0
  4  5  2  0  0  0  0
  4 10  1  0  0  0  0
  5  6  1  0  0  0  0
  5  8  1  0  0  0  0
  6  7  2  0  0  0  0
  8  9  1  0  0  0  0
  9 10  2  0  0  0  0
M  END
>  <CHROM.1>
34.86318577,18.83530932,9.07736646,-0.44264141,0.05461853,2.95854043

>  <Name>
ligand

>  <RI>
0

>  <Rbt.Current_Directory>
/home/itssahil/PROJECTS/Mol_Feturizer/New_Systems/rnas/2EEU

>  <Rbt.Executable>
rbdock ($Id: //depot/dev/client3/rdock/2013.1/src/exe/rbdock.cxx#4 $)

>  <Rbt.Library>
libRbt.so (2013.1, Build901 2013/11/27)

>  <Rbt.Parameter_File>
/export/apps/rDock/src/rDock_2013.1_src/data/scripts/dock_solv.prm

>  <Rbt.Receptor>
prm/blind_docking_80.prm

>  <SCORE>
-10.2932

>  <SCORE.INTER>
-10.2932

>  <SCORE.INTER.CONST>
1

>  <SCORE.INTER.POLAR>
0

>  <SCORE.INTER.ROT>
0

>  <SCORE.INTER.SOLV>
2.16053

>  <SCORE.INTER.VDW>
-11.1823

>  <SCORE.INTER.norm>
-1.02932

>  <SCORE.INTRA>
0

>  <SCORE.INTRA.DIHEDRAL>
0

>  <SCORE.INTRA.DIHEDRAL.0>
0

>  <SCORE.INTRA.POLAR>
0

>  <SCORE.INTRA.POLAR.0>
0

>  <SCORE.INTRA.REPUL>
0

>  <SCORE.INTRA.REPUL.0>
0

>  <SCORE.INTRA.SOLV>
0

>  <SCORE.INTRA.SOLV.lig_0>
-4.28148

>  <SCORE.INTRA.VDW>
0

>  <SCORE.INTRA.VDW.0>
0

>  <SCORE.INTRA.norm>
0

>  <SCORE.RESTR>
0

>  <SCORE.RESTR.CAVITY>
0

>  <SCORE.RESTR.norm>
0

>  <SCORE.SYSTEM>
0

>  <SCORE.SYSTEM.CONST>
0

>  <SCORE.SYSTEM.DIHEDRAL>
0

>  <SCORE.SYSTEM.SOLV>
0

>  <SCORE.SYSTEM.norm>
0

>  <SCORE.heavy>
10

>  <SCORE.norm>
-1.02932

>  <RMSD>
24.550

$$$$
ligand
 OpenBabel11021811423D
libRbt.so/2013.1/901 2013/11/27
 10 11  0  0  0  0  0  0  0  0999 V2000
   33.9232   20.5799    8.5418 N   0  0  0  0  0  0  0  0  0  0  0  0
   33.0132   19.5443    8.6137 C   0  0  0  0  0  0  0  0  0  0  0  0
   33.3852   18.2884    8.8902 N   0  0  0  0  0  0  0  0  0  0  0  0
   34.7277   18.1552    9.0836 C   0  0  0  0  0  0  0  0  0  0  0  0
   35.6918   19.1501    9.0243 C   0  0  0  0  0  0  0  0  0  0  0  0
   35.3035   20.4861    8.7335 C   0  0  0  0  0  0  0  0  0  0  0  0
   35.9816   21.5088    8.6342 O   0  0  0  0  0  0  0  0  0  0  0  0
   36.9169   18.5830    9.2808 N   0  0  0  0  0  0  0  0  0  0  0  0
   36.6929   17.2648    9.4924 C   0  0  0  0  0  0  0  0  0  0  0  0
   35.3548   16.9684    9.3768 N   0  0  0  0  0  0  0  0  0  0  0  0
  1  2  1  0  0  0  0
  1  6  1  0  0  0  0
  2  3  2  0  0  0  0
  3  4  1  0  0  0  0
  4  5  2  0  0  0  0
  4 10  1  0  0  0  0
  5  6  1  0  0  0  0
  5  8  1  0  0  0  0
  6  7  2  0  0  0  0
  8  9  1  0  0  0  0
  9 10  2  0  0  0  0
M  END
>  <CHROM.1>
35.11339390,19.09998242,8.96042473,1.94992066,-0.12355666,-0.17919710

>  <Name>
ligand

>  <RI>
0

>  <Rbt.Current_Directory>
/home/itssahil/PROJECTS/Mol_Feturizer/New_Systems/rnas/2EEU

>  <Rbt.Executable>
rbdock ($Id: //depot/dev/client3/rdock/2013.1/src/exe/rbdock.cxx#4 $)

>  <Rbt.Library>
libRbt.so (2013.1, Build901 2013/11/27)

>  <Rbt.Parameter_File>
/export/apps/rDock/src/rDock_2013.1_src/data/scripts/dock_solv.prm

>  <Rbt.Receptor>
prm/blind_docking_100.prm

>  <SCORE>
-10.109

>  <SCORE.INTER>
-10.109

>  <SCORE.INTER.CONST>
1

>  <SCORE.INTER.POLAR>
0

>  <SCORE.INTER.ROT>
0

>  <SCORE.INTER.SOLV>
2.6353

>  <SCORE.INTER.VDW>
-11.2178

>  <SCORE.INTER.norm>
-1.0109

>  <SCORE.INTRA>
0

>  <SCORE.INTRA.DIHEDRAL>
0

>  <SCORE.INTRA.DIHEDRAL.0>
0

>  <SCORE.INTRA.POLAR>
0

>  <SCORE.INTRA.POLAR.0>
0

>  <SCORE.INTRA.REPUL>
0

>  <SCORE.INTRA.REPUL.0>
0

>  <SCORE.INTRA.SOLV>
0

>  <SCORE.INTRA.SOLV.lig_0>
-4.28148

>  <SCORE.INTRA.VDW>
0

>  <SCORE.INTRA.VDW.0>
0

>  <SCORE.INTRA.norm>
0

>  <SCORE.RESTR>
0

>  <SCORE.RESTR.CAVITY>
0

>  <SCORE.RESTR.norm>
0

>  <SCORE.SYSTEM>
0

>  <SCORE.SYSTEM.CONST>
0

>  <SCORE.SYSTEM.DIHEDRAL>
0

>  <SCORE.SYSTEM.SOLV>
0

>  <SCORE.SYSTEM.norm>
0

>  <SCORE.heavy>
10

>  <SCORE.norm>
-1.0109

>  <RMSD>
24.914

$$$$
ligand
 OpenBabel11021811423D
libRbt.so/2013.1/901 2013/11/27
 10 11  0  0  0  0  0  0  0  0999 V2000
   35.4162   20.6620   10.5085 N   0  0  0  0  0  0  0  0  0  0  0  0
   35.6034   21.1693    9.2383 C   0  0  0  0  0  0  0  0  0  0  0  0
   36.0528   20.4128    8.2293 N   0  0  0  0  0  0  0  0  0  0  0  0
   36.2993   19.1226    8.5926 C   0  0  0  0  0  0  0  0  0  0  0  0
   36.1345   18.5524    9.8458 C   0  0  0  0  0  0  0  0  0  0  0  0
   35.6555   19.3492   10.9211 C   0  0  0  0  0  0  0  0  0  0  0  0
   35.4374   19.0533   12.0960 O   0  0  0  0  0  0  0  0  0  0  0  0
   36.5000   17.2298    9.7722 N   0  0  0  0  0  0  0  0  0  0  0  0
   36.8789   17.0070    8.4919 C   0  0  0  0  0  0  0  0  0  0  0  0
   36.7684   18.1531    7.7395 N   0  0  0  0  0  0  0  0  0  0  0  0
  1  2  1  0  0  0  0
  1  6  1  0  0  0  0
  2  3  2  0  0  0  0
  3  4  1  0  0  0  0
  4  5  2  0  0  0  0
  4 10  1  0  0  0  0
  5  6  1  0  0  0  0
  5  8  1  0  0  0  0
  6  7  2  0  0  0  0
  8  9  1  0  0  0  0
  9 10  2  0  0  0  0
M  END
>  <CHROM.1>
36.06203275,19.07323297,9.59151758,3.08371046,-1.22276565,2.33579485

>  <Name>
ligand

>  <RI>
0

>  <Rbt.Current_Directory>
/home/itssahil/PROJECTS/Mol_Feturizer/New_Systems/rnas/2EEU

>  <Rbt.Executable>
rbdock ($Id: //depot/dev/client3/rdock/2013.1/src/exe/rbdock.cxx#4 $)

>  <Rbt.Library>
libRbt.so (2013.1, Build901 2013/11/27)

>  <Rbt.Parameter_File>
/export/apps/rDock/src/rDock_2013.1_src/data/scripts/dock_solv.prm

>  <Rbt.Receptor>
prm/blind_docking_80.prm

>  <SCORE>
-12.8478

>  <SCORE.INTER>
-12.8478

>  <SCORE.INTER.CONST>
1

>  <SCORE.INTER.POLAR>
0

>  <SCORE.INTER.ROT>
0

>  <SCORE.INTER.SOLV>
4.43748

>  <SCORE.INTER.VDW>
-13.6444

>  <SCORE.INTER.norm>
-1.28478

>  <SCORE.INTRA>
0

>  <SCORE.INTRA.DIHEDRAL>
0

>  <SCORE.INTRA.DIHEDRAL.0>
0

>  <SCORE.INTRA.POLAR>
0

>  <SCORE.INTRA.POLAR.0>
0

>  <SCORE.INTRA.REPUL>
0

>  <SCORE.INTRA.REPUL.0>
0

>  <SCORE.INTRA.SOLV>
0

>  <SCORE.INTRA.SOLV.lig_0>
-4.28148

>  <SCORE.INTRA.VDW>
0

>  <SCORE.INTRA.VDW.0>
0

>  <SCORE.INTRA.norm>
0

>  <SCORE.RESTR>
0

>  <SCORE.RESTR.CAVITY>
0

>  <SCORE.RESTR.norm>
0

>  <SCORE.SYSTEM>
0

>  <SCORE.SYSTEM.CONST>
0

>  <SCORE.SYSTEM.DIHEDRAL>
0

>  <SCORE.SYSTEM.SOLV>
0

>  <SCORE.SYSTEM.norm>
0

>  <SCORE.heavy>
10

>  <SCORE.norm>
-1.28478

>  <RMSD>
25.787

$$$$
ligand
 OpenBabel11021811423D
libRbt.so/2013.1/901 2013/11/27
 10 11  0  0  0  0  0  0  0  0999 V2000
   35.7945   20.9263    9.8883 N   0  0  0  0  0  0  0  0  0  0  0  0
   35.6516   20.2029   11.0553 C   0  0  0  0  0  0  0  0  0  0  0  0
   35.8812   18.8850   11.1079 N   0  0  0  0  0  0  0  0  0  0  0  0
   36.2584   18.3564    9.9097 C   0  0  0  0  0  0  0  0  0  0  0  0
   36.4185   19.0247    8.7052 C   0  0  0  0  0  0  0  0  0  0  0  0
   36.1786   20.4243    8.6428 C   0  0  0  0  0  0  0  0  0  0  0  0
   36.2595   21.2046    7.6940 O   0  0  0  0  0  0  0  0  0  0  0  0
   36.8069   18.1142    7.7521 N   0  0  0  0  0  0  0  0  0  0  0  0
   36.8803   16.9145    8.3748 C   0  0  0  0  0  0  0  0  0  0  0  0
   36.5472   17.0290    9.7043 N   0  0  0  0  0  0  0  0  0  0  0  0
  1  2  1  0  0  0  0
  1  6  1  0  0  0  0
  2  3  2  0  0  0  0
  3  4  1  0  0  0  0
  4  5  2  0  0  0  0
  4 10  1  0  0  0  0
  5  6  1  0  0  0  0
  5  8  1  0  0  0  0
  6  7  2  0  0  0  0
  8  9  1  0  0  0  0
  9 10  2  0  0  0  0
M  END
>  <CHROM.1>
36.26679464,19.14916691,9.25537967,2.30638491,1.28217600,-0.65989070

>  <Name>
ligand

>  <RI>
0

>  <Rbt.Current_Directory>
/home/itssahil/PROJECTS/Mol_Feturizer/New_Systems/rnas/2EEU

>  <Rbt.Executable>
rbdock ($Id: //depot/dev/client3/rdock/2013.1/src/exe/rbdock.cxx#4 $)

>  <Rbt.Library>
libRbt.so (2013.1, Build901 2013/11/27)

>  <Rbt.Parameter_File>
/export/apps/rDock/src/rDock_2013.1_src/data/scripts/dock_solv.prm

>  <Rbt.Receptor>
prm/blind_docking_80.prm

>  <SCORE>
-11.5874

>  <SCORE.INTER>
-11.5877

>  <SCORE.INTER.CONST>
1

>  <SCORE.INTER.POLAR>
0

>  <SCORE.INTER.ROT>
0

>  <SCORE.INTER.SOLV>
3.23747

>  <SCORE.INTER.VDW>
-12.4043

>  <SCORE.INTER.norm>
-1.15877

>  <SCORE.INTRA>
0

>  <SCORE.INTRA.DIHEDRAL>
0

>  <SCORE.INTRA.DIHEDRAL.0>
0

>  <SCORE.INTRA.POLAR>
0

>  <SCORE.INTRA.POLAR.0>
0

>  <SCORE.INTRA.REPUL>
0

>  <SCORE.INTRA.REPUL.0>
0

>  <SCORE.INTRA.SOLV>
0

>  <SCORE.INTRA.SOLV.lig_0>
-4.28148

>  <SCORE.INTRA.VDW>
0

>  <SCORE.INTRA.VDW.0>
0

>  <SCORE.INTRA.norm>
0

>  <SCORE.RESTR>
0.000346408

>  <SCORE.RESTR.CAVITY>
0.000346408

>  <SCORE.RESTR.norm>
3.46408e-05

>  <SCORE.SYSTEM>
0

>  <SCORE.SYSTEM.CONST>
0

>  <SCORE.SYSTEM.DIHEDRAL>
0

>  <SCORE.SYSTEM.SOLV>
0

>  <SCORE.SYSTEM.norm>
0

>  <SCORE.heavy>
10

>  <SCORE.norm>
-1.15874

>  <RMSD>
25.992

$$$$
ligand
 OpenBabel11021811423D
libRbt.so/2013.1/901 2013/11/27
 10 11  0  0  0  0  0  0  0  0999 V2000
   36.8562   17.6472   10.4902 N   0  0  0  0  0  0  0  0  0  0  0  0
   36.7780   18.6300   11.4565 C   0  0  0  0  0  0  0  0  0  0  0  0
   36.6290   19.9235   11.1451 N   0  0  0  0  0  0  0  0  0  0  0  0
   36.5683   20.1501    9.8026 C   0  0  0  0  0  0  0  0  0  0  0  0
   36.6418   19.2119    8.7841 C   0  0  0  0  0  0  0  0  0  0  0  0
   36.7977   17.8366    9.1076 C   0  0  0  0  0  0  0  0  0  0  0  0
   36.8829   16.8509    8.3751 O   0  0  0  0  0  0  0  0  0  0  0  0
   36.5395   19.8684    7.5812 N   0  0  0  0  0  0  0  0  0  0  0  0
   36.4056   21.1837    7.8721 C   0  0  0  0  0  0  0  0  0  0  0  0
   36.4208   21.3911    9.2317 N   0  0  0  0  0  0  0  0  0  0  0  0
  1  2  1  0  0  0  0
  1  6  1  0  0  0  0
  2  3  2  0  0  0  0
  3  4  1  0  0  0  0
  4  5  2  0  0  0  0
  4 10  1  0  0  0  0
  5  6  1  0  0  0  0
  5  8  1  0  0  0  0
  6  7  2  0  0  0  0
  8  9  1  0  0  0  0
  9 10  2  0  0  0  0
M  END
>  <CHROM.1>
36.65650313,19.22279185,9.36788115,0.08233655,-1.46073752,1.32170062

>  <Name>
ligand

>  <RI>
0

>  <Rbt.Current_Directory>
/home/itssahil/PROJECTS/Mol_Feturizer/New_Systems/rnas/2EEU

>  <Rbt.Executable>
rbdock ($Id: //depot/dev/client3/rdock/2013.1/src/exe/rbdock.cxx#4 $)

>  <Rbt.Library>
libRbt.so (2013.1, Build901 2013/11/27)

>  <Rbt.Parameter_File>
/export/apps/rDock/src/rDock_2013.1_src/data/scripts/dock_solv.prm

>  <Rbt.Receptor>
prm/blind_docking_80.prm

>  <SCORE>
-12.6136

>  <SCORE.INTER>
-12.618

>  <SCORE.INTER.CONST>
1

>  <SCORE.INTER.POLAR>
0

>  <SCORE.INTER.ROT>
0

>  <SCORE.INTER.SOLV>
5.23367

>  <SCORE.INTER.VDW>
-13.7566

>  <SCORE.INTER.norm>
-1.2618

>  <SCORE.INTRA>
0

>  <SCORE.INTRA.DIHEDRAL>
0

>  <SCORE.INTRA.DIHEDRAL.0>
0

>  <SCORE.INTRA.POLAR>
0

>  <SCORE.INTRA.POLAR.0>
0

>  <SCORE.INTRA.REPUL>
0

>  <SCORE.INTRA.REPUL.0>
0

>  <SCORE.INTRA.SOLV>
0

>  <SCORE.INTRA.SOLV.lig_0>
-4.28148

>  <SCORE.INTRA.VDW>
0

>  <SCORE.INTRA.VDW.0>
0

>  <SCORE.INTRA.norm>
0

>  <SCORE.RESTR>
0.00437434

>  <SCORE.RESTR.CAVITY>
0.00437434

>  <SCORE.RESTR.norm>
0.000437434

>  <SCORE.SYSTEM>
0

>  <SCORE.SYSTEM.CONST>
0

>  <SCORE.SYSTEM.DIHEDRAL>
0

>  <SCORE.SYSTEM.SOLV>
0

>  <SCORE.SYSTEM.norm>
0

>  <SCORE.heavy>
10

>  <SCORE.norm>
-1.26136

>  <RMSD>
26.290

$$$$
ligand
 OpenBabel11021811423D
libRbt.so/2013.1/901 2013/11/27
 10 11  0  0  0  0  0  0  0  0999 V2000
   36.7692   17.5227   10.3646 N   0  0  0  0  0  0  0  0  0  0  0  0
   36.8286   17.1182    9.0461 C   0  0  0  0  0  0  0  0  0  0  0  0
   36.7527   17.9879    8.0311 N   0  0  0  0  0  0  0  0  0  0  0  0
   36.6113   19.2804    8.4396 C   0  0  0  0  0  0  0  0  0  0  0  0
   36.5436   19.7514    9.7421 C   0  0  0  0  0  0  0  0  0  0  0  0
   36.6258   18.8338   10.8245 C   0  0  0  0  0  0  0  0  0  0  0  0
   36.5893   19.0299   12.0393 O   0  0  0  0  0  0  0  0  0  0  0  0
   36.3997   21.1174    9.7026 N   0  0  0  0  0  0  0  0  0  0  0  0
   36.3818   21.4637    8.3941 C   0  0  0  0  0  0  0  0  0  0  0  0
   36.5087   20.3552    7.5899 N   0  0  0  0  0  0  0  0  0  0  0  0
  1  2  1  0  0  0  0
  1  6  1  0  0  0  0
  2  3  2  0  0  0  0
  3  4  1  0  0  0  0
  4  5  2  0  0  0  0
  4 10  1  0  0  0  0
  5  6  1  0  0  0  0
  5  8  1  0  0  0  0
  6  7  2  0  0  0  0
  8  9  1  0  0  0  0
  9 10  2  0  0  0  0
M  END
>  <CHROM.1>
36.60110099,19.23951713,9.46663500,-0.89130682,1.46522479,-1.44429031

>  <Name>
ligand

>  <RI>
0

>  <Rbt.Current_Directory>
/home/itssahil/PROJECTS/Mol_Feturizer/New_Systems/rnas/2EEU

>  <Rbt.Executable>
rbdock ($Id: //depot/dev/client3/rdock/2013.1/src/exe/rbdock.cxx#4 $)

>  <Rbt.Library>
libRbt.so (2013.1, Build901 2013/11/27)

>  <Rbt.Parameter_File>
/export/apps/rDock/src/rDock_2013.1_src/data/scripts/dock_solv.prm

>  <Rbt.Receptor>
prm/blind_docking_80.prm

>  <SCORE>
-13.6497

>  <SCORE.INTER>
-13.6497

>  <SCORE.INTER.CONST>
1

>  <SCORE.INTER.POLAR>
0

>  <SCORE.INTER.ROT>
0

>  <SCORE.INTER.SOLV>
4.78117

>  <SCORE.INTER.VDW>
-14.2935

>  <SCORE.INTER.norm>
-1.36497

>  <SCORE.INTRA>
0

>  <SCORE.INTRA.DIHEDRAL>
0

>  <SCORE.INTRA.DIHEDRAL.0>
0

>  <SCORE.INTRA.POLAR>
0

>  <SCORE.INTRA.POLAR.0>
0

>  <SCORE.INTRA.REPUL>
0

>  <SCORE.INTRA.REPUL.0>
0

>  <SCORE.INTRA.SOLV>
0

>  <SCORE.INTRA.SOLV.lig_0>
-4.28148

>  <SCORE.INTRA.VDW>
0

>  <SCORE.INTRA.VDW.0>
0

>  <SCORE.INTRA.norm>
0

>  <SCORE.RESTR>
0

>  <SCORE.RESTR.CAVITY>
0

>  <SCORE.RESTR.norm>
0

>  <SCORE.SYSTEM>
0

>  <SCORE.SYSTEM.CONST>
0

>  <SCORE.SYSTEM.DIHEDRAL>
0

>  <SCORE.SYSTEM.SOLV>
0

>  <SCORE.SYSTEM.norm>
0

>  <SCORE.heavy>
10

>  <SCORE.norm>
-1.36497

>  <RMSD>
26.323

$$$$
ligand
 OpenBabel11021811423D
libRbt.so/2013.1/901 2013/11/27
 10 11  0  0  0  0  0  0  0  0999 V2000
   36.6827   17.5905   10.3120 N   0  0  0  0  0  0  0  0  0  0  0  0
   36.6662   17.1828    8.9933 C   0  0  0  0  0  0  0  0  0  0  0  0
   36.6422   18.0563    7.9790 N   0  0  0  0  0  0  0  0  0  0  0  0
   36.6333   19.3561    8.3885 C   0  0  0  0  0  0  0  0  0  0  0  0
   36.6472   19.8307    9.6913 C   0  0  0  0  0  0  0  0  0  0  0  0
   36.6751   18.9089   10.7730 C   0  0  0  0  0  0  0  0  0  0  0  0
   36.6920   19.1070   11.9879 O   0  0  0  0  0  0  0  0  0  0  0  0
   36.6298   21.2043    9.6530 N   0  0  0  0  0  0  0  0  0  0  0  0
   36.6065   21.5514    8.3448 C   0  0  0  0  0  0  0  0  0  0  0  0
   36.6066   20.4362    7.5397 N   0  0  0  0  0  0  0  0  0  0  0  0
  1  2  1  0  0  0  0
  1  6  1  0  0  0  0
  2  3  2  0  0  0  0
  3  4  1  0  0  0  0
  4  5  2  0  0  0  0
  4 10  1  0  0  0  0
  5  6  1  0  0  0  0
  5  8  1  0  0  0  0
  6  7  2  0  0  0  0
  8  9  1  0  0  0  0
  9 10  2  0  0  0  0
M  END
>  <CHROM.1>
36.64901765,19.31588054,9.41548385,0.16255566,1.55135856,-2.49811740

>  <Name>
ligand

>  <RI>
0

>  <Rbt.Current_Directory>
/home/itssahil/PROJECTS/Mol_Feturizer/New_Systems/rnas/2EEU

>  <Rbt.Executable>
rbdock ($Id: //depot/dev/client3/rdock/2013.1/src/exe/rbdock.cxx#4 $)

>  <Rbt.Library>
libRbt.so (2013.1, Build901 2013/11/27)

>  <Rbt.Parameter_File>
/export/apps/rDock/src/rDock_2013.1_src/data/scripts/dock_solv.prm

>  <Rbt.Receptor>
prm/blind_docking_100.prm

>  <SCORE>
-13.5112

>  <SCORE.INTER>
-13.5174

>  <SCORE.INTER.CONST>
1

>  <SCORE.INTER.POLAR>
0

>  <SCORE.INTER.ROT>
0

>  <SCORE.INTER.SOLV>
4.81128

>  <SCORE.INTER.VDW>
-14.2154

>  <SCORE.INTER.norm>
-1.35174

>  <SCORE.INTRA>
0

>  <SCORE.INTRA.DIHEDRAL>
0

>  <SCORE.INTRA.DIHEDRAL.0>
0

>  <SCORE.INTRA.POLAR>
0

>  <SCORE.INTRA.POLAR.0>
0

>  <SCORE.INTRA.REPUL>
0

>  <SCORE.INTRA.REPUL.0>
0

>  <SCORE.INTRA.SOLV>
0

>  <SCORE.INTRA.SOLV.lig_0>
-4.28148

>  <SCORE.INTRA.VDW>
0

>  <SCORE.INTRA.VDW.0>
0

>  <SCORE.INTRA.norm>
0

>  <SCORE.RESTR>
0.00624016

>  <SCORE.RESTR.CAVITY>
0.00624016

>  <SCORE.RESTR.norm>
0.000624016

>  <SCORE.SYSTEM>
0

>  <SCORE.SYSTEM.CONST>
0

>  <SCORE.SYSTEM.DIHEDRAL>
0

>  <SCORE.SYSTEM.SOLV>
0

>  <SCORE.SYSTEM.norm>
0

>  <SCORE.heavy>
10

>  <SCORE.norm>
-1.35112

>  <RMSD>
26.387

$$$$
ligand
 OpenBabel11021811423D
libRbt.so/2013.1/901 2013/11/27
 10 11  0  0  0  0  0  0  0  0999 V2000
   36.5740   18.7966    7.5672 N   0  0  0  0  0  0  0  0  0  0  0  0
   36.8480   17.5054    7.9713 C   0  0  0  0  0  0  0  0  0  0  0  0
   36.9665   17.1743    9.2631 N   0  0  0  0  0  0  0  0  0  0  0  0
   36.7931   18.2302   10.1071 C   0  0  0  0  0  0  0  0  0  0  0  0
   36.5185   19.5462    9.7673 C   0  0  0  0  0  0  0  0  0  0  0  0
   36.3890   19.9042    8.3978 C   0  0  0  0  0  0  0  0  0  0  0  0
   36.1504   20.9948    7.8789 O   0  0  0  0  0  0  0  0  0  0  0  0
   36.4225   20.2821   10.9239 N   0  0  0  0  0  0  0  0  0  0  0  0
   36.6357   19.4203   11.9458 C   0  0  0  0  0  0  0  0  0  0  0  0
   36.8683   18.1485   11.4766 N   0  0  0  0  0  0  0  0  0  0  0  0
  1  2  1  0  0  0  0
  1  6  1  0  0  0  0
  2  3  2  0  0  0  0
  3  4  1  0  0  0  0
  4  5  2  0  0  0  0
  4 10  1  0  0  0  0
  5  6  1  0  0  0  0
  5  8  1  0  0  0  0
  6  7  2  0  0  0  0
  8  9  1  0  0  0  0
  9 10  2  0  0  0  0
M  END
>  <CHROM.1>
36.60803036,19.03631091,9.49683465,-1.94538406,-1.37072310,1.35981948

>  <Name>
ligand

>  <RI>
0

>  <Rbt.Current_Directory>
/home/itssahil/PROJECTS/Mol_Feturizer/New_Systems/rnas/2EEU

>  <Rbt.Executable>
rbdock ($Id: //depot/dev/client3/rdock/2013.1/src/exe/rbdock.cxx#4 $)

>  <Rbt.Library>
libRbt.so (2013.1, Build901 2013/11/27)

>  <Rbt.Parameter_File>
/export/apps/rDock/src/rDock_2013.1_src/data/scripts/dock_solv.prm

>  <Rbt.Receptor>
prm/blind_docking_60.prm

>  <SCORE>
-11.5181

>  <SCORE.INTER>
-11.5391

>  <SCORE.INTER.CONST>
1

>  <SCORE.INTER.POLAR>
0

>  <SCORE.INTER.ROT>
0

>  <SCORE.INTER.SOLV>
4.09565

>  <SCORE.INTER.VDW>
-12.658

>  <SCORE.INTER.norm>
-1.15391

>  <SCORE.INTRA>
0

>  <SCORE.INTRA.DIHEDRAL>
0

>  <SCORE.INTRA.DIHEDRAL.0>
0

>  <SCORE.INTRA.POLAR>
0

>  <SCORE.INTRA.POLAR.0>
0

>  <SCORE.INTRA.REPUL>
0

>  <SCORE.INTRA.REPUL.0>
0

>  <SCORE.INTRA.SOLV>
0

>  <SCORE.INTRA.SOLV.lig_0>
-4.28148

>  <SCORE.INTRA.VDW>
0

>  <SCORE.INTRA.VDW.0>
0

>  <SCORE.INTRA.norm>
0

>  <SCORE.RESTR>
0.0209825

>  <SCORE.RESTR.CAVITY>
0.0209825

>  <SCORE.RESTR.norm>
0.00209825

>  <SCORE.SYSTEM>
0

>  <SCORE.SYSTEM.CONST>
0

>  <SCORE.SYSTEM.DIHEDRAL>
0

>  <SCORE.SYSTEM.SOLV>
0

>  <SCORE.SYSTEM.norm>
0

>  <SCORE.heavy>
10

>  <SCORE.norm>
-1.15181

>  <RMSD>
26.426

$$$$
ligand
 OpenBabel11021811423D
libRbt.so/2013.1/901 2013/11/27
 10 11  0  0  0  0  0  0  0  0999 V2000
   36.5935   18.7734    7.5529 N   0  0  0  0  0  0  0  0  0  0  0  0
   36.8512   17.4837    7.9722 C   0  0  0  0  0  0  0  0  0  0  0  0
   36.9556   17.1646    9.2682 N   0  0  0  0  0  0  0  0  0  0  0  0
   36.7858   18.2306   10.1001 C   0  0  0  0  0  0  0  0  0  0  0  0
   36.5272   19.5458    9.7448 C   0  0  0  0  0  0  0  0  0  0  0  0
   36.4127   19.8912    8.3707 C   0  0  0  0  0  0  0  0  0  0  0  0
   36.1893   20.9788    7.8389 O   0  0  0  0  0  0  0  0  0  0  0  0
   36.4290   20.2943   10.8930 N   0  0  0  0  0  0  0  0  0  0  0  0
   36.6251   19.4408   11.9253 C   0  0  0  0  0  0  0  0  0  0  0  0
   36.8489   18.1621   11.4709 N   0  0  0  0  0  0  0  0  0  0  0  0
  1  2  1  0  0  0  0
  1  6  1  0  0  0  0
  2  3  2  0  0  0  0
  3  4  1  0  0  0  0
  4  5  2  0  0  0  0
  4 10  1  0  0  0  0
  5  6  1  0  0  0  0
  5  8  1  0  0  0  0
  6  7  2  0  0  0  0
  8  9  1  0  0  0  0
  9 10  2  0  0  0  0
M  END
>  <CHROM.1>
36.61390927,19.03235877,9.48019493,-1.91329573,-1.38214263,1.38120939

>  <Name>
ligand

>  <RI>
0

>  <Rbt.Current_Directory>
/home/itssahil/PROJECTS/Mol_Feturizer/New_Systems/rnas/2EEU

>  <Rbt.Executable>
rbdock ($Id: //depot/dev/client3/rdock/2013.1/src/exe/rbdock.cxx#4 $)

>  <Rbt.Library>
libRbt.so (2013.1, Build901 2013/11/27)

>  <Rbt.Parameter_File>
/export/apps/rDock/src/rDock_2013.1_src/data/scripts/dock_solv.prm

>  <Rbt.Receptor>
prm/blind_docking_60.prm

>  <SCORE>
-11.5153

>  <SCORE.INTER>
-11.5217

>  <SCORE.INTER.CONST>
1

>  <SCORE.INTER.POLAR>
0

>  <SCORE.INTER.ROT>
0

>  <SCORE.INTER.SOLV>
4.1259

>  <SCORE.INTER.VDW>
-12.6564

>  <SCORE.INTER.norm>
-1.15217

>  <SCORE.INTRA>
0

>  <SCORE.INTRA.DIHEDRAL>
0

>  <SCORE.INTRA.DIHEDRAL.0>
0

>  <SCORE.INTRA.POLAR>
0

>  <SCORE.INTRA.POLAR.0>
0

>  <SCORE.INTRA.REPUL>
0

>  <SCORE.INTRA.REPUL.0>
0

>  <SCORE.INTRA.SOLV>
0

>  <SCORE.INTRA.SOLV.lig_0>
-4.28148

>  <SCORE.INTRA.VDW>
0

>  <SCORE.INTRA.VDW.0>
0

>  <SCORE.INTRA.norm>
0

>  <SCORE.RESTR>
0.00641123

>  <SCORE.RESTR.CAVITY>
0.00641123

>  <SCORE.RESTR.norm>
0.000641123

>  <SCORE.SYSTEM>
0

>  <SCORE.SYSTEM.CONST>
0

>  <SCORE.SYSTEM.DIHEDRAL>
0

>  <SCORE.SYSTEM.SOLV>
0

>  <SCORE.SYSTEM.norm>
0

>  <SCORE.heavy>
10

>  <SCORE.norm>
-1.15153

>  <RMSD>
26.428

$$$$
