@<TRIPOS>MOLECULE
2EEU_rdock.pdb
 1422 1589 0 0 0
SMALL
GASTEIGER

@<TRIPOS>ATOM
      1  C5'        4.6610    3.5630   23.3830 C.3    15  G15         0.2141
      2  O5'        3.6410    4.0570   22.5110 O.3    15  G15        -0.2176
      3  C4'        4.8610    2.0690   23.2630 C.3    15  G15         0.1802
      4  O4'        3.5830    1.3990   23.4360 O.3    15  G15        -0.3306
      5  C3'        5.3650    1.5740   21.9150 C.3    15  G15         0.1861
      6  O3'        6.7840    1.6340   21.8430 O.3    15  G15        -0.3112
      7  C2'        4.8780    0.1320   21.9090 C.3    15  G15         0.2309
      8  O2'        5.6950   -0.7370   22.6690 O.3    15  G15        -0.2156
      9  C1'        3.5070    0.2800   22.5680 C.3    15  G15         0.2408
     10  N1         0.4650   -1.7770   19.0780 N.ar   15  G15        -0.1709
     11  C2         1.3920   -2.3800   19.8950 C.ar   15  G15         0.2606
     12  N2         1.5310   -3.7070   19.7600 N.pl3  15  G15        -0.0859
     13  N3         2.1290   -1.7300   20.7790 N.ar   15  G15        -0.1918
     14  C4         1.8610   -0.4070   20.7840 C.ar   15  G15         0.1723
     15  C5         0.9570    0.2930   20.0130 C.ar   15  G15         0.1748
     16  C6         0.1740   -0.4160   19.0650 C.ar   15  G15         0.3023
     17  O6        -0.6790    0.0240   18.2840 O.2    15  G15        -0.2633
     18  N7         0.9820    1.6440   20.3290 N.ar   15  G15        -0.2173
     19  C8         1.8850    1.7380   21.2670 C.ar   15  G15         0.1817
     20  N9         2.4590    0.5310   21.5860 N.ar   15  G15        -0.2693
     21  P          7.5060    1.6630   20.4060 P.3    16  G16         0.2141
     22  C5'        7.8750   -0.9380   20.3650 C.3    16  G16         0.1812
     23  O5'        7.2390    0.2100   19.8080 O.3    16  G16        -0.3114
     24  C4'        7.2460   -2.2020   19.8250 C.3    16  G16         0.1773
     25  O4'        5.8050   -2.1410   20.0030 O.3    16  G16        -0.3307
     26  C3'        7.4240   -2.4400   18.3350 C.3    16  G16         0.1860
     27  O3'        8.6720   -3.0670   18.0700 O.3    16  G16        -0.3112
     28  C2'        6.2630   -3.3760   18.0290 C.3    16  G16         0.2309
     29  O2'        6.5260   -4.7130   18.4040 O.3    16  G16        -0.2156
     30  C1'        5.1640   -2.7910   18.9160 C.3    16  G16         0.2408
     31  N1         1.4310   -2.0770   15.5460 N.ar   16  G16        -0.1709
     32  C2         2.0050   -3.2480   15.9740 C.ar   16  G16         0.2606
     33  N2         1.5200   -4.3780   15.4340 N.pl3  16  G16        -0.0859
     34  N3         2.9840   -3.3090   16.8650 N.ar   16  G16        -0.1918
     35  C4         3.3490   -2.0840   17.2990 C.ar   16  G16         0.1723
     36  C5         2.8410   -0.8540   16.9330 C.ar   16  G16         0.1748
     37  C6         1.7890   -0.8030   15.9770 C.ar   16  G16         0.3023
     38  O6         1.2030    0.1900   15.5240 O.2    16  G16        -0.2633
     39  N7         3.4920    0.1690   17.6110 N.ar   16  G16        -0.2173
     40  C8         4.3660   -0.4460   18.3620 C.ar   16  G16         0.1817
     41  N9         4.3310   -1.8130   18.2240 N.ar   16  G16        -0.2693
     42  OP1        8.9700    1.8200   20.6180 O.3    16  G16        -0.4373
     43  OP2        6.7760    2.6480   19.5680 O.co2  16  G16        -0.5172
     44  P          9.3680   -2.8720   16.6340 P.3    17  A17         0.2141
     45  C5'        8.2110   -5.0750   15.8030 C.3    17  A17         0.1812
     46  O5'        8.4200   -3.6760   15.6380 O.3    17  A17        -0.3114
     47  C4'        7.4030   -5.6210   14.6510 C.3    17  A17         0.1773
     48  O4'        6.0010   -5.3040   14.8530 O.3    17  A17        -0.3307
     49  C3'        7.7400   -5.0350   13.2900 C.3    17  A17         0.1860
     50  O3'        8.8140   -5.7560   12.7040 O.3    17  A17        -0.3112
     51  C2'        6.4410   -5.2380   12.5180 C.3    17  A17         0.2309
     52  O2'        6.3030   -6.5380   11.9800 O.3    17  A17        -0.2156
     53  C1'        5.3950   -5.0020   13.6090 C.3    17  A17         0.2408
     54  N1         2.0370   -1.5870   11.7510 N.ar   17  A17        -0.2040
     55  C2         2.2460   -2.8820   11.4810 C.ar   17  A17         0.2016
     56  N3         3.1410   -3.7170   12.0010 N.ar   17  A17        -0.2048
     57  C4         3.8980   -3.0870   12.9140 C.ar   17  A17         0.1692
     58  C5         3.8050   -1.7600   13.2990 C.ar   17  A17         0.1518
     59  C6         2.8160   -0.9840   12.6750 C.ar   17  A17         0.1919
     60  N6         2.6070    0.3070   12.9450 N.pl3  17  A17        -0.1054
     61  N7         4.7530   -1.4610   14.2660 N.ar   17  A17        -0.2193
     62  C8         5.3880   -2.5950   14.4440 C.ar   17  A17         0.1816
     63  N9         4.9210   -3.6210   13.6590 N.ar   17  A17        -0.2693
     64  OP1       10.6910   -3.5480   16.6610 O.3    17  A17        -0.4373
     65  OP2        9.2880   -1.4280   16.2920 O.co2  17  A17        -0.5172
     66  P          9.8920   -4.9810   11.8000 P.3    18  C18         0.2141
     67  C5'        8.6810   -3.9610    9.7290 C.3    18  C18         0.1812
     68  O5'        9.2930   -5.0860   10.3320 O.3    18  C18        -0.3114
     69  C4'        7.6150   -4.4020    8.7620 C.3    18  C18         0.1773
     70  O4'        6.3310   -4.4090    9.4450 O.3    18  C18        -0.3307
     71  C3'        7.4490   -3.4660    7.5760 C.3    18  C18         0.1860
     72  O3'        8.2050   -3.9420    6.4740 O.3    18  C18        -0.3112
     73  C2'        5.9520   -3.5180    7.3100 C.3    18  C18         0.2309
     74  O2'        5.5670   -4.6530    6.5610 O.3    18  C18        -0.2156
     75  C1'        5.4090   -3.6030    8.7360 C.3    18  C18         0.2420
     76  N1         5.3350   -2.2900    9.4030 N.ar   18  C18        -0.2535
     77  C2         4.3050   -1.4160    9.0500 C.ar   18  C18         0.3532
     78  O2         3.4840   -1.7730    8.1890 O.2    18  C18        -0.2443
     79  N3         4.2280   -0.2050    9.6560 N.ar   18  C18        -0.1739
     80  C4         5.1310    0.1370   10.5780 C.ar   18  C18         0.1759
     81  N4         5.0160    1.3340   11.1540 N.pl3  18  C18        -0.1070
     82  C5         6.1920   -0.7350   10.9530 C.ar   18  C18         0.0566
     83  C6         6.2540   -1.9270   10.3470 C.ar   18  C18         0.0850
     84  OP1       11.1770   -5.7280   11.8400 O.2    18  C18        -0.5172
     85  OP2        9.8610   -3.5460   12.1920 O.co2  18  C18        -0.4373
     86  P          9.0260   -2.9010    5.5760 P.3    19  A19         0.2141
     87  C5'        6.9040   -2.7820    4.0450 C.3    19  A19         0.1812
     88  O5'        7.8850   -2.0940    4.8150 O.3    19  A19        -0.3114
     89  C4'        5.9120   -1.8010    3.4720 C.3    19  A19         0.1773
     90  O4'        4.9700   -1.4130    4.5080 O.3    19  A19        -0.3307
     91  C3'        6.5020   -0.4850    2.9970 C.3    19  A19         0.1860
     92  O3'        6.9850   -0.6040    1.6650 O.3    19  A19        -0.3112
     93  C2'        5.2910    0.4330    3.0600 C.3    19  A19         0.2309
     94  O2'        4.4240    0.2390    1.9610 O.3    19  A19        -0.2156
     95  C1'        4.6200   -0.0520    4.3470 C.3    19  A19         0.2408
     96  N1         3.9720    4.1290    7.2830 N.ar   19  A19        -0.2040
     97  C2         3.4150    3.7480    6.1270 C.ar   19  A19         0.2016
     98  N3         3.6360    2.6510    5.4050 N.ar   19  A19        -0.2048
     99  C4         4.5650    1.8780    5.9900 C.ar   19  A19         0.1692
    100  C5         5.2300    2.1370    7.1750 C.ar   19  A19         0.1518
    101  C6         4.8990    3.3260    7.8470 C.ar   19  A19         0.1919
    102  N6         5.4460    3.6970    9.0080 N.pl3  19  A19        -0.1054
    103  N7         6.1230    1.1150    7.4700 N.ar   19  A19        -0.2193
    104  C8         5.9740    0.2720    6.4770 C.ar   19  A19         0.1816
    105  N9         5.0420    0.6670    5.5490 N.ar   19  A19        -0.2693
    106  OP1        9.8050   -3.6650    4.5700 O.2    19  A19        -0.5172
    107  OP2        9.7280   -1.9820    6.5060 O.co2  19  A19        -0.4373
    108  P          8.1900    0.3380    1.1740 P.3    20  U20         0.2141
    109  C5'        6.4060    2.0050    0.2250 C.3    20  U20         0.1812
    110  O5'        7.5270    1.7810    1.0750 O.3    20  U20        -0.3114
    111  C4'        5.8950    3.4180    0.3900 C.3    20  U20         0.1773
    112  O4'        5.2060    3.5510    1.6640 O.3    20  U20        -0.3307
    113  C3'        6.9590    4.4980    0.4650 C.3    20  U20         0.1860
    114  O3'        7.4450    4.8370   -0.8290 O.3    20  U20        -0.3112
    115  C2'        6.1770    5.6420    1.0980 C.3    20  U20         0.2309
    116  O2'        5.3290    6.3190    0.1800 O.3    20  U20        -0.2156
    117  C1'        5.3490    4.8830    2.1410 C.3    20  U20         0.2420
    118  N1         6.0010    4.8310    3.4590 N.ar   20  U20        -0.2534
    119  C2         5.8250    5.9130    4.3100 C.ar   20  U20         0.3546
    120  O2         5.1410    6.8860    4.0190 O.2    20  U20        -0.2443
    121  N3         6.4780    5.8120    5.5160 N.ar   20  U20        -0.1530
    122  C4         7.2650    4.7630    5.9490 C.ar   20  U20         0.2846
    123  O4         7.8060    4.8240    7.0560 O.2    20  U20        -0.2650
    124  C5         7.3830    3.6810    5.0170 C.ar   20  U20         0.0814
    125  C6         6.7640    3.7520    3.8350 C.ar   20  U20         0.0870
    126  OP1        8.6110   -0.0520   -0.1970 O.2    20  U20        -0.5172
    127  OP2        9.1890    0.3610    2.2710 O.co2  20  U20        -0.4373
    128  P          8.9500    5.3890   -0.9980 P.3    21  A21         0.2141
    129  C5'        8.3780    7.9060   -0.5830 C.3    21  A21         0.1812
    130  O5'        8.9820    6.7110   -0.1140 O.3    21  A21        -0.3114
    131  C4'        8.5690    9.0100    0.4230 C.3    21  A21         0.1773
    132  O4'        8.0240    8.6040    1.7000 O.3    21  A21        -0.3307
    133  C3'       10.0120    9.3150    0.7850 C.3    21  A21         0.1860
    134  O3'       10.6150   10.1100   -0.2340 O.3    21  A21        -0.3112
    135  C2'        9.8370   10.0940    2.0920 C.3    21  A21         0.2309
    136  O2'        9.5120   11.4520    1.8610 O.3    21  A21        -0.2156
    137  C1'        8.6150    9.3990    2.7120 C.3    21  A21         0.2408
    138  N1         8.9460    9.0840    7.8320 N.ar   21  A21        -0.2040
    139  C2         8.4930   10.0470    7.0150 C.ar   21  A21         0.2016
    140  N3         8.4010   10.0510    5.6840 N.ar   21  A21        -0.2048
    141  C4         8.8490    8.8890    5.1740 C.ar   21  A21         0.1692
    142  C5         9.3320    7.8060    5.8820 C.ar   21  A21         0.1518
    143  C6         9.3730    7.9240    7.2880 C.ar   21  A21         0.1919
    144  N6         9.8060    6.9590    8.1040 N.pl3  21  A21        -0.1054
    145  N7         9.6990    6.7830    5.0180 N.ar   21  A21        -0.2193
    146  C8         9.4450    7.2670    3.8290 C.ar   21  A21         0.1816
    147  N9         8.9480    8.5440    3.8470 N.ar   21  A21        -0.2693
    148  OP1        9.1370    5.8010   -2.4030 O.2    21  A21        -0.5172
    149  OP2        9.8720    4.4020   -0.3940 O.co2  21  A21        -0.4373
    150  P         11.9010    9.5540   -1.0360 P.3    22  A22         0.2141
    151  C5'       14.3040    9.0540   -0.0670 C.3    22  A22         0.1812
    152  O5'       13.1240    9.8600   -0.0590 O.3    22  A22        -0.3114
    153  C4'       14.6440    8.6460    1.3440 C.3    22  A22         0.1773
    154  O4'       15.1510    9.8050    2.0590 O.3    22  A22        -0.3307
    155  C3'       13.4280    8.1370    2.0980 C.3    22  A22         0.1860
    156  O3'       13.5100    6.7560    2.4690 O.3    22  A22        -0.3112
    157  C2'       13.0830    9.2180    3.1320 C.3    22  A22         0.2309
    158  O2'       12.6870    8.7760    4.4180 O.3    22  A22        -0.2156
    159  C1'       14.3370   10.0980    3.1740 C.3    22  A22         0.2408
    160  N1        13.8730   14.5290    5.7850 N.ar   22  A22        -0.2040
    161  C2        14.2960   13.3120    6.1560 C.ar   22  A22         0.2016
    162  N3        14.4090   12.2000    5.4310 N.ar   22  A22        -0.2048
    163  C4        14.0400   12.4270    4.1550 C.ar   22  A22         0.1692
    164  C5        13.5980   13.6260    3.6220 C.ar   22  A22         0.1518
    165  C6        13.5040   14.7200    4.4990 C.ar   22  A22         0.1919
    166  N6        13.0640   15.9280    4.1300 N.pl3  22  A22        -0.1054
    167  N7        13.3180   13.4900    2.2720 N.ar   22  A22        -0.2193
    168  C8        13.5780   12.2300    2.0220 C.ar   22  A22         0.1816
    169  N9        14.0070   11.5240    3.1180 N.ar   22  A22        -0.2693
    170  OP1       12.0500   10.4140   -2.2320 O.2    22  A22        -0.5172
    171  OP2       11.7720    8.0860   -1.2040 O.co2  22  A22        -0.4373
    172  P         14.5390    6.2650    3.5960 P.3    23  A23         0.2141
    173  C5'       17.1490    6.1520    3.7330 C.3    23  A23         0.1812
    174  O5'       15.9800    6.3010    2.9230 O.3    23  A23        -0.3114
    175  C4'       18.3710    6.6230    2.9860 C.3    23  A23         0.1773
    176  O4'       17.9490    7.3250    1.7980 O.3    23  A23        -0.3307
    177  C3'       19.2240    7.6600    3.7030 C.3    23  A23         0.1860
    178  O3'       20.1310    7.0360    4.6110 O.3    23  A23        -0.3112
    179  C2'       19.9900    8.2970    2.5480 C.3    23  A23         0.2309
    180  O2'       21.1560    7.5660    2.2320 O.3    23  A23        -0.2156
    181  C1'       18.9810    8.2050    1.3980 C.3    23  A23         0.2408
    182  N1        17.1590   12.7610    2.9850 N.ar   23  A23        -0.2040
    183  C2        17.6330   11.7040    3.6570 C.ar   23  A23         0.2016
    184  N3        18.0810   10.5410    3.1890 N.ar   23  A23        -0.2048
    185  C4        18.0060   10.5100    1.8450 C.ar   23  A23         0.1692
    186  C5        17.5340   11.5120    1.0190 C.ar   23  A23         0.1518
    187  C6        17.1000   12.6960    1.6380 C.ar   23  A23         0.1919
    188  N6        16.6430   13.7550    0.9700 N.pl3  23  A23        -0.1054
    189  N7        17.5910   11.1200   -0.3130 N.ar   23  A23        -0.2193
    190  C8        18.1000    9.9140   -0.2640 C.ar   23  A23         0.1816
    191  N9        18.3840    9.4830    1.0100 N.ar   23  A23        -0.2693
    192  OP1       14.2340    4.8470    3.8870 O.2    23  A23        -0.5172
    193  OP2       14.5300    7.2590    4.6990 O.co2  23  A23        -0.4373
    194  P         19.9110    7.1860    6.2000 P.3    24  A24         0.2141
    195  C5'       19.7330    9.8060    6.0980 C.3    24  A24         0.1812
    196  O5'       20.4440    8.6520    6.5240 O.3    24  A24        -0.3114
    197  C4'       19.5280   10.7440    7.2610 C.3    24  A24         0.1773
    198  O4'       18.5480   10.1550    8.1530 O.3    24  A24        -0.3307
    199  C3'       20.7390   10.9650    8.1580 C.3    24  A24         0.1860
    200  O3'       21.5860   11.9830    7.6310 O.3    24  A24        -0.3112
    201  C2'       20.0770   11.4270    9.4530 C.3    24  A24         0.2309
    202  O2'       19.6760   12.7840    9.4200 O.3    24  A24        -0.2156
    203  C1'       18.8240   10.5520    9.4850 C.3    24  A24         0.2408
    204  N1        19.2080    8.7870   14.2740 N.ar   24  A24        -0.2040
    205  C2        19.1080   10.0220   13.7700 C.ar   24  A24         0.2016
    206  N3        19.0170   10.4100   12.5000 N.ar   24  A24        -0.2048
    207  C4        19.0440    9.3470   11.6800 C.ar   24  A24         0.1692
    208  C5        19.1460    8.0180   12.0460 C.ar   24  A24         0.1518
    209  C6        19.2210    7.7400   13.4210 C.ar   24  A24         0.1919
    210  N6        19.2870    6.5090   13.9240 N.pl3  24  A24        -0.1054
    211  N7        19.1490    7.2010   10.9280 N.ar   24  A24        -0.2193
    212  C8        19.0420    8.0400    9.9250 C.ar   24  A24         0.1816
    213  N9        18.9680    9.3560   10.3120 N.ar   24  A24        -0.2693
    214  OP1       20.8140    6.2170    6.8720 O.3    24  A24        -0.4373
    215  OP2       18.4570    7.1440    6.4890 O.co2  24  A24        -0.5172
    216  P         23.1440   11.6720    7.3420 P.3    25  U25         0.2141
    217  C5'       22.8070   10.5020    5.0190 C.3    25  U25         0.1812
    218  O5'       23.2250   11.6500    5.7540 O.3    25  U25        -0.3114
    219  C4'       22.3600   10.9020    3.6320 C.3    25  U25         0.1773
    220  O4'       21.0250   11.4740    3.6860 O.3    25  U25        -0.3307
    221  C3'       23.2030   11.9700    2.9580 C.3    25  U25         0.1860
    222  O3'       24.3380   11.3720    2.3360 O.3    25  U25        -0.3112
    223  C2'       22.2250   12.5530    1.9440 C.3    25  U25         0.2309
    224  O2'       22.1000   11.7590    0.7820 O.3    25  U25        -0.2156
    225  C1'       20.9100   12.5100    2.7270 C.3    25  U25         0.2420
    226  N1        20.5770   13.7570    3.4340 N.ar   25  U25        -0.2534
    227  C2        20.1160   14.8250    2.6850 C.ar   25  U25         0.3546
    228  O2        19.9790   14.7800    1.4700 O.2    25  U25        -0.2443
    229  N3        19.8160   15.9530    3.4080 N.ar   25  U25        -0.1530
    230  C4        19.9260   16.1220    4.7720 C.ar   25  U25         0.2846
    231  O4        19.6300   17.2130    5.2710 O.2    25  U25        -0.2650
    232  C5        20.4060   14.9740    5.4770 C.ar   25  U25         0.0814
    233  C6        20.7090   13.8580    4.8010 C.ar   25  U25         0.0870
    234  OP1       23.4820   10.3210    7.8620 O.3    25  U25        -0.4373
    235  OP2       23.9250   12.8500    7.8180 O.co2  25  U25        -0.5172
    236  P         25.7850   12.0490    2.5070 P.3    26  C26         0.2141
    237  C5'       25.2910   13.5290    0.4120 C.3    26  C26         0.1812
    238  O5'       25.6190   13.4610    1.7910 O.3    26  C26        -0.3114
    239  C4'       24.7530   14.8930    0.0680 C.3    26  C26         0.1773
    240  O4'       23.4710   15.1110    0.7260 O.3    26  C26        -0.3307
    241  C3'       25.5800   16.0670    0.5520 C.3    26  C26         0.1860
    242  O3'       26.7180   16.2830   -0.2690 O.3    26  C26        -0.3112
    243  C2'       24.5590   17.1900    0.4540 C.3    26  C26         0.2309
    244  O2'       24.3030   17.5950   -0.8760 O.3    26  C26        -0.2156
    245  C1'       23.3260   16.4940    1.0350 C.3    26  C26         0.2420
    246  N1        23.2740   16.6450    2.4990 N.ar   26  C26        -0.2535
    247  C2        22.6420   17.7740    3.0380 C.ar   26  C26         0.3532
    248  O2        22.0990   18.5910    2.2660 O.2    26  C26        -0.2443
    249  N3        22.6360   17.9480    4.3800 N.ar   26  C26        -0.1739
    250  C4        23.2160   17.0450    5.1740 C.ar   26  C26         0.1759
    251  N4        23.1930   17.2660    6.4920 N.pl3  26  C26        -0.1070
    252  C5        23.8460   15.8750    4.6550 C.ar   26  C26         0.0566
    253  C6        23.8500   15.7160    3.3240 C.ar   26  C26         0.0850
    254  OP1       26.7680   11.2540    1.7240 O.2    26  C26        -0.5172
    255  OP2       26.0170   12.2800    3.9620 O.co2  26  C26        -0.4373
    256  P         28.0570   16.8950    0.3790 P.3    27  G27         0.2141
    257  C5'       28.1570   18.3030   -1.8240 C.3    27  G27         0.1812
    258  O5'       28.2520   18.2660   -0.4040 O.3    27  G27        -0.3114
    259  C4'       27.8380   19.7040   -2.2930 C.3    27  G27         0.1773
    260  O4'       26.3970   19.9260   -2.2190 O.3    27  G27        -0.3307
    261  C3'       28.4130   20.8480   -1.4730 C.3    27  G27         0.1860
    262  O3'       29.7870   21.1190   -1.7800 O.3    27  G27        -0.3112
    263  C2'       27.5050   21.9840   -1.9180 C.3    27  G27         0.2309
    264  O2'       27.8240   22.3690   -3.2380 O.3    27  G27        -0.2156
    265  C1'       26.1370   21.2890   -1.8860 C.3    27  G27         0.2408
    266  N1        23.5950   24.0590    1.5960 N.ar   27  G27        -0.1709
    267  C2        23.9190   24.3910    0.3040 C.ar   27  G27         0.2606
    268  N2        23.5540   25.6180   -0.0890 N.pl3  27  G27        -0.0859
    269  N3        24.5540   23.5780   -0.5390 N.ar   27  G27        -0.1918
    270  C4        24.8350   22.3800    0.0310 C.ar   27  G27         0.1723
    271  C5        24.5390   21.9500    1.3100 C.ar   27  G27         0.1748
    272  C6        23.8710   22.8390    2.2010 C.ar   27  G27         0.3023
    273  O6        23.5450   22.6480    3.3820 O.2    27  G27        -0.2633
    274  N7        24.9880   20.6520    1.5090 N.ar   27  G27        -0.2173
    275  C8        25.5530   20.3210    0.3780 C.ar   27  G27         0.1817
    276  N9        25.5220   21.3260   -0.5570 N.ar   27  G27        -0.2693
    277  OP1       29.1910   15.9890    0.0520 O.2    27  G27        -0.5172
    278  OP2       27.7650   17.2220    1.8000 O.co2  27  G27        -0.4373
    279  P         30.7690   21.6770   -0.6180 P.3    28  C28         0.2141
    280  C5'       30.0150   24.0460   -1.5030 C.3    28  C28         0.1812
    281  O5'       30.2840   23.1860   -0.3880 O.3    28  C28        -0.3114
    282  C4'       29.2420   25.2890   -1.0840 C.3    28  C28         0.1773
    283  O4'       27.8740   24.9630   -0.7200 O.3    28  C28        -0.3307
    284  C3'       29.7490   26.1150    0.0880 C.3    28  C28         0.1860
    285  O3'       30.8300   26.9450   -0.3280 O.3    28  C28        -0.3112
    286  C2'       28.5110   26.9480    0.4020 C.3    28  C28         0.2309
    287  O2'       28.3190   27.9890   -0.5370 O.3    28  C28        -0.2156
    288  C1'       27.3980   25.9090    0.2350 C.3    28  C28         0.2420
    289  N1        27.0960   25.1960    1.4940 N.ar   28  C28        -0.2535
    290  C2        26.4300   25.8810    2.5270 C.ar   28  C28         0.3532
    291  O2        26.0520   27.0550    2.3330 O.2    28  C28        -0.2443
    292  N3        26.2110   25.2430    3.7110 N.ar   28  C28        -0.1739
    293  C4        26.6170   23.9810    3.8750 C.ar   28  C28         0.1759
    294  N4        26.4110   23.4060    5.0620 N.pl3  28  C28        -0.1070
    295  C5        27.2620   23.2530    2.8290 C.ar   28  C28         0.0566
    296  C6        27.4780   23.8940    1.6660 C.ar   28  C28         0.0850
    297  OP1       32.1670   21.6860   -1.1180 O.2    28  C28        -0.5172
    298  OP2       30.4460   20.8980    0.6080 O.co2  28  C28        -0.4373
    299  P         31.9710   27.3800    0.7220 P.3    29  G29         0.2141
    300  C5'       30.8370   29.7390    0.8280 C.3    29  G29         0.1812
    301  O5'       31.3030   28.5860    1.5170 O.3    29  G29        -0.3114
    302  C4'       30.1290   30.6600    1.7880 C.3    29  G29         0.1773
    303  O4'       28.8900   30.0330    2.2120 O.3    29  G29        -0.3307
    304  C3'       30.8770   30.9220    3.0840 C.3    29  G29         0.1860
    305  O3'       31.8150   31.9770    2.9110 O.3    29  G29        -0.3112
    306  C2'       29.7400   31.3180    4.0130 C.3    29  G29         0.2309
    307  O2'       29.3170   32.6440    3.7860 O.3    29  G29        -0.2156
    308  C1'       28.6500   30.3340    3.5800 C.3    29  G29         0.2408
    309  N1        27.4580   28.0790    7.9710 N.ar   29  G29        -0.1709
    310  C2        27.3010   29.3910    7.5890 C.ar   29  G29         0.2606
    311  N2        26.7280   30.2020    8.4940 N.pl3  29  G29        -0.0859
    312  N3        27.6720   29.8680    6.4100 N.ar   29  G29        -0.1918
    313  C4        28.2100   28.9120    5.6260 C.ar   29  G29         0.1723
    314  C5        28.4090   27.5770    5.9100 C.ar   29  G29         0.1748
    315  C6        28.0110   27.0790    7.1850 C.ar   29  G29         0.3023
    316  O6        28.1000   25.9270    7.6300 O.2    29  G29        -0.2633
    317  N7        28.9980   26.9280    4.8360 N.ar   29  G29        -0.2173
    318  C8        29.1350   27.8610    3.9290 C.ar   29  G29         0.1817
    319  N9        28.6680   29.0860    4.3410 N.ar   29  G29        -0.2693
    320  OP1       33.1350   27.9230   -0.0210 O.2    29  G29        -0.5172
    321  OP2       32.1780   26.2650    1.6820 O.co2  29  G29        -0.4373
    322  P         33.3090   31.8240    3.4770 P.3    30  U30         0.2141
    323  C5'       32.8860   33.4870    5.4620 C.3    30  U30         0.1812
    324  O5'       33.1700   32.1680    5.0260 O.3    30  U30        -0.3114
    325  C4'       32.5030   33.4750    6.9220 C.3    30  U30         0.1773
    326  O4'       31.2550   32.7400    7.0960 O.3    30  U30        -0.3307
    327  C3'       33.4540   32.7400    7.8470 C.3    30  U30         0.1860
    328  O3'       34.6230   33.5000    8.1500 O.3    30  U30        -0.3112
    329  C2'       32.5640   32.5090    9.0590 C.3    30  U30         0.2309
    330  O2'       32.3500   33.6870    9.8120 O.3    30  U30        -0.2156
    331  C1'       31.2570   32.1050    8.3740 C.3    30  U30         0.2420
    332  N1        31.1780   30.6460    8.1930 N.ar   30  U30        -0.2534
    333  C2        30.7530   29.9030    9.2820 C.ar   30  U30         0.3546
    334  O2        30.4210   30.4180   10.3440 O.2    30  U30        -0.2443
    335  N3        30.7340   28.5430    9.0900 N.ar   30  U30        -0.1530
    336  C4        31.0880   27.8610    7.9410 C.ar   30  U30         0.2846
    337  O4        31.0620   26.6320    7.9410 O.2    30  U30        -0.2650
    338  C5        31.4970   28.7010    6.8460 C.ar   30  U30         0.0814
    339  C6        31.5250   30.0340    7.0090 C.ar   30  U30         0.0870
    340  OP1       34.1640   32.8620    2.8380 O.2    30  U30        -0.5172
    341  OP2       33.7110   30.3970    3.4040 O.co2  30  U30        -0.4373
    342  P         36.0140   32.7360    8.4460 P.3    31  G31         0.2141
    343  C5'       35.6190   33.0310   11.0170 C.3    31  G31         0.1812
    344  O5'       35.8050   32.1530    9.9120 O.3    31  G31        -0.3114
    345  C4'       35.0400   32.2880   12.1960 C.3    31  G31         0.1773
    346  O4'       33.7790   31.6600   11.8330 O.3    31  G31        -0.3307
    347  C3'       35.8540   31.1340   12.7600 C.3    31  G31         0.1860
    348  O3'       36.9030   31.5910   13.6100 O.3    31  G31        -0.3112
    349  C2'       34.7850   30.4300   13.5790 C.3    31  G31         0.2309
    350  O2'       34.4700   31.1660   14.7430 O.3    31  G31        -0.2156
    351  C1'       33.6090   30.4780   12.6020 C.3    31  G31         0.2408
    352  N1        33.0360   25.4590   12.3680 N.ar   31  G31        -0.1709
    353  C2        32.8740   26.3160   13.4290 C.ar   31  G31         0.2606
    354  N2        32.5490   25.7560   14.6130 N.pl3  31  G31        -0.0859
    355  N3        33.0260   27.6270   13.3480 N.ar   31  G31        -0.1918
    356  C4        33.3690   28.0230   12.1050 C.ar   31  G31         0.1723
    357  C5        33.5660   27.2540   10.9790 C.ar   31  G31         0.1748
    358  C6        33.3960   25.8420   11.0760 C.ar   31  G31         0.3023
    359  O6        33.5320   24.9840   10.1910 O.2    31  G31        -0.2633
    360  N7        33.9250   28.0470    9.9010 N.ar   31  G31        -0.2173
    361  C8        33.9470   29.2630   10.3850 C.ar   31  G31         0.1817
    362  N9        33.6340   29.3140   11.7200 N.ar   31  G31        -0.2693
    363  OP1       37.1180   33.7250    8.4970 O.3    31  G31        -0.4373
    364  OP2       36.0910   31.6000    7.4900 O.co2  31  G31        -0.5172
    365  P         38.1950   30.6590   13.8620 P.3    32  G32         0.2141
    366  C5'       36.8800   29.5610   15.8720 C.3    32  G32         0.1812
    367  O5'       37.6520   29.4020   14.6850 O.3    32  G32        -0.3114
    368  C4'       36.5570   28.2040   16.4590 C.3    32  G32         0.1773
    369  O4'       35.4840   27.5790   15.6920 O.3    32  G32        -0.3307
    370  C3'       37.6870   27.1930   16.3870 C.3    32  G32         0.1860
    371  O3'       38.5900   27.3290   17.4780 O.3    32  G32        -0.3112
    372  C2'       36.9300   25.8770   16.4530 C.3    32  G32         0.2309
    373  O2'       36.4550   25.5970   17.7550 O.3    32  G32        -0.2156
    374  C1'       35.7500   26.1890   15.5390 C.3    32  G32         0.2408
    375  N1        36.2960   22.5850   11.9970 N.ar   32  G32        -0.1709
    376  C2        35.9830   22.4590   13.3240 C.ar   32  G32         0.2606
    377  N2        35.8060   21.2040   13.7660 N.pl3  32  G32        -0.0859
    378  N3        35.8610   23.4870   14.1600 N.ar   32  G32        -0.1918
    379  C4        36.0980   24.6680   13.5460 C.ar   32  G32         0.1723
    380  C5        36.4290   24.9000   12.2280 C.ar   32  G32         0.1748
    381  C6        36.5430   23.7880   11.3420 C.ar   32  G32         0.3023
    382  O6        36.8220   23.7860   10.1270 O.2    32  G32        -0.2633
    383  N7        36.5990   26.2590   11.9940 N.ar   32  G32        -0.2173
    384  C8        36.3710   26.8200   13.1530 C.ar   32  G32         0.1817
    385  N9        36.0580   25.9120   14.1380 N.ar   32  G32        -0.2693
    386  OP1       39.1410   31.4240   14.7100 O.3    32  G32        -0.4373
    387  OP2       38.6480   30.1300   12.5490 O.co2  32  G32        -0.5172
    388  P         40.0810   26.7700   17.3350 P.3    33  A33         0.2141
    389  C5'       39.3720   24.6190   18.6720 C.3    33  A33         0.1812
    390  O5'       39.9320   25.1890   17.4950 O.3    33  A33        -0.3114
    391  C4'       39.2920   23.1120   18.5430 C.3    33  A33         0.1773
    392  O4'       38.3710   22.7380   17.4830 O.3    33  A33        -0.3307
    393  C3'       40.5650   22.3860   18.1470 C.3    33  A33         0.1860
    394  O3'       41.4430   22.2450   19.2570 O.3    33  A33        -0.3112
    395  C2'       40.0040   21.0350   17.7120 C.3    33  A33         0.2309
    396  O2'       39.6020   20.2330   18.8070 O.3    33  A33        -0.2156
    397  C1'       38.7520   21.4740   16.9570 C.3    33  A33         0.2408
    398  N1        39.4760   18.9480   12.5530 N.ar   33  A33        -0.2040
    399  C2        39.3620   18.5320   13.8250 C.ar   33  A33         0.2016
    400  N3        39.1890   19.2520   14.9320 N.ar   33  A33        -0.2048
    401  C4        39.1480   20.5670   14.6410 C.ar   33  A33         0.1692
    402  C5        39.2600   21.1440   13.3900 C.ar   33  A33         0.1518
    403  C6        39.4160   20.2740   12.2980 C.ar   33  A33         0.1919
    404  N6        39.4930   20.6860   11.0300 N.pl3  33  A33        -0.1054
    405  N7        39.1850   22.5280   13.4790 N.ar   33  A33        -0.2193
    406  C8        39.0180   22.7540   14.7590 C.ar   33  A33         0.1816
    407  N9        38.9700   21.6070   15.5190 N.ar   33  A33        -0.2693
    408  OP1       40.8740   27.3040   18.4680 O.3    33  A33        -0.4373
    409  OP2       40.5410   27.0000   15.9430 O.co2  33  A33        -0.5172
    410  P         43.0320   22.3010   19.0240 P.3    34  U34         0.2141
    411  C5'       43.0360   19.6870   18.6850 C.3    34  U34         0.1812
    412  O5'       43.3580   20.9830   18.1850 O.3    34  U34        -0.3114
    413  C4'       43.2890   18.6380   17.6190 C.3    34  U34         0.1773
    414  O4'       42.5030   18.9490   16.4390 O.3    34  U34        -0.3307
    415  C3'       44.7390   18.5070   17.1530 C.3    34  U34         0.1860
    416  O3'       45.0930   17.1430   17.0850 O.3    34  U34        -0.3112
    417  C2'       44.7380   19.1110   15.7500 C.3    34  U34         0.2309
    418  O2'       45.6290   18.4900   14.8430 O.3    34  U34        -0.2156
    419  C1'       43.3130   18.8400   15.2910 C.3    34  U34         0.2420
    420  N1        42.9170   19.8710   14.3280 N.ar   34  U34        -0.2534
    421  C2        42.7870   19.4910   13.0110 C.ar   34  U34         0.3546
    422  O2        42.8970   18.3350   12.6460 O.2    34  U34        -0.2443
    423  N3        42.5180   20.5160   12.1400 N.ar   34  U34        -0.1530
    424  C4        42.3570   21.8470   12.4540 C.ar   34  U34         0.2846
    425  O4        42.2030   22.6640   11.5500 O.2    34  U34        -0.2650
    426  C5        42.4620   22.1500   13.8480 C.ar   34  U34         0.0814
    427  C6        42.7260   21.1750   14.7160 C.ar   34  U34         0.0870
    428  OP1       43.6910   22.1910   20.3500 O.3    34  U34        -0.4373
    429  OP2       43.3230   23.4700   18.1510 O.co2  34  U34        -0.5172
    430  P         46.1450   16.5460   18.1340 P.3    35  A35         0.2141
    431  C5'       44.7170   14.3640   18.3090 C.3    35  A35         0.1812
    432  O5'       45.9590   14.9780   17.9780 O.3    35  A35        -0.3114
    433  C4'       44.8150   12.8770   18.1080 C.3    35  A35         0.1773
    434  O4'       44.7080   12.5830   16.6940 O.3    35  A35        -0.3307
    435  C3'       46.1210   12.2590   18.5820 C.3    35  A35         0.1860
    436  O3'       45.8580   10.9890   19.1520 O.3    35  A35        -0.3112
    437  C2'       46.9650   12.1820   17.3070 C.3    35  A35         0.2309
    438  O2'       47.8730   11.0950   17.2800 O.3    35  A35        -0.2156
    439  C1'       45.9030   11.9900   16.2250 C.3    35  A35         0.2408
    440  N1        48.0730   11.4130   11.5780 N.ar   35  A35        -0.2040
    441  C2        47.8990   10.5600   12.6040 C.ar   35  A35         0.2016
    442  N3        47.3310   10.7740   13.7930 N.ar   35  A35        -0.2048
    443  C4        46.8970   12.0430   13.8890 C.ar   35  A35         0.1692
    444  C5        47.0010   13.0320   12.9240 C.ar   35  A35         0.1518
    445  C6        47.6260   12.6830   11.7130 C.ar   35  A35         0.1919
    446  N6        47.7970   13.5360   10.6970 N.pl3  35  A35        -0.1054
    447  N7        46.4410   14.2190   13.3720 N.ar   35  A35        -0.2193
    448  C8        46.0160   13.9280   14.5790 C.ar   35  A35         0.1816
    449  N9        46.2560   12.6280   14.9550 N.ar   35  A35        -0.2693
    450  OP1       45.6830   16.9340   19.4970 O.3    35  A35        -0.4373
    451  OP2       47.5150   16.9010   17.6930 O.co2  35  A35        -0.5172
    452  P         45.8240   10.8260   20.7590 P.3    36  U36         0.2141
    453  C5'       43.2820   11.1500   21.3830 C.3    36  U36         0.1812
    454  O5'       44.5860   11.7120   21.2320 O.3    36  U36        -0.3114
    455  C4'       42.5040   11.9150   22.4340 C.3    36  U36         0.1773
    456  O4'       43.2880   11.9440   23.6620 O.3    36  U36        -0.3307
    457  C3'       42.2020   13.3790   22.1030 C.3    36  U36         0.1860
    458  O3'       40.9850   13.7850   22.7210 O.3    36  U36        -0.3112
    459  C2'       43.3400   14.1080   22.8020 C.3    36  U36         0.2309
    460  O2'       43.0110   15.4440   23.1150 O.3    36  U36        -0.2156
    461  C1'       43.4520   13.2820   24.0800 C.3    36  U36         0.2420
    462  N1        44.7420   13.4080   24.7680 N.ar   36  U36        -0.2534
    463  C2        44.7440   13.9930   26.0210 C.ar   36  U36         0.3546
    464  O2        43.7310   14.3730   26.5730 O.2    36  U36        -0.2443
    465  N3        45.9800   14.1110   26.6070 N.ar   36  U36        -0.1530
    466  C4        47.1870   13.6980   26.0890 C.ar   36  U36         0.2846
    467  O4        48.2160   13.8690   26.7470 O.2    36  U36        -0.2650
    468  C5        47.1030   13.0850   24.7920 C.ar   36  U36         0.0814
    469  C6        45.9150   12.9680   24.1890 C.ar   36  U36         0.0870
    470  OP1       47.0520   11.4610   21.2840 O.3    36  U36        -0.4373
    471  OP2       45.5670    9.3900   21.0220 O.co2  36  U36        -0.5172
    472  P         39.5920   13.5880   21.9580 P.3    37  G37         0.2141
    473  C5'       39.6000   16.0650   21.0590 C.3    37  G37         0.1812
    474  O5'       39.6350   14.6750   20.7890 O.3    37  G37        -0.3114
    475  C4'       39.5020   16.8280   19.7560 C.3    37  G37         0.1773
    476  O4'       40.7300   16.6370   19.0010 O.3    37  G37        -0.3307
    477  C3'       38.4180   16.3040   18.8330 C.3    37  G37         0.1860
    478  O3'       37.1800   16.9080   19.1780 O.3    37  G37        -0.3112
    479  C2'       38.9350   16.7270   17.4630 C.3    37  G37         0.2309
    480  O2'       38.7110   18.1000   17.1980 O.3    37  G37        -0.2156
    481  C1'       40.4350   16.4650   17.6220 C.3    37  G37         0.2408
    482  N1        42.2840   13.4180   13.9660 N.ar   37  G37        -0.1709
    483  C2        42.0430   14.7620   13.9200 C.ar   37  G37         0.2606
    484  N2        42.3520   15.3740   12.7630 N.pl3  37  G37        -0.0859
    485  N3        41.5410   15.4620   14.9350 N.ar   37  G37        -0.1918
    486  C4        41.3210   14.6900   16.0230 C.ar   37  G37         0.1723
    487  C5        41.5370   13.3360   16.1690 C.ar   37  G37         0.1748
    488  C6        42.0470   12.5980   15.0710 C.ar   37  G37         0.3023
    489  O6        42.2750   11.3860   15.0000 O.2    37  G37        -0.2633
    490  N7        41.1990   12.9180   17.4460 N.ar   37  G37        -0.2173
    491  C8        40.7880   13.9990   18.0460 C.ar   37  G37         0.1817
    492  N9        40.8320   15.1120   17.2440 N.ar   37  G37        -0.2693
    493  OP1       38.5000   13.9310   22.9090 O.3    37  G37        -0.4373
    494  OP2       39.5810   12.2690   21.2810 O.co2  37  G37        -0.5172
    495  P         35.8080   16.1590   18.8420 P.3    38  G38         0.2141
    496  C5'       35.5150   17.3710   16.5240 C.3    38  G38         0.1812
    497  O5'       35.7610   16.1670   17.2480 O.3    38  G38        -0.3114
    498  C4'       35.6550   17.1170   15.0360 C.3    38  G38         0.1773
    499  O4'       37.0270   16.7420   14.7460 O.3    38  G38        -0.3307
    500  C3'       34.8130   15.9760   14.4850 C.3    38  G38         0.1860
    501  O3'       33.5280   16.4900   14.1420 O.3    38  G38        -0.3112
    502  C2'       35.6100   15.5700   13.2430 C.3    38  G38         0.2309
    503  O2'       35.3890   16.4120   12.1280 O.3    38  G38        -0.2156
    504  C1'       37.0500   15.7610   13.7200 C.3    38  G38         0.2408
    505  N1        39.8160   11.6640   12.6630 N.ar   38  G38        -0.1709
    506  C2        39.6170   12.8010   11.9160 C.ar   38  G38         0.2606
    507  N2        40.1830   12.8250   10.7070 N.pl3  38  G38        -0.0859
    508  N3        38.9130   13.8360   12.3270 N.ar   38  G38        -0.1918
    509  C4        38.4230   13.6510   13.5720 C.ar   38  G38         0.1723
    510  C5        38.5790   12.5660   14.4080 C.ar   38  G38         0.1748
    511  C6        39.3160   11.4520   13.9450 C.ar   38  G38         0.3023
    512  O6        39.5310   10.3800   14.5200 O.2    38  G38        -0.2633
    513  N7        37.9210   12.7740   15.6130 N.ar   38  G38        -0.2173
    514  C8        37.3700   13.9530   15.4810 C.ar   38  G38         0.1817
    515  N9        37.6050   14.5200   14.2500 N.ar   38  G38        -0.2693
    516  OP1       34.6820   16.9740   19.3680 O.3    38  G38        -0.4373
    517  OP2       35.9300   14.7320   19.2340 O.co2  38  G38        -0.5172
    518  P         32.1900   15.6310   14.4300 P.3    39  C39         0.2141
    519  C5'       30.9500   17.0940   16.2640 C.3    39  C39         0.1812
    520  O5'       31.1380   16.7450   14.9060 O.3    39  C39        -0.3114
    521  C4'       31.1650   18.5890   16.4790 C.3    39  C39         0.1773
    522  O4'       32.3460   19.0540   15.7750 O.3    39  C39        -0.3307
    523  C3'       30.1280   19.6240   16.0480 C.3    39  C39         0.1860
    524  O3'       28.9940   19.6380   16.9090 O.3    39  C39        -0.3112
    525  C2'       30.9450   20.8900   16.2750 C.3    39  C39         0.2309
    526  O2'       31.1260   21.1430   17.6610 O.3    39  C39        -0.2156
    527  C1'       32.2980   20.4690   15.6930 C.3    39  C39         0.2420
    528  N1        32.4740   20.8700   14.2870 N.ar   39  C39        -0.2535
    529  C2        32.6030   22.2350   13.9940 C.ar   39  C39         0.3532
    530  O2        32.5650   23.0540   14.9350 O.2    39  C39        -0.2443
    531  N3        32.7620   22.6270   12.7000 N.ar   39  C39        -0.1739
    532  C4        32.7970   21.7080   11.7230 C.ar   39  C39         0.1759
    533  N4        32.9510   22.1350   10.4550 N.pl3  39  C39        -0.1070
    534  C5        32.6720   20.3100   11.9980 C.ar   39  C39         0.0566
    535  C6        32.5120   19.9400   13.2810 C.ar   39  C39         0.0850
    536  OP1       32.4500   14.5940   15.4490 O.3    39  C39        -0.4373
    537  OP2       31.6640   15.2270   13.1110 O.co2  39  C39        -0.5172
    538  P         27.6540   20.4440   16.4910 P.3    40  A40         0.2141
    539  C5'       27.9970   22.6480   17.9010 C.3    40  A40         0.1812
    540  O5'       28.0220   21.9930   16.6340 O.3    40  A40        -0.3114
    541  C4'       28.0150   24.1530   17.7160 C.3    40  A40         0.1773
    542  O4'       29.2320   24.5470   17.0240 O.3    40  A40        -0.3307
    543  C3'       26.9050   24.7280   16.8500 C.3    40  A40         0.1860
    544  O3'       25.7270   24.9430   17.6070 O.3    40  A40        -0.3112
    545  C2'       27.5110   26.0530   16.4140 C.3    40  A40         0.2309
    546  O2'       27.4490   27.0310   17.4390 O.3    40  A40        -0.2156
    547  C1'       28.9530   25.6290   16.1460 C.3    40  A40         0.2408
    548  N1        30.0230   27.0820   11.3350 N.ar   40  A40        -0.2040
    549  C2        29.8090   27.7730   12.4630 C.ar   40  A40         0.2016
    550  N3        29.5080   27.3260   13.6840 N.ar   40  A40        -0.2048
    551  C4        29.4270   25.9870   13.6930 C.ar   40  A40         0.1692
    552  C5        29.6110   25.1360   12.6140 C.ar   40  A40         0.1518
    553  C6        29.9340   25.7350   11.3750 C.ar   40  A40         0.1919
    554  N6        30.1650   25.0440   10.2510 N.pl3  40  A40        -0.1054
    555  N7        29.4340   23.8140   12.9950 N.ar   40  A40        -0.2193
    556  C8        29.1670   23.8890   14.2810 C.ar   40  A40         0.1816
    557  N9        29.1640   25.1760   14.7720 N.ar   40  A40        -0.2693
    558  OP1       26.6390   20.1030   17.5240 O.3    40  A40        -0.4373
    559  OP2       27.3390   20.2130   15.0600 O.co2  40  A40        -0.5172
    560  P         24.2970   24.7750   16.9180 P.3    41  C41         0.2141
    561  C5'       24.1970   27.3820   16.6490 C.3    41  C41         0.1812
    562  O5'       24.1100   26.0950   16.0410 O.3    41  C41        -0.3114
    563  C4'       24.3890   28.4550   15.6020 C.3    41  C41         0.1773
    564  O4'       25.7300   28.4060   15.0310 O.3    41  C41        -0.3307
    565  C3'       23.5060   28.3830   14.3720 C.3    41  C41         0.1860
    566  O3'       22.1730   28.8030   14.6490 O.3    41  C41        -0.3112
    567  C2'       24.2520   29.3470   13.4620 C.3    41  C41         0.2309
    568  O2'       24.1640   30.6830   13.9150 O.3    41  C41        -0.2156
    569  C1'       25.6850   28.8670   13.6860 C.3    41  C41         0.2420
    570  N1        26.0120   27.7550   12.7750 N.ar   41  C41        -0.2535
    571  C2        26.3770   28.0680   11.4680 C.ar   41  C41         0.3532
    572  O2        26.4500   29.2650   11.1420 O.2    41  C41        -0.2443
    573  N3        26.6410   27.0680   10.5910 N.ar   41  C41        -0.1739
    574  C4        26.5520   25.7970   10.9840 C.ar   41  C41         0.1759
    575  N4        26.8070   24.8450   10.0800 N.pl3  41  C41        -0.1070
    576  C5        26.1910   25.4450   12.3210 C.ar   41  C41         0.0566
    577  C6        25.9380   26.4480   13.1780 C.ar   41  C41         0.0850
    578  OP1       23.3140   24.7970   18.0340 O.3    41  C41        -0.4373
    579  OP2       24.3110   23.6260   15.9620 O.co2  41  C41        -0.5172
    580  P         20.9510   28.1950   13.7870 P.3    42  G42         0.2141
    581  C5'       20.9870   30.2240   12.1270 C.3    42  G42         0.1812
    582  O5'       21.1350   28.8220   12.3330 O.3    42  G42        -0.3114
    583  C4'       21.4770   30.6170   10.7500 C.3    42  G42         0.1773
    584  O4'       22.8640   30.2310   10.5630 O.3    42  G42        -0.3307
    585  C3'       20.7790   29.9770    9.5630 C.3    42  G42         0.1860
    586  O3'       19.5300   30.6120    9.3020 O.3    42  G42        -0.3112
    587  C2'       21.7830   30.2720    8.4580 C.3    42  G42         0.2309
    588  O2'       21.7550   31.6200    8.0330 O.3    42  G42        -0.2156
    589  C1'       23.1010   29.9920    9.1800 C.3    42  G42         0.2408
    590  N1        25.0050   26.5440    5.9750 N.ar   42  G42        -0.1709
    591  C2        24.7980   27.8860    5.7870 C.ar   42  G42         0.2606
    592  N2        25.1060   28.3650    4.5710 N.pl3  42  G42        -0.0859
    593  N3        24.3140   28.6980    6.7180 N.ar   42  G42        -0.1918
    594  C4        24.0360   28.0420    7.8650 C.ar   42  G42         0.1723
    595  C5        24.1930   26.7020    8.1490 C.ar   42  G42         0.1748
    596  C6        24.7150   25.8460    7.1460 C.ar   42  G42         0.3023
    597  O6        24.9130   24.6290    7.2010 O.2    42  G42        -0.2633
    598  N7        23.7740   26.4190    9.4440 N.ar   42  G42        -0.2173
    599  C8        23.3750   27.5730    9.9150 C.ar   42  G42         0.1817
    600  N9        23.4950   28.5970    9.0040 N.ar   42  G42        -0.2693
    601  OP1       19.6910   28.7050   14.3690 O.3    42  G42        -0.4373
    602  OP2       21.1690   26.7330   13.6790 O.co2  42  G42        -0.5172
    603  P         18.3950   29.8360    8.4600 P.3    43  C43         0.2141
    604  C5'       19.2270   31.1580    6.3490 C.3    43  C43         0.1812
    605  O5'       18.9110   29.9050    6.9530 O.3    43  C43        -0.3114
    606  C4'       19.7790   30.9540    4.9550 C.3    43  C43         0.1773
    607  O4'       21.0990   30.3490    5.0170 O.3    43  C43        -0.3307
    608  C3'       19.0080   30.0050    4.0560 C.3    43  C43         0.1860
    609  O3'       17.8630   30.6330    3.4890 O.3    43  C43        -0.3112
    610  C2'       20.0550   29.6940    2.9970 C.3    43  C43         0.2309
    611  O2'       20.2510   30.7670    2.0980 O.3    43  C43        -0.2156
    612  C1'       21.3010   29.5350    3.8680 C.3    43  C43         0.2420
    613  N1        21.5080   28.1420    4.3000 N.ar   43  C43        -0.2535
    614  C2        22.0600   27.2280    3.3840 C.ar   43  C43         0.3532
    615  O2        22.3480   27.6160    2.2390 O.2    43  C43        -0.2443
    616  N3        22.2630   25.9490    3.7680 N.ar   43  C43        -0.1739
    617  C4        21.9380   25.5620    5.0020 C.ar   43  C43         0.1759
    618  N4        22.1700   24.2860    5.3320 N.pl3  43  C43        -0.1070
    619  C5        21.3670   26.4650    5.9520 C.ar   43  C43         0.0566
    620  C6        21.1720   27.7340    5.5620 C.ar   43  C43         0.0850
    621  OP1       17.1470   30.6240    8.5550 O.2    43  C43        -0.5172
    622  OP2       18.4000   28.4220    8.8900 O.co2  43  C43        -0.4373
    623  P         16.5540   29.7540    3.1710 P.3    44  A44         0.2141
    624  C5'       16.8110   29.0520    0.6570 C.3    44  A44         0.1812
    625  O5'       17.0350   28.7520    2.0290 O.3    44  A44        -0.3114
    626  C4'       17.5170   28.0520   -0.2320 C.3    44  A44         0.1773
    627  O4'       18.8520   27.7620    0.2710 O.3    44  A44        -0.3307
    628  C3'       16.8970   26.6710   -0.3700 C.3    44  A44         0.1860
    629  O3'       15.7900   26.6880   -1.2660 O.3    44  A44        -0.3112
    630  C2'       18.0730   25.9140   -0.9670 C.3    44  A44         0.2309
    631  O2'       18.3140   26.2990   -2.3050 O.3    44  A44        -0.2156
    632  C1'       19.2110   26.4320   -0.0870 C.3    44  A44         0.2408
    633  N1        20.7050   21.9740    1.9820 N.ar   44  A44        -0.2040
    634  C2        20.7980   22.4640    0.7380 C.ar   44  A44         0.2016
    635  N3        20.4030   23.6470    0.2670 N.ar   44  A44        -0.2048
    636  C4        19.8520   24.3850    1.2460 C.ar   44  A44         0.1692
    637  C5        19.6900   24.0210    2.5700 C.ar   44  A44         0.1518
    638  C6        20.1400   22.7440    2.9410 C.ar   44  A44         0.1919
    639  N6        20.0330   22.2540    4.1820 N.pl3  44  A44        -0.1054
    640  N7        19.0820   25.0400    3.2890 N.ar   44  A44        -0.2193
    641  C8        18.8850   25.9790    2.3970 C.ar   44  A44         0.1816
    642  N9        19.3160   25.6440    1.1370 N.ar   44  A44        -0.2693
    643  OP1       15.5270   30.6650    2.6100 O.2    44  A44        -0.5172
    644  OP2       16.2330   28.9400    4.3680 O.co2  44  A44        -0.4373
    645  P         14.6610   25.5440   -1.1640 P.3    45  A45         0.2141
    646  C5'       15.9100   24.0850   -2.9440 C.3    45  A45         0.1812
    647  O5'       15.4060   24.2130   -1.6230 O.3    45  A45        -0.3114
    648  C4'       16.5130   22.7160   -3.1460 C.3    45  A45         0.1773
    649  O4'       17.6330   22.5380   -2.2460 O.3    45  A45        -0.3307
    650  C3'       15.6050   21.5370   -2.8390 C.3    45  A45         0.1860
    651  O3'       14.7730   21.2480   -3.9570 O.3    45  A45        -0.3112
    652  C2'       16.6140   20.4190   -2.6130 C.3    45  A45         0.2309
    653  O2'       17.0970   19.8690   -3.8210 O.3    45  A45        -0.2156
    654  C1'       17.7440   21.1680   -1.9010 C.3    45  A45         0.2408
    655  N1        18.7900   18.1490    2.1000 N.ar   45  A45        -0.2040
    656  C2        18.8910   17.9650    0.7780 C.ar   45  A45         0.2016
    657  N3        18.5720   18.7920   -0.2110 N.ar   45  A45        -0.2048
    658  C4        18.0930   19.9500    0.2750 C.ar   45  A45         0.1692
    659  C5        17.9230   20.2860    1.6050 C.ar   45  A45         0.1518
    660  C6        18.2990   19.3220    2.5570 C.ar   45  A45         0.1919
    661  N6        18.2030   19.5030    3.8790 N.pl3  45  A45        -0.1054
    662  N7        17.3950   21.5650    1.7240 N.ar   45  A45        -0.2193
    663  C8        17.2710   21.9710    0.4810 C.ar   45  A45         0.1816
    664  N9        17.6920   21.0480   -0.4450 N.ar   45  A45        -0.2693
    665  OP1       13.6200   25.8650   -2.1720 O.2    45  A45        -0.5172
    666  OP2       14.2770   25.3770    0.2600 O.co2  45  A45        -0.4373
    667  P         13.3580   20.5230   -3.7310 P.3    46  G46         0.2141
    668  C5'       14.3880   18.1200   -3.8530 C.3    46  G46         0.1812
    669  O5'       13.7470   19.1260   -3.0760 O.3    46  G46        -0.3114
    670  C4'       14.7460   16.9420   -2.9850 C.3    46  G46         0.1773
    671  O4'       15.6640   17.3720   -1.9460 O.3    46  G46        -0.3307
    672  C3'       13.5950   16.3190   -2.2150 C.3    46  G46         0.1860
    673  O3'       12.8880   15.3980   -3.0380 O.3    46  G46        -0.3112
    674  C2'       14.3390   15.5980   -1.1010 C.3    46  G46         0.2309
    675  O2'       14.9490   14.4030   -1.5540 O.3    46  G46        -0.2156
    676  C1'       15.4310   16.6160   -0.7690 C.3    46  G46         0.2408
    677  N1        15.6840   17.5500    4.2180 N.ar   46  G46        -0.1709
    678  C2        16.0910   16.4420    3.5200 C.ar   46  G46         0.2606
    679  N2        16.6590   15.4630    4.2460 N.pl3  46  G46        -0.0859
    680  N3        15.9480   16.3010    2.2080 N.ar   46  G46        -0.1918
    681  C4        15.3540   17.3750    1.6450 C.ar   46  G46         0.1723
    682  C5        14.9030   18.5250    2.2540 C.ar   46  G46         0.1748
    683  C6        15.0660   18.6660    3.6610 C.ar   46  G46         0.3023
    684  O6        14.7390   19.6190    4.3880 O.2    46  G46        -0.2633
    685  N7        14.3420   19.3890    1.3210 N.ar   46  G46        -0.2173
    686  C8        14.4700   18.7630    0.1820 C.ar   46  G46         0.1817
    687  N9        15.0900   17.5430    0.3050 N.ar   46  G46        -0.2693
    688  OP1       12.7720   20.2520   -5.0710 O.2    46  G46        -0.5172
    689  OP2       12.5820   21.3080   -2.7360 O.co2  46  G46        -0.4373
    690  P         11.3510   15.6880   -3.4280 P.3    47  U47         0.2141
    691  C5'       10.6440   13.5190   -2.1340 C.3    47  U47         0.1812
    692  O5'       10.5260   14.9260   -2.3000 O.3    47  U47        -0.3114
    693  C4'        9.6560   13.0340   -1.1000 C.3    47  U47         0.1773
    694  O4'       10.0280   13.5700    0.2030 O.3    47  U47        -0.3307
    695  C3'        8.2090   13.4600   -1.3350 C.3    47  U47         0.1860
    696  O3'        7.3320   12.4300   -0.8950 O.3    47  U47        -0.3112
    697  C2'        8.0760   14.6870   -0.4380 C.3    47  U47         0.2309
    698  O2'        6.7530   14.9580   -0.0150 O.3    47  U47        -0.2156
    699  C1'        8.9360   14.2760    0.7540 C.3    47  U47         0.2420
    700  N1         9.4530   15.4200    1.5180 N.ar   47  U47        -0.2534
    701  C2         9.3650   15.3710    2.8990 C.ar   47  U47         0.3546
    702  O2         8.9360   14.4020    3.5020 O.2    47  U47        -0.2443
    703  N3         9.8090   16.4980    3.5480 N.ar   47  U47        -0.1530
    704  C4        10.3340   17.6370    2.9700 C.ar   47  U47         0.2846
    705  O4        10.6270   18.6010    3.6810 O.2    47  U47        -0.2650
    706  C5        10.4230   17.5940    1.5440 C.ar   47  U47         0.0814
    707  C6         9.9900   16.5140    0.8830 C.ar   47  U47         0.0870
    708  OP1       11.1010   15.0030   -4.7190 O.2    47  U47        -0.5172
    709  OP2       11.0780   17.1430   -3.3070 O.co2  47  U47        -0.4373
    710  P          6.4910   11.5690   -1.9690 P.3    48  U48         0.2141
    711  C5'        4.4720   13.2140   -1.6740 C.3    48  U48         0.1812
    712  O5'        5.4170   12.5950   -2.5430 O.3    48  U48        -0.3114
    713  C4'        3.6800   14.2620   -2.4190 C.3    48  U48         0.1773
    714  O4'        2.8590   13.6170   -3.4270 O.3    48  U48        -0.3307
    715  C3'        2.7350   15.0890   -1.5510 C.3    48  U48         0.1860
    716  O3'        2.9160   16.4730   -1.8090 O.3    48  U48        -0.3112
    717  C2'        1.3400   14.6290   -1.9720 C.3    48  U48         0.2309
    718  O2'        0.3820   15.6700   -1.9330 O.3    48  U48        -0.2156
    719  C1'        1.5730   14.1910   -3.4150 C.3    48  U48         0.2420
    720  N1         0.6110   13.1740   -3.8600 N.ar   48  U48        -0.2534
    721  C2        -0.2760   13.5180   -4.8670 C.ar   48  U48         0.3546
    722  O2        -0.2670   14.6080   -5.4190 O.2    48  U48        -0.2443
    723  N3        -1.1730   12.5340   -5.2060 N.ar   48  U48        -0.1530
    724  C4        -1.2650   11.2690   -4.6560 C.ar   48  U48         0.2846
    725  O4        -2.1490   10.5040   -5.0410 O.2    48  U48        -0.2650
    726  C5        -0.2970   10.9880   -3.6400 C.ar   48  U48         0.0814
    727  C6         0.5840   11.9270   -3.2870 C.ar   48  U48         0.0870
    728  OP1        5.7670   10.5480   -1.1690 O.3    48  U48        -0.4373
    729  OP2        7.3790   11.1390   -3.0770 O.co2  48  U48        -0.5172
    730  P          4.1470   17.2500   -1.1340 P.3    49  U49         0.2141
    731  C5'        2.9930   17.2660    1.2280 C.3    49  U49         0.1812
    732  O5'        4.0760   16.8430    0.4040 O.3    49  U49        -0.3114
    733  C4'        3.3880   17.1870    2.6810 C.3    49  U49         0.1773
    734  O4'        3.3270   15.8040    3.1210 O.3    49  U49        -0.3307
    735  C3'        4.7990   17.6780    2.9950 C.3    49  U49         0.1860
    736  O3'        4.7820   18.4820    4.1680 O.3    49  U49        -0.3112
    737  C2'        5.5840   16.3850    3.2190 C.3    49  U49         0.2309
    738  O2'        6.6640   16.5370    4.1190 O.3    49  U49        -0.2156
    739  C1'        4.5100   15.4830    3.8210 C.3    49  U49         0.2420
    740  N1         4.7600   14.0440    3.6590 N.ar   49  U49        -0.2534
    741  C2         4.5200   13.2290    4.7510 C.ar   49  U49         0.3546
    742  O2         4.1510   13.6620    5.8310 O.2    49  U49        -0.2443
    743  N3         4.7330   11.8910    4.5350 N.ar   49  U49        -0.1530
    744  C4         5.1640   11.2990    3.3660 C.ar   49  U49         0.2846
    745  O4         5.2770   10.0730    3.3170 O.2    49  U49        -0.2650
    746  C5         5.4120   12.2110    2.2900 C.ar   49  U49         0.0814
    747  C6         5.2060   13.5210    2.4700 C.ar   49  U49         0.0870
    748  OP1        3.8490   18.7030   -1.2460 O.3    49  U49        -0.4373
    749  OP2        5.4130   16.7100   -1.6920 O.co2  49  U49        -0.5172
    750  P          5.7760   19.7380    4.2870 P.3    50  C50         0.2141
    751  C5'        4.5750   20.7610    6.3780 C.3    50  C50         0.1812
    752  O5'        5.7170   20.1090    5.8330 O.3    50  C50        -0.3114
    753  C4'        4.4280   20.4090    7.8350 C.3    50  C50         0.1773
    754  O4'        4.0450   19.0150    7.9560 O.3    50  C50        -0.3307
    755  C3'        5.7040   20.4920    8.6510 C.3    50  C50         0.1860
    756  O3'        5.9540   21.8330    9.0450 O.3    50  C50        -0.3112
    757  C2'        5.3660   19.6050    9.8410 C.3    50  C50         0.2309
    758  O2'        4.5350   20.2580   10.7830 O.3    50  C50        -0.2156
    759  C1'        4.5720   18.4870    9.1610 C.3    50  C50         0.2420
    760  N1         5.3660   17.2960    8.8320 N.ar   50  C50        -0.2535
    761  C2         5.7880   16.4620    9.8680 C.ar   50  C50         0.3532
    762  O2         5.5010   16.7660   11.0360 O.2    50  C50        -0.2443
    763  N3         6.4950   15.3460    9.5740 N.ar   50  C50        -0.1739
    764  C4         6.7850   15.0560    8.3050 C.ar   50  C50         0.1759
    765  N4         7.4690   13.9360    8.0600 N.pl3  50  C50        -0.1070
    766  C5         6.3800   15.8990    7.2270 C.ar   50  C50         0.0566
    767  C6         5.6790   16.9990    7.5340 C.ar   50  C50         0.0850
    768  OP1        5.1960   20.8730    3.5230 O.2    50  C50        -0.5172
    769  OP2        7.1490   19.2710    3.9710 O.co2  50  C50        -0.4373
    770  P          7.4540   22.3950    9.0150 P.3    51  U51         0.2141
    771  C5'        8.0800   21.3710   11.3350 C.3    51  U51         0.1812
    772  O5'        8.2480   21.3630    9.9280 O.3    51  U51        -0.3114
    773  C4'        8.7790   20.1860   11.9520 C.3    51  U51         0.1773
    774  O4'        8.1590   18.9420   11.5040 O.3    51  U51        -0.3307
    775  C3'       10.2190   19.9480   11.5520 C.3    51  U51         0.1860
    776  O3'       11.1460   20.9630   11.9610 O.3    51  U51        -0.3112
    777  C2'       10.4010   18.5370   12.0830 C.3    51  U51         0.2309
    778  O2'       10.3130   18.4610   13.4900 O.3    51  U51        -0.2156
    779  C1'        9.1330   17.8980   11.5190 C.3    51  U51         0.2420
    780  N1         9.3330   17.4210   10.1430 N.ar   51  U51        -0.2534
    781  C2         9.8480   16.1490    9.9760 C.ar   51  U51         0.3546
    782  O2        10.1170   15.4170   10.9120 O.2    51  U51        -0.2443
    783  N3        10.0320   15.7650    8.6730 N.ar   51  U51        -0.1530
    784  C4         9.7520   16.5030    7.5420 C.ar   51  U51         0.2846
    785  O4         9.9570   16.0110    6.4320 O.2    51  U51        -0.2650
    786  C5         9.2130   17.8050    7.7970 C.ar   51  U51         0.0814
    787  C6         9.0270   18.2090    9.0570 C.ar   51  U51         0.0870
    788  OP1        7.4740   23.7220    9.6860 O.3    51  U51        -0.4373
    789  OP2        7.9640   22.2650    7.6240 O.co2  51  U51        -0.5172
    790  P         11.7010   21.0120   13.4650 P.3    52  U52         0.2141
    791  C5'       13.4220   19.2090   12.7400 C.3    52  U52         0.1812
    792  O5'       12.4480   19.6260   13.6660 O.3    52  U52        -0.3114
    793  C4'       13.9210   17.8410   13.1000 C.3    52  U52         0.1773
    794  O4'       13.1280   16.8370   12.4210 O.3    52  U52        -0.3307
    795  C3'       15.3700   17.6360   12.6990 C.3    52  U52         0.1860
    796  O3'       16.1420   17.6720   13.8930 O.3    52  U52        -0.3112
    797  C2'       15.3850   16.2770   11.9870 C.3    52  U52         0.2309
    798  O2'       15.7130   15.2090   12.8500 O.3    52  U52        -0.2156
    799  C1'       13.9370   16.1330   11.5090 C.3    52  U52         0.2420
    800  N1        13.6500   16.6340   10.1550 N.ar   52  U52        -0.2534
    801  C2        13.9080   15.7890    9.0870 C.ar   52  U52         0.3546
    802  O2        14.3810   14.6740    9.2260 O.2    52  U52        -0.2443
    803  N3        13.5920   16.3020    7.8510 N.ar   52  U52        -0.1530
    804  C4        13.0580   17.5500    7.5760 C.ar   52  U52         0.2846
    805  O4        12.7980   17.8570    6.4070 O.2    52  U52        -0.2650
    806  C5        12.8330   18.3660    8.7270 C.ar   52  U52         0.0814
    807  C6        13.1300   17.8930    9.9470 C.ar   52  U52         0.0870
    808  OP1       10.5410   21.0520   14.3980 O.3    52  U52        -0.4373
    809  OP2       12.7350   22.0790   13.5210 O.co2  52  U52        -0.5172
    810  P         17.5080   18.5140   13.9350 P.3    53  C53         0.2141
    811  C5'       19.2060   17.9080   12.0810 C.3    53  C53         0.1812
    812  O5'       18.5390   17.5210   13.2510 O.3    53  C53        -0.3114
    813  C4'       19.7410   16.7020   11.3680 C.3    53  C53         0.1773
    814  O4'       18.6280   16.0050   10.7410 O.3    53  C53        -0.3307
    815  C3'       20.7030   17.0920   10.2560 C.3    53  C53         0.1860
    816  O3'       22.0420   16.8460   10.6810 O.3    53  C53        -0.3112
    817  C2'       20.2920   16.1820    9.1000 C.3    53  C53         0.2309
    818  O2'       20.9310   14.9260    9.1880 O.3    53  C53        -0.2156
    819  C1'       18.7900   16.0180    9.3420 C.3    53  C53         0.2420
    820  N1        17.9220   17.0770    8.7760 N.ar   53  C53        -0.2535
    821  C2        17.2110   16.8080    7.6030 C.ar   53  C53         0.3532
    822  O2        17.3140   15.6910    7.0860 O.2    53  C53        -0.2443
    823  N3        16.4210   17.7700    7.0670 N.ar   53  C53        -0.1739
    824  C4        16.3160   18.9560    7.6680 C.ar   53  C53         0.1759
    825  N4        15.5230   19.8770    7.1070 N.pl3  53  C53        -0.1070
    826  C5        17.0200   19.2550    8.8710 C.ar   53  C53         0.0566
    827  C6        17.8070   18.2970    9.3820 C.ar   53  C53         0.0850
    828  OP1       17.9230   18.6760   15.3530 O.3    53  C53        -0.4373
    829  OP2       17.3880   19.7110   13.0630 O.co2  53  C53        -0.5172
    830  P         22.7520   17.8290   11.7510 P.3    54  C54         0.2141
    831  C5'       23.0980   17.0420   14.2320 C.3    54  C54         0.1812
    832  O5'       23.3260   16.8240   12.8500 O.3    54  C54        -0.3114
    833  C4'       22.6930   15.7530   14.9170 C.3    54  C54         0.1773
    834  O4'       21.9590   14.8940   14.0080 O.3    54  C54        -0.3307
    835  C3'       23.7950   14.8160   15.3880 C.3    54  C54         0.1860
    836  O3'       24.4350   15.2860   16.5720 O.3    54  C54        -0.3112
    837  C2'       22.9880   13.5570   15.6800 C.3    54  C54         0.2309
    838  O2'       22.3090   13.6000   16.9180 O.3    54  C54        -0.2156
    839  C1'       21.9690   13.5730   14.5350 C.3    54  C54         0.2420
    840  N1        22.3430   12.6340   13.4680 N.ar   54  C54        -0.2535
    841  C2        22.3030   11.2540   13.7380 C.ar   54  C54         0.3532
    842  O2        21.9310   10.8700   14.8510 O.2    54  C54        -0.2443
    843  N3        22.6660   10.3820   12.7740 N.ar   54  C54        -0.1739
    844  C4        23.0490   10.8330   11.5780 C.ar   54  C54         0.1759
    845  N4        23.3960    9.9360   10.6570 N.pl3  54  C54        -0.1070
    846  C5        23.0900   12.2280   11.2740 C.ar   54  C54         0.0566
    847  C6        22.7300   13.0830   12.2390 C.ar   54  C54         0.0850
    848  OP1       21.7420   18.6980   12.3930 O.3    54  C54        -0.4373
    849  OP2       23.9030   18.4480   11.0510 O.co2  54  C54        -0.5172
    850  P         25.8790   14.7040   16.9940 P.3    55  G55         0.2141
    851  C5'       25.1520   13.1550   18.9890 C.3    55  G55         0.1812
    852  O5'       25.5630   13.2730   17.6270 O.3    55  G55        -0.3114
    853  C4'       25.1850   11.7100   19.4430 C.3    55  G55         0.1773
    854  O4'       24.3190   10.9050   18.5970 O.3    55  G55        -0.3307
    855  C3'       26.5340   11.0120   19.3650 C.3    55  G55         0.1860
    856  O3'       27.3360   11.2880   20.5090 O.3    55  G55        -0.3112
    857  C2'       26.1290    9.5480   19.3100 C.3    55  G55         0.2309
    858  O2'       25.7750    9.0180   20.5720 O.3    55  G55        -0.2156
    859  C1'       24.8930    9.6200   18.4160 C.3    55  G55         0.2408
    860  N1        25.5850    6.3120   14.6230 N.ar   55  G55        -0.1709
    861  C2        25.3640    6.0680   15.9550 C.ar   55  G55         0.2606
    862  N2        25.2870    4.7690   16.3140 N.pl3  55  G55        -0.0859
    863  N3        25.2260    7.0220   16.8680 N.ar   55  G55        -0.1918
    864  C4        25.3240    8.2580   16.3240 C.ar   55  G55         0.1723
    865  C5        25.5480    8.6050   15.0070 C.ar   55  G55         0.1748
    866  C6        25.6900    7.5740   14.0430 C.ar   55  G55         0.3023
    867  O6        25.8720    7.6790   12.8220 O.2    55  G55        -0.2633
    868  N7        25.5890    9.9870   14.8610 N.ar   55  G55        -0.2173
    869  C8        25.3850   10.4490   16.0690 C.ar   55  G55         0.1817
    870  N9        25.1960    9.4550   17.0000 N.ar   55  G55        -0.2693
    871  OP1       26.3750   15.5960   18.0670 O.3    55  G55        -0.4373
    872  OP2       26.6960   14.5110   15.7700 O.co2  55  G55        -0.5172
    873  P         28.9040   11.5660   20.3160 P.3    56  G56         0.2141
    874  C5'       29.4570    9.3060   21.5020 C.3    56  G56         0.1812
    875  O5'       29.5370   10.1070   20.3280 O.3    56  G56        -0.3114
    876  C4'       29.4880    7.8440   21.1430 C.3    56  G56         0.1773
    877  O4'       28.3800    7.5280   20.2560 O.3    56  G56        -0.3307
    878  C3'       30.6990    7.3630   20.3660 C.3    56  G56         0.1860
    879  O3'       31.8140    7.1680   21.2290 O.3    56  G56        -0.3112
    880  C2'       30.1620    6.0500   19.8220 C.3    56  G56         0.2309
    881  O2'       30.0370    5.0640   20.8280 O.3    56  G56        -0.2156
    882  C1'       28.7680    6.4900   19.3710 C.3    56  G56         0.2408
    883  N1        28.8720    5.4290   14.4270 N.ar   56  G56        -0.1709
    884  C2        28.8290    4.5720   15.5010 C.ar   56  G56         0.2606
    885  N2        28.8300    3.2570   15.2230 N.pl3  56  G56        -0.0859
    886  N3        28.7920    4.9730   16.7540 N.ar   56  G56        -0.1918
    887  C4        28.8100    6.3190   16.8540 C.ar   56  G56         0.1723
    888  C5        28.8610    7.2600   15.8470 C.ar   56  G56         0.1748
    889  C6        28.8950    6.8200   14.5080 C.ar   56  G56         0.3023
    890  O6        28.9410    7.5020   13.4730 O.2    56  G56        -0.2633
    891  N7        28.8710    8.5440   16.3720 N.ar   56  G56        -0.2173
    892  C8        28.8240    8.3650   17.6630 C.ar   56  G56         0.1817
    893  N9        28.7930    7.0360   18.0220 N.ar   56  G56        -0.2693
    894  OP1       29.3980   12.3080   21.5090 O.3    56  G56        -0.4373
    895  OP2       29.0810   12.1400   18.9590 O.co2  56  G56        -0.5172
    896  P         33.2860    7.0500   20.6150 P.3    57  G57         0.2141
    897  C5'       33.3180    4.4180   20.5740 C.3    57  G57         0.1812
    898  O5'       33.3130    5.6460   19.8550 O.3    57  G57        -0.3114
    899  C4'       33.2830    3.2490   19.6150 C.3    57  G57         0.1773
    900  O4'       32.1150    3.3630   18.7580 O.3    57  G57        -0.3307
    901  C3'       34.4380    3.1530   18.6350 C.3    57  G57         0.1860
    902  O3'       35.5610    2.5080   19.2210 O.3    57  G57        -0.3112
    903  C2'       33.8340    2.2760   17.5470 C.3    57  G57         0.2309
    904  O2'       33.7900    0.9160   17.9220 O.3    57  G57        -0.2156
    905  C1'       32.4180    2.8430   17.4670 C.3    57  G57         0.2408
    906  N1        32.1850    4.0490   12.5260 N.ar   57  G57        -0.1709
    907  C2        32.3510    2.8170   13.1180 C.ar   57  G57         0.2606
    908  N2        32.4680    1.7730   12.2830 N.pl3  57  G57        -0.0859
    909  N3        32.4030    2.6260   14.4300 N.ar   57  G57        -0.1918
    910  C4        32.2980    3.7840   15.1130 C.ar   57  G57         0.1723
    911  C5        32.1460    5.0640   14.6170 C.ar   57  G57         0.1748
    912  C6        32.0610    5.2530   13.2140 C.ar   57  G57         0.3023
    913  O6        31.8840    6.3060   12.5900 O.2    57  G57        -0.2633
    914  N7        32.0830    5.9880   15.6510 N.ar   57  G57        -0.2173
    915  C8        32.1840    5.2670   16.7400 C.ar   57  G57         0.1817
    916  N9        32.3080    3.9220   16.4870 N.ar   57  G57        -0.2693
    917  OP1       34.2260    7.0130   21.7610 O.3    57  G57        -0.4373
    918  OP2       33.4430    8.0910   19.5660 O.co2  57  G57        -0.5172
    919  P         37.0470    2.9690   18.8210 P.3    58  C58         0.2141
    920  C5'       37.1980    1.2510   16.8430 C.3    58  C58         0.1812
    921  O5'       37.1690    2.6090   17.2750 O.3    58  C58        -0.3114
    922  C4'       37.0950    1.1780   15.3370 C.3    58  C58         0.1773
    923  O4'       35.8230    1.7190   14.8830 O.3    58  C58        -0.3307
    924  C3'       38.1110    1.9840   14.5500 C.3    58  C58         0.1860
    925  O3'       39.3550    1.3070   14.4880 O.3    58  C58        -0.3112
    926  C2'       37.4410    2.0140   13.1870 C.3    58  C58         0.2309
    927  O2'       37.5120    0.7500   12.5520 O.3    58  C58        -0.2156
    928  C1'       35.9960    2.3090   13.5950 C.3    58  C58         0.2420
    929  N1        35.7290    3.7590   13.6860 N.ar   58  C58        -0.2535
    930  C2        35.5150    4.4680   12.5010 C.ar   58  C58         0.3532
    931  O2        35.5700    3.8530   11.4190 O.2    58  C58        -0.2443
    932  N3        35.2640    5.7970   12.5570 N.ar   58  C58        -0.1739
    933  C4        35.2260    6.4210   13.7330 C.ar   58  C58         0.1759
    934  N4        34.9580    7.7250   13.7330 N.pl3  58  C58        -0.1070
    935  C5        35.4550    5.7290   14.9630 C.ar   58  C58         0.0566
    936  C6        35.6960    4.4080   14.8930 C.ar   58  C58         0.0850
    937  OP1       37.9990    2.1220   19.5690 O.3    58  C58        -0.4373
    938  OP2       37.1320    4.4470   18.9460 O.co2  58  C58        -0.5172
    939  P         40.7070    2.1410   14.2680 P.3    59  A59         0.2141
    940  C5'       40.7210    1.6080   11.6860 C.3    59  A59         0.1812
    941  O5'       40.6520    2.5730   12.7310 O.3    59  A59        -0.3114
    942  C4'       40.4100    2.2590   10.3500 C.3    59  A59         0.1773
    943  O4'       39.1160    2.9050   10.4310 O.3    59  A59        -0.3307
    944  C3'       41.3630    3.3580    9.9000 C.3    59  A59         0.1860
    945  O3'       42.4360    2.8070    9.1480 O.3    59  A59        -0.3112
    946  C2'       40.4890    4.2000    8.9780 C.3    59  A59         0.2309
    947  O2'       40.3880    3.6720    7.6730 O.3    59  A59        -0.2156
    948  C1'       39.1340    4.1050    9.6720 C.3    59  A59         0.2408
    949  N1        37.8150    9.0580   10.0160 N.ar   59  A59        -0.2040
    950  C2        38.0970    8.2770    8.9670 C.ar   59  A59         0.2016
    951  N3        38.4710    6.9980    8.9450 N.ar   59  A59        -0.2048
    952  C4        38.5530    6.5080   10.1970 C.ar   59  A59         0.1692
    953  C5        38.3060    7.1910   11.3730 C.ar   59  A59         0.1518
    954  C6        37.9080    8.5320   11.2600 C.ar   59  A59         0.1919
    955  N6        37.6070    9.3060   12.3080 N.pl3  59  A59        -0.1054
    956  N7        38.5130    6.3670   12.4720 N.ar   59  A59        -0.2193
    957  C8        38.8570    5.2190   11.9440 C.ar   59  A59         0.1816
    958  N9        38.8740    5.2250   10.5710 N.ar   59  A59        -0.2693
    959  OP1       41.8400    1.1980   14.4680 O.2    59  A59        -0.5172
    960  OP2       40.6400    3.3870   15.0740 O.co2  59  A59        -0.4373
    961  P         43.8430    3.5730    9.0900 P.3    60  C60         0.2141
    962  C5'       43.1400    5.0870    7.0540 C.3    60  C60         0.1812
    963  O5'       43.5040    4.9840    8.4270 O.3    60  C60        -0.3114
    964  C4'       42.7820    6.5150    6.7290 C.3    60  C60         0.1773
    965  O4'       41.5840    6.8780    7.4800 O.3    60  C60        -0.3307
    966  C3'       43.8140    7.5370    7.1860 C.3    60  C60         0.1860
    967  O3'       44.8450    7.6970    6.2180 O.3    60  C60        -0.3112
    968  C2'       42.9680    8.7950    7.3160 C.3    60  C60         0.2309
    969  O2'       42.6580    9.3580    6.0570 O.3    60  C60        -0.2156
    970  C1'       41.6910    8.2240    7.9310 C.3    60  C60         0.2420
    971  N1        41.6730    8.2390    9.4050 N.ar   60  C60        -0.2535
    972  C2        41.2560    9.4140   10.0640 C.ar   60  C60         0.3532
    973  O2        40.9970   10.4250    9.3900 O.2    60  C60        -0.2443
    974  N3        41.1630    9.4180   11.4150 N.ar   60  C60        -0.1739
    975  C4        41.4970    8.3260   12.1100 C.ar   60  C60         0.1759
    976  N4        41.3780    8.3730   13.4430 N.pl3  60  C60        -0.1070
    977  C5        41.9670    7.1360   11.4710 C.ar   60  C60         0.0566
    978  C6        42.0360    7.1360   10.1290 C.ar   60  C60         0.0850
    979  OP1       44.7180    2.8140    8.1610 O.2    60  C60        -0.5172
    980  OP2       44.3050    3.8550   10.4620 O.co2  60  C60        -0.4373
    981  P         46.3030    8.1920    6.6770 P.3    61  C61         0.2141
    982  C5'       45.8060   10.6060    5.7440 C.3    61  C61         0.1812
    983  O5'       46.1790    9.7730    6.8410 O.3    61  C61        -0.3114
    984  C4'       45.3510   11.9550    6.2530 C.3    61  C61         0.1773
    985  O4'       44.2120   11.7990    7.1420 O.3    61  C61        -0.3307
    986  C3'       46.3750   12.7100    7.0830 C.3    61  C61         0.1860
    987  O3'       47.2350   13.4310    6.2130 O.3    61  C61        -0.3112
    988  C2'       45.4910   13.6570    7.8900 C.3    61  C61         0.2309
    989  O2'       45.0750   14.7830    7.1400 O.3    61  C61        -0.2156
    990  C1'       44.2750   12.7730    8.1720 C.3    61  C61         0.2420
    991  N1        44.3020   12.0870    9.4770 N.ar   61  C61        -0.2535
    992  C2        43.8510   12.7780   10.6100 C.ar   61  C61         0.3532
    993  O2        43.4800   13.9540   10.4850 O.2    61  C61        -0.2443
    994  N3        43.8300   12.1490   11.8060 N.ar   61  C61        -0.1739
    995  C4        44.2420   10.8780   11.9000 C.ar   61  C61         0.1759
    996  N4        44.1770   10.2830   13.0950 N.pl3  61  C61        -0.1070
    997  C5        44.7290   10.1590   10.7680 C.ar   61  C61         0.0566
    998  C6        44.7420   10.7980    9.5880 C.ar   61  C61         0.0850
    999  OP1       47.2320    7.8920    5.5520 O.2    61  C61        -0.5172
   1000  OP2       46.6000    7.6710    8.0360 O.co2  61  C61        -0.4373
   1001  P         48.8220   13.1760    6.2600 P.3    62  G62         0.2141
   1002  C5'       50.6970   14.3860    7.6110 C.3    62  G62         0.1812
   1003  O5'       49.3180   14.0780    7.4660 O.3    62  G62        -0.3114
   1004  C4'       51.0010   14.7230    9.0420 C.3    62  G62         0.1773
   1005  O4'       50.7530   13.5570    9.8730 O.3    62  G62        -0.3307
   1006  C3'       52.4390   15.1460    9.3160 C.3    62  G62         0.1860
   1007  O3'       52.4120   16.2310   10.2270 O.3    62  G62        -0.3112
   1008  C2'       53.0480   13.9070    9.9680 C.3    62  G62         0.2309
   1009  O2'       54.0890   14.2350   10.8620 O.3    62  G62        -0.2156
   1010  C1'       51.8460   13.3710   10.7380 C.3    62  G62         0.2408
   1011  N1        50.8370   10.0650   14.4190 N.ar   62  G62        -0.1709
   1012  C2        50.6900   11.4290   14.4010 C.ar   62  G62         0.2606
   1013  N2        50.1930   11.9960   15.5170 N.pl3  62  G62        -0.0859
   1014  N3        51.0060   12.1870   13.3670 N.ar   62  G62        -0.1918
   1015  C4        51.4850   11.4620   12.3330 C.ar   62  G62         0.1723
   1016  C5        51.6690   10.0990   12.2460 C.ar   62  G62         0.1748
   1017  C6        51.3270    9.2940   13.3660 C.ar   62  G62         0.3023
   1018  O6        51.4130    8.0650   13.4900 O.2    62  G62        -0.2633
   1019  N7        52.1840    9.7490   11.0020 N.ar   62  G62        -0.2173
   1020  C8        52.3020   10.8880   10.3700 C.ar   62  G62         0.1817
   1021  N9        51.8870   11.9640   11.1210 N.ar   62  G62        -0.2693
   1022  OP1       49.3970   13.7360    5.0060 O.2    62  G62        -0.5172
   1023  OP2       49.0760   11.7560    6.6210 O.co2  62  G62        -0.4373
   1024  P         53.3730   17.4880    9.9950 P.3    63  U63         0.2141
   1025  C5'       51.2680   19.0280    9.6490 C.3    63  U63         0.1812
   1026  O5'       52.4690   18.7430   10.3600 O.3    63  U63        -0.3114
   1027  C4'       50.3890   19.9080   10.4960 C.3    63  U63         0.1773
   1028  O4'       49.4150   19.0620   11.1500 O.3    63  U63        -0.3307
   1029  C3'       51.1850   20.6240   11.5840 C.3    63  U63         0.1860
   1030  O3'       51.2210   22.0450   11.4340 O.3    63  U63        -0.3112
   1031  C2'       50.6330   20.1180   12.9200 C.3    63  U63         0.2309
   1032  O2'       50.3330   21.1510   13.8350 O.3    63  U63        -0.2156
   1033  C1'       49.3680   19.3490   12.5290 C.3    63  U63         0.2420
   1034  N1        49.2620   18.0740   13.2520 N.ar   63  U63        -0.2534
   1035  C2        48.6760   18.0850   14.5010 C.ar   63  U63         0.3546
   1036  O2        48.2250   19.0960   15.0100 O.2    63  U63        -0.2443
   1037  N3        48.6410   16.8660   15.1340 N.ar   63  U63        -0.1530
   1038  C4        49.1230   15.6660   14.6540 C.ar   63  U63         0.2846
   1039  O4        49.0710   14.6610   15.3660 O.2    63  U63        -0.2650
   1040  C5        49.6990   15.7380   13.3460 C.ar   63  U63         0.0814
   1041  C6        49.7450   16.9100   12.7060 C.ar   63  U63         0.0870
   1042  OP1       53.7010   17.5510    8.5470 O.2    63  U63        -0.5172
   1043  OP2       54.4650   17.4080   11.0000 O.co2  63  U63        -0.4373
   1044  P         49.8620   22.8720   11.2140 P.3    64  A64         0.2141
   1045  C5'       48.6280   23.6900    9.0580 C.3    64  A64         0.1812
   1046  O5'       49.6730   22.9150    9.6330 O.3    64  A64        -0.3114
   1047  C4'       47.9330   22.9170    7.9590 C.3    64  A64         0.1773
   1048  O4'       48.1090   21.4900    8.1450 O.3    64  A64        -0.3307
   1049  C3'       46.4340   23.1480    7.8800 C.3    64  A64         0.1860
   1050  O3'       46.2210   24.2400    6.9980 O.3    64  A64        -0.3112
   1051  C2'       45.9160   21.8390    7.2850 C.3    64  A64         0.2309
   1052  O2'       45.9740   21.8140    5.8720 O.3    64  A64        -0.2156
   1053  C1'       46.8990   20.8130    7.8560 C.3    64  A64         0.2408
   1054  N1        46.8560   16.3740   10.4290 N.ar   64  A64        -0.2040
   1055  C2        47.2800   16.7050    9.2040 C.ar   64  A64         0.2016
   1056  N3        47.2300   17.8800    8.5850 N.ar   64  A64        -0.2048
   1057  C4        46.6560   18.8060    9.3670 C.ar   64  A64         0.1692
   1058  C5        46.1630   18.6210   10.6450 C.ar   64  A64         0.1518
   1059  C6        46.2840   17.3280   11.1940 C.ar   64  A64         0.1919
   1060  N6        45.8740   16.9990   12.4230 N.pl3  64  A64        -0.1054
   1061  N7        45.6350   19.8050   11.1440 N.ar   64  A64        -0.2193
   1062  C8        45.8320   20.6690   10.1760 C.ar   64  A64         0.1816
   1063  N9        46.4640   20.1360    9.0780 N.ar   64  A64        -0.2693
   1064  OP1       50.0950   24.2610   11.6810 O.2    64  A64        -0.5172
   1065  OP2       48.7350   22.0920   11.7760 O.co2  64  A64        -0.4373
   1066  P         44.9070   25.1470    7.1410 P.3    65  A65         0.2141
   1067  C5'       43.8080   24.0080    5.0670 C.3    65  A65         0.1812
   1068  O5'       43.7670   24.2770    6.4590 O.3    65  A65        -0.3114
   1069  C4'       42.7860   22.9640    4.7100 C.3    65  A65         0.1773
   1070  O4'       43.0600   21.7420    5.4590 O.3    65  A65        -0.3307
   1071  C3'       41.3310   23.3150    5.0180 C.3    65  A65         0.1860
   1072  O3'       40.5540   22.6490    4.0340 O.3    65  A65        -0.3112
   1073  C2'       41.1350   22.6410    6.3730 C.3    65  A65         0.2309
   1074  O2'       39.7820   22.3840    6.6850 O.3    65  A65        -0.2156
   1075  C1'       41.8840   21.3390    6.1200 C.3    65  A65         0.2408
   1076  N1        43.3570   16.7130    7.6740 N.ar   65  A65        -0.2040
   1077  C2        43.1140   17.2340    6.4620 C.ar   65  A65         0.2016
   1078  N3        42.7470   18.4670    6.1360 N.ar   65  A65        -0.2048
   1079  C4        42.6340   19.2330    7.2370 C.ar   65  A65         0.1692
   1080  C5        42.8540   18.8480    8.5460 C.ar   65  A65         0.1518
   1081  C6        43.2250   17.5070    8.7600 C.ar   65  A65         0.1919
   1082  N6        43.4400   16.9780    9.9700 N.pl3  65  A65        -0.1054
   1083  N7        42.6420   19.9130    9.4130 N.ar   65  A65        -0.2193
   1084  C8        42.2920   20.9000    8.6200 C.ar   65  A65         0.1816
   1085  N9        42.2560   20.5500    7.2900 N.ar   65  A65        -0.2693
   1086  OP1       45.1140   26.3560    6.2980 O.2    65  A65        -0.5172
   1087  OP2       44.5920   25.2990    8.5830 O.co2  65  A65        -0.4373
   1088  P         39.1230   23.2230    3.6000 P.3    66  A66         0.2141
   1089  C5'       37.4850   21.1860    3.3480 C.3    66  A66         0.1812
   1090  O5'       38.1140   22.1350    4.1850 O.3    66  A66        -0.3114
   1091  C4'       37.8900   19.7700    3.7240 C.3    66  A66         0.1773
   1092  O4'       39.1370   19.6510    4.4700 O.3    66  A66        -0.3307
   1093  C3'       37.0160   18.9550    4.6480 C.3    66  A66         0.1860
   1094  O3'       35.6970   18.7430    4.1870 O.3    66  A66        -0.3112
   1095  C2'       37.8500   17.6870    4.6660 C.3    66  A66         0.2309
   1096  O2'       37.8650   17.0460    3.4010 O.3    66  A66        -0.2156
   1097  C1'       39.2260   18.2980    4.9500 C.3    66  A66         0.2408
   1098  N1        40.0560   15.2070    8.9320 N.ar   66  A66        -0.2040
   1099  C2        40.0100   15.0010    7.6100 C.ar   66  A66         0.2016
   1100  N3        39.8200   15.8820    6.6250 N.ar   66  A66        -0.2048
   1101  C4        39.6710   17.1240    7.1160 C.ar   66  A66         0.1692
   1102  C5        39.7000   17.4980    8.4460 C.ar   66  A66         0.1518
   1103  C6        39.8960   16.4680    9.3960 C.ar   66  A66         0.1919
   1104  N6        39.9220   16.6680   10.7200 N.pl3  66  A66        -0.1054
   1105  N7        39.5100   18.8670    8.5720 N.ar   66  A66        -0.2193
   1106  C8        39.3640   19.2830    7.3330 C.ar   66  A66         0.1816
   1107  N9        39.4270   18.2760    6.4030 N.ar   66  A66        -0.2693
   1108  OP1       39.0690   23.2170    2.1200 O.2    66  A66        -0.5172
   1109  OP2       38.8570   24.4880    4.3380 O.co2  66  A66        -0.4373
   1110  P         34.4720   18.8280    5.2290 P.3    67  U67         0.2141
   1111  C5'       34.1710   16.4080    6.2440 C.3    67  U67         0.1812
   1112  O5'       34.7860   17.6890    6.3100 O.3    67  U67        -0.3114
   1113  C4'       35.0740   15.4320    5.5220 C.3    67  U67         0.1773
   1114  O4'       36.3060   15.2330    6.2660 O.3    67  U67        -0.3307
   1115  C3'       34.4900   14.0440    5.3060 C.3    67  U67         0.1860
   1116  O3'       33.6920   14.1370    4.1180 O.3    67  U67        -0.3112
   1117  C2'       35.7460   13.1780    5.2350 C.3    67  U67         0.2309
   1118  O2'       36.3880   13.2750    3.9820 O.3    67  U67        -0.2156
   1119  C1'       36.6440   13.8580    6.2730 C.3    67  U67         0.2420
   1120  N1        36.5510   13.3800    7.6630 N.ar   67  U67        -0.2534
   1121  C2        36.9750   12.0920    7.9540 C.ar   67  U67         0.3546
   1122  O2        37.3700   11.3100    7.1040 O.2    67  U67        -0.2443
   1123  N3        36.9120   11.7520    9.2850 N.ar   67  U67        -0.1530
   1124  C4        36.4670   12.5430   10.3230 C.ar   67  U67         0.2846
   1125  O4        36.4680   12.0960   11.4710 O.2    67  U67        -0.2650
   1126  C5        36.0240   13.8450    9.9330 C.ar   67  U67         0.0814
   1127  C6        36.0780   14.2070    8.6520 C.ar   67  U67         0.0870
   1128  OP1       33.2330   18.5100    4.4730 O.2    67  U67        -0.5172
   1129  OP2       34.5890   20.1270    5.9310 O.co2  67  U67        -0.4373
   1130  P         33.5380   12.8900    3.1050 P.3    68  G68         0.2141
   1131  C5'       33.0010   10.9190    4.7090 C.3    68  G68         0.1812
   1132  O5'       32.5270   11.9040    3.8250 O.3    68  G68        -0.3114
   1133  C4'       33.7370    9.8390    3.9560 C.3    68  G68         0.1773
   1134  O4'       35.0840    9.7640    4.4980 O.3    68  G68        -0.3307
   1135  C3'       33.1060    8.4710    4.1860 C.3    68  G68         0.1860
   1136  O3'       32.4580    7.9890    3.0150 O.3    68  G68        -0.3112
   1137  C2'       34.2520    7.5900    4.6840 C.3    68  G68         0.2309
   1138  O2'       34.9170    6.8690    3.6720 O.3    68  G68        -0.2156
   1139  C1'       35.1900    8.6160    5.3100 C.3    68  G68         0.2408
   1140  N1        34.9490    6.9730   10.1010 N.ar   68  G68        -0.1709
   1141  C2        35.3310    6.3050    8.9580 C.ar   68  G68         0.2606
   1142  N2        35.7200    5.0350    9.0980 N.pl3  68  G68        -0.0859
   1143  N3        35.3330    6.8510    7.7520 N.ar   68  G68        -0.1918
   1144  C4        34.9190    8.1300    7.7750 C.ar   68  G68         0.1723
   1145  C5        34.5110    8.8880    8.8540 C.ar   68  G68         0.1748
   1146  C6        34.5150    8.3020   10.1440 C.ar   68  G68         0.3023
   1147  O6        34.2020    8.8210   11.2260 O.2    68  G68        -0.2633
   1148  N7        34.1420   10.1620    8.4470 N.ar   68  G68        -0.2173
   1149  C8        34.3460   10.1600    7.1560 C.ar   68  G68         0.1817
   1150  N9        34.8260    8.9640    6.6840 N.ar   68  G68        -0.2693
   1151  OP1       34.8280   12.1640    2.9410 O.3    68  G68        -0.4373
   1152  OP2       32.8340   13.4110    1.8980 O.co2  68  G68        -0.5172
   1153  P         30.9890    7.3580    3.1360 P.3    69  U69         0.2141
   1154  C5'       32.1700    5.0670    3.6810 C.3    69  U69         0.1812
   1155  O5'       31.2070    6.0570    4.0390 O.3    69  U69        -0.3114
   1156  C4'       32.3780    4.0940    4.8250 C.3    69  U69         0.1773
   1157  O4'       33.1690    4.7280    5.8710 O.3    69  U69        -0.3307
   1158  C3'       31.1180    3.6500    5.5450 C.3    69  U69         0.1860
   1159  O3'       30.4580    2.6100    4.8400 O.3    69  U69        -0.3112
   1160  C2'       31.6750    3.2020    6.8900 C.3    69  U69         0.2309
   1161  O2'       32.3380    1.9480    6.8490 O.3    69  U69        -0.2156
   1162  C1'       32.7060    4.2980    7.1440 C.3    69  U69         0.2420
   1163  N1        32.1650    5.4580    7.8670 N.ar   69  U69        -0.2534
   1164  C2        32.1230    5.3760    9.2430 C.ar   69  U69         0.3546
   1165  O2        32.4260    4.3600    9.8360 O.2    69  U69        -0.2443
   1166  N3        31.6930    6.5200    9.8880 N.ar   69  U69        -0.1530
   1167  C4        31.2790    7.7070    9.2950 C.ar   69  U69         0.2846
   1168  O4        30.9800    8.6850   10.0070 O.2    69  U69        -0.2650
   1169  C5        31.3010    7.6900    7.8610 C.ar   69  U69         0.0814
   1170  C6        31.7340    6.5960    7.2110 C.ar   69  U69         0.0870
   1171  OP1       30.5130    6.9360    1.7930 O.2    69  U69        -0.5172
   1172  OP2       30.1710    8.3110    3.9400 O.co2  69  U69        -0.4373
   1173  P         28.8780    2.3940    5.0300 P.3    70  C70         0.2141
   1174  C5'       29.3030    0.3900    6.6830 C.3    70  C70         0.1812
   1175  O5'       28.7590    1.6880    6.4590 O.3    70  C70        -0.3114
   1176  C4'       29.2310    0.0340    8.1500 C.3    70  C70         0.1773
   1177  O4'       30.0360    0.9670    8.9140 O.3    70  C70        -0.3307
   1178  C3'       27.8550    0.1060    8.8000 C.3    70  C70         0.1860
   1179  O3'       27.1640   -1.1190    8.6060 O.3    70  C70        -0.3112
   1180  C2'       28.2240    0.2550   10.2710 C.3    70  C70         0.2309
   1181  O2'       28.6360   -0.9760   10.8430 O.3    70  C70        -0.2156
   1182  C1'       29.4360    1.1810   10.1830 C.3    70  C70         0.2420
   1183  N1        29.1140    2.6080   10.3180 N.ar   70  C70        -0.2535
   1184  C2        29.0430    3.1570   11.5990 C.ar   70  C70         0.3532
   1185  O2        29.1710    2.4130   12.5780 O.2    70  C70        -0.2443
   1186  N3        28.8310    4.4790   11.7430 N.ar   70  C70        -0.1739
   1187  C4        28.6810    5.2530   10.6660 C.ar   70  C70         0.1759
   1188  N4        28.5270    6.5650   10.8670 N.pl3  70  C70        -0.1070
   1189  C5        28.6950    4.7170    9.3440 C.ar   70  C70         0.0566
   1190  C6        28.9110    3.3980    9.2160 C.ar   70  C70         0.0850
   1191  OP1       28.4320    1.4530    3.9710 O.2    70  C70        -0.5172
   1192  OP2       28.2110    3.7170    5.1630 O.co2  70  C70        -0.4373
   1193  P         25.6030   -1.1160    8.2470 P.3    71  C71         0.2141
   1194  C5'       24.8240   -2.0830   10.5680 C.3    71  C71         0.1812
   1195  O5'       24.8680   -0.9820    9.6580 O.3    71  C71        -0.3114
   1196  C4'       24.8020   -1.5880   11.9980 C.3    71  C71         0.1773
   1197  O4'       25.8760   -0.6330   12.2060 O.3    71  C71        -0.3307
   1198  C3'       23.5730   -0.8030   12.4240 C.3    71  C71         0.1860
   1199  O3'       22.4710   -1.6520   12.7140 O.3    71  C71        -0.3112
   1200  C2'       24.0950   -0.1020   13.6680 C.3    71  C71         0.2309
   1201  O2'       24.2340   -0.9700   14.7820 O.3    71  C71        -0.2156
   1202  C1'       25.4780    0.3250   13.1830 C.3    71  C71         0.2420
   1203  N1        25.4760    1.6730   12.5770 N.ar   71  C71        -0.2535
   1204  C2        25.5350    2.7880   13.4330 C.ar   71  C71         0.3532
   1205  O2        25.5750    2.5990   14.6600 O.2    71  C71        -0.2443
   1206  N3        25.5330    4.0340   12.9030 N.ar   71  C71        -0.1739
   1207  C4        25.4470    4.1950   11.5770 C.ar   71  C71         0.1759
   1208  N4        25.3940    5.4430   11.1010 N.pl3  71  C71        -0.1070
   1209  C5        25.3930    3.0800   10.6830 C.ar   71  C71         0.0566
   1210  C6        25.4110    1.8490   11.2230 C.ar   71  C71         0.0850
   1211  OP1       25.2650   -2.4430    7.6790 O.3    71  C71        -0.4373
   1212  OP2       25.3180    0.1140    7.4580 O.co2  71  C71        -0.5172
   1213  P         20.9800   -1.0740   12.6090 P.3    72  G72         0.2141
   1214  C5'       20.8650   -0.2460   15.0930 C.3    72  G72         0.1812
   1215  O5'       20.9300    0.0750   13.7120 O.3    72  G72        -0.3114
   1216  C4'       20.8390    1.0180   15.9120 C.3    72  G72         0.1773
   1217  O4'       22.0160    1.8050   15.6040 O.3    72  G72        -0.3307
   1218  C3'       19.6820    1.9560   15.6110 C.3    72  G72         0.1860
   1219  O3'       18.5530    1.5240   16.3590 O.3    72  G72        -0.3112
   1220  C2'       20.2250    3.2870   16.1200 C.3    72  G72         0.2309
   1221  O2'       20.0880    3.4430   17.5170 O.3    72  G72        -0.2156
   1222  C1'       21.7070    3.1800   15.7440 C.3    72  G72         0.2408
   1223  N1        22.4810    7.6610   13.5490 N.ar   72  G72        -0.1709
   1224  C2        22.3240    7.3490   14.8770 C.ar   72  G72         0.2606
   1225  N2        22.3340    8.3750   15.7400 N.pl3  72  G72        -0.0859
   1226  N3        22.1640    6.1190   15.3290 N.ar   72  G72        -0.1918
   1227  C4        22.1700    5.2090   14.3340 C.ar   72  G72         0.1723
   1228  C5        22.3240    5.4110   12.9800 C.ar   72  G72         0.1748
   1229  C6        22.4880    6.7360   12.5040 C.ar   72  G72         0.3023
   1230  O6        22.6110    7.1250   11.3360 O.2    72  G72        -0.2633
   1231  N7        22.2750    4.2040   12.2930 N.ar   72  G72        -0.2173
   1232  C8        22.0790    3.3090   13.2260 C.ar   72  G72         0.1817
   1233  N9        21.9870    3.8590   14.4840 N.ar   72  G72        -0.2693
   1234  OP1       20.0350   -2.1290   13.0060 O.3    72  G72        -0.4373
   1235  OP2       20.8170   -0.3880   11.3010 O.co2  72  G72        -0.5172
   1236  P         17.0640    1.8500   15.8450 P.3    73  A73         0.2141
   1237  C5'       15.5810    3.9830   16.1770 C.3    73  A73         0.1812
   1238  O5'       16.7910    3.2950   16.4430 O.3    73  A73        -0.3114
   1239  C4'       15.7250    5.4210   16.5930 C.3    73  A73         0.1773
   1240  O4'       16.6780    6.0680   15.7110 O.3    73  A73        -0.3307
   1241  C3'       14.4710    6.2640   16.4800 C.3    73  A73         0.1860
   1242  O3'       13.6980    6.1170   17.6650 O.3    73  A73        -0.3112
   1243  C2'       15.0560    7.6640   16.3560 C.3    73  A73         0.2309
   1244  O2'       15.5260    8.1370   17.6000 O.3    73  A73        -0.2156
   1245  C1'       16.2650    7.3980   15.4600 C.3    73  A73         0.2408
   1246  N1        15.7130   10.7150   11.5810 N.ar   73  A73        -0.2040
   1247  C2        15.8650   10.8850   12.8990 C.ar   73  A73         0.2016
   1248  N3        15.9790    9.9710   13.8590 N.ar   73  A73        -0.2048
   1249  C4        15.9220    8.7310   13.3420 C.ar   73  A73         0.1692
   1250  C5        15.7620    8.3930   12.0120 C.ar   73  A73         0.1518
   1251  C6        15.6580    9.4530   11.0930 C.ar   73  A73         0.1919
   1252  N6        15.5120    9.2860    9.7800 N.pl3  73  A73        -0.1054
   1253  N7        15.7430    7.0110   11.8550 N.ar   73  A73        -0.2193
   1254  C8        15.8950    6.5550   13.0750 C.ar   73  A73         0.1816
   1255  N9        16.0280    7.5430   14.0220 N.ar   73  A73        -0.2693
   1256  OP1       16.1540    0.8920   16.5220 O.3    73  A73        -0.4373
   1257  OP2       17.0180    1.9830   14.3650 O.co2  73  A73        -0.5172
   1258  P         12.1050    6.2820   17.5980 P.3    74  C74         0.2141
   1259  C5'       12.3880    8.8550   18.0150 C.3    74  C74         0.1812
   1260  O5'       11.8920    7.8050   17.1910 O.3    74  C74        -0.3114
   1261  C4'       12.2590   10.1770   17.3020 C.3    74  C74         0.1773
   1262  O4'       13.1970   10.2290   16.1940 O.3    74  C74        -0.3307
   1263  C3'       10.9140   10.4360   16.6500 C.3    74  C74         0.1860
   1264  O3'        9.9890   10.9390   17.6080 O.3    74  C74        -0.3112
   1265  C2'       11.2800   11.4880   15.6130 C.3    74  C74         0.2309
   1266  O2'       11.4650   12.7650   16.1870 O.3    74  C74        -0.2156
   1267  C1'       12.6270   10.9580   15.1180 C.3    74  C74         0.2420
   1268  N1        12.5250   10.0620   13.9520 N.ar   74  C74        -0.2535
   1269  C2        12.4790   10.6230   12.6680 C.ar   74  C74         0.3532
   1270  O2        12.5080   11.8550   12.5490 O.2    74  C74        -0.2443
   1271  N3        12.4030    9.8050   11.5910 N.ar   74  C74        -0.1739
   1272  C4        12.3730    8.4800   11.7610 C.ar   74  C74         0.1759
   1273  N4        12.3120    7.7110   10.6690 N.pl3  74  C74        -0.1070
   1274  C5        12.4080    7.8840   13.0570 C.ar   74  C74         0.0566
   1275  C6        12.4830    8.7050   14.1130 C.ar   74  C74         0.0850
   1276  OP1       11.5900    6.0760   18.9710 O.3    74  C74        -0.4373
   1277  OP2       11.6080    5.4320   16.4900 O.co2  74  C74        -0.5172
   1278  P          8.4130   10.7210   17.3850 P.3    75  U75         0.2141
   1279  C5'        8.2420   12.9770   16.0460 C.3    75  U75         0.1812
   1280  O5'        8.0870   11.5590   16.0680 O.3    75  U75        -0.3114
   1281  C4'        7.9660   13.5230   14.6600 C.3    75  U75         0.1773
   1282  O4'        9.0550   13.1660   13.7610 O.3    75  U75        -0.3307
   1283  C3'        6.7280   13.0020   13.9460 C.3    75  U75         0.1860
   1284  O3'        5.5450   13.6600   14.3970 O.3    75  U75        -0.3112
   1285  C2'        7.0620   13.3480   12.5000 C.3    75  U75         0.2309
   1286  O2'        6.9410   14.7270   12.2200 O.3    75  U75        -0.2156
   1287  C1'        8.5430   12.9680   12.4490 C.3    75  U75         0.2420
   1288  N1         8.7470   11.5600   12.0820 N.ar   75  U75        -0.2534
   1289  C2         8.7760   11.2420   10.7390 C.ar   75  U75         0.3546
   1290  O2         8.6610   12.0740    9.8570 O.2    75  U75        -0.2443
   1291  N3         8.9490    9.9130   10.4650 N.ar   75  U75        -0.1530
   1292  C4         9.0970    8.8940   11.3710 C.ar   75  U75         0.2846
   1293  O4         9.1830    7.7410   10.9660 O.2    75  U75        -0.2650
   1294  C5         9.0720    9.3020   12.7410 C.ar   75  U75         0.0814
   1295  C6         8.9000   10.5880   13.0420 C.ar   75  U75         0.0870
   1296  OP1        7.7120   11.3490   18.5370 O.3    75  U75        -0.4373
   1297  OP2        8.2000    9.2810   17.0950 O.co2  75  U75        -0.5172
   1298  P          4.1350   12.8820   14.3650 P.3    76  A76         0.2141
   1299  C5'        3.5040   14.0780   12.1210 C.3    76  A76         0.1812
   1300  O5'        3.7450   12.8600   12.8190 O.3    76  A76        -0.3114
   1301  C4'        3.1880   13.8060   10.6700 C.3    76  A76         0.1773
   1302  O4'        4.3860   13.3800    9.9660 O.3    76  A76        -0.3307
   1303  C3'        2.1880   12.6970   10.3970 C.3    76  A76         0.1860
   1304  O3'        0.8600   13.1940   10.5370 O.3    76  A76        -0.3112
   1305  C2'        2.5040   12.3670    8.9440 C.3    76  A76         0.2309
   1306  O2'        1.9700   13.3310    8.0570 O.3    76  A76        -0.2156
   1307  C1'        4.0330   12.4570    8.9440 C.3    76  A76         0.2408
   1308  N1         5.8990    8.0420    7.0470 N.ar   76  A76        -0.2040
   1309  C2         5.3390    9.1060    6.4540 C.ar   76  A76         0.2016
   1310  N3         4.8840   10.2330    7.0020 N.ar   76  A76        -0.2048
   1311  C4         5.0480   10.2110    8.3350 C.ar   76  A76         0.1692
   1312  C5         5.6080    9.1910    9.0840 C.ar   76  A76         0.1518
   1313  C6         6.0490    8.0560    8.3900 C.ar   76  A76         0.1919
   1314  N6         6.6010    6.9980    8.9900 N.pl3  76  A76        -0.1054
   1315  N7         5.6120    9.5140   10.4330 N.ar   76  A76        -0.2193
   1316  C8         5.0600   10.7030   10.4710 C.ar   76  A76         0.1816
   1317  N9         4.6870   11.1820    9.2390 N.ar   76  A76        -0.2693
   1318  OP1        3.1360   13.7230   15.0680 O.3    76  A76        -0.4373
   1319  OP2        4.3460   11.4810   14.8070 O.co2  76  A76        -0.5172
   1320  P         -0.2890   12.2480   11.1440 P.3    77  U77         0.2141
   1321  C5'       -1.1160   11.7470    8.7090 C.3    77  U77         0.1812
   1322  O5'       -0.6300   11.2530    9.9520 O.3    77  U77        -0.3114
   1323  C4'       -1.1160   10.6470    7.6760 C.3    77  U77         0.1773
   1324  O4'        0.2580   10.3150    7.3350 O.3    77  U77        -0.3307
   1325  C3'       -1.6890    9.3170    8.1360 C.3    77  U77         0.1860
   1326  O3'       -3.1100    9.3000    8.0460 O.3    77  U77        -0.3112
   1327  C2'       -1.0710    8.3570    7.1330 C.3    77  U77         0.2309
   1328  O2'       -1.7430    8.3930    5.8930 O.3    77  U77        -0.2156
   1329  C1'        0.3380    8.9400    6.9910 C.3    77  U77         0.2420
   1330  N1         1.3080    8.2880    7.8810 N.ar   77  U77        -0.2534
   1331  C2         1.9820    7.1880    7.3900 C.ar   77  U77         0.3546
   1332  O2         1.8230    6.7720    6.2540 O.2    77  U77        -0.2443
   1333  N3         2.8440    6.5920    8.2760 N.ar   77  U77        -0.1530
   1334  C4         3.0930    6.9760    9.5790 C.ar   77  U77         0.2846
   1335  O4         3.8210    6.2760   10.2890 O.2    77  U77        -0.2650
   1336  C5         2.3720    8.1380   10.0050 C.ar   77  U77         0.0814
   1337  C6         1.5270    8.7400    9.1610 C.ar   77  U77         0.0870
   1338  OP1       -1.4840   13.0910   11.3950 O.2    77  U77        -0.5172
   1339  OP2        0.2900   11.4530   12.2560 O.co2  77  U77        -0.4373
   1340  P         -3.9430    8.1610    8.8190 P.3    78  G78         0.2141
   1341  C5'       -4.1020    6.5620    6.7350 C.3    78  G78         0.1812
   1342  O5'       -3.5950    6.8120    8.0430 O.3    78  G78        -0.3114
   1343  C4'       -3.4890    5.3040    6.1650 C.3    78  G78         0.1773
   1344  O4'       -2.0410    5.4240    6.1710 O.3    78  G78        -0.3307
   1345  C3'       -3.7280    4.0300    6.9590 C.3    78  G78         0.1860
   1346  O3'       -4.9940    3.4640    6.6570 O.3    78  G78        -0.3112
   1347  C2'       -2.6080    3.1370    6.4480 C.3    78  G78         0.2309
   1348  O2'       -2.8960    2.5800    5.1810 O.3    78  G78        -0.2156
   1349  C1'       -1.4590    4.1400    6.3390 C.3    78  G78         0.2408
   1350  N1         2.1520    1.7440    8.9680 N.ar   78  G78        -0.1709
   1351  C2         1.5840    1.4120    7.7620 C.ar   78  G78         0.2606
   1352  N2         2.0380    0.2900    7.1810 N.pl3  78  G78        -0.0859
   1353  N3         0.6430    2.1290    7.1680 N.ar   78  G78        -0.1918
   1354  C4         0.3120    3.2230    7.8870 C.ar   78  G78         0.1723
   1355  C5         0.8190    3.6440    9.0980 C.ar   78  G78         0.1748
   1356  C6         1.8270    2.8640    9.7260 C.ar   78  G78         0.3023
   1357  O6         2.4010    3.0680   10.8040 O.2    78  G78        -0.2633
   1358  N7         0.2110    4.8260    9.5030 N.ar   78  G78        -0.2173
   1359  C8        -0.6410    5.0950    8.5480 C.ar   78  G78         0.1817
   1360  N9        -0.6320    4.1590    7.5410 N.ar   78  G78        -0.2693
   1361  OP1       -5.3900    8.4500    8.6470 O.2    78  G78        -0.5172
   1362  OP2       -3.3720    8.0420   10.1880 O.co2  78  G78        -0.4373
   1363  P         -5.7330    2.5470    7.7480 P.3    79  U79         0.2141
   1364  C5'       -5.0780    0.3970    6.3890 C.3    79  U79         0.1812
   1365  O5'       -5.0310    1.1230    7.6120 O.3    79  U79        -0.3114
   1366  C4'       -4.1930   -0.8260    6.4710 C.3    79  U79         0.1773
   1367  O4'       -2.8040   -0.4110    6.5630 O.3    79  U79        -0.3307
   1368  C3'       -4.3910   -1.7160    7.6880 C.3    79  U79         0.1860
   1369  O3'       -5.4670   -2.6270    7.4880 O.3    79  U79        -0.3112
   1370  C2'       -3.0560   -2.4490    7.7530 C.3    79  U79         0.2309
   1371  O2'       -2.9660   -3.5210    6.8340 O.3    79  U79        -0.2156
   1372  C1'       -2.0820   -1.3360    7.3620 C.3    79  U79         0.2420
   1373  N1        -1.5520   -0.6230    8.5310 N.ar   79  U79        -0.2534
   1374  C2        -0.5040   -1.2080    9.2170 C.ar   79  U79         0.3546
   1375  O2        -0.0100   -2.2740    8.8870 O.2    79  U79        -0.2443
   1376  N3        -0.0590   -0.5000   10.3060 N.ar   79  U79        -0.1530
   1377  C4        -0.5450    0.7050   10.7690 C.ar   79  U79         0.2846
   1378  O4        -0.0460    1.2130   11.7750 O.2    79  U79        -0.2650
   1379  C5        -1.6260    1.2470   10.0030 C.ar   79  U79         0.0814
   1380  C6        -2.0800    0.5810    8.9360 C.ar   79  U79         0.0870
   1381  OP1       -7.1570    2.4340    7.3400 O.2    79  U79        -0.5172
   1382  OP2       -5.3940    3.0860    9.0890 O.co2  79  U79        -0.4373
   1383  P         -6.2000   -3.2930    8.7580 P.3    80  C80         0.2141
   1384  C5'       -4.5150   -5.3090    8.8090 C.3    80  C80         0.1812
   1385  O5'       -5.0600   -4.1610    9.4570 O.3    80  C80        -0.3114
   1386  C4'       -3.4240   -5.9250    9.6550 C.3    80  C80         0.1773
   1387  O4'       -2.3390   -4.9790    9.8190 O.3    80  C80        -0.3307
   1388  C3'       -3.8130   -6.2730   11.0810 C.3    80  C80         0.1860
   1389  O3'       -4.4550   -7.5410   11.1210 O.3    80  C80        -0.3112
   1390  C2'       -2.4590   -6.3230   11.7820 C.3    80  C80         0.2309
   1391  O2'       -1.7940   -7.5610   11.6270 O.3    80  C80        -0.2156
   1392  C1'       -1.6860   -5.2200   11.0540 C.3    80  C80         0.2420
   1393  N1        -1.6320   -3.9560   11.8060 N.ar   80  C80        -0.2535
   1394  C2        -0.6110   -3.7760   12.7430 C.ar   80  C80         0.3532
   1395  O2         0.2120   -4.6910   12.9180 O.2    80  C80        -0.2443
   1396  N3        -0.5440   -2.6120   13.4340 N.ar   80  C80        -0.1739
   1397  C4        -1.4490   -1.6540   13.2170 C.ar   80  C80         0.1759
   1398  N4        -1.3410   -0.5210   13.9150 N.pl3  80  C80        -0.1070
   1399  C5        -2.5040   -1.8150   12.2720 C.ar   80  C80         0.0566
   1400  C6        -2.5570   -2.9710   11.5950 C.ar   80  C80         0.0850
   1401  OP1       -7.2340   -4.2210    8.2370 O.2    80  C80        -0.5172
   1402  OP2       -6.5930   -2.2050    9.6910 O.co2  80  C80        -0.4373
   1403  P         -5.5690   -7.8320   12.2430 P.3    81  C81         0.2141
   1404  C5'       -5.2370   -7.8080   14.8500 C.3    81  C81         0.1813
   1405  O5'       -4.9280   -7.2470   13.5790 O.3    81  C81        -0.3114
   1406  C4'       -3.9650   -8.1230   15.5990 C.3    81  C81         0.1801
   1407  O4'       -2.8820   -7.3030   15.0780 O.3    81  C81        -0.3306
   1408  C3'       -3.9850   -7.8100   17.0860 C.3    81  C81         0.2161
   1409  O3'       -4.6860   -8.7860   17.8680 O.3    81  C81        -0.2175
   1410  C2'       -2.5020   -7.6500   17.3900 C.3    81  C81         0.2338
   1411  O2'       -1.8190   -8.8880   17.4770 O.3    81  C81        -0.2155
   1412  C1'       -2.0360   -6.8920   16.1430 C.3    81  C81         0.2421
   1413  N1        -2.1400   -5.4280   16.2740 N.ar   81  C81        -0.2535
   1414  C2        -1.2660   -4.7620   17.1420 C.ar   81  C81         0.3532
   1415  O2        -0.4210   -5.4230   17.7660 O.2    81  C81        -0.2443
   1416  N3        -1.3640   -3.4180   17.2770 N.ar   81  C81        -0.1739
   1417  C4        -2.2850   -2.7440   16.5840 C.ar   81  C81         0.1759
   1418  N4        -2.3490   -1.4200   16.7520 N.pl3  81  C81        -0.1070
   1419  C5        -3.1820   -3.3960   15.6880 C.ar   81  C81         0.0566
   1420  C6        -3.0760   -4.7250   15.5650 C.ar   81  C81         0.0850
   1421  OP1       -5.6950   -9.3050   12.3850 O.3    81  C81        -0.4373
   1422  OP2       -6.7690   -7.0200   11.9080 O.co2  81  C81        -0.5172
@<TRIPOS>BOND
     1   722   721    2
     2   723   721   ar
     3   723   724   ar
     4   688   667    2
     5   725   724    2
     6   721   720   ar
     7   708   690    2
     8   724   726   ar
     9   651   667    1
    10   651   650    1
    11   720   719    1
    12   720   727   ar
    13   668   669    1
    14   668   670    1
    15   653   652    1
    16   667   669    1
    17   667   689    1
    18   726   727   ar
    19   690   709    1
    20   690   673    1
    21   690   692    1
    22   714   719    1
    23   714   713    1
    24   719   717    1
    25   264   263    1
    26   648   646    1
    27   648   650    1
    28   648   649    1
    29   729   710    2
    30   673   672    1
    31   670   672    1
    32   670   671    1
    33   646   647    1
    34   650   652    1
    35   652   654    1
    36   712   710    1
    37   712   711    1
    38   713   711    1
    39   713   715    1
    40   148   128    2
    41   631   630    1
    42   692   691    1
    43   259   260    1
    44   259   257    1
    45   259   261    1
    46   649   654    1
    47   170   150    2
    48   260   265    1
    49   672   674    1
    50   665   645    2
    51   691   693    1
    52   717   718    1
    53   717   715    1
    54   710   728    1
    55   710   696    1
    56   671   676    1
    57   263   265    1
    58   263   261    1
    59   654   664    1
    60   265   276    1
    61   257   258    1
    62   716   715    1
    63   716   730    1
    64   262   261    1
    65   262   279    1
    66   749   730    2
    67   647   645    1
    68   675   674    1
    69   280   282    1
    70   280   281    1
    71   695   693    1
    72   695   696    1
    73   695   697    1
    74   629   645    1
    75   629   628    1
    76   748   730    1
    77   171   150    1
    78   645   666    1
    79   730   732    1
    80   297   279    2
    81   674   676    1
    82   693   694    1
    83   282   283    1
    84   282   284    1
    85   150   134    1
    86   150   152    1
    87   128   114    1
    88   128   149    1
    89   128   130    1
    90   630   628    1
    91   630   632    1
    92   244   243    1
    93   114   113    1
    94   676   687    1
    95   283   288    1
    96   279   281    1
    97   279   298    1
    98   129   130    1
    99   129   131    1
   100   276   270   ar
   101   276   275   ar
   102   269   270   ar
   103   269   267   ar
   104   287   286    1
   105   664   658   ar
   106   664   663   ar
   107   697   698    1
   108   697   699    1
   109   258   256    1
   110   628   626    1
   111   285   284    1
   112   285   299    1
   113   189   190   ar
   114   189   186   ar
   115   242   256    1
   116   242   241    1
   117   190   191   ar
   118   134   133    1
   119   626   627    1
   120   626   624    1
   121   657   658   ar
   122   657   656   ar
   123   126   108    2
   124   268   267    1
   125   632   627    1
   126   632   642    1
   127   151   152    1
   128   151   153    1
   129   320   299    2
   130   270   271   ar
   131   277   256    2
   132   239   237    1
   133   239   241    1
   134   239   240    1
   135   284   286    1
   136   116   115    1
   137   686   687   ar
   138   686   685   ar
   139   694   699    1
   140   109   111    1
   141   109   110    1
   142   288   286    1
   143   288   289    1
   144   635   634   ar
   145   635   636   ar
   146   658   659   ar
   147   267   266   ar
   148   687   681   ar
   149   275   274   ar
   150   256   278    1
   151   111   113    1
   152   111   112    1
   153   732   731    1
   154   237   238    1
   155   131   133    1
   156   131   132    1
   157   243   241    1
   158   243   245    1
   159   113   115    1
   160   663   662   ar
   161   624   625    1
   162   299   301    1
   163   299   321    1
   164   240   245    1
   165   634   633   ar
   166   699   700    1
   167   656   655   ar
   168   224   223    1
   169   133   135    1
   170   300   301    1
   171   300   302    1
   172   707   700   ar
   173   707   706   ar
   174   188   187    1
   175   191   181    1
   176   191   185   ar
   177   186   187   ar
   178   186   185   ar
   179   245   246    1
   180   110   108    1
   181   115   117    1
   182   642   636   ar
   183   642   641   ar
   184   108    92    1
   185   108   127    1
   186   731   733    1
   187   636   637   ar
   188   271   274   ar
   189   271   272   ar
   190   685   682   ar
   191   153   154    1
   192   153   155    1
   193   181   176    1
   194   181   179    1
   195   228   227    2
   196   289   296   ar
   197   289   290   ar
   198   700   701   ar
   199   706   704   ar
   200   266   272   ar
   201   659   662   ar
   202   659   660   ar
   203   187   182   ar
   204   681   680   ar
   205   681   682   ar
   206   112   117    1
   207    92    91    1
   208   296   295   ar
   209   132   137    1
   210   254   236    2
   211   302   303    1
   212   302   304    1
   213   238   236    1
   214  1171  1153    2
   215   176   175    1
   216   185   184   ar
   217   136   135    1
   218  1152  1130    2
   219   223   225    1
   220   223   221    1
   221    94    93    1
   222   633   638   ar
   223   168   167   ar
   224   168   169   ar
   225   625   623    1
   226   154   159    1
   227   135   137    1
   228   611   610    1
   229   155   156    1
   230   155   157    1
   231   655   660   ar
   232  1108  1088    2
   233   117   118    1
   234   272   273    2
   235   680   678   ar
   236   303   308    1
   237   180   179    1
   238   615   614    2
   239   682   683   ar
   240   248   247    2
   241   167   164   ar
   242   746   747   ar
   243   746   744   ar
   244   291   290    2
   245   222   236    1
   246   222   221    1
   247   641   640   ar
   248   156   172    1
   249   747   740   ar
   250   246   247   ar
   251   246   253   ar
   252   236   255    1
   253   290   292   ar
   254   179   177    1
   255   660   661    1
   256   637   638   ar
   257   637   640   ar
   258   643   623    2
   259   733   735    1
   260   733   734    1
   261   227   229   ar
   262   227   226   ar
   263   137   147    1
   264   225   226    1
   265   225   220    1
   266   295   293   ar
   267   340   322    2
   268   701   702    2
   269   701   703   ar
   270   305   304    1
   271   305   322    1
   272   174   172    1
   273   174   173    1
   274  1151  1130    1
   275   638   639    1
   276   221   219    1
   277   704   703   ar
   278   704   705    2
   279   182   183   ar
   280   175   177    1
   281   175   173    1
   282   735   737    1
   283   735   736    1
   284   610   612    1
   285   610   608    1
   286    91    93    1
   287    91    89    1
   288  1136  1153    1
   289  1136  1135    1
   290   247   249   ar
   291    93    95    1
   292   304   306    1
   293  1130  1132    1
   294  1130  1116    1
   295   169   159    1
   296   169   163   ar
   297   734   739    1
   298   157   159    1
   299   157   158    1
   300  1153  1172    1
   301  1153  1155    1
   302   623   609    1
   303   623   644    1
   304   184   183   ar
   305   737   739    1
   306   737   738    1
   307   745   744    2
   308   253   252   ar
   309  1089  1091    1
   310  1089  1090    1
   311   744   743   ar
   312   614   616   ar
   313   614   613   ar
   314  1096  1095    1
   315   341   322    1
   316   229   230   ar
   317   226   233   ar
   318   118   125   ar
   319   118   119   ar
   320    89    87    1
   321    89    90    1
   322   322   324    1
   323   609   608    1
   324   678   677   ar
   325   678   679    1
   326   768   750    2
   327   308   306    1
   328   308   319    1
   329   172   192    2
   330   172   193    1
   331  1088  1072    1
   332  1088  1090    1
   333  1088  1109    1
   334   164   163   ar
   335   164   165   ar
   336   219   220    1
   337   219   217    1
   338   740   739    1
   339   740   741   ar
   340   683   677   ar
   341   683   684    2
   342  1138  1137    1
   343  1154  1155    1
   344  1154  1156    1
   345   177   178    1
   346   292   293   ar
   347  1091  1092    1
   348  1091  1093    1
   349   616   617   ar
   350   307   306    1
   351  1132  1131    1
   352   146   147   ar
   353   146   145   ar
   354   125   124   ar
   355   147   141   ar
   356   612   613    1
   357   612   607    1
   358   293   294    1
   359   318   319   ar
   360   318   317   ar
   361  1133  1135    1
   362  1133  1134    1
   363  1133  1131    1
   364   769   750    1
   365  1191  1173    2
   366  1118  1117    1
   367   120   119    2
   368  1072  1071    1
   369    87    88    1
   370   608   606    1
   371  1116  1115    1
   372   166   165    1
   373   163   162   ar
   374   736   750    1
   375  1135  1137    1
   376  1094  1093    1
   377  1094  1110    1
   378   750   752    1
   379   613   620   ar
   380   119   121   ar
   381   319   313   ar
   382    95    90    1
   383    95   105    1
   384   249   250   ar
   385  1092  1097    1
   386  1128  1110    2
   387  1134  1139    1
   388   165   160   ar
   389   743   741   ar
   390   106    86    2
   391   592   591    1
   392   178   194    1
   393  1093  1095    1
   394   252   250   ar
   395  1095  1097    1
   396  1137  1139    1
   397  1069  1071    1
   398  1069  1067    1
   399  1069  1070    1
   400   741   742    2
   401   230   231    2
   402   230   232   ar
   403   233   232   ar
   404    88    86    1
   405  1156  1158    1
   406  1156  1157    1
   407   317   314   ar
   408  1159  1173    1
   409  1159  1158    1
   410  1097  1107    1
   411   606   607    1
   412   606   604    1
   413   617   618    1
   414   617   619   ar
   415  1022  1001    2
   416   124   122   ar
   417   145   142   ar
   418  1071  1073    1
   419   217   218    1
   420   324   323    1
   421  1173  1192    1
   422  1173  1175    1
   423  1067  1068    1
   424   141   140   ar
   425   141   142   ar
   426   250   251    1
   427  1348  1347    1
   428  1110  1129    1
   429  1110  1112    1
   430  1117  1115    1
   431  1117  1119    1
   432  1115  1113    1
   433  1139  1150    1
   434    98    99   ar
   435    98    97   ar
   436   162   161   ar
   437  1070  1075    1
   438   323   325    1
   439   121   122   ar
   440  1113  1111    1
   441  1113  1114    1
   442  1158  1160    1
   443   105    99   ar
   444   105   104   ar
   445   999   981    2
   446   620   619   ar
   447    86    72    1
   448    86   107    1
   449   313   314   ar
   450   313   312   ar
   451   140   139   ar
   452   982   984    1
   453   982   983    1
   454   218   216    1
   455   160   161   ar
   456   591   590   ar
   457   591   593   ar
   458   752   751    1
   459  1157  1162    1
   460  1052  1051    1
   461   142   143   ar
   462  1328  1327    1
   463   314   315   ar
   464   122   123    2
   465   590   596   ar
   466    99   100   ar
   467   969   968    1
   468   195   196    1
   469   195   197    1
   470  1075  1073    1
   471  1075  1085    1
   472    97    96   ar
   473  1078  1077   ar
   474  1078  1079   ar
   475  1343  1344    1
   476  1343  1341    1
   477  1343  1345    1
   478  1344  1349    1
   479   194   215    2
   480   194   196    1
   481   194   214    1
   482   987  1001    1
   483   987   986    1
   484   967   981    1
   485   967   966    1
   486  1111  1112    1
   487   984   986    1
   488   984   985    1
   489  1332  1331    2
   490  1001  1023    1
   491  1001  1003    1
   492  1114  1119    1
   493  1119  1120    1
   494  1086  1066    2
   495  1349  1347    1
   496  1349  1360    1
   497   604   605    1
   498  1073  1074    1
   499   751   753    1
   500  1364  1366    1
   501  1364  1365    1
   502  1107  1101   ar
   503  1107  1106   ar
   504   805   804    2
   505   312   310   ar
   506   785   784    2
   507  1347  1345    1
   508  1309  1310   ar
   509  1309  1308   ar
   510  1068  1066    1
   511  1175  1174    1
   512  1077  1076   ar
   513  1366  1367    1
   514  1366  1368    1
   515    72    71    1
   516   104   103   ar
   517    74    73    1
   518  1367  1372    1
   519  1100  1101   ar
   520  1100  1099   ar
   521  1346  1345    1
   522  1346  1363    1
   523   981   983    1
   524   981  1000    1
   525  1174  1176    1
   526  1150  1149   ar
   527  1150  1144   ar
   528   593   594   ar
   529   964   962    1
   530   964   966    1
   531   964   965    1
   532  1341  1342    1
   533  1371  1370    1
   534   338   339   ar
   535   338   336   ar
   536  1161  1160    1
   537  1160  1162    1
   538   325   326    1
   539   325   327    1
   540   605   603    1
   541  1329  1327    1
   542  1329  1324    1
   543  1329  1330    1
   544  1050  1066    1
   545  1050  1049    1
   546  1310  1311   ar
   547   339   332   ar
   548   139   138   ar
   549  1308  1313   ar
   550   962   963    1
   551   823   821   ar
   552   823   824   ar
   553   986   988    1
   554   822   821    2
   555   326   331    1
   556  1122  1121    2
   557   825   824    1
   558  1101  1102   ar
   559  1327  1325    1
   560   989   988    1
   561  1066  1087    1
   562   985   990    1
   563  1162  1163    1
   564   596   597    2
   565   596   595   ar
   566  1149  1148   ar
   567  1353  1351   ar
   568  1353  1354   ar
   569   100   103   ar
   570   100   101   ar
   571  1352  1351    1
   572   315   316    2
   573   315   309   ar
   574   966   968    1
   575  1170  1169   ar
   576  1170  1163   ar
   577   766   767   ar
   578   766   764   ar
   579  1079  1085   ar
   580  1079  1080   ar
   581   197   198    1
   582   197   199    1
   583    96   101   ar
   584  1051  1053    1
   585  1051  1049    1
   586   143   138   ar
   587   143   144    1
   588  1085  1084   ar
   589    73    71    1
   590    73    75    1
   591   968   970    1
   592  1106  1105   ar
   593  1324  1323    1
   594  1381  1363    2
   595   216   200    1
   596   216   235    2
   597   216   234    1
   598  1372  1370    1
   599  1372  1373    1
   600  1331  1330   ar
   601  1331  1333   ar
   602  1212  1193    2
   603  1003  1002    1
   604   965   970    1
   605  1369  1368    1
   606  1369  1383    1
   607   364   342    2
   608   767   760   ar
   609  1360  1354   ar
   610  1360  1359   ar
   611   784   786   ar
   612   784   783   ar
   613   804   803   ar
   614   804   806   ar
   615    71    69    1
   616   310   309   ar
   617   310   311    1
   618   821   820   ar
   619  1099  1098   ar
   620  1002  1004    1
   621  1365  1363    1
   622   789   770    2
   623   200   199    1
   624  1120  1121   ar
   625  1120  1127   ar
   626   824   826   ar
   627   947   946    1
   628  1076  1081   ar
   629  1323  1325    1
   630  1323  1321    1
   631  1211  1193    1
   632  1368  1370    1
   633  1363  1382    1
   634  1143  1144   ar
   635  1143  1141   ar
   636  1351  1350   ar
   637  1144  1145   ar
   638   786   787   ar
   639   753   754    1
   640   753   755    1
   641   101   102    1
   642   327   328    1
   643   327   329    1
   644   803   801   ar
   645  1053  1048    1
   646  1053  1063    1
   647  1169  1167   ar
   648   594   595   ar
   649   594   600   ar
   650  1163  1164   ar
   651  1049  1047    1
   652  1330  1337   ar
   653  1354  1355   ar
   654   988   990    1
   655   970   971    1
   656   336   337    2
   657   336   335   ar
   658  1121  1123   ar
   659   754   759    1
   660  1047  1048    1
   661  1047  1045    1
   662   588   587    1
   663  1342  1340    1
   664  1326  1325    1
   665  1326  1340    1
   666  1306  1305    1
   667   765   764    1
   668   595   598   ar
   669  1176  1178    1
   670  1176  1177    1
   671   328   342    1
   672   198   203    1
   673   199   201    1
   674   979   961    2
   675   990   991    1
   676    78    77    2
   677   332   331    1
   678   332   333   ar
   679  1401  1383    2
   680  1193  1179    1
   681  1193  1195    1
   682  1333  1334   ar
   683   764   763   ar
   684  1311  1312   ar
   685  1311  1317   ar
   686   331   329    1
   687  1313  1314    1
   688  1313  1312   ar
   689   963   961    1
   690  1102  1105   ar
   691  1102  1103   ar
   692   342   363    1
   693   342   344    1
   694  1148  1145   ar
   695   587   589    1
   696   587   585    1
   697   603   621    2
   698   603   622    1
   699   603   586    1
   700  1373  1380   ar
   701  1373  1374   ar
   702  1080  1081   ar
   703  1080  1083   ar
   704  1042  1024    2
   705  1359  1358   ar
   706  1056  1055   ar
   707  1056  1057   ar
   708  1179  1178    1
   709  1084  1083   ar
   710  1361  1340    2
   711   755   756    1
   712   755   757    1
   713  1127  1126   ar
   714   783   781   ar
   715  1321  1322    1
   716   806   807   ar
   717    75    76    1
   718    75    70    1
   719  1383  1385    1
   720  1383  1402    1
   721  1081  1082    1
   722    69    70    1
   723    69    67    1
   724   820   819    1
   725   820   827   ar
   726  1178  1180    1
   727  1384  1385    1
   728  1384  1386    1
   729  1340  1362    1
   730   760   759    1
   731   760   761   ar
   732  1145  1146   ar
   733   826   827   ar
   734  1375  1374    2
   735  1177  1182    1
   736  1098  1103   ar
   737  1380  1379   ar
   738  1307  1305    1
   739  1307  1317    1
   740  1307  1302    1
   741  1305  1303    1
   742   951   950   ar
   743   951   952   ar
   744  1141  1142    1
   745  1141  1140   ar
   746   950   949   ar
   747  1350  1356   ar
   748   946   948    1
   749   946   944    1
   750   600   589    1
   751   600   599   ar
   752   770   756    1
   753   770   788    1
   754   770   772    1
   755  1004  1006    1
   756  1004  1005    1
   757    77    76   ar
   758    77    79   ar
   759   787   780   ar
   760  1045  1046    1
   761   329   330    1
   762  1063  1057   ar
   763  1063  1062   ar
   764  1312  1315   ar
   765   801   802    2
   766   801   800   ar
   767   961   945    1
   768   961   980    1
   769   335   333   ar
   770  1355  1358   ar
   771  1355  1356   ar
   772   817   818    1
   773   817   819    1
   774   817   815    1
   775   945   944    1
   776  1337  1336   ar
   777   759   757    1
   778   589   584    1
   779  1055  1054   ar
   780  1190  1189   ar
   781  1190  1183   ar
   782  1374  1376   ar
   783  1317  1316   ar
   784  1164  1165    2
   785  1164  1166   ar
   786   333   334    2
   787  1123  1124   ar
   788  1167  1166   ar
   789  1167  1168    2
   790   586   585    1
   791  1006  1008    1
   792  1006  1007    1
   793   819   814    1
   794  1189  1187   ar
   795  1057  1058   ar
   796   973   972    2
   797  1103  1104    1
   798    76    83   ar
   799   971   972   ar
   800   971   978   ar
   801   202   201    1
   802   598   599   ar
   803   201   203    1
   804   991   998   ar
   805   991   992   ar
   806   203   213    1
   807   585   583    1
   808   763   761   ar
   809  1334  1336   ar
   810  1334  1335    2
   811   998   997   ar
   812  1046  1044    1
   813  1025  1026    1
   814  1025  1027    1
   815  1386  1387    1
   816  1386  1388    1
   817    79    80   ar
   818  1195  1194    1
   819   948   943    1
   820   948   958    1
   821  1356  1357    2
   822    67    68    1
   823  1252  1251    1
   824  1387  1392    1
   825   757   758    1
   826  1290  1289    2
   827   761   762    2
   828  1005  1010    1
   829   944   942    1
   830   360   361   ar
   831   360   357   ar
   832   344   343    1
   833   212   213   ar
   834   212   211   ar
   835   772   771    1
   836  1126  1124   ar
   837   807   800   ar
   838  1322  1320    1
   839  1302  1301    1
   840  1008  1010    1
   841  1008  1009    1
   842   781   780   ar
   843   781   782    2
   844  1024  1007    1
   845  1024  1026    1
   846  1024  1043    1
   847  1379  1377   ar
   848   949   954   ar
   849   972   974   ar
   850   575   574    1
   851  1140  1146   ar
   852   382   381    2
   853   978   977   ar
   854   780   779    1
   855  1146  1147    2
   856   800   799    1
   857  1062  1061   ar
   858  1182  1180    1
   859  1182  1183    1
   860   359   358    2
   861   952   958   ar
   862   952   953   ar
   863   554   553    1
   864   815   816    1
   865   815   813    1
   866  1180  1181    1
   867  1376  1377   ar
   868   213   207   ar
   869  1183  1184   ar
   870  1124  1125    2
   871    68    66    1
   872    83    82   ar
   873   942   943    1
   874   942   940    1
   875  1020  1019   ar
   876  1020  1021   ar
   877   361   362   ar
   878  1303  1304    1
   879  1303  1301    1
   880  1054  1059   ar
   881  1315  1316   ar
   882   533   532    1
   883  1291  1289   ar
   884  1291  1292   ar
   885   993   992    2
   886  1027  1028    1
   887  1027  1029    1
   888  1304  1320    1
   889   584   583    1
   890  1194  1196    1
   891   958   957   ar
   892    80    82   ar
   893    80    81    1
   894   573   574   ar
   895   573   571   ar
   896   992   994   ar
   897  1058  1061   ar
   898  1058  1059   ar
   899   845   844    1
   900  1187  1188    1
   901  1187  1186   ar
   902  1273  1272    1
   903  1301  1299    1
   904   816   830    1
   905  1209  1210   ar
   906  1209  1207   ar
   907   446   445    1
   908   507   506    1
   909  1010  1021    1
   910  1289  1288   ar
   911   814   813    1
   912   583   581    1
   913   997   995   ar
   914  1377  1378    2
   915   211   208   ar
   916  1293  1292    2
   917   357   358   ar
   918   357   356   ar
   919   574   576   ar
   920  1019  1016   ar
   921   343   345    1
   922   404   403    1
   923   849   830    2
   924  1392  1390    1
   925  1392  1393    1
   926   358   352   ar
   927  1388  1389    1
   928  1388  1390    1
   929  1251  1246   ar
   930  1251  1250   ar
   931  1208  1207    1
   932  1021  1015   ar
   933  1389  1403    1
   934   572   571    2
   935  1320  1338    2
   936  1320  1339    1
   937  1028  1033    1
   938  1059  1060    1
   939  1044  1030    1
   940  1044  1064    2
   941  1044  1065    1
   942  1210  1203   ar
   943   954   953   ar
   944   954   955    1
   945   846   844   ar
   946   846   847   ar
   947  1235  1213    2
   948   548   553   ar
   949   548   549   ar
   950   771   773    1
   951  1230  1229    2
   952   381   375   ar
   953   381   380   ar
   954   813   811    1
   955  1292  1294   ar
   956   953   956   ar
   957   553   552   ar
   958   974   975   ar
   959   931   930    2
   960  1030  1029    1
   961   571   570   ar
   962   977   975   ar
   963    55    54   ar
   964    55    56   ar
   965   774   779    1
   966   774   773    1
   967   799   797    1
   968   799   794    1
   969   779   777    1
   970   425   424    2
   971   775   773    1
   972   775   776    1
   973   775   777    1
   974  1207  1206   ar
   975   844   843   ar
   976   440   445   ar
   977   440   441   ar
   978  1246  1247   ar
   979  1029  1031    1
   980  1271  1272   ar
   981  1271  1269   ar
   982  1400  1393   ar
   983  1400  1399   ar
   984  1184  1186   ar
   985  1184  1185    2
   986  1391  1390    1
   987   207   208   ar
   988   207   206   ar
   989   940   941    1
   990   445   444   ar
   991   362   356   ar
   992   362   351    1
   993   532   534   ar
   994   532   531   ar
   995    54    59   ar
   996   830   848    1
   997   830   832    1
   998  1272  1274   ar
   999    66    84    2
  1000    66    85    1
  1001    66    50    1
  1002  1393  1394   ar
  1003   994   995   ar
  1004   346   345    1
  1005   346   351    1
  1006  1253  1250   ar
  1007  1253  1254   ar
  1008   995   996    1
  1009  1422  1403    2
  1010   506   508   ar
  1011   506   505   ar
  1012   957   956   ar
  1013   776   790    1
  1014    52    51    1
  1015   797   795    1
  1016   797   798    1
  1017   383   380   ar
  1018   383   384   ar
  1019   375   376   ar
  1020   534   535   ar
  1021  1196  1197    1
  1022  1196  1198    1
  1023    56    57   ar
  1024  1250  1249   ar
  1025   208   209   ar
  1026   811   812    1
  1027  1288  1287    1
  1028  1288  1295   ar
  1029   777   778    1
  1030   356   355   ar
  1031   975   976    1
  1032  1299  1300    1
  1033   581   582    1
  1034   503   502    1
  1035   423   424   ar
  1036   423   421   ar
  1037   345   347    1
  1038  1197  1202    1
  1039  1286  1285    1
  1040   380   379   ar
  1041   847   840   ar
  1042  1403  1421    1
  1043  1403  1405    1
  1044  1016  1015   ar
  1045  1016  1017   ar
  1046  1399  1397   ar
  1047   908   907    1
  1048  1231  1228   ar
  1049  1231  1232   ar
  1050   403   398   ar
  1051   403   402   ar
  1052   576   577   ar
  1053   508   509   ar
  1054  1015  1014   ar
  1055   582   580    1
  1056   352   353   ar
  1057   794   793    1
  1058  1198  1199    1
  1059  1198  1200    1
  1060  1287  1285    1
  1061  1287  1282    1
  1062   424   426   ar
  1063   549   550   ar
  1064   206   205   ar
  1065  1285  1283    1
  1066   930   932   ar
  1067   930   929   ar
  1068  1229  1228   ar
  1069  1229  1223   ar
  1070    51    49    1
  1071    51    53    1
  1072   906   907   ar
  1073   906   912   ar
  1074  1033  1031    1
  1075  1033  1034    1
  1076   387   365    2
  1077  1270  1269    2
  1078   927   926    1
  1079   398   399   ar
  1080   932   933   ar
  1081  1203  1202    1
  1082  1203  1204   ar
  1083   913   912    2
  1084   351   349    1
  1085   441   442   ar
  1086  1213  1199    1
  1087  1213  1234    1
  1088  1213  1215    1
  1089   552   555   ar
  1090   552   551   ar
  1091   422   421    2
  1092   505   511   ar
  1093  1269  1268   ar
  1094    59    60    1
  1095    59    58   ar
  1096   795   793    1
  1097   795   796    1
  1098   531   529   ar
  1099    50    49    1
  1100  1041  1034   ar
  1101  1041  1040   ar
  1102   941   939    1
  1103   791   793    1
  1104   791   792    1
  1105  1294  1295   ar
  1106  1394  1395    2
  1107  1394  1396   ar
  1108   347   349    1
  1109   347   348    1
  1110   484   483    1
  1111   843   841   ar
  1112   570   577   ar
  1113   570   569    1
  1114  1300  1298    1
  1115   867   866    2
  1116   832   831    1
  1117  1247  1248   ar
  1118  1206  1204   ar
  1119    57    58   ar
  1120    57    63   ar
  1121  1031  1032    1
  1122   444   447   ar
  1123   444   443   ar
  1124  1228  1227   ar
  1125   555   556   ar
  1126   421   420   ar
  1127  1274  1275   ar
  1128   829   810    2
  1129  1254  1255   ar
  1130   537   518    2
  1131   907   909   ar
  1132   384   385   ar
  1133  1202  1200    1
  1134   926   928    1
  1135   926   924    1
  1136   912   911   ar
  1137  1397  1396   ar
  1138  1397  1398    1
  1139  1232  1233   ar
  1140   502   504    1
  1141   502   500    1
  1142   812   810    1
  1143  1034  1035   ar
  1144   535   528   ar
  1145    49    47    1
  1146    58    61   ar
  1147   376   377    1
  1148   376   378   ar
  1149  1249  1248   ar
  1150  1249  1255   ar
  1151  1040  1038   ar
  1152   355   353   ar
  1153  1017  1018    2
  1154  1017  1011   ar
  1155  1014  1012   ar
  1156   447   448   ar
  1157   402   405   ar
  1158   402   401   ar
  1159   209   210    1
  1160   209   204   ar
  1161   353   354    1
  1162  1204  1205    2
  1163   567   569    1
  1164   567   568    1
  1165   567   565    1
  1166   790   809    2
  1167   790   792    1
  1168   790   808    1
  1169   840   841   ar
  1170   840   839    1
  1171   890   889    2
  1172   405   406   ar
  1173   379   385   ar
  1174   379   378   ar
  1175  1223  1224   ar
  1176   509   515   ar
  1177   509   510   ar
  1178  1405  1404    1
  1179   349   350    1
  1180   928   929    1
  1181   928   923    1
  1182    53    63    1
  1183    53    48    1
  1184   348   365    1
  1185    63    62   ar
  1186  1200  1201    1
  1187   602   580    2
  1188   550   551   ar
  1189   569   564    1
  1190   929   936   ar
  1191   551   557   ar
  1192  1215  1214    1
  1193   504   515    1
  1194   504   499    1
  1195   933   934    1
  1196   933   935   ar
  1197   841   842    2
  1198  1282  1281    1
  1199   205   204   ar
  1200   580   601    1
  1201   580   566    1
  1202   442   443   ar
  1203   399   400   ar
  1204   426   427   ar
  1205   365   367    1
  1206   365   386    1
  1207   443   449   ar
  1208   796   810    1
  1209   483   482   ar
  1210   483   485   ar
  1211   810   828    1
  1212   511   510   ar
  1213   511   512    2
  1214  1283  1284    1
  1215  1283  1281    1
  1216  1268  1275   ar
  1217  1268  1267    1
  1218   482   488   ar
  1219   529   528   ar
  1220   529   530    2
  1221   834   839    1
  1222   834   833    1
  1223  1255  1245    1
  1224   866   860   ar
  1225   866   865   ar
  1226   385   374    1
  1227   501   518    1
  1228   501   500    1
  1229   831   833    1
  1230   515   514   ar
  1231    61    62   ar
  1232   939   959    2
  1233   939   925    1
  1234   939   960    1
  1235   556   557   ar
  1236   528   527    1
  1237   420   427   ar
  1238   420   419    1
  1239  1227  1233   ar
  1240  1227  1226   ar
  1241  1257  1236    2
  1242  1298  1284    1
  1243  1298  1319    2
  1244  1298  1318    1
  1245   565   566    1
  1246   565   563    1
  1247  1012  1011   ar
  1248  1012  1013    1
  1249   510   513   ar
  1250   883   889   ar
  1251   883   884   ar
  1252   518   520    1
  1253   518   536    1
  1254   909   910   ar
  1255  1233  1222    1
  1256   500   498    1
  1257   925   924    1
  1258  1035  1036    2
  1259  1035  1037   ar
  1260   889   888   ar
  1261   839   837    1
  1262   924   922    1
  1263   448   449   ar
  1264   911   910   ar
  1265   911   914   ar
  1266   860   861   ar
  1267   401   400   ar
  1268   401   407   ar
  1269    47    48    1
  1270    47    45    1
  1271  1038  1037   ar
  1272  1038  1039    2
  1273  1281  1279    1
  1274   367   366    1
  1275   499   498    1
  1276   406   407   ar
  1277   557   547    1
  1278   418   417    1
  1279  1404  1406    1
  1280   868   865   ar
  1281   868   869   ar
  1282  1224  1226   ar
  1283  1224  1225    1
  1284   923   922    1
  1285   936   935   ar
  1286   520   519    1
  1287   833   835    1
  1288   485   486   ar
  1289   449   439    1
  1290   489   488    2
  1291   865   864   ar
  1292   564   563    1
  1293   498   496    1
  1294   559   538    2
  1295   488   487   ar
  1296  1407  1406    1
  1297  1407  1412    1
  1298  1214  1216    1
  1299   910   916   ar
  1300  1267  1265    1
  1301  1267  1262    1
  1302   885   884    1
  1303   419   417    1
  1304   419   414    1
  1305   922   920    1
  1306   835   837    1
  1307   835   836    1
  1308    33    32    1
  1309  1245  1240    1
  1310  1245  1243    1
  1311   514   513   ar
  1312   884   886   ar
  1313   407   397    1
  1314    38    37    2
  1315   374   369    1
  1316   374   372    1
  1317    31    32   ar
  1318    31    37   ar
  1319  1420  1419   ar
  1320  1420  1413   ar
  1321  1406  1408    1
  1322   563   561    1
  1323  1217  1222    1
  1324  1217  1216    1
  1325  1218  1216    1
  1326  1218  1220    1
  1327  1218  1219    1
  1328  1265  1266    1
  1329  1265  1263    1
  1330    46    45    1
  1331    46    44    1
  1332   914   915   ar
  1333   837   838    1
  1334  1419  1417   ar
  1335   369   368    1
  1336   527   522    1
  1337   527   525    1
  1338  1240  1239    1
  1339  1222  1220    1
  1340   417   415    1
  1341   872   850    2
  1342   522   521    1
  1343  1236  1219    1
  1344  1236  1238    1
  1345  1236  1256    1
  1346   888   891   ar
  1347   888   887   ar
  1348   366   368    1
  1349   409   388    2
  1350   861   862    1
  1351   861   863   ar
  1352   579   560    2
  1353    32    34   ar
  1354    37    36   ar
  1355   486   487   ar
  1356   486   492   ar
  1357   562   561    1
  1358   562   560    1
  1359  1279  1280    1
  1360   523   525    1
  1361   523   521    1
  1362   523   524    1
  1363  1280  1278    1
  1364   869   870   ar
  1365  1220  1221    1
  1366  1412  1413    1
  1367  1412  1410    1
  1368   547   545    1
  1369   547   542    1
  1370   487   490   ar
  1371  1237  1238    1
  1372  1237  1239    1
  1373  1262  1261    1
  1374   439   434    1
  1375   439   437    1
  1376   519   521    1
  1377  1413  1414   ar
  1378   525   526    1
  1379    65    44    2
  1380   864   863   ar
  1381   864   870   ar
  1382  1243  1241    1
  1383  1243  1244    1
  1384   891   892   ar
  1385   370   372    1
  1386   370   368    1
  1387   370   371    1
  1388   545   543    1
  1389   545   546    1
  1390   414   413    1
  1391   372   373    1
  1392  1241  1239    1
  1393  1241  1242    1
  1394   916   915   ar
  1395   916   905    1
  1396  1277  1258    2
  1397   538   540    1
  1398   538   524    1
  1399   538   558    1
  1400   496   497    1
  1401   836   850    1
  1402  1417  1418    1
  1403  1417  1416   ar
  1404    44    64    1
  1405    44    27    1
  1406   540   539    1
  1407  1263  1261    1
  1408  1263  1264    1
  1409   434   433    1
  1410   886   887   ar
  1411   920   921    1
  1412   543   544    1
  1413   543   541    1
  1414   887   893   ar
  1415    34    35   ar
  1416   560   544    1
  1417   560   578    1
  1418    36    35   ar
  1419    36    39   ar
  1420   397   392    1
  1421   397   395    1
  1422   850   852    1
  1423   850   871    1
  1424   870   859    1
  1425   542   541    1
  1426   416   415    1
  1427   416   430    1
  1428  1408  1410    1
  1429  1408  1409    1
  1430  1297  1278    2
  1431  1414  1416   ar
  1432  1414  1415    2
  1433   415   413    1
  1434  1260  1258    1
  1435  1260  1259    1
  1436   480   479    1
  1437   492   481    1
  1438   492   491   ar
  1439   497   495    1
  1440   921   919    1
  1441   438   437    1
  1442    35    41   ar
  1443  1261  1259    1
  1444   437   435    1
  1445   388   371    1
  1446   388   390    1
  1447   388   408    1
  1448  1278  1264    1
  1449  1278  1296    1
  1450  1410  1411    1
  1451   490   491   ar
  1452   479   481    1
  1453   479   477    1
  1454   905   903    1
  1455   905   900    1
  1456   392   391    1
  1457   390   389    1
  1458   903   904    1
  1459   903   901    1
  1460  1258  1242    1
  1461  1258  1276    1
  1462    39    40   ar
  1463   413   411    1
  1464   481   476    1
  1465   852   851    1
  1466   892   893   ar
  1467   451   430    2
  1468   395   393    1
  1469   395   396    1
  1470   541   539    1
  1471   432   430    1
  1472   432   431    1
  1473   893   882    1
  1474    28    26    1
  1475    28    29    1
  1476    28    30    1
  1477    27    26    1
  1478   433   431    1
  1479   433   435    1
  1480   430   450    1
  1481   393   391    1
  1482   393   394    1
  1483   429   410    2
  1484   412   411    1
  1485   412   410    1
  1486    41    40   ar
  1487    41    30    1
  1488    17    16    2
  1489    26    24    1
  1490   859   854    1
  1491   859   857    1
  1492   391   389    1
  1493   435   436    1
  1494   854   853    1
  1495   901   902    1
  1496   901   899    1
  1497   900   899    1
  1498   919   938    2
  1499   919   902    1
  1500   919   937    1
  1501   477   478    1
  1502   477   475    1
  1503   495   478    1
  1504   495   517    2
  1505   495   516    1
  1506    30    25    1
  1507   895   873    2
  1508   851   853    1
  1509   476   475    1
  1510   410   394    1
  1511   410   428    1
  1512    16    10   ar
  1513    16    15   ar
  1514    10    11   ar
  1515   436   452    1
  1516   857   855    1
  1517   857   858    1
  1518   855   853    1
  1519   855   856    1
  1520   882   880    1
  1521   882   877    1
  1522   918   896    2
  1523    43    21    2
  1524   899   897    1
  1525   475   473    1
  1526    12    11    1
  1527    23    22    1
  1528    23    21    1
  1529   880   878    1
  1530   880   881    1
  1531    24    25    1
  1532    24    22    1
  1533   898   897    1
  1534   898   896    1
  1535    11    13   ar
  1536    15    18   ar
  1537    15    14   ar
  1538   877   876    1
  1539   873   875    1
  1540   873   856    1
  1541   873   894    1
  1542   875   874    1
  1543    18    19   ar
  1544   878   876    1
  1545   878   879    1
  1546    21    42    1
  1547    21     6    1
  1548   896   879    1
  1549   896   917    1
  1550   452   471    2
  1551   452   454    1
  1552   452   470    1
  1553    13    14   ar
  1554    14    20   ar
  1555   474   473    1
  1556   474   472    1
  1557   876   874    1
  1558   454   453    1
  1559    19    20   ar
  1560   494   472    2
  1561   453   455    1
  1562    20     9    1
  1563     6     5    1
  1564     7     5    1
  1565     7     9    1
  1566     7     8    1
  1567     5     3    1
  1568   472   458    1
  1569   472   493    1
  1570   457   455    1
  1571   457   458    1
  1572   457   459    1
  1573   455   456    1
  1574     2     1    1
  1575     9     4    1
  1576   459   460    1
  1577   459   461    1
  1578     3     1    1
  1579     3     4    1
  1580   456   461    1
  1581   461   462    1
  1582   469   462   ar
  1583   469   468   ar
  1584   462   463   ar
  1585   468   466   ar
  1586   463   464    2
  1587   463   465   ar
  1588   466   465   ar
  1589   466   467    2
