1eht cryst
 OpenBabel11021811383D
libRbt.so/2013.1/901 2013/11/27
 13 14  0  0  0  0  0  0  0  0999 V2000
   -4.7116   -7.6118   10.5295 C   0  0  0  0  0  0  0  0  0  0  0  0
   -5.2152   -6.8230   11.5600 N   0  0  0  0  0  0  0  0  0  0  0  0
   -5.5869   -7.4417   12.7256 C   0  0  0  0  0  0  0  0  0  0  0  0
   -5.4486   -8.6658   12.7660 O   0  0  0  0  0  0  0  0  0  0  0  0
   -6.0980   -6.7953   13.8226 N   0  0  0  0  0  0  0  0  0  0  0  0
   -6.4655   -7.4424   14.9910 C   0  0  0  0  0  0  0  0  0  0  0  0
   -6.2086   -5.4479   13.6449 C   0  0  0  0  0  0  0  0  0  0  0  0
   -5.8366   -4.8424   12.4797 C   0  0  0  0  0  0  0  0  0  0  0  0
   -5.3099   -5.4863   11.3454 C   0  0  0  0  0  0  0  0  0  0  0  0
   -4.9600   -4.9884   10.2763 O   0  0  0  0  0  0  0  0  0  0  0  0
   -6.0871   -3.4891   12.6620 N   0  0  0  0  0  0  0  0  0  0  0  0
   -6.5898   -3.3690   13.9136 C   0  0  0  0  0  0  0  0  0  0  0  0
   -6.6844   -4.5043   14.5486 N   0  0  0  0  0  0  0  0  0  0  0  0
  1  2  1  0  0  0  0
  2  9  1  0  0  0  0
  2  3  1  0  0  0  0
  3  5  1  0  0  0  0
  3  4  2  0  0  0  0
  5  6  1  0  0  0  0
  5  7  1  0  0  0  0
  7  8  2  0  0  0  0
  7 13  1  0  0  0  0
  8  9  1  0  0  0  0
  8 11  1  0  0  0  0
  9 10  2  0  0  0  0
 11 12  1  0  0  0  0
 12 13  2  0  0  0  0
M  END
>  <CHROM.1>
-5.76830977,-5.95578674,12.68365916,-0.68700810,1.18139415,-0.32771648

>  <Name>
1eht cryst

>  <RI>
0

>  <Rbt.Current_Directory>
/home/itssahil/PROJECTS/Mol_Feturizer/New_Systems/rnas/1eht

>  <Rbt.Executable>
rbdock ($Id: //depot/dev/client3/rdock/2013.1/src/exe/rbdock.cxx#4 $)

>  <Rbt.Library>
libRbt.so (2013.1, Build901 2013/11/27)

>  <Rbt.Parameter_File>
/export/apps/rDock/src/rDock_2013.1_src/data/scripts/dock_solv.prm

>  <Rbt.Receptor>
prm/blind_docking_80.prm

>  <SCORE>
-38.5946

>  <SCORE.INTER>
-38.5998

>  <SCORE.INTER.CONST>
1

>  <SCORE.INTER.POLAR>
-1.77164

>  <SCORE.INTER.ROT>
0

>  <SCORE.INTER.SOLV>
10.0536

>  <SCORE.INTER.VDW>
-26.7789

>  <SCORE.INTER.norm>
-2.96921

>  <SCORE.INTRA>
0

>  <SCORE.INTRA.DIHEDRAL>
0

>  <SCORE.INTRA.DIHEDRAL.0>
0

>  <SCORE.INTRA.POLAR>
0

>  <SCORE.INTRA.POLAR.0>
0

>  <SCORE.INTRA.REPUL>
0

>  <SCORE.INTRA.REPUL.0>
0

>  <SCORE.INTRA.SOLV>
0

>  <SCORE.INTRA.SOLV.lig_0>
-12.9768

>  <SCORE.INTRA.VDW>
0

>  <SCORE.INTRA.VDW.0>
0

>  <SCORE.INTRA.norm>
0

>  <SCORE.RESTR>
0.00518604

>  <SCORE.RESTR.CAVITY>
0.00518604

>  <SCORE.RESTR.norm>
0.000398926

>  <SCORE.SYSTEM>
0

>  <SCORE.SYSTEM.CONST>
0

>  <SCORE.SYSTEM.DIHEDRAL>
0

>  <SCORE.SYSTEM.SOLV>
0

>  <SCORE.SYSTEM.norm>
0

>  <SCORE.heavy>
13

>  <SCORE.norm>
-2.96881

>  <RMSD>
0.651

$$$$
1eht cryst
 OpenBabel11021811383D
libRbt.so/2013.1/901 2013/11/27
 13 14  0  0  0  0  0  0  0  0999 V2000
   -4.7568   -7.6047   10.5220 C   0  0  0  0  0  0  0  0  0  0  0  0
   -5.2468   -6.8138   11.5573 N   0  0  0  0  0  0  0  0  0  0  0  0
   -5.6030   -7.4300   12.7291 C   0  0  0  0  0  0  0  0  0  0  0  0
   -5.4638   -8.6539   12.7703 O   0  0  0  0  0  0  0  0  0  0  0  0
   -6.0996   -6.7813   13.8313 N   0  0  0  0  0  0  0  0  0  0  0  0
   -6.4514   -7.4259   15.0059 C   0  0  0  0  0  0  0  0  0  0  0  0
   -6.2129   -5.4342   13.6522 C   0  0  0  0  0  0  0  0  0  0  0  0
   -5.8564   -4.8312   12.4809 C   0  0  0  0  0  0  0  0  0  0  0  0
   -5.3447   -5.4775   11.3410 C   0  0  0  0  0  0  0  0  0  0  0  0
   -5.0091   -4.9819   10.2663 O   0  0  0  0  0  0  0  0  0  0  0  0
   -6.1048   -3.4776   12.6634 N   0  0  0  0  0  0  0  0  0  0  0  0
   -6.5910   -3.3549   13.9213 C   0  0  0  0  0  0  0  0  0  0  0  0
   -6.6768   -4.4888   14.5600 N   0  0  0  0  0  0  0  0  0  0  0  0
  1  2  1  0  0  0  0
  2  9  1  0  0  0  0
  2  3  1  0  0  0  0
  3  5  1  0  0  0  0
  3  4  2  0  0  0  0
  5  6  1  0  0  0  0
  5  7  1  0  0  0  0
  7  8  2  0  0  0  0
  7 13  1  0  0  0  0
  8  9  1  0  0  0  0
  8 11  1  0  0  0  0
  9 10  2  0  0  0  0
 11 12  1  0  0  0  0
 12 13  2  0  0  0  0
M  END
>  <CHROM.1>
-5.78521629,-5.94419209,12.68629453,-0.67482069,1.19383921,-0.34121260

>  <Name>
1eht cryst

>  <RI>
0

>  <Rbt.Current_Directory>
/home/itssahil/PROJECTS/Mol_Feturizer/New_Systems/rnas/1eht

>  <Rbt.Executable>
rbdock ($Id: //depot/dev/client3/rdock/2013.1/src/exe/rbdock.cxx#4 $)

>  <Rbt.Library>
libRbt.so (2013.1, Build901 2013/11/27)

>  <Rbt.Parameter_File>
/export/apps/rDock/src/rDock_2013.1_src/data/scripts/dock_solv.prm

>  <Rbt.Receptor>
prm/blind_docking_80.prm

>  <SCORE>
-38.6383

>  <SCORE.INTER>
-38.6384

>  <SCORE.INTER.CONST>
1

>  <SCORE.INTER.POLAR>
-1.7423

>  <SCORE.INTER.ROT>
0

>  <SCORE.INTER.SOLV>
10.0501

>  <SCORE.INTER.VDW>
-26.9013

>  <SCORE.INTER.norm>
-2.97218

>  <SCORE.INTRA>
0

>  <SCORE.INTRA.DIHEDRAL>
0

>  <SCORE.INTRA.DIHEDRAL.0>
0

>  <SCORE.INTRA.POLAR>
0

>  <SCORE.INTRA.POLAR.0>
0

>  <SCORE.INTRA.REPUL>
0

>  <SCORE.INTRA.REPUL.0>
0

>  <SCORE.INTRA.SOLV>
0

>  <SCORE.INTRA.SOLV.lig_0>
-12.9768

>  <SCORE.INTRA.VDW>
0

>  <SCORE.INTRA.VDW.0>
0

>  <SCORE.INTRA.norm>
0

>  <SCORE.RESTR>
9.56299e-05

>  <SCORE.RESTR.CAVITY>
9.56299e-05

>  <SCORE.RESTR.norm>
7.35615e-06

>  <SCORE.SYSTEM>
0

>  <SCORE.SYSTEM.CONST>
0

>  <SCORE.SYSTEM.DIHEDRAL>
0

>  <SCORE.SYSTEM.SOLV>
0

>  <SCORE.SYSTEM.norm>
0

>  <SCORE.heavy>
13

>  <SCORE.norm>
-2.97218

>  <RMSD>
0.652

$$$$
1eht cryst
 OpenBabel11021811383D
libRbt.so/2013.1/901 2013/11/27
 13 14  0  0  0  0  0  0  0  0999 V2000
   -4.7734   -7.6197   10.5362 C   0  0  0  0  0  0  0  0  0  0  0  0
   -5.2586   -6.8248   11.5707 N   0  0  0  0  0  0  0  0  0  0  0  0
   -5.6159   -7.4373   12.7441 C   0  0  0  0  0  0  0  0  0  0  0  0
   -5.4822   -8.6618   12.7873 O   0  0  0  0  0  0  0  0  0  0  0  0
   -6.1082   -6.7845   13.8458 N   0  0  0  0  0  0  0  0  0  0  0  0
   -6.4614   -7.4254   15.0220 C   0  0  0  0  0  0  0  0  0  0  0  0
   -6.2157   -5.4373   13.6645 C   0  0  0  0  0  0  0  0  0  0  0  0
   -5.8581   -4.8379   12.4916 C   0  0  0  0  0  0  0  0  0  0  0  0
   -5.3508   -5.4885   11.3522 C   0  0  0  0  0  0  0  0  0  0  0  0
   -5.0143   -4.9963   10.2762 O   0  0  0  0  0  0  0  0  0  0  0  0
   -6.1002   -3.4829   12.6721 N   0  0  0  0  0  0  0  0  0  0  0  0
   -6.5841   -3.3557   13.9304 C   0  0  0  0  0  0  0  0  0  0  0  0
   -6.6742   -4.4881   14.5712 N   0  0  0  0  0  0  0  0  0  0  0  0
  1  2  1  0  0  0  0
  2  9  1  0  0  0  0
  2  3  1  0  0  0  0
  3  5  1  0  0  0  0
  3  4  2  0  0  0  0
  5  6  1  0  0  0  0
  5  7  1  0  0  0  0
  7  8  2  0  0  0  0
  7 13  1  0  0  0  0
  8  9  1  0  0  0  0
  8 11  1  0  0  0  0
  9 10  2  0  0  0  0
 11 12  1  0  0  0  0
 12 13  2  0  0  0  0
M  END
>  <CHROM.1>
-5.79158587,-5.95081668,12.69891184,-0.68513675,1.19654719,-0.33339132

>  <Name>
1eht cryst

>  <RI>
0

>  <Rbt.Current_Directory>
/home/itssahil/PROJECTS/Mol_Feturizer/New_Systems/rnas/1eht

>  <Rbt.Executable>
rbdock ($Id: //depot/dev/client3/rdock/2013.1/src/exe/rbdock.cxx#4 $)

>  <Rbt.Library>
libRbt.so (2013.1, Build901 2013/11/27)

>  <Rbt.Parameter_File>
/export/apps/rDock/src/rDock_2013.1_src/data/scripts/dock_solv.prm

>  <Rbt.Receptor>
prm/blind_docking_80.prm

>  <SCORE>
-38.6492

>  <SCORE.INTER>
-38.6602

>  <SCORE.INTER.CONST>
1

>  <SCORE.INTER.POLAR>
-1.7417

>  <SCORE.INTER.ROT>
0

>  <SCORE.INTER.SOLV>
10.0346

>  <SCORE.INTER.VDW>
-26.9127

>  <SCORE.INTER.norm>
-2.97386

>  <SCORE.INTRA>
0

>  <SCORE.INTRA.DIHEDRAL>
0

>  <SCORE.INTRA.DIHEDRAL.0>
0

>  <SCORE.INTRA.POLAR>
0

>  <SCORE.INTRA.POLAR.0>
0

>  <SCORE.INTRA.REPUL>
0

>  <SCORE.INTRA.REPUL.0>
0

>  <SCORE.INTRA.SOLV>
0

>  <SCORE.INTRA.SOLV.lig_0>
-12.9768

>  <SCORE.INTRA.VDW>
0

>  <SCORE.INTRA.VDW.0>
0

>  <SCORE.INTRA.norm>
0

>  <SCORE.RESTR>
0.0110612

>  <SCORE.RESTR.CAVITY>
0.0110612

>  <SCORE.RESTR.norm>
0.000850862

>  <SCORE.SYSTEM>
0

>  <SCORE.SYSTEM.CONST>
0

>  <SCORE.SYSTEM.DIHEDRAL>
0

>  <SCORE.SYSTEM.SOLV>
0

>  <SCORE.SYSTEM.norm>
0

>  <SCORE.heavy>
13

>  <SCORE.norm>
-2.97301

>  <RMSD>
0.664

$$$$
1eht cryst
 OpenBabel11021811383D
libRbt.so/2013.1/901 2013/11/27
 13 14  0  0  0  0  0  0  0  0999 V2000
   -4.6976   -7.6145   10.5628 C   0  0  0  0  0  0  0  0  0  0  0  0
   -5.2035   -6.8233   11.5903 N   0  0  0  0  0  0  0  0  0  0  0  0
   -5.5746   -7.4389   12.7578 C   0  0  0  0  0  0  0  0  0  0  0  0
   -5.4336   -8.6626   12.8024 O   0  0  0  0  0  0  0  0  0  0  0  0
   -6.0877   -6.7900   13.8523 N   0  0  0  0  0  0  0  0  0  0  0  0
   -6.4544   -7.4339   15.0227 C   0  0  0  0  0  0  0  0  0  0  0  0
   -6.2012   -5.4434   13.6700 C   0  0  0  0  0  0  0  0  0  0  0  0
   -5.8298   -4.8410   12.5030 C   0  0  0  0  0  0  0  0  0  0  0  0
   -5.3011   -5.4875   11.3711 C   0  0  0  0  0  0  0  0  0  0  0  0
   -4.9516   -4.9925   10.3006 O   0  0  0  0  0  0  0  0  0  0  0  0
   -6.0834   -3.4877   12.6806 N   0  0  0  0  0  0  0  0  0  0  0  0
   -6.5871   -3.3645   13.9315 C   0  0  0  0  0  0  0  0  0  0  0  0
   -6.6795   -4.4978   14.5703 N   0  0  0  0  0  0  0  0  0  0  0  0
  1  2  1  0  0  0  0
  2  9  1  0  0  0  0
  2  3  1  0  0  0  0
  3  5  1  0  0  0  0
  3  4  2  0  0  0  0
  5  6  1  0  0  0  0
  5  7  1  0  0  0  0
  7  8  2  0  0  0  0
  7 13  1  0  0  0  0
  8  9  1  0  0  0  0
  8 11  1  0  0  0  0
  9 10  2  0  0  0  0
 11 12  1  0  0  0  0
 12 13  2  0  0  0  0
M  END
>  <CHROM.1>
-5.75918825,-5.95355326,12.71073624,-0.68198191,1.18013420,-0.33573646

>  <Name>
1eht cryst

>  <RI>
0

>  <Rbt.Current_Directory>
/home/itssahil/PROJECTS/Mol_Feturizer/New_Systems/rnas/1eht

>  <Rbt.Executable>
rbdock ($Id: //depot/dev/client3/rdock/2013.1/src/exe/rbdock.cxx#4 $)

>  <Rbt.Library>
libRbt.so (2013.1, Build901 2013/11/27)

>  <Rbt.Parameter_File>
/export/apps/rDock/src/rDock_2013.1_src/data/scripts/dock_solv.prm

>  <Rbt.Receptor>
prm/blind_docking_80.prm

>  <SCORE>
-38.6685

>  <SCORE.INTER>
-38.6685

>  <SCORE.INTER.CONST>
1

>  <SCORE.INTER.POLAR>
-1.75752

>  <SCORE.INTER.ROT>
0

>  <SCORE.INTER.SOLV>
10.0622

>  <SCORE.INTER.VDW>
-26.8747

>  <SCORE.INTER.norm>
-2.9745

>  <SCORE.INTRA>
0

>  <SCORE.INTRA.DIHEDRAL>
0

>  <SCORE.INTRA.DIHEDRAL.0>
0

>  <SCORE.INTRA.POLAR>
0

>  <SCORE.INTRA.POLAR.0>
0

>  <SCORE.INTRA.REPUL>
0

>  <SCORE.INTRA.REPUL.0>
0

>  <SCORE.INTRA.SOLV>
0

>  <SCORE.INTRA.SOLV.lig_0>
-12.9768

>  <SCORE.INTRA.VDW>
0

>  <SCORE.INTRA.VDW.0>
0

>  <SCORE.INTRA.norm>
0

>  <SCORE.RESTR>
8.15917e-05

>  <SCORE.RESTR.CAVITY>
8.15917e-05

>  <SCORE.RESTR.norm>
6.27628e-06

>  <SCORE.SYSTEM>
0

>  <SCORE.SYSTEM.CONST>
0

>  <SCORE.SYSTEM.DIHEDRAL>
0

>  <SCORE.SYSTEM.SOLV>
0

>  <SCORE.SYSTEM.norm>
0

>  <SCORE.heavy>
13

>  <SCORE.norm>
-2.9745

>  <RMSD>
0.672

$$$$
1eht cryst
 OpenBabel11021811383D
libRbt.so/2013.1/901 2013/11/27
 13 14  0  0  0  0  0  0  0  0999 V2000
   -4.6632   -7.6175   10.5716 C   0  0  0  0  0  0  0  0  0  0  0  0
   -5.1811   -6.8268   11.5934 N   0  0  0  0  0  0  0  0  0  0  0  0
   -5.5597   -7.4419   12.7587 C   0  0  0  0  0  0  0  0  0  0  0  0
   -5.4141   -8.6649   12.8065 O   0  0  0  0  0  0  0  0  0  0  0  0
   -6.0848   -6.7934   13.8477 N   0  0  0  0  0  0  0  0  0  0  0  0
   -6.4590   -7.4369   15.0160 C   0  0  0  0  0  0  0  0  0  0  0  0
   -6.2022   -5.4475   13.6623 C   0  0  0  0  0  0  0  0  0  0  0  0
   -5.8233   -4.8455   12.4975 C   0  0  0  0  0  0  0  0  0  0  0  0
   -5.2823   -5.4917   11.3712 C   0  0  0  0  0  0  0  0  0  0  0  0
   -4.9257   -4.9970   10.3029 O   0  0  0  0  0  0  0  0  0  0  0  0
   -6.0839   -3.4929   12.6706 N   0  0  0  0  0  0  0  0  0  0  0  0
   -6.5988   -3.3698   13.9170 C   0  0  0  0  0  0  0  0  0  0  0  0
   -6.6921   -4.5025   14.5568 N   0  0  0  0  0  0  0  0  0  0  0  0
  1  2  1  0  0  0  0
  2  9  1  0  0  0  0
  2  3  1  0  0  0  0
  3  5  1  0  0  0  0
  3  4  2  0  0  0  0
  5  6  1  0  0  0  0
  5  7  1  0  0  0  0
  7  8  2  0  0  0  0
  7 13  1  0  0  0  0
  8  9  1  0  0  0  0
  8 11  1  0  0  0  0
  9 10  2  0  0  0  0
 11 12  1  0  0  0  0
 12 13  2  0  0  0  0
M  END
>  <CHROM.1>
-5.74993993,-5.95744632,12.70763814,-0.67940080,1.17070180,-0.33974995

>  <Name>
1eht cryst

>  <RI>
0

>  <Rbt.Current_Directory>
/home/itssahil/PROJECTS/Mol_Feturizer/New_Systems/rnas/1eht

>  <Rbt.Executable>
rbdock ($Id: //depot/dev/client3/rdock/2013.1/src/exe/rbdock.cxx#4 $)

>  <Rbt.Library>
libRbt.so (2013.1, Build901 2013/11/27)

>  <Rbt.Parameter_File>
/export/apps/rDock/src/rDock_2013.1_src/data/scripts/dock_solv.prm

>  <Rbt.Receptor>
prm/blind_docking_80.prm

>  <SCORE>
-38.7207

>  <SCORE.INTER>
-38.7213

>  <SCORE.INTER.CONST>
1

>  <SCORE.INTER.POLAR>
-1.77383

>  <SCORE.INTER.ROT>
0

>  <SCORE.INTER.SOLV>
10.0624

>  <SCORE.INTER.VDW>
-26.8556

>  <SCORE.INTER.norm>
-2.97856

>  <SCORE.INTRA>
0

>  <SCORE.INTRA.DIHEDRAL>
0

>  <SCORE.INTRA.DIHEDRAL.0>
0

>  <SCORE.INTRA.POLAR>
0

>  <SCORE.INTRA.POLAR.0>
0

>  <SCORE.INTRA.REPUL>
0

>  <SCORE.INTRA.REPUL.0>
0

>  <SCORE.INTRA.SOLV>
0

>  <SCORE.INTRA.SOLV.lig_0>
-12.9768

>  <SCORE.INTRA.VDW>
0

>  <SCORE.INTRA.VDW.0>
0

>  <SCORE.INTRA.norm>
0

>  <SCORE.RESTR>
0.000653007

>  <SCORE.RESTR.CAVITY>
0.000653007

>  <SCORE.RESTR.norm>
5.02313e-05

>  <SCORE.SYSTEM>
0

>  <SCORE.SYSTEM.CONST>
0

>  <SCORE.SYSTEM.DIHEDRAL>
0

>  <SCORE.SYSTEM.SOLV>
0

>  <SCORE.SYSTEM.norm>
0

>  <SCORE.heavy>
13

>  <SCORE.norm>
-2.97851

>  <RMSD>
0.674

$$$$
1eht cryst
 OpenBabel11021811383D
libRbt.so/2013.1/901 2013/11/27
 13 14  0  0  0  0  0  0  0  0999 V2000
   -4.6596   -7.6167   10.5716 C   0  0  0  0  0  0  0  0  0  0  0  0
   -5.1781   -6.8268   11.5937 N   0  0  0  0  0  0  0  0  0  0  0  0
   -5.5567   -7.4429   12.7585 C   0  0  0  0  0  0  0  0  0  0  0  0
   -5.4105   -8.6659   12.8056 O   0  0  0  0  0  0  0  0  0  0  0  0
   -6.0823   -6.7953   13.8478 N   0  0  0  0  0  0  0  0  0  0  0  0
   -6.4564   -7.4397   15.0156 C   0  0  0  0  0  0  0  0  0  0  0  0
   -6.2003   -5.4494   13.6632 C   0  0  0  0  0  0  0  0  0  0  0  0
   -5.8214   -4.8464   12.4989 C   0  0  0  0  0  0  0  0  0  0  0  0
   -5.2798   -5.4917   11.3724 C   0  0  0  0  0  0  0  0  0  0  0  0
   -4.9232   -4.9961   10.3044 O   0  0  0  0  0  0  0  0  0  0  0  0
   -6.0827   -3.4941   12.6728 N   0  0  0  0  0  0  0  0  0  0  0  0
   -6.5979   -3.3720   13.9191 C   0  0  0  0  0  0  0  0  0  0  0  0
   -6.6908   -4.5051   14.5583 N   0  0  0  0  0  0  0  0  0  0  0  0
  1  2  1  0  0  0  0
  2  9  1  0  0  0  0
  2  3  1  0  0  0  0
  3  5  1  0  0  0  0
  3  4  2  0  0  0  0
  5  6  1  0  0  0  0
  5  7  1  0  0  0  0
  7  8  2  0  0  0  0
  7 13  1  0  0  0  0
  8  9  1  0  0  0  0
  8 11  1  0  0  0  0
  9 10  2  0  0  0  0
 11 12  1  0  0  0  0
 12 13  2  0  0  0  0
M  END
>  <CHROM.1>
-5.74758775,-5.95849505,12.70836610,-0.67847370,1.17032966,-0.33996427

>  <Name>
1eht cryst

>  <RI>
0

>  <Rbt.Current_Directory>
/home/itssahil/PROJECTS/Mol_Feturizer/New_Systems/rnas/1eht

>  <Rbt.Executable>
rbdock ($Id: //depot/dev/client3/rdock/2013.1/src/exe/rbdock.cxx#4 $)

>  <Rbt.Library>
libRbt.so (2013.1, Build901 2013/11/27)

>  <Rbt.Parameter_File>
/export/apps/rDock/src/rDock_2013.1_src/data/scripts/dock_solv.prm

>  <Rbt.Receptor>
prm/blind_docking_80.prm

>  <SCORE>
-38.7228

>  <SCORE.INTER>
-38.7228

>  <SCORE.INTER.CONST>
1

>  <SCORE.INTER.POLAR>
-1.77416

>  <SCORE.INTER.ROT>
0

>  <SCORE.INTER.SOLV>
10.0617

>  <SCORE.INTER.VDW>
-26.8552

>  <SCORE.INTER.norm>
-2.97868

>  <SCORE.INTRA>
0

>  <SCORE.INTRA.DIHEDRAL>
0

>  <SCORE.INTRA.DIHEDRAL.0>
0

>  <SCORE.INTRA.POLAR>
0

>  <SCORE.INTRA.POLAR.0>
0

>  <SCORE.INTRA.REPUL>
0

>  <SCORE.INTRA.REPUL.0>
0

>  <SCORE.INTRA.SOLV>
0

>  <SCORE.INTRA.SOLV.lig_0>
-12.9768

>  <SCORE.INTRA.VDW>
0

>  <SCORE.INTRA.VDW.0>
0

>  <SCORE.INTRA.norm>
0

>  <SCORE.RESTR>
0

>  <SCORE.RESTR.CAVITY>
0

>  <SCORE.RESTR.norm>
0

>  <SCORE.SYSTEM>
0

>  <SCORE.SYSTEM.CONST>
0

>  <SCORE.SYSTEM.DIHEDRAL>
0

>  <SCORE.SYSTEM.SOLV>
0

>  <SCORE.SYSTEM.norm>
0

>  <SCORE.heavy>
13

>  <SCORE.norm>
-2.97868

>  <RMSD>
0.674

$$$$
1eht cryst
 OpenBabel11021811383D
libRbt.so/2013.1/901 2013/11/27
 13 14  0  0  0  0  0  0  0  0999 V2000
   -4.6845   -7.6152   10.5699 C   0  0  0  0  0  0  0  0  0  0  0  0
   -5.1949   -6.8250   11.5959 N   0  0  0  0  0  0  0  0  0  0  0  0
   -5.5719   -7.4418   12.7609 C   0  0  0  0  0  0  0  0  0  0  0  0
   -5.4318   -8.6656   12.8046 O   0  0  0  0  0  0  0  0  0  0  0  0
   -6.0899   -6.7940   13.8537 N   0  0  0  0  0  0  0  0  0  0  0  0
   -6.4626   -7.4391   15.0215 C   0  0  0  0  0  0  0  0  0  0  0  0
   -6.2017   -5.4471   13.6726 C   0  0  0  0  0  0  0  0  0  0  0  0
   -5.8244   -4.8434   12.5081 C   0  0  0  0  0  0  0  0  0  0  0  0
   -5.2906   -5.4889   11.3780 C   0  0  0  0  0  0  0  0  0  0  0  0
   -4.9357   -4.9928   10.3097 O   0  0  0  0  0  0  0  0  0  0  0  0
   -6.0781   -3.4902   12.6861 N   0  0  0  0  0  0  0  0  0  0  0  0
   -6.5878   -3.3683   13.9347 C   0  0  0  0  0  0  0  0  0  0  0  0
   -6.6839   -4.5024   14.5717 N   0  0  0  0  0  0  0  0  0  0  0  0
  1  2  1  0  0  0  0
  2  9  1  0  0  0  0
  2  3  1  0  0  0  0
  3  5  1  0  0  0  0
  3  4  2  0  0  0  0
  5  6  1  0  0  0  0
  5  7  1  0  0  0  0
  7  8  2  0  0  0  0
  7 13  1  0  0  0  0
  8  9  1  0  0  0  0
  8 11  1  0  0  0  0
  9 10  2  0  0  0  0
 11 12  1  0  0  0  0
 12 13  2  0  0  0  0
M  END
>  <CHROM.1>
-5.75543582,-5.95632724,12.71478050,-0.68749856,1.17577289,-0.32939929

>  <Name>
1eht cryst

>  <RI>
0

>  <Rbt.Current_Directory>
/home/itssahil/PROJECTS/Mol_Feturizer/New_Systems/rnas/1eht

>  <Rbt.Executable>
rbdock ($Id: //depot/dev/client3/rdock/2013.1/src/exe/rbdock.cxx#4 $)

>  <Rbt.Library>
libRbt.so (2013.1, Build901 2013/11/27)

>  <Rbt.Parameter_File>
/export/apps/rDock/src/rDock_2013.1_src/data/scripts/dock_solv.prm

>  <Rbt.Receptor>
prm/blind_docking_80.prm

>  <SCORE>
-38.6543

>  <SCORE.INTER>
-38.6543

>  <SCORE.INTER.CONST>
1

>  <SCORE.INTER.POLAR>
-1.76387

>  <SCORE.INTER.ROT>
0

>  <SCORE.INTER.SOLV>
10.0661

>  <SCORE.INTER.VDW>
-26.8453

>  <SCORE.INTER.norm>
-2.9734

>  <SCORE.INTRA>
0

>  <SCORE.INTRA.DIHEDRAL>
0

>  <SCORE.INTRA.DIHEDRAL.0>
0

>  <SCORE.INTRA.POLAR>
0

>  <SCORE.INTRA.POLAR.0>
0

>  <SCORE.INTRA.REPUL>
0

>  <SCORE.INTRA.REPUL.0>
0

>  <SCORE.INTRA.SOLV>
0

>  <SCORE.INTRA.SOLV.lig_0>
-12.9768

>  <SCORE.INTRA.VDW>
0

>  <SCORE.INTRA.VDW.0>
0

>  <SCORE.INTRA.norm>
0

>  <SCORE.RESTR>
0

>  <SCORE.RESTR.CAVITY>
0

>  <SCORE.RESTR.norm>
0

>  <SCORE.SYSTEM>
0

>  <SCORE.SYSTEM.CONST>
0

>  <SCORE.SYSTEM.DIHEDRAL>
0

>  <SCORE.SYSTEM.SOLV>
0

>  <SCORE.SYSTEM.norm>
0

>  <SCORE.heavy>
13

>  <SCORE.norm>
-2.9734

>  <RMSD>
0.675

$$$$
1eht cryst
 OpenBabel11021811383D
libRbt.so/2013.1/901 2013/11/27
 13 14  0  0  0  0  0  0  0  0999 V2000
   -4.6557   -7.6172   10.5729 C   0  0  0  0  0  0  0  0  0  0  0  0
   -5.1760   -6.8268   11.5937 N   0  0  0  0  0  0  0  0  0  0  0  0
   -5.5552   -7.4421   12.7587 C   0  0  0  0  0  0  0  0  0  0  0  0
   -5.4081   -8.6649   12.8071 O   0  0  0  0  0  0  0  0  0  0  0  0
   -6.0826   -6.7940   13.8469 N   0  0  0  0  0  0  0  0  0  0  0  0
   -6.4574   -7.4376   15.0148 C   0  0  0  0  0  0  0  0  0  0  0  0
   -6.2016   -5.4483   13.6608 C   0  0  0  0  0  0  0  0  0  0  0  0
   -5.8220   -4.8461   12.4964 C   0  0  0  0  0  0  0  0  0  0  0  0
   -5.2787   -5.4920   11.3710 C   0  0  0  0  0  0  0  0  0  0  0  0
   -4.9213   -4.9971   10.3030 O   0  0  0  0  0  0  0  0  0  0  0  0
   -6.0846   -3.4939   12.6687 N   0  0  0  0  0  0  0  0  0  0  0  0
   -6.6013   -3.3710   13.9143 C   0  0  0  0  0  0  0  0  0  0  0  0
   -6.6939   -4.5037   14.5545 N   0  0  0  0  0  0  0  0  0  0  0  0
  1  2  1  0  0  0  0
  2  9  1  0  0  0  0
  2  3  1  0  0  0  0
  3  5  1  0  0  0  0
  3  4  2  0  0  0  0
  5  6  1  0  0  0  0
  5  7  1  0  0  0  0
  7  8  2  0  0  0  0
  7 13  1  0  0  0  0
  8  9  1  0  0  0  0
  8 11  1  0  0  0  0
  9 10  2  0  0  0  0
 11 12  1  0  0  0  0
 12 13  2  0  0  0  0
M  END
>  <CHROM.1>
-5.74741898,-5.95792397,12.70694336,-0.67723496,1.16903687,-0.34205733

>  <Name>
1eht cryst

>  <RI>
0

>  <Rbt.Current_Directory>
/home/itssahil/PROJECTS/Mol_Feturizer/New_Systems/rnas/1eht

>  <Rbt.Executable>
rbdock ($Id: //depot/dev/client3/rdock/2013.1/src/exe/rbdock.cxx#4 $)

>  <Rbt.Library>
libRbt.so (2013.1, Build901 2013/11/27)

>  <Rbt.Parameter_File>
/export/apps/rDock/src/rDock_2013.1_src/data/scripts/dock_solv.prm

>  <Rbt.Receptor>
prm/blind_docking_80.prm

>  <SCORE>
-38.7247

>  <SCORE.INTER>
-38.7248

>  <SCORE.INTER.CONST>
1

>  <SCORE.INTER.POLAR>
-1.77609

>  <SCORE.INTER.ROT>
0

>  <SCORE.INTER.SOLV>
10.0623

>  <SCORE.INTER.VDW>
-26.8503

>  <SCORE.INTER.norm>
-2.97883

>  <SCORE.INTRA>
0

>  <SCORE.INTRA.DIHEDRAL>
0

>  <SCORE.INTRA.DIHEDRAL.0>
0

>  <SCORE.INTRA.POLAR>
0

>  <SCORE.INTRA.POLAR.0>
0

>  <SCORE.INTRA.REPUL>
0

>  <SCORE.INTRA.REPUL.0>
0

>  <SCORE.INTRA.SOLV>
0

>  <SCORE.INTRA.SOLV.lig_0>
-12.9768

>  <SCORE.INTRA.VDW>
0

>  <SCORE.INTRA.VDW.0>
0

>  <SCORE.INTRA.norm>
0

>  <SCORE.RESTR>
8.51108e-05

>  <SCORE.RESTR.CAVITY>
8.51108e-05

>  <SCORE.RESTR.norm>
6.54698e-06

>  <SCORE.SYSTEM>
0

>  <SCORE.SYSTEM.CONST>
0

>  <SCORE.SYSTEM.DIHEDRAL>
0

>  <SCORE.SYSTEM.SOLV>
0

>  <SCORE.SYSTEM.norm>
0

>  <SCORE.heavy>
13

>  <SCORE.norm>
-2.97882

>  <RMSD>
0.675

$$$$
1eht cryst
 OpenBabel11021811383D
libRbt.so/2013.1/901 2013/11/27
 13 14  0  0  0  0  0  0  0  0999 V2000
   -4.6511   -7.6173   10.5747 C   0  0  0  0  0  0  0  0  0  0  0  0
   -5.1726   -6.8275   11.5954 N   0  0  0  0  0  0  0  0  0  0  0  0
   -5.5524   -7.4434   12.7600 C   0  0  0  0  0  0  0  0  0  0  0  0
   -5.4046   -8.6661   12.8081 O   0  0  0  0  0  0  0  0  0  0  0  0
   -6.0810   -6.7958   13.8479 N   0  0  0  0  0  0  0  0  0  0  0  0
   -6.4563   -7.4400   15.0154 C   0  0  0  0  0  0  0  0  0  0  0  0
   -6.2005   -5.4502   13.6621 C   0  0  0  0  0  0  0  0  0  0  0  0
   -5.8203   -4.8475   12.4981 C   0  0  0  0  0  0  0  0  0  0  0  0
   -5.2758   -5.4927   11.3730 C   0  0  0  0  0  0  0  0  0  0  0  0
   -4.9179   -4.9973   10.3054 O   0  0  0  0  0  0  0  0  0  0  0  0
   -6.0839   -3.4954   12.6707 N   0  0  0  0  0  0  0  0  0  0  0  0
   -6.6016   -3.3732   13.9159 C   0  0  0  0  0  0  0  0  0  0  0  0
   -6.6941   -4.5060   14.5556 N   0  0  0  0  0  0  0  0  0  0  0  0
  1  2  1  0  0  0  0
  2  9  1  0  0  0  0
  2  3  1  0  0  0  0
  3  5  1  0  0  0  0
  3  4  2  0  0  0  0
  5  6  1  0  0  0  0
  5  7  1  0  0  0  0
  7  8  2  0  0  0  0
  7 13  1  0  0  0  0
  8  9  1  0  0  0  0
  8 11  1  0  0  0  0
  9 10  2  0  0  0  0
 11 12  1  0  0  0  0
 12 13  2  0  0  0  0
M  END
>  <CHROM.1>
-5.74533929,-5.95927267,12.70844201,-0.67658476,1.16811828,-0.34237071

>  <Name>
1eht cryst

>  <RI>
0

>  <Rbt.Current_Directory>
/home/itssahil/PROJECTS/Mol_Feturizer/New_Systems/rnas/1eht

>  <Rbt.Executable>
rbdock ($Id: //depot/dev/client3/rdock/2013.1/src/exe/rbdock.cxx#4 $)

>  <Rbt.Library>
libRbt.so (2013.1, Build901 2013/11/27)

>  <Rbt.Parameter_File>
/export/apps/rDock/src/rDock_2013.1_src/data/scripts/dock_solv.prm

>  <Rbt.Receptor>
prm/blind_docking_80.prm

>  <SCORE>
-38.7279

>  <SCORE.INTER>
-38.7279

>  <SCORE.INTER.CONST>
1

>  <SCORE.INTER.POLAR>
-1.77713

>  <SCORE.INTER.ROT>
0

>  <SCORE.INTER.SOLV>
10.0609

>  <SCORE.INTER.VDW>
-26.8485

>  <SCORE.INTER.norm>
-2.97907

>  <SCORE.INTRA>
0

>  <SCORE.INTRA.DIHEDRAL>
0

>  <SCORE.INTRA.DIHEDRAL.0>
0

>  <SCORE.INTRA.POLAR>
0

>  <SCORE.INTRA.POLAR.0>
0

>  <SCORE.INTRA.REPUL>
0

>  <SCORE.INTRA.REPUL.0>
0

>  <SCORE.INTRA.SOLV>
0

>  <SCORE.INTRA.SOLV.lig_0>
-12.9768

>  <SCORE.INTRA.VDW>
0

>  <SCORE.INTRA.VDW.0>
0

>  <SCORE.INTRA.norm>
0

>  <SCORE.RESTR>
0

>  <SCORE.RESTR.CAVITY>
0

>  <SCORE.RESTR.norm>
0

>  <SCORE.SYSTEM>
0

>  <SCORE.SYSTEM.CONST>
0

>  <SCORE.SYSTEM.DIHEDRAL>
0

>  <SCORE.SYSTEM.SOLV>
0

>  <SCORE.SYSTEM.norm>
0

>  <SCORE.heavy>
13

>  <SCORE.norm>
-2.97907

>  <RMSD>
0.675

$$$$
1eht cryst
 OpenBabel11021811383D
libRbt.so/2013.1/901 2013/11/27
 13 14  0  0  0  0  0  0  0  0999 V2000
   -4.6562   -7.6196   10.5809 C   0  0  0  0  0  0  0  0  0  0  0  0
   -5.1784   -6.8279   11.5998 N   0  0  0  0  0  0  0  0  0  0  0  0
   -5.5614   -7.4420   12.7642 C   0  0  0  0  0  0  0  0  0  0  0  0
   -5.4156   -8.6650   12.8138 O   0  0  0  0  0  0  0  0  0  0  0  0
   -6.0910   -6.7925   13.8505 N   0  0  0  0  0  0  0  0  0  0  0  0
   -6.4696   -7.4349   15.0179 C   0  0  0  0  0  0  0  0  0  0  0  0
   -6.2080   -5.4469   13.6632 C   0  0  0  0  0  0  0  0  0  0  0  0
   -5.8246   -4.8459   12.4993 C   0  0  0  0  0  0  0  0  0  0  0  0
   -5.2790   -5.4932   11.3759 C   0  0  0  0  0  0  0  0  0  0  0  0
   -4.9182   -4.9994   10.3085 O   0  0  0  0  0  0  0  0  0  0  0  0
   -6.0863   -3.4933   12.6700 N   0  0  0  0  0  0  0  0  0  0  0  0
   -6.6062   -3.3690   13.9142 C   0  0  0  0  0  0  0  0  0  0  0  0
   -6.7017   -4.5011   14.5548 N   0  0  0  0  0  0  0  0  0  0  0  0
  1  2  1  0  0  0  0
  2  9  1  0  0  0  0
  2  3  1  0  0  0  0
  3  5  1  0  0  0  0
  3  4  2  0  0  0  0
  5  6  1  0  0  0  0
  5  7  1  0  0  0  0
  7  8  2  0  0  0  0
  7 13  1  0  0  0  0
  8  9  1  0  0  0  0
  8 11  1  0  0  0  0
  9 10  2  0  0  0  0
 11 12  1  0  0  0  0
 12 13  2  0  0  0  0
M  END
>  <CHROM.1>
-5.75181796,-5.95765174,12.71086608,-0.68211819,1.16685959,-0.33826793

>  <Name>
1eht cryst

>  <RI>
0

>  <Rbt.Current_Directory>
/home/itssahil/PROJECTS/Mol_Feturizer/New_Systems/rnas/1eht

>  <Rbt.Executable>
rbdock ($Id: //depot/dev/client3/rdock/2013.1/src/exe/rbdock.cxx#4 $)

>  <Rbt.Library>
libRbt.so (2013.1, Build901 2013/11/27)

>  <Rbt.Parameter_File>
/export/apps/rDock/src/rDock_2013.1_src/data/scripts/dock_solv.prm

>  <Rbt.Receptor>
prm/blind_docking_80.prm

>  <SCORE>
-38.6923

>  <SCORE.INTER>
-38.6925

>  <SCORE.INTER.CONST>
1

>  <SCORE.INTER.POLAR>
-1.7778

>  <SCORE.INTER.ROT>
0

>  <SCORE.INTER.SOLV>
10.0639

>  <SCORE.INTER.VDW>
-26.8236

>  <SCORE.INTER.norm>
-2.97635

>  <SCORE.INTRA>
0

>  <SCORE.INTRA.DIHEDRAL>
0

>  <SCORE.INTRA.DIHEDRAL.0>
0

>  <SCORE.INTRA.POLAR>
0

>  <SCORE.INTRA.POLAR.0>
0

>  <SCORE.INTRA.REPUL>
0

>  <SCORE.INTRA.REPUL.0>
0

>  <SCORE.INTRA.SOLV>
0

>  <SCORE.INTRA.SOLV.lig_0>
-12.9768

>  <SCORE.INTRA.VDW>
0

>  <SCORE.INTRA.VDW.0>
0

>  <SCORE.INTRA.norm>
0

>  <SCORE.RESTR>
0.000219279

>  <SCORE.RESTR.CAVITY>
0.000219279

>  <SCORE.RESTR.norm>
1.68676e-05

>  <SCORE.SYSTEM>
0

>  <SCORE.SYSTEM.CONST>
0

>  <SCORE.SYSTEM.DIHEDRAL>
0

>  <SCORE.SYSTEM.SOLV>
0

>  <SCORE.SYSTEM.norm>
0

>  <SCORE.heavy>
13

>  <SCORE.norm>
-2.97633

>  <RMSD>
0.680

$$$$
1eht cryst
 OpenBabel11021811383D
libRbt.so/2013.1/901 2013/11/27
 13 14  0  0  0  0  0  0  0  0999 V2000
   -4.6467   -7.6212   10.5853 C   0  0  0  0  0  0  0  0  0  0  0  0
   -5.1706   -6.8306   11.6041 N   0  0  0  0  0  0  0  0  0  0  0  0
   -5.5588   -7.4464   12.7659 C   0  0  0  0  0  0  0  0  0  0  0  0
   -5.4159   -8.6698   12.8134 O   0  0  0  0  0  0  0  0  0  0  0  0
   -6.0907   -6.7981   13.8518 N   0  0  0  0  0  0  0  0  0  0  0  0
   -6.4746   -7.4422   15.0165 C   0  0  0  0  0  0  0  0  0  0  0  0
   -6.2042   -5.4518   13.6670 C   0  0  0  0  0  0  0  0  0  0  0  0
   -5.8157   -4.8492   12.5057 C   0  0  0  0  0  0  0  0  0  0  0  0
   -5.2676   -5.4952   11.3827 C   0  0  0  0  0  0  0  0  0  0  0  0
   -4.9023   -4.9999   10.3176 O   0  0  0  0  0  0  0  0  0  0  0  0
   -6.0750   -3.4964   12.6784 N   0  0  0  0  0  0  0  0  0  0  0  0
   -6.5988   -3.3736   13.9211 C   0  0  0  0  0  0  0  0  0  0  0  0
   -6.6989   -4.5069   14.5590 N   0  0  0  0  0  0  0  0  0  0  0  0
  1  2  1  0  0  0  0
  2  9  1  0  0  0  0
  2  3  1  0  0  0  0
  3  5  1  0  0  0  0
  3  4  2  0  0  0  0
  5  6  1  0  0  0  0
  5  7  1  0  0  0  0
  7  8  2  0  0  0  0
  7 13  1  0  0  0  0
  8  9  1  0  0  0  0
  8 11  1  0  0  0  0
  9 10  2  0  0  0  0
 11 12  1  0  0  0  0
 12 13  2  0  0  0  0
M  END
>  <CHROM.1>
-5.74592890,-5.96152699,12.71511856,-0.69001049,1.16438606,-0.32886767

>  <Name>
1eht cryst

>  <RI>
0

>  <Rbt.Current_Directory>
/home/itssahil/PROJECTS/Mol_Feturizer/New_Systems/rnas/1eht

>  <Rbt.Executable>
rbdock ($Id: //depot/dev/client3/rdock/2013.1/src/exe/rbdock.cxx#4 $)

>  <Rbt.Library>
libRbt.so (2013.1, Build901 2013/11/27)

>  <Rbt.Parameter_File>
/export/apps/rDock/src/rDock_2013.1_src/data/scripts/dock_solv.prm

>  <Rbt.Receptor>
prm/blind_docking_80.prm

>  <SCORE>
-38.68

>  <SCORE.INTER>
-38.6805

>  <SCORE.INTER.CONST>
1

>  <SCORE.INTER.POLAR>
-1.7836

>  <SCORE.INTER.ROT>
0

>  <SCORE.INTER.SOLV>
10.0671

>  <SCORE.INTER.VDW>
-26.7974

>  <SCORE.INTER.norm>
-2.97542

>  <SCORE.INTRA>
0

>  <SCORE.INTRA.DIHEDRAL>
0

>  <SCORE.INTRA.DIHEDRAL.0>
0

>  <SCORE.INTRA.POLAR>
0

>  <SCORE.INTRA.POLAR.0>
0

>  <SCORE.INTRA.REPUL>
0

>  <SCORE.INTRA.REPUL.0>
0

>  <SCORE.INTRA.SOLV>
0

>  <SCORE.INTRA.SOLV.lig_0>
-12.9768

>  <SCORE.INTRA.VDW>
0

>  <SCORE.INTRA.VDW.0>
0

>  <SCORE.INTRA.norm>
0

>  <SCORE.RESTR>
0.000534368

>  <SCORE.RESTR.CAVITY>
0.000534368

>  <SCORE.RESTR.norm>
4.11052e-05

>  <SCORE.SYSTEM>
0

>  <SCORE.SYSTEM.CONST>
0

>  <SCORE.SYSTEM.DIHEDRAL>
0

>  <SCORE.SYSTEM.SOLV>
0

>  <SCORE.SYSTEM.norm>
0

>  <SCORE.heavy>
13

>  <SCORE.norm>
-2.97538

>  <RMSD>
0.682

$$$$
1eht cryst
 OpenBabel11021811383D
libRbt.so/2013.1/901 2013/11/27
 13 14  0  0  0  0  0  0  0  0999 V2000
   -4.6333   -7.6063   10.5881 C   0  0  0  0  0  0  0  0  0  0  0  0
   -5.1620   -6.8172   11.6055 N   0  0  0  0  0  0  0  0  0  0  0  0
   -5.5409   -7.4325   12.7707 C   0  0  0  0  0  0  0  0  0  0  0  0
   -5.3859   -8.6542   12.8221 O   0  0  0  0  0  0  0  0  0  0  0  0
   -6.0761   -6.7855   13.8557 N   0  0  0  0  0  0  0  0  0  0  0  0
   -6.4504   -7.4291   15.0238 C   0  0  0  0  0  0  0  0  0  0  0  0
   -6.2033   -5.4411   13.6664 C   0  0  0  0  0  0  0  0  0  0  0  0
   -5.8239   -4.8389   12.5018 C   0  0  0  0  0  0  0  0  0  0  0  0
   -5.2727   -5.4836   11.3796 C   0  0  0  0  0  0  0  0  0  0  0  0
   -4.9152   -4.9887   10.3116 O   0  0  0  0  0  0  0  0  0  0  0  0
   -6.0960   -3.4880   12.6704 N   0  0  0  0  0  0  0  0  0  0  0  0
   -6.6175   -3.3659   13.9141 C   0  0  0  0  0  0  0  0  0  0  0  0
   -6.7047   -4.4977   14.5563 N   0  0  0  0  0  0  0  0  0  0  0  0
  1  2  1  0  0  0  0
  2  9  1  0  0  0  0
  2  3  1  0  0  0  0
  3  5  1  0  0  0  0
  3  4  2  0  0  0  0
  5  6  1  0  0  0  0
  5  7  1  0  0  0  0
  7  8  2  0  0  0  0
  7 13  1  0  0  0  0
  8  9  1  0  0  0  0
  8 11  1  0  0  0  0
  9 10  2  0  0  0  0
 11 12  1  0  0  0  0
 12 13  2  0  0  0  0
M  END
>  <CHROM.1>
-5.74270206,-5.94973449,12.71503220,-0.66433763,1.16377593,-0.35607377

>  <Name>
1eht cryst

>  <RI>
0

>  <Rbt.Current_Directory>
/home/itssahil/PROJECTS/Mol_Feturizer/New_Systems/rnas/1eht

>  <Rbt.Executable>
rbdock ($Id: //depot/dev/client3/rdock/2013.1/src/exe/rbdock.cxx#4 $)

>  <Rbt.Library>
libRbt.so (2013.1, Build901 2013/11/27)

>  <Rbt.Parameter_File>
/export/apps/rDock/src/rDock_2013.1_src/data/scripts/dock_solv.prm

>  <Rbt.Receptor>
prm/blind_docking_80.prm

>  <SCORE>
-38.6619

>  <SCORE.INTER>
-38.6619

>  <SCORE.INTER.CONST>
1

>  <SCORE.INTER.POLAR>
-1.76773

>  <SCORE.INTER.ROT>
0

>  <SCORE.INTER.SOLV>
10.0784

>  <SCORE.INTER.VDW>
-26.8417

>  <SCORE.INTER.norm>
-2.974

>  <SCORE.INTRA>
0

>  <SCORE.INTRA.DIHEDRAL>
0

>  <SCORE.INTRA.DIHEDRAL.0>
0

>  <SCORE.INTRA.POLAR>
0

>  <SCORE.INTRA.POLAR.0>
0

>  <SCORE.INTRA.REPUL>
0

>  <SCORE.INTRA.REPUL.0>
0

>  <SCORE.INTRA.SOLV>
0

>  <SCORE.INTRA.SOLV.lig_0>
-12.9768

>  <SCORE.INTRA.VDW>
0

>  <SCORE.INTRA.VDW.0>
0

>  <SCORE.INTRA.norm>
0

>  <SCORE.RESTR>
0

>  <SCORE.RESTR.CAVITY>
0

>  <SCORE.RESTR.norm>
0

>  <SCORE.SYSTEM>
0

>  <SCORE.SYSTEM.CONST>
0

>  <SCORE.SYSTEM.DIHEDRAL>
0

>  <SCORE.SYSTEM.SOLV>
0

>  <SCORE.SYSTEM.norm>
0

>  <SCORE.heavy>
13

>  <SCORE.norm>
-2.974

>  <RMSD>
0.683

$$$$
1eht cryst
 OpenBabel11021811383D
libRbt.so/2013.1/901 2013/11/27
 13 14  0  0  0  0  0  0  0  0999 V2000
   -4.6548   -7.6150   10.5864 C   0  0  0  0  0  0  0  0  0  0  0  0
   -5.1775   -6.8249   11.6061 N   0  0  0  0  0  0  0  0  0  0  0  0
   -5.5629   -7.4409   12.7688 C   0  0  0  0  0  0  0  0  0  0  0  0
   -5.4186   -8.6641   12.8161 O   0  0  0  0  0  0  0  0  0  0  0  0
   -6.0933   -6.7929   13.8556 N   0  0  0  0  0  0  0  0  0  0  0  0
   -6.4743   -7.4373   15.0211 C   0  0  0  0  0  0  0  0  0  0  0  0
   -6.2086   -5.4468   13.6708 C   0  0  0  0  0  0  0  0  0  0  0  0
   -5.8229   -4.8440   12.5087 C   0  0  0  0  0  0  0  0  0  0  0  0
   -5.2764   -5.4895   11.3847 C   0  0  0  0  0  0  0  0  0  0  0  0
   -4.9136   -4.9941   10.3188 O   0  0  0  0  0  0  0  0  0  0  0  0
   -6.0833   -3.4914   12.6817 N   0  0  0  0  0  0  0  0  0  0  0  0
   -6.6049   -3.3690   13.9254 C   0  0  0  0  0  0  0  0  0  0  0  0
   -6.7026   -4.5022   14.5636 N   0  0  0  0  0  0  0  0  0  0  0  0
  1  2  1  0  0  0  0
  2  9  1  0  0  0  0
  2  3  1  0  0  0  0
  3  5  1  0  0  0  0
  3  4  2  0  0  0  0
  5  6  1  0  0  0  0
  5  7  1  0  0  0  0
  7  8  2  0  0  0  0
  7 13  1  0  0  0  0
  8  9  1  0  0  0  0
  8 11  1  0  0  0  0
  9 10  2  0  0  0  0
 11 12  1  0  0  0  0
 12 13  2  0  0  0  0
M  END
>  <CHROM.1>
-5.75162295,-5.95617530,12.71811717,-0.68595018,1.16587793,-0.33274260

>  <Name>
1eht cryst

>  <RI>
0

>  <Rbt.Current_Directory>
/home/itssahil/PROJECTS/Mol_Feturizer/New_Systems/rnas/1eht

>  <Rbt.Executable>
rbdock ($Id: //depot/dev/client3/rdock/2013.1/src/exe/rbdock.cxx#4 $)

>  <Rbt.Library>
libRbt.so (2013.1, Build901 2013/11/27)

>  <Rbt.Parameter_File>
/export/apps/rDock/src/rDock_2013.1_src/data/scripts/dock_solv.prm

>  <Rbt.Receptor>
prm/blind_docking_80.prm

>  <SCORE>
-38.6966

>  <SCORE.INTER>
-38.6966

>  <SCORE.INTER.CONST>
1

>  <SCORE.INTER.POLAR>
-1.77378

>  <SCORE.INTER.ROT>
0

>  <SCORE.INTER.SOLV>
10.0728

>  <SCORE.INTER.VDW>
-26.8427

>  <SCORE.INTER.norm>
-2.97666

>  <SCORE.INTRA>
0

>  <SCORE.INTRA.DIHEDRAL>
0

>  <SCORE.INTRA.DIHEDRAL.0>
0

>  <SCORE.INTRA.POLAR>
0

>  <SCORE.INTRA.POLAR.0>
0

>  <SCORE.INTRA.REPUL>
0

>  <SCORE.INTRA.REPUL.0>
0

>  <SCORE.INTRA.SOLV>
0

>  <SCORE.INTRA.SOLV.lig_0>
-12.9768

>  <SCORE.INTRA.VDW>
0

>  <SCORE.INTRA.VDW.0>
0

>  <SCORE.INTRA.norm>
0

>  <SCORE.RESTR>
0

>  <SCORE.RESTR.CAVITY>
0

>  <SCORE.RESTR.norm>
0

>  <SCORE.SYSTEM>
0

>  <SCORE.SYSTEM.CONST>
0

>  <SCORE.SYSTEM.DIHEDRAL>
0

>  <SCORE.SYSTEM.SOLV>
0

>  <SCORE.SYSTEM.norm>
0

>  <SCORE.heavy>
13

>  <SCORE.norm>
-2.97666

>  <RMSD>
0.684

$$$$
1eht cryst
 OpenBabel11021811383D
libRbt.so/2013.1/901 2013/11/27
 13 14  0  0  0  0  0  0  0  0999 V2000
   -4.6609   -7.6179   10.5879 C   0  0  0  0  0  0  0  0  0  0  0  0
   -5.1822   -6.8262   11.6072 N   0  0  0  0  0  0  0  0  0  0  0  0
   -5.5659   -7.4404   12.7713 C   0  0  0  0  0  0  0  0  0  0  0  0
   -5.4215   -8.6635   12.8203 O   0  0  0  0  0  0  0  0  0  0  0  0
   -6.0948   -6.7908   13.8578 N   0  0  0  0  0  0  0  0  0  0  0  0
   -6.4741   -7.4334   15.0249 C   0  0  0  0  0  0  0  0  0  0  0  0
   -6.2104   -5.4450   13.6712 C   0  0  0  0  0  0  0  0  0  0  0  0
   -5.8263   -4.8439   12.5076 C   0  0  0  0  0  0  0  0  0  0  0  0
   -5.2814   -5.4912   11.3839 C   0  0  0  0  0  0  0  0  0  0  0  0
   -4.9201   -4.9973   10.3167 O   0  0  0  0  0  0  0  0  0  0  0  0
   -6.0865   -3.4910   12.6790 N   0  0  0  0  0  0  0  0  0  0  0  0
   -6.6063   -3.3668   13.9232 C   0  0  0  0  0  0  0  0  0  0  0  0
   -6.7030   -4.4991   14.5633 N   0  0  0  0  0  0  0  0  0  0  0  0
  1  2  1  0  0  0  0
  2  9  1  0  0  0  0
  2  3  1  0  0  0  0
  3  5  1  0  0  0  0
  3  4  2  0  0  0  0
  5  6  1  0  0  0  0
  5  7  1  0  0  0  0
  7  8  2  0  0  0  0
  7 13  1  0  0  0  0
  8  9  1  0  0  0  0
  8 11  1  0  0  0  0
  9 10  2  0  0  0  0
 11 12  1  0  0  0  0
 12 13  2  0  0  0  0
M  END
>  <CHROM.1>
-5.75474895,-5.95579248,12.71865020,-0.68475199,1.16722505,-0.33536145

>  <Name>
1eht cryst

>  <RI>
0

>  <Rbt.Current_Directory>
/home/itssahil/PROJECTS/Mol_Feturizer/New_Systems/rnas/1eht

>  <Rbt.Executable>
rbdock ($Id: //depot/dev/client3/rdock/2013.1/src/exe/rbdock.cxx#4 $)

>  <Rbt.Library>
libRbt.so (2013.1, Build901 2013/11/27)

>  <Rbt.Parameter_File>
/export/apps/rDock/src/rDock_2013.1_src/data/scripts/dock_solv.prm

>  <Rbt.Receptor>
prm/blind_docking_80.prm

>  <SCORE>
-38.6965

>  <SCORE.INTER>
-38.6965

>  <SCORE.INTER.CONST>
1

>  <SCORE.INTER.POLAR>
-1.77176

>  <SCORE.INTER.ROT>
0

>  <SCORE.INTER.SOLV>
10.0686

>  <SCORE.INTER.VDW>
-26.848

>  <SCORE.INTER.norm>
-2.97666

>  <SCORE.INTRA>
0

>  <SCORE.INTRA.DIHEDRAL>
0

>  <SCORE.INTRA.DIHEDRAL.0>
0

>  <SCORE.INTRA.POLAR>
0

>  <SCORE.INTRA.POLAR.0>
0

>  <SCORE.INTRA.REPUL>
0

>  <SCORE.INTRA.REPUL.0>
0

>  <SCORE.INTRA.SOLV>
0

>  <SCORE.INTRA.SOLV.lig_0>
-12.9768

>  <SCORE.INTRA.VDW>
0

>  <SCORE.INTRA.VDW.0>
0

>  <SCORE.INTRA.norm>
0

>  <SCORE.RESTR>
0

>  <SCORE.RESTR.CAVITY>
0

>  <SCORE.RESTR.norm>
0

>  <SCORE.SYSTEM>
0

>  <SCORE.SYSTEM.CONST>
0

>  <SCORE.SYSTEM.DIHEDRAL>
0

>  <SCORE.SYSTEM.SOLV>
0

>  <SCORE.SYSTEM.norm>
0

>  <SCORE.heavy>
13

>  <SCORE.norm>
-2.97666

>  <RMSD>
0.686

$$$$
1eht cryst
 OpenBabel11021811383D
libRbt.so/2013.1/901 2013/11/27
 13 14  0  0  0  0  0  0  0  0999 V2000
   -4.6298   -7.6219   10.5942 C   0  0  0  0  0  0  0  0  0  0  0  0
   -5.1584   -6.8295   11.6093 N   0  0  0  0  0  0  0  0  0  0  0  0
   -5.5402   -7.4415   12.7752 C   0  0  0  0  0  0  0  0  0  0  0  0
   -5.3877   -8.6634   12.8296 O   0  0  0  0  0  0  0  0  0  0  0  0
   -6.0755   -6.7910   13.8581 N   0  0  0  0  0  0  0  0  0  0  0  0
   -6.4527   -7.4313   15.0271 C   0  0  0  0  0  0  0  0  0  0  0  0
   -6.1996   -5.4467   13.6656 C   0  0  0  0  0  0  0  0  0  0  0  0
   -5.8174   -4.8479   12.5003 C   0  0  0  0  0  0  0  0  0  0  0  0
   -5.2660   -5.4962   11.3803 C   0  0  0  0  0  0  0  0  0  0  0  0
   -4.9061   -5.0043   10.3117 O   0  0  0  0  0  0  0  0  0  0  0  0
   -6.0870   -3.4961   12.6656 N   0  0  0  0  0  0  0  0  0  0  0  0
   -6.6100   -3.3702   13.9083 C   0  0  0  0  0  0  0  0  0  0  0  0
   -6.7004   -4.5005   14.5529 N   0  0  0  0  0  0  0  0  0  0  0  0
  1  2  1  0  0  0  0
  2  9  1  0  0  0  0
  2  3  1  0  0  0  0
  3  5  1  0  0  0  0
  3  4  2  0  0  0  0
  5  6  1  0  0  0  0
  5  7  1  0  0  0  0
  7  8  2  0  0  0  0
  7 13  1  0  0  0  0
  8  9  1  0  0  0  0
  8 11  1  0  0  0  0
  9 10  2  0  0  0  0
 11 12  1  0  0  0  0
 12 13  2  0  0  0  0
M  END
>  <CHROM.1>
-5.73881505,-5.95840880,12.71605812,-0.67038481,1.16318653,-0.35270100

>  <Name>
1eht cryst

>  <RI>
0

>  <Rbt.Current_Directory>
/home/itssahil/PROJECTS/Mol_Feturizer/New_Systems/rnas/1eht

>  <Rbt.Executable>
rbdock ($Id: //depot/dev/client3/rdock/2013.1/src/exe/rbdock.cxx#4 $)

>  <Rbt.Library>
libRbt.so (2013.1, Build901 2013/11/27)

>  <Rbt.Parameter_File>
/export/apps/rDock/src/rDock_2013.1_src/data/scripts/dock_solv.prm

>  <Rbt.Receptor>
prm/blind_docking_80.prm

>  <SCORE>
-38.6954

>  <SCORE.INTER>
-38.6954

>  <SCORE.INTER.CONST>
1

>  <SCORE.INTER.POLAR>
-1.77906

>  <SCORE.INTER.ROT>
0

>  <SCORE.INTER.SOLV>
10.0624

>  <SCORE.INTER.VDW>
-26.8209

>  <SCORE.INTER.norm>
-2.97657

>  <SCORE.INTRA>
0

>  <SCORE.INTRA.DIHEDRAL>
0

>  <SCORE.INTRA.DIHEDRAL.0>
0

>  <SCORE.INTRA.POLAR>
0

>  <SCORE.INTRA.POLAR.0>
0

>  <SCORE.INTRA.REPUL>
0

>  <SCORE.INTRA.REPUL.0>
0

>  <SCORE.INTRA.SOLV>
0

>  <SCORE.INTRA.SOLV.lig_0>
-12.9768

>  <SCORE.INTRA.VDW>
0

>  <SCORE.INTRA.VDW.0>
0

>  <SCORE.INTRA.norm>
0

>  <SCORE.RESTR>
0

>  <SCORE.RESTR.CAVITY>
0

>  <SCORE.RESTR.norm>
0

>  <SCORE.SYSTEM>
0

>  <SCORE.SYSTEM.CONST>
0

>  <SCORE.SYSTEM.DIHEDRAL>
0

>  <SCORE.SYSTEM.SOLV>
0

>  <SCORE.SYSTEM.norm>
0

>  <SCORE.heavy>
13

>  <SCORE.norm>
-2.97657

>  <RMSD>
0.687

$$$$
1eht cryst
 OpenBabel11021811383D
libRbt.so/2013.1/901 2013/11/27
 13 14  0  0  0  0  0  0  0  0999 V2000
   -4.6314   -7.6233   10.5937 C   0  0  0  0  0  0  0  0  0  0  0  0
   -5.1598   -6.8306   11.6086 N   0  0  0  0  0  0  0  0  0  0  0  0
   -5.5416   -7.4424   12.7747 C   0  0  0  0  0  0  0  0  0  0  0  0
   -5.3893   -8.6643   12.8293 O   0  0  0  0  0  0  0  0  0  0  0  0
   -6.0768   -6.7916   13.8575 N   0  0  0  0  0  0  0  0  0  0  0  0
   -6.4540   -7.4316   15.0267 C   0  0  0  0  0  0  0  0  0  0  0  0
   -6.2008   -5.4473   13.6648 C   0  0  0  0  0  0  0  0  0  0  0  0
   -5.8185   -4.8488   12.4994 C   0  0  0  0  0  0  0  0  0  0  0  0
   -5.2673   -5.4973   11.3794 C   0  0  0  0  0  0  0  0  0  0  0  0
   -4.9073   -5.0057   10.3108 O   0  0  0  0  0  0  0  0  0  0  0  0
   -6.0879   -3.4969   12.6644 N   0  0  0  0  0  0  0  0  0  0  0  0
   -6.6108   -3.3707   13.9071 C   0  0  0  0  0  0  0  0  0  0  0  0
   -6.7013   -4.5008   14.5519 N   0  0  0  0  0  0  0  0  0  0  0  0
  1  2  1  0  0  0  0
  2  9  1  0  0  0  0
  2  3  1  0  0  0  0
  3  5  1  0  0  0  0
  3  4  2  0  0  0  0
  5  6  1  0  0  0  0
  5  7  1  0  0  0  0
  7  8  2  0  0  0  0
  7 13  1  0  0  0  0
  8  9  1  0  0  0  0
  8 11  1  0  0  0  0
  9 10  2  0  0  0  0
 11 12  1  0  0  0  0
 12 13  2  0  0  0  0
M  END
>  <CHROM.1>
-5.74004894,-5.95924513,12.71531953,-0.67064877,1.16328076,-0.35262873

>  <Name>
1eht cryst

>  <RI>
0

>  <Rbt.Current_Directory>
/home/itssahil/PROJECTS/Mol_Feturizer/New_Systems/rnas/1eht

>  <Rbt.Executable>
rbdock ($Id: //depot/dev/client3/rdock/2013.1/src/exe/rbdock.cxx#4 $)

>  <Rbt.Library>
libRbt.so (2013.1, Build901 2013/11/27)

>  <Rbt.Parameter_File>
/export/apps/rDock/src/rDock_2013.1_src/data/scripts/dock_solv.prm

>  <Rbt.Receptor>
prm/blind_docking_80.prm

>  <SCORE>
-38.7012

>  <SCORE.INTER>
-38.7013

>  <SCORE.INTER.CONST>
1

>  <SCORE.INTER.POLAR>
-1.78007

>  <SCORE.INTER.ROT>
0

>  <SCORE.INTER.SOLV>
10.0593

>  <SCORE.INTER.VDW>
-26.8204

>  <SCORE.INTER.norm>
-2.97703

>  <SCORE.INTRA>
0

>  <SCORE.INTRA.DIHEDRAL>
0

>  <SCORE.INTRA.DIHEDRAL.0>
0

>  <SCORE.INTRA.POLAR>
0

>  <SCORE.INTRA.POLAR.0>
0

>  <SCORE.INTRA.REPUL>
0

>  <SCORE.INTRA.REPUL.0>
0

>  <SCORE.INTRA.SOLV>
0

>  <SCORE.INTRA.SOLV.lig_0>
-12.9768

>  <SCORE.INTRA.VDW>
0

>  <SCORE.INTRA.VDW.0>
0

>  <SCORE.INTRA.norm>
0

>  <SCORE.RESTR>
0.000148345

>  <SCORE.RESTR.CAVITY>
0.000148345

>  <SCORE.RESTR.norm>
1.14112e-05

>  <SCORE.SYSTEM>
0

>  <SCORE.SYSTEM.CONST>
0

>  <SCORE.SYSTEM.DIHEDRAL>
0

>  <SCORE.SYSTEM.SOLV>
0

>  <SCORE.SYSTEM.norm>
0

>  <SCORE.heavy>
13

>  <SCORE.norm>
-2.97701

>  <RMSD>
0.687

$$$$
1eht cryst
 OpenBabel11021811383D
libRbt.so/2013.1/901 2013/11/27
 13 14  0  0  0  0  0  0  0  0999 V2000
   -4.6324   -7.6068   10.5935 C   0  0  0  0  0  0  0  0  0  0  0  0
   -5.1614   -6.8170   11.6103 N   0  0  0  0  0  0  0  0  0  0  0  0
   -5.5441   -7.4320   12.7743 C   0  0  0  0  0  0  0  0  0  0  0  0
   -5.3919   -8.6540   12.8256 O   0  0  0  0  0  0  0  0  0  0  0  0
   -6.0800   -6.7842   13.8586 N   0  0  0  0  0  0  0  0  0  0  0  0
   -6.4581   -7.4274   15.0257 C   0  0  0  0  0  0  0  0  0  0  0  0
   -6.2038   -5.4394   13.6696 C   0  0  0  0  0  0  0  0  0  0  0  0
   -5.8207   -4.8376   12.5060 C   0  0  0  0  0  0  0  0  0  0  0  0
   -5.2687   -5.4830   11.3847 C   0  0  0  0  0  0  0  0  0  0  0  0
   -4.9079   -4.9885   10.3177 O   0  0  0  0  0  0  0  0  0  0  0  0
   -6.0901   -3.4862   12.6747 N   0  0  0  0  0  0  0  0  0  0  0  0
   -6.6139   -3.3634   13.9173 C   0  0  0  0  0  0  0  0  0  0  0  0
   -6.7049   -4.4953   14.5589 N   0  0  0  0  0  0  0  0  0  0  0  0
  1  2  1  0  0  0  0
  2  9  1  0  0  0  0
  2  3  1  0  0  0  0
  3  5  1  0  0  0  0
  3  4  2  0  0  0  0
  5  6  1  0  0  0  0
  5  7  1  0  0  0  0
  7  8  2  0  0  0  0
  7 13  1  0  0  0  0
  8  9  1  0  0  0  0
  8 11  1  0  0  0  0
  9 10  2  0  0  0  0
 11 12  1  0  0  0  0
 12 13  2  0  0  0  0
M  END
>  <CHROM.1>
-5.74244114,-5.94868045,12.71895477,-0.67140400,1.16263290,-0.34915345

>  <Name>
1eht cryst

>  <RI>
0

>  <Rbt.Current_Directory>
/home/itssahil/PROJECTS/Mol_Feturizer/New_Systems/rnas/1eht

>  <Rbt.Executable>
rbdock ($Id: //depot/dev/client3/rdock/2013.1/src/exe/rbdock.cxx#4 $)

>  <Rbt.Library>
libRbt.so (2013.1, Build901 2013/11/27)

>  <Rbt.Parameter_File>
/export/apps/rDock/src/rDock_2013.1_src/data/scripts/dock_solv.prm

>  <Rbt.Receptor>
prm/blind_docking_80.prm

>  <SCORE>
-38.6606

>  <SCORE.INTER>
-38.6606

>  <SCORE.INTER.CONST>
1

>  <SCORE.INTER.POLAR>
-1.76851

>  <SCORE.INTER.ROT>
0

>  <SCORE.INTER.SOLV>
10.0865

>  <SCORE.INTER.VDW>
-26.8408

>  <SCORE.INTER.norm>
-2.97389

>  <SCORE.INTRA>
0

>  <SCORE.INTRA.DIHEDRAL>
0

>  <SCORE.INTRA.DIHEDRAL.0>
0

>  <SCORE.INTRA.POLAR>
0

>  <SCORE.INTRA.POLAR.0>
0

>  <SCORE.INTRA.REPUL>
0

>  <SCORE.INTRA.REPUL.0>
0

>  <SCORE.INTRA.SOLV>
0

>  <SCORE.INTRA.SOLV.lig_0>
-12.9768

>  <SCORE.INTRA.VDW>
0

>  <SCORE.INTRA.VDW.0>
0

>  <SCORE.INTRA.norm>
0

>  <SCORE.RESTR>
0

>  <SCORE.RESTR.CAVITY>
0

>  <SCORE.RESTR.norm>
0

>  <SCORE.SYSTEM>
0

>  <SCORE.SYSTEM.CONST>
0

>  <SCORE.SYSTEM.DIHEDRAL>
0

>  <SCORE.SYSTEM.SOLV>
0

>  <SCORE.SYSTEM.norm>
0

>  <SCORE.heavy>
13

>  <SCORE.norm>
-2.97389

>  <RMSD>
0.688

$$$$
1eht cryst
 OpenBabel11021811383D
libRbt.so/2013.1/901 2013/11/27
 13 14  0  0  0  0  0  0  0  0999 V2000
   -4.6377   -7.6246   10.5965 C   0  0  0  0  0  0  0  0  0  0  0  0
   -5.1662   -6.8312   11.6108 N   0  0  0  0  0  0  0  0  0  0  0  0
   -5.5510   -7.4425   12.7761 C   0  0  0  0  0  0  0  0  0  0  0  0
   -5.4011   -8.6647   12.8306 O   0  0  0  0  0  0  0  0  0  0  0  0
   -6.0867   -6.7909   13.8582 N   0  0  0  0  0  0  0  0  0  0  0  0
   -6.4670   -7.4305   15.0266 C   0  0  0  0  0  0  0  0  0  0  0  0
   -6.2078   -5.4464   13.6656 C   0  0  0  0  0  0  0  0  0  0  0  0
   -5.8226   -4.8483   12.5009 C   0  0  0  0  0  0  0  0  0  0  0  0
   -5.2708   -5.4976   11.3817 C   0  0  0  0  0  0  0  0  0  0  0  0
   -4.9082   -5.0065   10.3137 O   0  0  0  0  0  0  0  0  0  0  0  0
   -6.0897   -3.4960   12.6658 N   0  0  0  0  0  0  0  0  0  0  0  0
   -6.6143   -3.3691   13.9077 C   0  0  0  0  0  0  0  0  0  0  0  0
   -6.7080   -4.4991   14.5521 N   0  0  0  0  0  0  0  0  0  0  0  0
  1  2  1  0  0  0  0
  2  9  1  0  0  0  0
  2  3  1  0  0  0  0
  3  5  1  0  0  0  0
  3  4  2  0  0  0  0
  5  6  1  0  0  0  0
  5  7  1  0  0  0  0
  7  8  2  0  0  0  0
  7 13  1  0  0  0  0
  8  9  1  0  0  0  0
  8 11  1  0  0  0  0
  9 10  2  0  0  0  0
 11 12  1  0  0  0  0
 12 13  2  0  0  0  0
M  END
>  <CHROM.1>
-5.74657865,-5.95897811,12.71671836,-0.67653721,1.16243531,-0.34700711

>  <Name>
1eht cryst

>  <RI>
0

>  <Rbt.Current_Directory>
/home/itssahil/PROJECTS/Mol_Feturizer/New_Systems/rnas/1eht

>  <Rbt.Executable>
rbdock ($Id: //depot/dev/client3/rdock/2013.1/src/exe/rbdock.cxx#4 $)

>  <Rbt.Library>
libRbt.so (2013.1, Build901 2013/11/27)

>  <Rbt.Parameter_File>
/export/apps/rDock/src/rDock_2013.1_src/data/scripts/dock_solv.prm

>  <Rbt.Receptor>
prm/blind_docking_80.prm

>  <SCORE>
-38.672

>  <SCORE.INTER>
-38.6726

>  <SCORE.INTER.CONST>
1

>  <SCORE.INTER.POLAR>
-1.78127

>  <SCORE.INTER.ROT>
0

>  <SCORE.INTER.SOLV>
10.0599

>  <SCORE.INTER.VDW>
-26.7975

>  <SCORE.INTER.norm>
-2.97482

>  <SCORE.INTRA>
0

>  <SCORE.INTRA.DIHEDRAL>
0

>  <SCORE.INTRA.DIHEDRAL.0>
0

>  <SCORE.INTRA.POLAR>
0

>  <SCORE.INTRA.POLAR.0>
0

>  <SCORE.INTRA.REPUL>
0

>  <SCORE.INTRA.REPUL.0>
0

>  <SCORE.INTRA.SOLV>
0

>  <SCORE.INTRA.SOLV.lig_0>
-12.9768

>  <SCORE.INTRA.VDW>
0

>  <SCORE.INTRA.VDW.0>
0

>  <SCORE.INTRA.norm>
0

>  <SCORE.RESTR>
0.00057485

>  <SCORE.RESTR.CAVITY>
0.00057485

>  <SCORE.RESTR.norm>
4.42192e-05

>  <SCORE.SYSTEM>
0

>  <SCORE.SYSTEM.CONST>
0

>  <SCORE.SYSTEM.DIHEDRAL>
0

>  <SCORE.SYSTEM.SOLV>
0

>  <SCORE.SYSTEM.norm>
0

>  <SCORE.heavy>
13

>  <SCORE.norm>
-2.97477

>  <RMSD>
0.689

$$$$
1eht cryst
 OpenBabel11021811383D
libRbt.so/2013.1/901 2013/11/27
 13 14  0  0  0  0  0  0  0  0999 V2000
   -4.7421   -7.6227   10.5768 C   0  0  0  0  0  0  0  0  0  0  0  0
   -5.2414   -6.8261   11.6034 N   0  0  0  0  0  0  0  0  0  0  0  0
   -5.6205   -7.4376   12.7704 C   0  0  0  0  0  0  0  0  0  0  0  0
   -5.4923   -8.6627   12.8154 O   0  0  0  0  0  0  0  0  0  0  0  0
   -6.1286   -6.7833   13.8641 N   0  0  0  0  0  0  0  0  0  0  0  0
   -6.5038   -7.4231   15.0340 C   0  0  0  0  0  0  0  0  0  0  0  0
   -6.2279   -5.4356   13.6814 C   0  0  0  0  0  0  0  0  0  0  0  0
   -5.8486   -4.8373   12.5148 C   0  0  0  0  0  0  0  0  0  0  0  0
   -5.3248   -5.4895   11.3839 C   0  0  0  0  0  0  0  0  0  0  0  0
   -4.9687   -4.9983   10.3138 O   0  0  0  0  0  0  0  0  0  0  0  0
   -6.0885   -3.4814   12.6917 N   0  0  0  0  0  0  0  0  0  0  0  0
   -6.5928   -3.3527   13.9418 C   0  0  0  0  0  0  0  0  0  0  0  0
   -6.6979   -4.4850   14.5807 N   0  0  0  0  0  0  0  0  0  0  0  0
  1  2  1  0  0  0  0
  2  9  1  0  0  0  0
  2  3  1  0  0  0  0
  3  5  1  0  0  0  0
  3  4  2  0  0  0  0
  5  6  1  0  0  0  0
  5  7  1  0  0  0  0
  7  8  2  0  0  0  0
  7 13  1  0  0  0  0
  8  9  1  0  0  0  0
  8 11  1  0  0  0  0
  9 10  2  0  0  0  0
 11 12  1  0  0  0  0
 12 13  2  0  0  0  0
M  END
>  <CHROM.1>
-5.78976810,-5.95047052,12.72283867,-0.70901928,1.18196500,-0.31091398

>  <Name>
1eht cryst

>  <RI>
0

>  <Rbt.Current_Directory>
/home/itssahil/PROJECTS/Mol_Feturizer/New_Systems/rnas/1eht

>  <Rbt.Executable>
rbdock ($Id: //depot/dev/client3/rdock/2013.1/src/exe/rbdock.cxx#4 $)

>  <Rbt.Library>
libRbt.so (2013.1, Build901 2013/11/27)

>  <Rbt.Parameter_File>
/export/apps/rDock/src/rDock_2013.1_src/data/scripts/dock_solv.prm

>  <Rbt.Receptor>
prm/blind_docking_80.prm

>  <SCORE>
-38.6506

>  <SCORE.INTER>
-38.6544

>  <SCORE.INTER.CONST>
1

>  <SCORE.INTER.POLAR>
-1.75233

>  <SCORE.INTER.ROT>
0

>  <SCORE.INTER.SOLV>
10.0649

>  <SCORE.INTER.VDW>
-26.8835

>  <SCORE.INTER.norm>
-2.97341

>  <SCORE.INTRA>
0

>  <SCORE.INTRA.DIHEDRAL>
0

>  <SCORE.INTRA.DIHEDRAL.0>
0

>  <SCORE.INTRA.POLAR>
0

>  <SCORE.INTRA.POLAR.0>
0

>  <SCORE.INTRA.REPUL>
0

>  <SCORE.INTRA.REPUL.0>
0

>  <SCORE.INTRA.SOLV>
0

>  <SCORE.INTRA.SOLV.lig_0>
-12.9768

>  <SCORE.INTRA.VDW>
0

>  <SCORE.INTRA.VDW.0>
0

>  <SCORE.INTRA.norm>
0

>  <SCORE.RESTR>
0.00381525

>  <SCORE.RESTR.CAVITY>
0.00381525

>  <SCORE.RESTR.norm>
0.000293481

>  <SCORE.SYSTEM>
0

>  <SCORE.SYSTEM.CONST>
0

>  <SCORE.SYSTEM.DIHEDRAL>
0

>  <SCORE.SYSTEM.SOLV>
0

>  <SCORE.SYSTEM.norm>
0

>  <SCORE.heavy>
13

>  <SCORE.norm>
-2.97312

>  <RMSD>
0.689

$$$$
1eht cryst
 OpenBabel11021811383D
libRbt.so/2013.1/901 2013/11/27
 13 14  0  0  0  0  0  0  0  0999 V2000
   -4.7906   -7.8576   10.5547 C   0  0  0  0  0  0  0  0  0  0  0  0
   -5.2445   -7.0104   11.5616 N   0  0  0  0  0  0  0  0  0  0  0  0
   -5.6262   -7.5694   12.7539 C   0  0  0  0  0  0  0  0  0  0  0  0
   -5.5408   -8.7961   12.8377 O   0  0  0  0  0  0  0  0  0  0  0  0
   -6.0929   -6.8617   13.8327 N   0  0  0  0  0  0  0  0  0  0  0  0
   -6.4715   -7.4490   15.0287 C   0  0  0  0  0  0  0  0  0  0  0  0
   -6.1473   -5.5180   13.6068 C   0  0  0  0  0  0  0  0  0  0  0  0
   -5.7659   -4.9722   12.4154 C   0  0  0  0  0  0  0  0  0  0  0  0
   -5.2841   -5.6795   11.2990 C   0  0  0  0  0  0  0  0  0  0  0  0
   -4.9281   -5.2367   10.2079 O   0  0  0  0  0  0  0  0  0  0  0  0
   -5.9546   -3.6035   12.5507 N   0  0  0  0  0  0  0  0  0  0  0  0
   -6.4337   -3.4160   13.8032 C   0  0  0  0  0  0  0  0  0  0  0  0
   -6.5685   -4.5222   14.4809 N   0  0  0  0  0  0  0  0  0  0  0  0
  1  2  1  0  0  0  0
  2  9  1  0  0  0  0
  2  3  1  0  0  0  0
  3  5  1  0  0  0  0
  3  4  2  0  0  0  0
  5  6  1  0  0  0  0
  5  7  1  0  0  0  0
  7  8  2  0  0  0  0
  7 13  1  0  0  0  0
  8  9  1  0  0  0  0
  8 11  1  0  0  0  0
  9 10  2  0  0  0  0
 11 12  1  0  0  0  0
 12 13  2  0  0  0  0
M  END
>  <CHROM.1>
-5.74327515,-6.07943743,12.65940626,-0.79017942,1.20718780,-0.26842561

>  <Name>
1eht cryst

>  <RI>
0

>  <Rbt.Current_Directory>
/home/itssahil/PROJECTS/Mol_Feturizer/New_Systems/rnas/1eht

>  <Rbt.Executable>
rbdock ($Id: //depot/dev/client3/rdock/2013.1/src/exe/rbdock.cxx#4 $)

>  <Rbt.Library>
libRbt.so (2013.1, Build901 2013/11/27)

>  <Rbt.Parameter_File>
/export/apps/rDock/src/rDock_2013.1_src/data/scripts/dock_solv.prm

>  <Rbt.Receptor>
prm/blind_docking_20.prm

>  <SCORE>
-39.2177

>  <SCORE.INTER>
-39.2177

>  <SCORE.INTER.CONST>
1

>  <SCORE.INTER.POLAR>
-1.92167

>  <SCORE.INTER.ROT>
0

>  <SCORE.INTER.SOLV>
9.79619

>  <SCORE.INTER.VDW>
-26.605

>  <SCORE.INTER.norm>
-3.01675

>  <SCORE.INTRA>
0

>  <SCORE.INTRA.DIHEDRAL>
0

>  <SCORE.INTRA.DIHEDRAL.0>
0

>  <SCORE.INTRA.POLAR>
0

>  <SCORE.INTRA.POLAR.0>
0

>  <SCORE.INTRA.REPUL>
0

>  <SCORE.INTRA.REPUL.0>
0

>  <SCORE.INTRA.SOLV>
0

>  <SCORE.INTRA.SOLV.lig_0>
-12.9768

>  <SCORE.INTRA.VDW>
0

>  <SCORE.INTRA.VDW.0>
0

>  <SCORE.INTRA.norm>
0

>  <SCORE.RESTR>
0

>  <SCORE.RESTR.CAVITY>
0

>  <SCORE.RESTR.norm>
0

>  <SCORE.SYSTEM>
0

>  <SCORE.SYSTEM.CONST>
0

>  <SCORE.SYSTEM.DIHEDRAL>
0

>  <SCORE.SYSTEM.SOLV>
0

>  <SCORE.SYSTEM.norm>
0

>  <SCORE.heavy>
13

>  <SCORE.norm>
-3.01675

>  <RMSD>
0.695

$$$$
1eht cryst
 OpenBabel11021811383D
libRbt.so/2013.1/901 2013/11/27
 13 14  0  0  0  0  0  0  0  0999 V2000
   -4.7433   -7.6265   10.5841 C   0  0  0  0  0  0  0  0  0  0  0  0
   -5.2383   -6.8258   11.6095 N   0  0  0  0  0  0  0  0  0  0  0  0
   -5.6103   -7.4323   12.7815 C   0  0  0  0  0  0  0  0  0  0  0  0
   -5.4801   -8.6569   12.8316 O   0  0  0  0  0  0  0  0  0  0  0  0
   -6.1135   -6.7734   13.8746 N   0  0  0  0  0  0  0  0  0  0  0  0
   -6.4815   -7.4082   15.0496 C   0  0  0  0  0  0  0  0  0  0  0  0
   -6.2157   -5.4267   13.6861 C   0  0  0  0  0  0  0  0  0  0  0  0
   -5.8434   -4.8335   12.5147 C   0  0  0  0  0  0  0  0  0  0  0  0
   -5.3248   -5.4903   11.3840 C   0  0  0  0  0  0  0  0  0  0  0  0
   -4.9750   -5.0038   10.3097 O   0  0  0  0  0  0  0  0  0  0  0  0
   -6.0843   -3.4771   12.6864 N   0  0  0  0  0  0  0  0  0  0  0  0
   -6.5822   -3.3432   13.9385 C   0  0  0  0  0  0  0  0  0  0  0  0
   -6.6822   -4.4725   14.5834 N   0  0  0  0  0  0  0  0  0  0  0  0
  1  2  1  0  0  0  0
  2  9  1  0  0  0  0
  2  3  1  0  0  0  0
  3  5  1  0  0  0  0
  3  4  2  0  0  0  0
  5  6  1  0  0  0  0
  5  7  1  0  0  0  0
  7  8  2  0  0  0  0
  7 13  1  0  0  0  0
  8  9  1  0  0  0  0
  8 11  1  0  0  0  0
  9 10  2  0  0  0  0
 11 12  1  0  0  0  0
 12 13  2  0  0  0  0
M  END
>  <CHROM.1>
-5.78194033,-5.94558311,12.72767471,-0.70103747,1.18659343,-0.32307713

>  <Name>
1eht cryst

>  <RI>
0

>  <Rbt.Current_Directory>
/home/itssahil/PROJECTS/Mol_Feturizer/New_Systems/rnas/1eht

>  <Rbt.Executable>
rbdock ($Id: //depot/dev/client3/rdock/2013.1/src/exe/rbdock.cxx#4 $)

>  <Rbt.Library>
libRbt.so (2013.1, Build901 2013/11/27)

>  <Rbt.Parameter_File>
/export/apps/rDock/src/rDock_2013.1_src/data/scripts/dock_solv.prm

>  <Rbt.Receptor>
prm/blind_docking_80.prm

>  <SCORE>
-38.6502

>  <SCORE.INTER>
-38.6555

>  <SCORE.INTER.CONST>
1

>  <SCORE.INTER.POLAR>
-1.74217

>  <SCORE.INTER.ROT>
0

>  <SCORE.INTER.SOLV>
10.0682

>  <SCORE.INTER.VDW>
-26.9191

>  <SCORE.INTER.norm>
-2.9735

>  <SCORE.INTRA>
0

>  <SCORE.INTRA.DIHEDRAL>
0

>  <SCORE.INTRA.DIHEDRAL.0>
0

>  <SCORE.INTRA.POLAR>
0

>  <SCORE.INTRA.POLAR.0>
0

>  <SCORE.INTRA.REPUL>
0

>  <SCORE.INTRA.REPUL.0>
0

>  <SCORE.INTRA.SOLV>
0

>  <SCORE.INTRA.SOLV.lig_0>
-12.9768

>  <SCORE.INTRA.VDW>
0

>  <SCORE.INTRA.VDW.0>
0

>  <SCORE.INTRA.norm>
0

>  <SCORE.RESTR>
0.00524802

>  <SCORE.RESTR.CAVITY>
0.00524802

>  <SCORE.RESTR.norm>
0.000403694

>  <SCORE.SYSTEM>
0

>  <SCORE.SYSTEM.CONST>
0

>  <SCORE.SYSTEM.DIHEDRAL>
0

>  <SCORE.SYSTEM.SOLV>
0

>  <SCORE.SYSTEM.norm>
0

>  <SCORE.heavy>
13

>  <SCORE.norm>
-2.97309

>  <RMSD>
0.695

$$$$
1eht cryst
 OpenBabel11021811383D
libRbt.so/2013.1/901 2013/11/27
 13 14  0  0  0  0  0  0  0  0999 V2000
   -4.7891   -7.8539   10.5574 C   0  0  0  0  0  0  0  0  0  0  0  0
   -5.2442   -7.0071   11.5640 N   0  0  0  0  0  0  0  0  0  0  0  0
   -5.6280   -7.5664   12.7554 C   0  0  0  0  0  0  0  0  0  0  0  0
   -5.5434   -8.7933   12.8387 O   0  0  0  0  0  0  0  0  0  0  0  0
   -6.0960   -6.8591   13.8338 N   0  0  0  0  0  0  0  0  0  0  0  0
   -6.4768   -7.4468   15.0290 C   0  0  0  0  0  0  0  0  0  0  0  0
   -6.1492   -5.5152   13.6086 C   0  0  0  0  0  0  0  0  0  0  0  0
   -5.7657   -4.9690   12.4181 C   0  0  0  0  0  0  0  0  0  0  0  0
   -5.2825   -5.6760   11.3021 C   0  0  0  0  0  0  0  0  0  0  0  0
   -4.9246   -5.2328   10.2118 O   0  0  0  0  0  0  0  0  0  0  0  0
   -5.9538   -3.6003   12.5538 N   0  0  0  0  0  0  0  0  0  0  0  0
   -6.4348   -3.4131   13.8058 C   0  0  0  0  0  0  0  0  0  0  0  0
   -6.5713   -4.5196   14.4826 N   0  0  0  0  0  0  0  0  0  0  0  0
  1  2  1  0  0  0  0
  2  9  1  0  0  0  0
  2  3  1  0  0  0  0
  3  5  1  0  0  0  0
  3  4  2  0  0  0  0
  5  6  1  0  0  0  0
  5  7  1  0  0  0  0
  7  8  2  0  0  0  0
  7 13  1  0  0  0  0
  8  9  1  0  0  0  0
  8 11  1  0  0  0  0
  9 10  2  0  0  0  0
 11 12  1  0  0  0  0
 12 13  2  0  0  0  0
M  END
>  <CHROM.1>
-5.74409009,-6.07638363,12.66155632,-0.79287323,1.20584065,-0.26536935

>  <Name>
1eht cryst

>  <RI>
0

>  <Rbt.Current_Directory>
/home/itssahil/PROJECTS/Mol_Feturizer/New_Systems/rnas/1eht

>  <Rbt.Executable>
rbdock ($Id: //depot/dev/client3/rdock/2013.1/src/exe/rbdock.cxx#4 $)

>  <Rbt.Library>
libRbt.so (2013.1, Build901 2013/11/27)

>  <Rbt.Parameter_File>
/export/apps/rDock/src/rDock_2013.1_src/data/scripts/dock_solv.prm

>  <Rbt.Receptor>
prm/pocket_docking_3.prm

>  <SCORE>
-39.2113

>  <SCORE.INTER>
-39.2113

>  <SCORE.INTER.CONST>
1

>  <SCORE.INTER.POLAR>
-1.92024

>  <SCORE.INTER.ROT>
0

>  <SCORE.INTER.SOLV>
9.80501

>  <SCORE.INTER.VDW>
-26.6084

>  <SCORE.INTER.norm>
-3.01625

>  <SCORE.INTRA>
0

>  <SCORE.INTRA.DIHEDRAL>
0

>  <SCORE.INTRA.DIHEDRAL.0>
0

>  <SCORE.INTRA.POLAR>
0

>  <SCORE.INTRA.POLAR.0>
0

>  <SCORE.INTRA.REPUL>
0

>  <SCORE.INTRA.REPUL.0>
0

>  <SCORE.INTRA.SOLV>
0

>  <SCORE.INTRA.SOLV.lig_0>
-12.9768

>  <SCORE.INTRA.VDW>
0

>  <SCORE.INTRA.VDW.0>
0

>  <SCORE.INTRA.norm>
0

>  <SCORE.RESTR>
0

>  <SCORE.RESTR.CAVITY>
0

>  <SCORE.RESTR.norm>
0

>  <SCORE.SYSTEM>
0

>  <SCORE.SYSTEM.CONST>
0

>  <SCORE.SYSTEM.DIHEDRAL>
0

>  <SCORE.SYSTEM.SOLV>
0

>  <SCORE.SYSTEM.norm>
0

>  <SCORE.heavy>
13

>  <SCORE.norm>
-3.01625

>  <RMSD>
0.696

$$$$
1eht cryst
 OpenBabel11021811383D
libRbt.so/2013.1/901 2013/11/27
 13 14  0  0  0  0  0  0  0  0999 V2000
   -4.7951   -7.8593   10.5549 C   0  0  0  0  0  0  0  0  0  0  0  0
   -5.2459   -7.0111   11.5623 N   0  0  0  0  0  0  0  0  0  0  0  0
   -5.6243   -7.5688   12.7562 C   0  0  0  0  0  0  0  0  0  0  0  0
   -5.5390   -8.7955   12.8409 O   0  0  0  0  0  0  0  0  0  0  0  0
   -6.0877   -6.8601   13.8357 N   0  0  0  0  0  0  0  0  0  0  0  0
   -6.4630   -7.4462   15.0334 C   0  0  0  0  0  0  0  0  0  0  0  0
   -6.1423   -5.5166   13.6088 C   0  0  0  0  0  0  0  0  0  0  0  0
   -5.7642   -4.9720   12.4158 C   0  0  0  0  0  0  0  0  0  0  0  0
   -5.2858   -5.6804   11.2987 C   0  0  0  0  0  0  0  0  0  0  0  0
   -4.9328   -5.2387   10.2061 O   0  0  0  0  0  0  0  0  0  0  0  0
   -5.9521   -3.6031   12.5504 N   0  0  0  0  0  0  0  0  0  0  0  0
   -6.4276   -3.4143   13.8042 C   0  0  0  0  0  0  0  0  0  0  0  0
   -6.5608   -4.5198   14.4832 N   0  0  0  0  0  0  0  0  0  0  0  0
  1  2  1  0  0  0  0
  2  9  1  0  0  0  0
  2  3  1  0  0  0  0
  3  5  1  0  0  0  0
  3  4  2  0  0  0  0
  5  6  1  0  0  0  0
  5  7  1  0  0  0  0
  7  8  2  0  0  0  0
  7 13  1  0  0  0  0
  8  9  1  0  0  0  0
  8 11  1  0  0  0  0
  9 10  2  0  0  0  0
 11 12  1  0  0  0  0
 12 13  2  0  0  0  0
M  END
>  <CHROM.1>
-5.74120936,-6.07896021,12.66074652,-0.78884442,1.21004035,-0.27057330

>  <Name>
1eht cryst

>  <RI>
0

>  <Rbt.Current_Directory>
/home/itssahil/PROJECTS/Mol_Feturizer/New_Systems/rnas/1eht

>  <Rbt.Executable>
rbdock ($Id: //depot/dev/client3/rdock/2013.1/src/exe/rbdock.cxx#4 $)

>  <Rbt.Library>
libRbt.so (2013.1, Build901 2013/11/27)

>  <Rbt.Parameter_File>
/export/apps/rDock/src/rDock_2013.1_src/data/scripts/dock_solv.prm

>  <Rbt.Receptor>
prm/pocket_docking_8.prm

>  <SCORE>
-39.2002

>  <SCORE.INTER>
-39.2002

>  <SCORE.INTER.CONST>
1

>  <SCORE.INTER.POLAR>
-1.91817

>  <SCORE.INTER.ROT>
0

>  <SCORE.INTER.SOLV>
9.79541

>  <SCORE.INTER.VDW>
-26.6047

>  <SCORE.INTER.norm>
-3.0154

>  <SCORE.INTRA>
0

>  <SCORE.INTRA.DIHEDRAL>
0

>  <SCORE.INTRA.DIHEDRAL.0>
0

>  <SCORE.INTRA.POLAR>
0

>  <SCORE.INTRA.POLAR.0>
0

>  <SCORE.INTRA.REPUL>
0

>  <SCORE.INTRA.REPUL.0>
0

>  <SCORE.INTRA.SOLV>
0

>  <SCORE.INTRA.SOLV.lig_0>
-12.9768

>  <SCORE.INTRA.VDW>
0

>  <SCORE.INTRA.VDW.0>
0

>  <SCORE.INTRA.norm>
0

>  <SCORE.RESTR>
0

>  <SCORE.RESTR.CAVITY>
0

>  <SCORE.RESTR.norm>
0

>  <SCORE.SYSTEM>
0

>  <SCORE.SYSTEM.CONST>
0

>  <SCORE.SYSTEM.DIHEDRAL>
0

>  <SCORE.SYSTEM.SOLV>
0

>  <SCORE.SYSTEM.norm>
0

>  <SCORE.heavy>
13

>  <SCORE.norm>
-3.0154

>  <RMSD>
0.696

$$$$
1eht cryst
 OpenBabel11021811383D
libRbt.so/2013.1/901 2013/11/27
 13 14  0  0  0  0  0  0  0  0999 V2000
   -4.7918   -7.8567   10.5548 C   0  0  0  0  0  0  0  0  0  0  0  0
   -5.2500   -7.0104   11.5604 N   0  0  0  0  0  0  0  0  0  0  0  0
   -5.6404   -7.5707   12.7493 C   0  0  0  0  0  0  0  0  0  0  0  0
   -5.5585   -8.7978   12.8312 O   0  0  0  0  0  0  0  0  0  0  0  0
   -6.1121   -6.8640   13.8265 N   0  0  0  0  0  0  0  0  0  0  0  0
   -6.4996   -7.4526   15.0190 C   0  0  0  0  0  0  0  0  0  0  0  0
   -6.1617   -5.5197   13.6028 C   0  0  0  0  0  0  0  0  0  0  0  0
   -5.7716   -4.9726   12.4149 C   0  0  0  0  0  0  0  0  0  0  0  0
   -5.2846   -5.6789   11.3002 C   0  0  0  0  0  0  0  0  0  0  0  0
   -4.9208   -5.2349   10.2122 O   0  0  0  0  0  0  0  0  0  0  0  0
   -5.9578   -3.6037   12.5516 N   0  0  0  0  0  0  0  0  0  0  0  0
   -6.4443   -3.4174   13.8016 C   0  0  0  0  0  0  0  0  0  0  0  0
   -6.5860   -4.5245   14.4763 N   0  0  0  0  0  0  0  0  0  0  0  0
  1  2  1  0  0  0  0
  2  9  1  0  0  0  0
  2  3  1  0  0  0  0
  3  5  1  0  0  0  0
  3  4  2  0  0  0  0
  5  6  1  0  0  0  0
  5  7  1  0  0  0  0
  7  8  2  0  0  0  0
  7 13  1  0  0  0  0
  8  9  1  0  0  0  0
  8 11  1  0  0  0  0
  9 10  2  0  0  0  0
 11 12  1  0  0  0  0
 12 13  2  0  0  0  0
M  END
>  <CHROM.1>
-5.75325966,-6.08029569,12.65691555,-0.80127830,1.20182260,-0.25613817

>  <Name>
1eht cryst

>  <RI>
0

>  <Rbt.Current_Directory>
/home/itssahil/PROJECTS/Mol_Feturizer/New_Systems/rnas/1eht

>  <Rbt.Executable>
rbdock ($Id: //depot/dev/client3/rdock/2013.1/src/exe/rbdock.cxx#4 $)

>  <Rbt.Library>
libRbt.so (2013.1, Build901 2013/11/27)

>  <Rbt.Parameter_File>
/export/apps/rDock/src/rDock_2013.1_src/data/scripts/dock_solv.prm

>  <Rbt.Receptor>
prm/pocket_docking_8.prm

>  <SCORE>
-39.1747

>  <SCORE.INTER>
-39.1747

>  <SCORE.INTER.CONST>
1

>  <SCORE.INTER.POLAR>
-1.93028

>  <SCORE.INTER.ROT>
0

>  <SCORE.INTER.SOLV>
9.80075

>  <SCORE.INTER.VDW>
-26.5491

>  <SCORE.INTER.norm>
-3.01344

>  <SCORE.INTRA>
0

>  <SCORE.INTRA.DIHEDRAL>
0

>  <SCORE.INTRA.DIHEDRAL.0>
0

>  <SCORE.INTRA.POLAR>
0

>  <SCORE.INTRA.POLAR.0>
0

>  <SCORE.INTRA.REPUL>
0

>  <SCORE.INTRA.REPUL.0>
0

>  <SCORE.INTRA.SOLV>
0

>  <SCORE.INTRA.SOLV.lig_0>
-12.9768

>  <SCORE.INTRA.VDW>
0

>  <SCORE.INTRA.VDW.0>
0

>  <SCORE.INTRA.norm>
0

>  <SCORE.RESTR>
0

>  <SCORE.RESTR.CAVITY>
0

>  <SCORE.RESTR.norm>
0

>  <SCORE.SYSTEM>
0

>  <SCORE.SYSTEM.CONST>
0

>  <SCORE.SYSTEM.DIHEDRAL>
0

>  <SCORE.SYSTEM.SOLV>
0

>  <SCORE.SYSTEM.norm>
0

>  <SCORE.heavy>
13

>  <SCORE.norm>
-3.01344

>  <RMSD>
0.696

$$$$
1eht cryst
 OpenBabel11021811383D
libRbt.so/2013.1/901 2013/11/27
 13 14  0  0  0  0  0  0  0  0999 V2000
   -4.7856   -7.8508   10.5594 C   0  0  0  0  0  0  0  0  0  0  0  0
   -5.2422   -7.0051   11.5662 N   0  0  0  0  0  0  0  0  0  0  0  0
   -5.6286   -7.5658   12.7561 C   0  0  0  0  0  0  0  0  0  0  0  0
   -5.5448   -8.7928   12.8379 O   0  0  0  0  0  0  0  0  0  0  0  0
   -6.0984   -6.8596   13.8346 N   0  0  0  0  0  0  0  0  0  0  0  0
   -6.4818   -7.4488   15.0282 C   0  0  0  0  0  0  0  0  0  0  0  0
   -6.1504   -5.5155   13.6110 C   0  0  0  0  0  0  0  0  0  0  0  0
   -5.7643   -4.9679   12.4219 C   0  0  0  0  0  0  0  0  0  0  0  0
   -5.2793   -5.6736   11.3059 C   0  0  0  0  0  0  0  0  0  0  0  0
   -4.9190   -5.2292   10.2169 O   0  0  0  0  0  0  0  0  0  0  0  0
   -5.9520   -3.5992   12.5591 N   0  0  0  0  0  0  0  0  0  0  0  0
   -6.4353   -3.4135   13.8103 C   0  0  0  0  0  0  0  0  0  0  0  0
   -6.5737   -4.5208   14.4855 N   0  0  0  0  0  0  0  0  0  0  0  0
  1  2  1  0  0  0  0
  2  9  1  0  0  0  0
  2  3  1  0  0  0  0
  3  5  1  0  0  0  0
  3  4  2  0  0  0  0
  5  6  1  0  0  0  0
  5  7  1  0  0  0  0
  7  8  2  0  0  0  0
  7 13  1  0  0  0  0
  8  9  1  0  0  0  0
  8 11  1  0  0  0  0
  9 10  2  0  0  0  0
 11 12  1  0  0  0  0
 12 13  2  0  0  0  0
M  END
>  <CHROM.1>
-5.74372962,-6.07557053,12.66399508,-0.79571918,1.20407523,-0.26139040

>  <Name>
1eht cryst

>  <RI>
0

>  <Rbt.Current_Directory>
/home/itssahil/PROJECTS/Mol_Feturizer/New_Systems/rnas/1eht

>  <Rbt.Executable>
rbdock ($Id: //depot/dev/client3/rdock/2013.1/src/exe/rbdock.cxx#4 $)

>  <Rbt.Library>
libRbt.so (2013.1, Build901 2013/11/27)

>  <Rbt.Parameter_File>
/export/apps/rDock/src/rDock_2013.1_src/data/scripts/dock_solv.prm

>  <Rbt.Receptor>
prm/blind_docking_40.prm

>  <SCORE>
-39.2096

>  <SCORE.INTER>
-39.2096

>  <SCORE.INTER.CONST>
1

>  <SCORE.INTER.POLAR>
-1.92022

>  <SCORE.INTER.ROT>
0

>  <SCORE.INTER.SOLV>
9.81158

>  <SCORE.INTER.VDW>
-26.6095

>  <SCORE.INTER.norm>
-3.01613

>  <SCORE.INTRA>
0

>  <SCORE.INTRA.DIHEDRAL>
0

>  <SCORE.INTRA.DIHEDRAL.0>
0

>  <SCORE.INTRA.POLAR>
0

>  <SCORE.INTRA.POLAR.0>
0

>  <SCORE.INTRA.REPUL>
0

>  <SCORE.INTRA.REPUL.0>
0

>  <SCORE.INTRA.SOLV>
0

>  <SCORE.INTRA.SOLV.lig_0>
-12.9768

>  <SCORE.INTRA.VDW>
0

>  <SCORE.INTRA.VDW.0>
0

>  <SCORE.INTRA.norm>
0

>  <SCORE.RESTR>
0

>  <SCORE.RESTR.CAVITY>
0

>  <SCORE.RESTR.norm>
0

>  <SCORE.SYSTEM>
0

>  <SCORE.SYSTEM.CONST>
0

>  <SCORE.SYSTEM.DIHEDRAL>
0

>  <SCORE.SYSTEM.SOLV>
0

>  <SCORE.SYSTEM.norm>
0

>  <SCORE.heavy>
13

>  <SCORE.norm>
-3.01613

>  <RMSD>
0.697

$$$$
1eht cryst
 OpenBabel11021811383D
libRbt.so/2013.1/901 2013/11/27
 13 14  0  0  0  0  0  0  0  0999 V2000
   -4.6696   -7.6255   10.6015 C   0  0  0  0  0  0  0  0  0  0  0  0
   -5.1843   -6.8287   11.6201 N   0  0  0  0  0  0  0  0  0  0  0  0
   -5.5587   -7.4368   12.7905 C   0  0  0  0  0  0  0  0  0  0  0  0
   -5.4125   -8.6594   12.8453 O   0  0  0  0  0  0  0  0  0  0  0  0
   -6.0803   -6.7816   13.8772 N   0  0  0  0  0  0  0  0  0  0  0  0
   -6.4503   -7.4180   15.0507 C   0  0  0  0  0  0  0  0  0  0  0  0
   -6.1988   -5.4370   13.6838 C   0  0  0  0  0  0  0  0  0  0  0  0
   -5.8241   -4.8421   12.5141 C   0  0  0  0  0  0  0  0  0  0  0  0
   -5.2867   -5.4951   11.3900 C   0  0  0  0  0  0  0  0  0  0  0  0
   -4.9339   -5.0069   10.3174 O   0  0  0  0  0  0  0  0  0  0  0  0
   -6.0846   -3.4885   12.6797 N   0  0  0  0  0  0  0  0  0  0  0  0
   -6.5954   -3.3578   13.9270 C   0  0  0  0  0  0  0  0  0  0  0  0
   -6.6860   -4.4866   14.5742 N   0  0  0  0  0  0  0  0  0  0  0  0
  1  2  1  0  0  0  0
  2  9  1  0  0  0  0
  2  3  1  0  0  0  0
  3  5  1  0  0  0  0
  3  4  2  0  0  0  0
  5  6  1  0  0  0  0
  5  7  1  0  0  0  0
  7  8  2  0  0  0  0
  7 13  1  0  0  0  0
  8  9  1  0  0  0  0
  8 11  1  0  0  0  0
  9 10  2  0  0  0  0
 11 12  1  0  0  0  0
 12 13  2  0  0  0  0
M  END
>  <CHROM.1>
-5.74965482,-5.95266421,12.73084417,-0.67556386,1.17378774,-0.34948206

>  <Name>
1eht cryst

>  <RI>
0

>  <Rbt.Current_Directory>
/home/itssahil/PROJECTS/Mol_Feturizer/New_Systems/rnas/1eht

>  <Rbt.Executable>
rbdock ($Id: //depot/dev/client3/rdock/2013.1/src/exe/rbdock.cxx#4 $)

>  <Rbt.Library>
libRbt.so (2013.1, Build901 2013/11/27)

>  <Rbt.Parameter_File>
/export/apps/rDock/src/rDock_2013.1_src/data/scripts/dock_solv.prm

>  <Rbt.Receptor>
prm/blind_docking_80.prm

>  <SCORE>
-38.6245

>  <SCORE.INTER>
-38.6245

>  <SCORE.INTER.CONST>
1

>  <SCORE.INTER.POLAR>
-1.75624

>  <SCORE.INTER.ROT>
0

>  <SCORE.INTER.SOLV>
10.0647

>  <SCORE.INTER.VDW>
-26.8505

>  <SCORE.INTER.norm>
-2.97112

>  <SCORE.INTRA>
0

>  <SCORE.INTRA.DIHEDRAL>
0

>  <SCORE.INTRA.DIHEDRAL.0>
0

>  <SCORE.INTRA.POLAR>
0

>  <SCORE.INTRA.POLAR.0>
0

>  <SCORE.INTRA.REPUL>
0

>  <SCORE.INTRA.REPUL.0>
0

>  <SCORE.INTRA.SOLV>
0

>  <SCORE.INTRA.SOLV.lig_0>
-12.9768

>  <SCORE.INTRA.VDW>
0

>  <SCORE.INTRA.VDW.0>
0

>  <SCORE.INTRA.norm>
0

>  <SCORE.RESTR>
5.21857e-05

>  <SCORE.RESTR.CAVITY>
5.21857e-05

>  <SCORE.RESTR.norm>
4.01429e-06

>  <SCORE.SYSTEM>
0

>  <SCORE.SYSTEM.CONST>
0

>  <SCORE.SYSTEM.DIHEDRAL>
0

>  <SCORE.SYSTEM.SOLV>
0

>  <SCORE.SYSTEM.norm>
0

>  <SCORE.heavy>
13

>  <SCORE.norm>
-2.97111

>  <RMSD>
0.697

$$$$
1eht cryst
 OpenBabel11021811383D
libRbt.so/2013.1/901 2013/11/27
 13 14  0  0  0  0  0  0  0  0999 V2000
   -4.7353   -7.6223   10.5897 C   0  0  0  0  0  0  0  0  0  0  0  0
   -5.2356   -6.8247   11.6149 N   0  0  0  0  0  0  0  0  0  0  0  0
   -5.6151   -7.4348   12.7825 C   0  0  0  0  0  0  0  0  0  0  0  0
   -5.4862   -8.6597   12.8292 O   0  0  0  0  0  0  0  0  0  0  0  0
   -6.1242   -6.7792   13.8749 N   0  0  0  0  0  0  0  0  0  0  0  0
   -6.4997   -7.4177   15.0455 C   0  0  0  0  0  0  0  0  0  0  0  0
   -6.2240   -5.4318   13.6904 C   0  0  0  0  0  0  0  0  0  0  0  0
   -5.8443   -4.8349   12.5233 C   0  0  0  0  0  0  0  0  0  0  0  0
   -5.3196   -5.4883   11.3935 C   0  0  0  0  0  0  0  0  0  0  0  0
   -4.9630   -4.9984   10.3230 O   0  0  0  0  0  0  0  0  0  0  0  0
   -6.0850   -3.4789   12.6982 N   0  0  0  0  0  0  0  0  0  0  0  0
   -6.5901   -3.3488   13.9479 C   0  0  0  0  0  0  0  0  0  0  0  0
   -6.6950   -4.4802   14.5882 N   0  0  0  0  0  0  0  0  0  0  0  0
  1  2  1  0  0  0  0
  2  9  1  0  0  0  0
  2  3  1  0  0  0  0
  3  5  1  0  0  0  0
  3  4  2  0  0  0  0
  5  6  1  0  0  0  0
  5  7  1  0  0  0  0
  7  8  2  0  0  0  0
  7 13  1  0  0  0  0
  8  9  1  0  0  0  0
  8 11  1  0  0  0  0
  9 10  2  0  0  0  0
 11 12  1  0  0  0  0
 12 13  2  0  0  0  0
M  END
>  <CHROM.1>
-5.78506689,-5.94776724,12.73282575,-0.70821408,1.18124946,-0.31299119

>  <Name>
1eht cryst

>  <RI>
0

>  <Rbt.Current_Directory>
/home/itssahil/PROJECTS/Mol_Feturizer/New_Systems/rnas/1eht

>  <Rbt.Executable>
rbdock ($Id: //depot/dev/client3/rdock/2013.1/src/exe/rbdock.cxx#4 $)

>  <Rbt.Library>
libRbt.so (2013.1, Build901 2013/11/27)

>  <Rbt.Parameter_File>
/export/apps/rDock/src/rDock_2013.1_src/data/scripts/dock_solv.prm

>  <Rbt.Receptor>
prm/blind_docking_80.prm

>  <SCORE>
-38.6442

>  <SCORE.INTER>
-38.6446

>  <SCORE.INTER.CONST>
1

>  <SCORE.INTER.POLAR>
-1.74651

>  <SCORE.INTER.ROT>
0

>  <SCORE.INTER.SOLV>
10.0756

>  <SCORE.INTER.VDW>
-26.8999

>  <SCORE.INTER.norm>
-2.97266

>  <SCORE.INTRA>
0

>  <SCORE.INTRA.DIHEDRAL>
0

>  <SCORE.INTRA.DIHEDRAL.0>
0

>  <SCORE.INTRA.POLAR>
0

>  <SCORE.INTRA.POLAR.0>
0

>  <SCORE.INTRA.REPUL>
0

>  <SCORE.INTRA.REPUL.0>
0

>  <SCORE.INTRA.SOLV>
0

>  <SCORE.INTRA.SOLV.lig_0>
-12.9768

>  <SCORE.INTRA.VDW>
0

>  <SCORE.INTRA.VDW.0>
0

>  <SCORE.INTRA.norm>
0

>  <SCORE.RESTR>
0.000353959

>  <SCORE.RESTR.CAVITY>
0.000353959

>  <SCORE.RESTR.norm>
2.72276e-05

>  <SCORE.SYSTEM>
0

>  <SCORE.SYSTEM.CONST>
0

>  <SCORE.SYSTEM.DIHEDRAL>
0

>  <SCORE.SYSTEM.SOLV>
0

>  <SCORE.SYSTEM.norm>
0

>  <SCORE.heavy>
13

>  <SCORE.norm>
-2.97263

>  <RMSD>
0.698

$$$$
1eht cryst
 OpenBabel11021811383D
libRbt.so/2013.1/901 2013/11/27
 13 14  0  0  0  0  0  0  0  0999 V2000
   -4.7033   -7.6254   10.5981 C   0  0  0  0  0  0  0  0  0  0  0  0
   -5.2146   -6.8269   11.6172 N   0  0  0  0  0  0  0  0  0  0  0  0
   -5.5929   -7.4343   12.7867 C   0  0  0  0  0  0  0  0  0  0  0  0
   -5.4531   -8.6578   12.8404 O   0  0  0  0  0  0  0  0  0  0  0  0
   -6.1119   -6.7777   13.8738 N   0  0  0  0  0  0  0  0  0  0  0  0
   -6.4859   -7.4133   15.0464 C   0  0  0  0  0  0  0  0  0  0  0  0
   -6.2232   -5.4322   13.6818 C   0  0  0  0  0  0  0  0  0  0  0  0
   -5.8446   -4.8380   12.5129 C   0  0  0  0  0  0  0  0  0  0  0  0
   -5.3098   -5.4926   11.3885 C   0  0  0  0  0  0  0  0  0  0  0  0
   -4.9538   -5.0051   10.3167 O   0  0  0  0  0  0  0  0  0  0  0  0
   -6.0982   -3.4833   12.6798 N   0  0  0  0  0  0  0  0  0  0  0  0
   -6.6091   -3.3513   13.9269 C   0  0  0  0  0  0  0  0  0  0  0  0
   -6.7061   -4.4802   14.5728 N   0  0  0  0  0  0  0  0  0  0  0  0
  1  2  1  0  0  0  0
  2  9  1  0  0  0  0
  2  3  1  0  0  0  0
  3  5  1  0  0  0  0
  3  4  2  0  0  0  0
  5  6  1  0  0  0  0
  5  7  1  0  0  0  0
  7  8  2  0  0  0  0
  7 13  1  0  0  0  0
  8  9  1  0  0  0  0
  8 11  1  0  0  0  0
  9 10  2  0  0  0  0
 11 12  1  0  0  0  0
 12 13  2  0  0  0  0
M  END
>  <CHROM.1>
-5.77606938,-5.94919966,12.72854410,-0.68886090,1.17488761,-0.33614959

>  <Name>
1eht cryst

>  <RI>
0

>  <Rbt.Current_Directory>
/home/itssahil/PROJECTS/Mol_Feturizer/New_Systems/rnas/1eht

>  <Rbt.Executable>
rbdock ($Id: //depot/dev/client3/rdock/2013.1/src/exe/rbdock.cxx#4 $)

>  <Rbt.Library>
libRbt.so (2013.1, Build901 2013/11/27)

>  <Rbt.Parameter_File>
/export/apps/rDock/src/rDock_2013.1_src/data/scripts/dock_solv.prm

>  <Rbt.Receptor>
prm/blind_docking_80.prm

>  <SCORE>
-38.6469

>  <SCORE.INTER>
-38.6477

>  <SCORE.INTER.CONST>
1

>  <SCORE.INTER.POLAR>
-1.75442

>  <SCORE.INTER.ROT>
0

>  <SCORE.INTER.SOLV>
10.0628

>  <SCORE.INTER.VDW>
-26.8713

>  <SCORE.INTER.norm>
-2.9729

>  <SCORE.INTRA>
0

>  <SCORE.INTRA.DIHEDRAL>
0

>  <SCORE.INTRA.DIHEDRAL.0>
0

>  <SCORE.INTRA.POLAR>
0

>  <SCORE.INTRA.POLAR.0>
0

>  <SCORE.INTRA.REPUL>
0

>  <SCORE.INTRA.REPUL.0>
0

>  <SCORE.INTRA.SOLV>
0

>  <SCORE.INTRA.SOLV.lig_0>
-12.9768

>  <SCORE.INTRA.VDW>
0

>  <SCORE.INTRA.VDW.0>
0

>  <SCORE.INTRA.norm>
0

>  <SCORE.RESTR>
0.000784433

>  <SCORE.RESTR.CAVITY>
0.000784433

>  <SCORE.RESTR.norm>
6.0341e-05

>  <SCORE.SYSTEM>
0

>  <SCORE.SYSTEM.CONST>
0

>  <SCORE.SYSTEM.DIHEDRAL>
0

>  <SCORE.SYSTEM.SOLV>
0

>  <SCORE.SYSTEM.norm>
0

>  <SCORE.heavy>
13

>  <SCORE.norm>
-2.97284

>  <RMSD>
0.699

$$$$
1eht cryst
 OpenBabel11021811383D
libRbt.so/2013.1/901 2013/11/27
 13 14  0  0  0  0  0  0  0  0999 V2000
   -4.7341   -7.6255   10.5910 C   0  0  0  0  0  0  0  0  0  0  0  0
   -5.2358   -6.8261   11.6141 N   0  0  0  0  0  0  0  0  0  0  0  0
   -5.6149   -7.4338   12.7831 C   0  0  0  0  0  0  0  0  0  0  0  0
   -5.4844   -8.6584   12.8328 O   0  0  0  0  0  0  0  0  0  0  0  0
   -6.1251   -6.7762   13.8738 N   0  0  0  0  0  0  0  0  0  0  0  0
   -6.5001   -7.4123   15.0458 C   0  0  0  0  0  0  0  0  0  0  0  0
   -6.2267   -5.4294   13.6859 C   0  0  0  0  0  0  0  0  0  0  0  0
   -5.8474   -4.8348   12.5174 C   0  0  0  0  0  0  0  0  0  0  0  0
   -5.3215   -5.4904   11.3894 C   0  0  0  0  0  0  0  0  0  0  0  0
   -4.9652   -5.0026   10.3178 O   0  0  0  0  0  0  0  0  0  0  0  0
   -6.0899   -3.4787   12.6890 N   0  0  0  0  0  0  0  0  0  0  0  0
   -6.5956   -3.3463   13.9381 C   0  0  0  0  0  0  0  0  0  0  0  0
   -6.6992   -4.4763   14.5812 N   0  0  0  0  0  0  0  0  0  0  0  0
  1  2  1  0  0  0  0
  2  9  1  0  0  0  0
  2  3  1  0  0  0  0
  3  5  1  0  0  0  0
  3  4  2  0  0  0  0
  5  6  1  0  0  0  0
  5  7  1  0  0  0  0
  7  8  2  0  0  0  0
  7 13  1  0  0  0  0
  8  9  1  0  0  0  0
  8 11  1  0  0  0  0
  9 10  2  0  0  0  0
 11 12  1  0  0  0  0
 12 13  2  0  0  0  0
M  END
>  <CHROM.1>
-5.78676846,-5.94714727,12.72971619,-0.70518106,1.18055776,-0.31825021

>  <Name>
1eht cryst

>  <RI>
0

>  <Rbt.Current_Directory>
/home/itssahil/PROJECTS/Mol_Feturizer/New_Systems/rnas/1eht

>  <Rbt.Executable>
rbdock ($Id: //depot/dev/client3/rdock/2013.1/src/exe/rbdock.cxx#4 $)

>  <Rbt.Library>
libRbt.so (2013.1, Build901 2013/11/27)

>  <Rbt.Parameter_File>
/export/apps/rDock/src/rDock_2013.1_src/data/scripts/dock_solv.prm

>  <Rbt.Receptor>
prm/blind_docking_80.prm

>  <SCORE>
-38.6508

>  <SCORE.INTER>
-38.6535

>  <SCORE.INTER.CONST>
1

>  <SCORE.INTER.POLAR>
-1.74885

>  <SCORE.INTER.ROT>
0

>  <SCORE.INTER.SOLV>
10.0695

>  <SCORE.INTER.VDW>
-26.896

>  <SCORE.INTER.norm>
-2.97334

>  <SCORE.INTRA>
0

>  <SCORE.INTRA.DIHEDRAL>
0

>  <SCORE.INTRA.DIHEDRAL.0>
0

>  <SCORE.INTRA.POLAR>
0

>  <SCORE.INTRA.POLAR.0>
0

>  <SCORE.INTRA.REPUL>
0

>  <SCORE.INTRA.REPUL.0>
0

>  <SCORE.INTRA.SOLV>
0

>  <SCORE.INTRA.SOLV.lig_0>
-12.9768

>  <SCORE.INTRA.VDW>
0

>  <SCORE.INTRA.VDW.0>
0

>  <SCORE.INTRA.norm>
0

>  <SCORE.RESTR>
0.00269433

>  <SCORE.RESTR.CAVITY>
0.00269433

>  <SCORE.RESTR.norm>
0.000207256

>  <SCORE.SYSTEM>
0

>  <SCORE.SYSTEM.CONST>
0

>  <SCORE.SYSTEM.DIHEDRAL>
0

>  <SCORE.SYSTEM.SOLV>
0

>  <SCORE.SYSTEM.norm>
0

>  <SCORE.heavy>
13

>  <SCORE.norm>
-2.97314

>  <RMSD>
0.699

$$$$
1eht cryst
 OpenBabel11021811383D
libRbt.so/2013.1/901 2013/11/27
 13 14  0  0  0  0  0  0  0  0999 V2000
   -4.7986   -7.6541   10.5762 C   0  0  0  0  0  0  0  0  0  0  0  0
   -5.2622   -6.8462   11.6106 N   0  0  0  0  0  0  0  0  0  0  0  0
   -5.6498   -7.4501   12.7789 C   0  0  0  0  0  0  0  0  0  0  0  0
   -5.5605   -8.6788   12.8179 O   0  0  0  0  0  0  0  0  0  0  0  0
   -6.1261   -6.7844   13.8799 N   0  0  0  0  0  0  0  0  0  0  0  0
   -6.5105   -7.4167   15.0509 C   0  0  0  0  0  0  0  0  0  0  0  0
   -6.1837   -5.4334   13.7034 C   0  0  0  0  0  0  0  0  0  0  0  0
   -5.7964   -4.8427   12.5356 C   0  0  0  0  0  0  0  0  0  0  0  0
   -5.3047   -5.5066   11.3971 C   0  0  0  0  0  0  0  0  0  0  0  0
   -4.9431   -5.0227   10.3256 O   0  0  0  0  0  0  0  0  0  0  0  0
   -5.9908   -3.4806   12.7201 N   0  0  0  0  0  0  0  0  0  0  0  0
   -6.4789   -3.3410   13.9755 C   0  0  0  0  0  0  0  0  0  0  0  0
   -6.6143   -4.4720   14.6110 N   0  0  0  0  0  0  0  0  0  0  0  0
  1  2  1  0  0  0  0
  2  9  1  0  0  0  0
  2  3  1  0  0  0  0
  3  5  1  0  0  0  0
  3  4  2  0  0  0  0
  5  6  1  0  0  0  0
  5  7  1  0  0  0  0
  7  8  2  0  0  0  0
  7 13  1  0  0  0  0
  8  9  1  0  0  0  0
  8 11  1  0  0  0  0
  9 10  2  0  0  0  0
 11 12  1  0  0  0  0
 12 13  2  0  0  0  0
M  END
>  <CHROM.1>
-5.77148515,-5.95810013,12.73871838,-0.78559898,1.19987190,-0.23572921

>  <Name>
1eht cryst

>  <RI>
0

>  <Rbt.Current_Directory>
/home/itssahil/PROJECTS/Mol_Feturizer/New_Systems/rnas/1eht

>  <Rbt.Executable>
rbdock ($Id: //depot/dev/client3/rdock/2013.1/src/exe/rbdock.cxx#4 $)

>  <Rbt.Library>
libRbt.so (2013.1, Build901 2013/11/27)

>  <Rbt.Parameter_File>
/export/apps/rDock/src/rDock_2013.1_src/data/scripts/dock_solv.prm

>  <Rbt.Receptor>
prm/blind_docking_80.prm

>  <SCORE>
-38.7099

>  <SCORE.INTER>
-38.7405

>  <SCORE.INTER.CONST>
1

>  <SCORE.INTER.POLAR>
-1.75786

>  <SCORE.INTER.ROT>
0

>  <SCORE.INTER.SOLV>
10.115

>  <SCORE.INTER.VDW>
-26.9391

>  <SCORE.INTER.norm>
-2.98004

>  <SCORE.INTRA>
0

>  <SCORE.INTRA.DIHEDRAL>
0

>  <SCORE.INTRA.DIHEDRAL.0>
0

>  <SCORE.INTRA.POLAR>
0

>  <SCORE.INTRA.POLAR.0>
0

>  <SCORE.INTRA.REPUL>
0

>  <SCORE.INTRA.REPUL.0>
0

>  <SCORE.INTRA.SOLV>
0

>  <SCORE.INTRA.SOLV.lig_0>
-12.9768

>  <SCORE.INTRA.VDW>
0

>  <SCORE.INTRA.VDW.0>
0

>  <SCORE.INTRA.norm>
0

>  <SCORE.RESTR>
0.0305723

>  <SCORE.RESTR.CAVITY>
0.0305723

>  <SCORE.RESTR.norm>
0.00235171

>  <SCORE.SYSTEM>
0

>  <SCORE.SYSTEM.CONST>
0

>  <SCORE.SYSTEM.DIHEDRAL>
0

>  <SCORE.SYSTEM.SOLV>
0

>  <SCORE.SYSTEM.norm>
0

>  <SCORE.heavy>
13

>  <SCORE.norm>
-2.97769

>  <RMSD>
0.701

$$$$
1eht cryst
 OpenBabel11021811383D
libRbt.so/2013.1/901 2013/11/27
 13 14  0  0  0  0  0  0  0  0999 V2000
   -4.7781   -7.8581   10.5656 C   0  0  0  0  0  0  0  0  0  0  0  0
   -5.2380   -7.0104   11.5693 N   0  0  0  0  0  0  0  0  0  0  0  0
   -5.6254   -7.5685   12.7602 C   0  0  0  0  0  0  0  0  0  0  0  0
   -5.5394   -8.7951   12.8456 O   0  0  0  0  0  0  0  0  0  0  0  0
   -6.0982   -6.8602   13.8359 N   0  0  0  0  0  0  0  0  0  0  0  0
   -6.4826   -7.4466   15.0305 C   0  0  0  0  0  0  0  0  0  0  0  0
   -6.1524   -5.5167   13.6084 C   0  0  0  0  0  0  0  0  0  0  0  0
   -5.7653   -4.9718   12.4185 C   0  0  0  0  0  0  0  0  0  0  0  0
   -5.2771   -5.6797   11.3053 C   0  0  0  0  0  0  0  0  0  0  0  0
   -4.9159   -5.2377   10.2156 O   0  0  0  0  0  0  0  0  0  0  0  0
   -5.9557   -3.6031   12.5515 N   0  0  0  0  0  0  0  0  0  0  0  0
   -6.4415   -3.4147   13.8014 C   0  0  0  0  0  0  0  0  0  0  0  0
   -6.5790   -4.5204   14.4794 N   0  0  0  0  0  0  0  0  0  0  0  0
  1  2  1  0  0  0  0
  2  9  1  0  0  0  0
  2  3  1  0  0  0  0
  3  5  1  0  0  0  0
  3  4  2  0  0  0  0
  5  6  1  0  0  0  0
  5  7  1  0  0  0  0
  7  8  2  0  0  0  0
  7 13  1  0  0  0  0
  8  9  1  0  0  0  0
  8 11  1  0  0  0  0
  9 10  2  0  0  0  0
 11 12  1  0  0  0  0
 12 13  2  0  0  0  0
M  END
>  <CHROM.1>
-5.74310050,-6.07872510,12.66368885,-0.79193983,1.20198814,-0.26772695

>  <Name>
1eht cryst

>  <RI>
0

>  <Rbt.Current_Directory>
/home/itssahil/PROJECTS/Mol_Feturizer/New_Systems/rnas/1eht

>  <Rbt.Executable>
rbdock ($Id: //depot/dev/client3/rdock/2013.1/src/exe/rbdock.cxx#4 $)

>  <Rbt.Library>
libRbt.so (2013.1, Build901 2013/11/27)

>  <Rbt.Parameter_File>
/export/apps/rDock/src/rDock_2013.1_src/data/scripts/dock_solv.prm

>  <Rbt.Receptor>
prm/pocket_docking_8.prm

>  <SCORE>
-39.1965

>  <SCORE.INTER>
-39.1965

>  <SCORE.INTER.CONST>
1

>  <SCORE.INTER.POLAR>
-1.92568

>  <SCORE.INTER.ROT>
0

>  <SCORE.INTER.SOLV>
9.80121

>  <SCORE.INTER.VDW>
-26.5792

>  <SCORE.INTER.norm>
-3.01512

>  <SCORE.INTRA>
0

>  <SCORE.INTRA.DIHEDRAL>
0

>  <SCORE.INTRA.DIHEDRAL.0>
0

>  <SCORE.INTRA.POLAR>
0

>  <SCORE.INTRA.POLAR.0>
0

>  <SCORE.INTRA.REPUL>
0

>  <SCORE.INTRA.REPUL.0>
0

>  <SCORE.INTRA.SOLV>
0

>  <SCORE.INTRA.SOLV.lig_0>
-12.9768

>  <SCORE.INTRA.VDW>
0

>  <SCORE.INTRA.VDW.0>
0

>  <SCORE.INTRA.norm>
0

>  <SCORE.RESTR>
0

>  <SCORE.RESTR.CAVITY>
0

>  <SCORE.RESTR.norm>
0

>  <SCORE.SYSTEM>
0

>  <SCORE.SYSTEM.CONST>
0

>  <SCORE.SYSTEM.DIHEDRAL>
0

>  <SCORE.SYSTEM.SOLV>
0

>  <SCORE.SYSTEM.norm>
0

>  <SCORE.heavy>
13

>  <SCORE.norm>
-3.01512

>  <RMSD>
0.701

$$$$
1eht cryst
 OpenBabel11021811383D
libRbt.so/2013.1/901 2013/11/27
 13 14  0  0  0  0  0  0  0  0999 V2000
   -4.7831   -7.8266   10.5700 C   0  0  0  0  0  0  0  0  0  0  0  0
   -5.2571   -6.9774   11.5659 N   0  0  0  0  0  0  0  0  0  0  0  0
   -5.6301   -7.5302   12.7638 C   0  0  0  0  0  0  0  0  0  0  0  0
   -5.5196   -8.7538   12.8621 O   0  0  0  0  0  0  0  0  0  0  0  0
   -6.1141   -6.8198   13.8331 N   0  0  0  0  0  0  0  0  0  0  0  0
   -6.4835   -7.4008   15.0351 C   0  0  0  0  0  0  0  0  0  0  0  0
   -6.1955   -5.4802   13.5914 C   0  0  0  0  0  0  0  0  0  0  0  0
   -5.8225   -4.9406   12.3946 C   0  0  0  0  0  0  0  0  0  0  0  0
   -5.3233   -5.6507   11.2876 C   0  0  0  0  0  0  0  0  0  0  0  0
   -4.9738   -5.2134   10.1923 O   0  0  0  0  0  0  0  0  0  0  0  0
   -6.0397   -3.5746   12.5134 N   0  0  0  0  0  0  0  0  0  0  0  0
   -6.5258   -3.3824   13.7626 C   0  0  0  0  0  0  0  0  0  0  0  0
   -6.6395   -4.4832   14.4529 N   0  0  0  0  0  0  0  0  0  0  0  0
  1  2  1  0  0  0  0
  2  9  1  0  0  0  0
  2  3  1  0  0  0  0
  3  5  1  0  0  0  0
  3  4  2  0  0  0  0
  5  6  1  0  0  0  0
  5  7  1  0  0  0  0
  7  8  2  0  0  0  0
  7 13  1  0  0  0  0
  8  9  1  0  0  0  0
  8 11  1  0  0  0  0
  9 10  2  0  0  0  0
 11 12  1  0  0  0  0
 12 13  2  0  0  0  0
M  END
>  <CHROM.1>
-5.77765289,-6.04416107,12.65157613,-0.73733887,1.19879272,-0.32940463

>  <Name>
1eht cryst

>  <RI>
0

>  <Rbt.Current_Directory>
/home/itssahil/PROJECTS/Mol_Feturizer/New_Systems/rnas/1eht

>  <Rbt.Executable>
rbdock ($Id: //depot/dev/client3/rdock/2013.1/src/exe/rbdock.cxx#4 $)

>  <Rbt.Library>
libRbt.so (2013.1, Build901 2013/11/27)

>  <Rbt.Parameter_File>
/export/apps/rDock/src/rDock_2013.1_src/data/scripts/dock_solv.prm

>  <Rbt.Receptor>
prm/blind_docking_40.prm

>  <SCORE>
-39.1047

>  <SCORE.INTER>
-39.1047

>  <SCORE.INTER.CONST>
1

>  <SCORE.INTER.POLAR>
-1.89105

>  <SCORE.INTER.ROT>
0

>  <SCORE.INTER.SOLV>
9.81964

>  <SCORE.INTER.VDW>
-26.6395

>  <SCORE.INTER.norm>
-3.00806

>  <SCORE.INTRA>
0

>  <SCORE.INTRA.DIHEDRAL>
0

>  <SCORE.INTRA.DIHEDRAL.0>
0

>  <SCORE.INTRA.POLAR>
0

>  <SCORE.INTRA.POLAR.0>
0

>  <SCORE.INTRA.REPUL>
0

>  <SCORE.INTRA.REPUL.0>
0

>  <SCORE.INTRA.SOLV>
0

>  <SCORE.INTRA.SOLV.lig_0>
-12.9768

>  <SCORE.INTRA.VDW>
0

>  <SCORE.INTRA.VDW.0>
0

>  <SCORE.INTRA.norm>
0

>  <SCORE.RESTR>
0

>  <SCORE.RESTR.CAVITY>
0

>  <SCORE.RESTR.norm>
0

>  <SCORE.SYSTEM>
0

>  <SCORE.SYSTEM.CONST>
0

>  <SCORE.SYSTEM.DIHEDRAL>
0

>  <SCORE.SYSTEM.SOLV>
0

>  <SCORE.SYSTEM.norm>
0

>  <SCORE.heavy>
13

>  <SCORE.norm>
-3.00806

>  <RMSD>
0.703

$$$$
1eht cryst
 OpenBabel11021811383D
libRbt.so/2013.1/901 2013/11/27
 13 14  0  0  0  0  0  0  0  0999 V2000
   -4.7806   -7.8369   10.5725 C   0  0  0  0  0  0  0  0  0  0  0  0
   -5.2384   -6.9946   11.5817 N   0  0  0  0  0  0  0  0  0  0  0  0
   -5.6299   -7.5598   12.7679 C   0  0  0  0  0  0  0  0  0  0  0  0
   -5.5492   -8.7874   12.8444 O   0  0  0  0  0  0  0  0  0  0  0  0
   -6.1013   -6.8574   13.8480 N   0  0  0  0  0  0  0  0  0  0  0  0
   -6.4899   -7.4510   15.0378 C   0  0  0  0  0  0  0  0  0  0  0  0
   -6.1496   -5.5121   13.6304 C   0  0  0  0  0  0  0  0  0  0  0  0
   -5.7584   -4.9601   12.4450 C   0  0  0  0  0  0  0  0  0  0  0  0
   -5.2716   -5.6620   11.3274 C   0  0  0  0  0  0  0  0  0  0  0  0
   -4.9068   -5.2135   10.2415 O   0  0  0  0  0  0  0  0  0  0  0  0
   -5.9433   -3.5916   12.5878 N   0  0  0  0  0  0  0  0  0  0  0  0
   -6.4301   -3.4104   13.8383 C   0  0  0  0  0  0  0  0  0  0  0  0
   -6.5733   -4.5204   14.5080 N   0  0  0  0  0  0  0  0  0  0  0  0
  1  2  1  0  0  0  0
  2  9  1  0  0  0  0
  2  3  1  0  0  0  0
  3  5  1  0  0  0  0
  3  4  2  0  0  0  0
  5  6  1  0  0  0  0
  5  7  1  0  0  0  0
  7  8  2  0  0  0  0
  7 13  1  0  0  0  0
  8  9  1  0  0  0  0
  8 11  1  0  0  0  0
  9 10  2  0  0  0  0
 11 12  1  0  0  0  0
 12 13  2  0  0  0  0
M  END
>  <CHROM.1>
-5.74121069,-6.06892127,12.68213495,-0.80420695,1.20164037,-0.24896296

>  <Name>
1eht cryst

>  <RI>
0

>  <Rbt.Current_Directory>
/home/itssahil/PROJECTS/Mol_Feturizer/New_Systems/rnas/1eht

>  <Rbt.Executable>
rbdock ($Id: //depot/dev/client3/rdock/2013.1/src/exe/rbdock.cxx#4 $)

>  <Rbt.Library>
libRbt.so (2013.1, Build901 2013/11/27)

>  <Rbt.Parameter_File>
/export/apps/rDock/src/rDock_2013.1_src/data/scripts/dock_solv.prm

>  <Rbt.Receptor>
prm/blind_docking_40.prm

>  <SCORE>
-39.1458

>  <SCORE.INTER>
-39.1458

>  <SCORE.INTER.CONST>
1

>  <SCORE.INTER.POLAR>
-1.90766

>  <SCORE.INTER.ROT>
0

>  <SCORE.INTER.SOLV>
9.8421

>  <SCORE.INTER.VDW>
-26.6191

>  <SCORE.INTER.norm>
-3.01122

>  <SCORE.INTRA>
0

>  <SCORE.INTRA.DIHEDRAL>
0

>  <SCORE.INTRA.DIHEDRAL.0>
0

>  <SCORE.INTRA.POLAR>
0

>  <SCORE.INTRA.POLAR.0>
0

>  <SCORE.INTRA.REPUL>
0

>  <SCORE.INTRA.REPUL.0>
0

>  <SCORE.INTRA.SOLV>
0

>  <SCORE.INTRA.SOLV.lig_0>
-12.9768

>  <SCORE.INTRA.VDW>
0

>  <SCORE.INTRA.VDW.0>
0

>  <SCORE.INTRA.norm>
0

>  <SCORE.RESTR>
0

>  <SCORE.RESTR.CAVITY>
0

>  <SCORE.RESTR.norm>
0

>  <SCORE.SYSTEM>
0

>  <SCORE.SYSTEM.CONST>
0

>  <SCORE.SYSTEM.DIHEDRAL>
0

>  <SCORE.SYSTEM.SOLV>
0

>  <SCORE.SYSTEM.norm>
0

>  <SCORE.heavy>
13

>  <SCORE.norm>
-3.01122

>  <RMSD>
0.703

$$$$
1eht cryst
 OpenBabel11021811383D
libRbt.so/2013.1/901 2013/11/27
 13 14  0  0  0  0  0  0  0  0999 V2000
   -4.8089   -7.8728   10.5482 C   0  0  0  0  0  0  0  0  0  0  0  0
   -5.2644   -7.0082   11.5394 N   0  0  0  0  0  0  0  0  0  0  0  0
   -5.6321   -7.5445   12.7464 C   0  0  0  0  0  0  0  0  0  0  0  0
   -5.5337   -8.7682   12.8566 O   0  0  0  0  0  0  0  0  0  0  0  0
   -6.0984   -6.8179   13.8127 N   0  0  0  0  0  0  0  0  0  0  0  0
   -6.4627   -7.3824   15.0241 C   0  0  0  0  0  0  0  0  0  0  0  0
   -6.1679   -5.4801   13.5578 C   0  0  0  0  0  0  0  0  0  0  0  0
   -5.8003   -4.9570   12.3520 C   0  0  0  0  0  0  0  0  0  0  0  0
   -5.3192   -5.6838   11.2480 C   0  0  0  0  0  0  0  0  0  0  0  0
   -4.9753   -5.2617   10.1449 O   0  0  0  0  0  0  0  0  0  0  0  0
   -6.0019   -3.5875   12.4585 N   0  0  0  0  0  0  0  0  0  0  0  0
   -6.4742   -3.3772   13.7101 C   0  0  0  0  0  0  0  0  0  0  0  0
   -6.5931   -4.4695   14.4129 N   0  0  0  0  0  0  0  0  0  0  0  0
  1  2  1  0  0  0  0
  2  9  1  0  0  0  0
  2  3  1  0  0  0  0
  3  5  1  0  0  0  0
  3  4  2  0  0  0  0
  5  6  1  0  0  0  0
  5  7  1  0  0  0  0
  7  8  2  0  0  0  0
  7 13  1  0  0  0  0
  8  9  1  0  0  0  0
  8 11  1  0  0  0  0
  9 10  2  0  0  0  0
 11 12  1  0  0  0  0
 12 13  2  0  0  0  0
M  END
>  <CHROM.1>
-5.76486589,-6.05823320,12.62009609,-0.75728980,1.21103924,-0.32118902

>  <Name>
1eht cryst

>  <RI>
0

>  <Rbt.Current_Directory>
/home/itssahil/PROJECTS/Mol_Feturizer/New_Systems/rnas/1eht

>  <Rbt.Executable>
rbdock ($Id: //depot/dev/client3/rdock/2013.1/src/exe/rbdock.cxx#4 $)

>  <Rbt.Library>
libRbt.so (2013.1, Build901 2013/11/27)

>  <Rbt.Parameter_File>
/export/apps/rDock/src/rDock_2013.1_src/data/scripts/dock_solv.prm

>  <Rbt.Receptor>
prm/blind_docking_60.prm

>  <SCORE>
-39.1896

>  <SCORE.INTER>
-39.1896

>  <SCORE.INTER.CONST>
1

>  <SCORE.INTER.POLAR>
-1.92504

>  <SCORE.INTER.ROT>
0

>  <SCORE.INTER.SOLV>
9.79725

>  <SCORE.INTER.VDW>
-26.5754

>  <SCORE.INTER.norm>
-3.01459

>  <SCORE.INTRA>
0

>  <SCORE.INTRA.DIHEDRAL>
0

>  <SCORE.INTRA.DIHEDRAL.0>
0

>  <SCORE.INTRA.POLAR>
0

>  <SCORE.INTRA.POLAR.0>
0

>  <SCORE.INTRA.REPUL>
0

>  <SCORE.INTRA.REPUL.0>
0

>  <SCORE.INTRA.SOLV>
0

>  <SCORE.INTRA.SOLV.lig_0>
-12.9768

>  <SCORE.INTRA.VDW>
0

>  <SCORE.INTRA.VDW.0>
0

>  <SCORE.INTRA.norm>
0

>  <SCORE.RESTR>
0

>  <SCORE.RESTR.CAVITY>
0

>  <SCORE.RESTR.norm>
0

>  <SCORE.SYSTEM>
0

>  <SCORE.SYSTEM.CONST>
0

>  <SCORE.SYSTEM.DIHEDRAL>
0

>  <SCORE.SYSTEM.SOLV>
0

>  <SCORE.SYSTEM.norm>
0

>  <SCORE.heavy>
13

>  <SCORE.norm>
-3.01459

>  <RMSD>
0.703

$$$$
1eht cryst
 OpenBabel11021811383D
libRbt.so/2013.1/901 2013/11/27
 13 14  0  0  0  0  0  0  0  0999 V2000
   -4.7290   -7.6332   10.5992 C   0  0  0  0  0  0  0  0  0  0  0  0
   -5.2318   -6.8319   11.6203 N   0  0  0  0  0  0  0  0  0  0  0  0
   -5.6102   -7.4374   12.7908 C   0  0  0  0  0  0  0  0  0  0  0  0
   -5.4781   -8.6617   12.8435 O   0  0  0  0  0  0  0  0  0  0  0  0
   -6.1213   -6.7779   13.8799 N   0  0  0  0  0  0  0  0  0  0  0  0
   -6.4956   -7.4117   15.0534 C   0  0  0  0  0  0  0  0  0  0  0  0
   -6.2246   -5.4317   13.6888 C   0  0  0  0  0  0  0  0  0  0  0  0
   -5.8460   -4.8394   12.5189 C   0  0  0  0  0  0  0  0  0  0  0  0
   -5.3192   -5.4969   11.3925 C   0  0  0  0  0  0  0  0  0  0  0  0
   -4.9635   -5.0112   10.3197 O   0  0  0  0  0  0  0  0  0  0  0  0
   -6.0903   -3.4832   12.6872 N   0  0  0  0  0  0  0  0  0  0  0  0
   -6.5962   -3.3484   13.9361 C   0  0  0  0  0  0  0  0  0  0  0  0
   -6.6984   -4.4770   14.5818 N   0  0  0  0  0  0  0  0  0  0  0  0
  1  2  1  0  0  0  0
  2  9  1  0  0  0  0
  2  3  1  0  0  0  0
  3  5  1  0  0  0  0
  3  4  2  0  0  0  0
  5  6  1  0  0  0  0
  5  7  1  0  0  0  0
  7  8  2  0  0  0  0
  7 13  1  0  0  0  0
  8  9  1  0  0  0  0
  8 11  1  0  0  0  0
  9 10  2  0  0  0  0
 11 12  1  0  0  0  0
 12 13  2  0  0  0  0
M  END
>  <CHROM.1>
-5.78395351,-5.95109573,12.73386762,-0.70201977,1.18009397,-0.32355528

>  <Name>
1eht cryst

>  <RI>
0

>  <Rbt.Current_Directory>
/home/itssahil/PROJECTS/Mol_Feturizer/New_Systems/rnas/1eht

>  <Rbt.Executable>
rbdock ($Id: //depot/dev/client3/rdock/2013.1/src/exe/rbdock.cxx#4 $)

>  <Rbt.Library>
libRbt.so (2013.1, Build901 2013/11/27)

>  <Rbt.Parameter_File>
/export/apps/rDock/src/rDock_2013.1_src/data/scripts/dock_solv.prm

>  <Rbt.Receptor>
prm/blind_docking_80.prm

>  <SCORE>
-38.6737

>  <SCORE.INTER>
-38.6805

>  <SCORE.INTER.CONST>
1

>  <SCORE.INTER.POLAR>
-1.75086

>  <SCORE.INTER.ROT>
0

>  <SCORE.INTER.SOLV>
10.0581

>  <SCORE.INTER.VDW>
-26.9035

>  <SCORE.INTER.norm>
-2.97542

>  <SCORE.INTRA>
0

>  <SCORE.INTRA.DIHEDRAL>
0

>  <SCORE.INTRA.DIHEDRAL.0>
0

>  <SCORE.INTRA.POLAR>
0

>  <SCORE.INTRA.POLAR.0>
0

>  <SCORE.INTRA.REPUL>
0

>  <SCORE.INTRA.REPUL.0>
0

>  <SCORE.INTRA.SOLV>
0

>  <SCORE.INTRA.SOLV.lig_0>
-12.9768

>  <SCORE.INTRA.VDW>
0

>  <SCORE.INTRA.VDW.0>
0

>  <SCORE.INTRA.norm>
0

>  <SCORE.RESTR>
0.00678727

>  <SCORE.RESTR.CAVITY>
0.00678727

>  <SCORE.RESTR.norm>
0.000522098

>  <SCORE.SYSTEM>
0

>  <SCORE.SYSTEM.CONST>
0

>  <SCORE.SYSTEM.DIHEDRAL>
0

>  <SCORE.SYSTEM.SOLV>
0

>  <SCORE.SYSTEM.norm>
0

>  <SCORE.heavy>
13

>  <SCORE.norm>
-2.9749

>  <RMSD>
0.703

$$$$
1eht cryst
 OpenBabel11021811383D
libRbt.so/2013.1/901 2013/11/27
 13 14  0  0  0  0  0  0  0  0999 V2000
   -4.8000   -7.8663   10.5499 C   0  0  0  0  0  0  0  0  0  0  0  0
   -5.2553   -7.0031   11.5424 N   0  0  0  0  0  0  0  0  0  0  0  0
   -5.6276   -7.5417   12.7470 C   0  0  0  0  0  0  0  0  0  0  0  0
   -5.5332   -8.7660   12.8539 O   0  0  0  0  0  0  0  0  0  0  0  0
   -6.0943   -6.8167   13.8142 N   0  0  0  0  0  0  0  0  0  0  0  0
   -6.4633   -7.3835   15.0231 C   0  0  0  0  0  0  0  0  0  0  0  0
   -6.1590   -5.4780   13.5629 C   0  0  0  0  0  0  0  0  0  0  0  0
   -5.7869   -4.9525   12.3595 C   0  0  0  0  0  0  0  0  0  0  0  0
   -5.3053   -5.6778   11.2546 C   0  0  0  0  0  0  0  0  0  0  0  0
   -4.9574   -5.2536   10.1536 O   0  0  0  0  0  0  0  0  0  0  0  0
   -5.9846   -3.5828   12.4694 N   0  0  0  0  0  0  0  0  0  0  0  0
   -6.4592   -3.3746   13.7204 C   0  0  0  0  0  0  0  0  0  0  0  0
   -6.5832   -4.4685   14.4198 N   0  0  0  0  0  0  0  0  0  0  0  0
  1  2  1  0  0  0  0
  2  9  1  0  0  0  0
  2  3  1  0  0  0  0
  3  5  1  0  0  0  0
  3  4  2  0  0  0  0
  5  6  1  0  0  0  0
  5  7  1  0  0  0  0
  7  8  2  0  0  0  0
  7 13  1  0  0  0  0
  8  9  1  0  0  0  0
  8 11  1  0  0  0  0
  9 10  2  0  0  0  0
 11 12  1  0  0  0  0
 12 13  2  0  0  0  0
M  END
>  <CHROM.1>
-5.75547520,-6.05467496,12.62457070,-0.76769713,1.20966889,-0.30862272

>  <Name>
1eht cryst

>  <RI>
0

>  <Rbt.Current_Directory>
/home/itssahil/PROJECTS/Mol_Feturizer/New_Systems/rnas/1eht

>  <Rbt.Executable>
rbdock ($Id: //depot/dev/client3/rdock/2013.1/src/exe/rbdock.cxx#4 $)

>  <Rbt.Library>
libRbt.so (2013.1, Build901 2013/11/27)

>  <Rbt.Parameter_File>
/export/apps/rDock/src/rDock_2013.1_src/data/scripts/dock_solv.prm

>  <Rbt.Receptor>
prm/pocket_docking_2.prm

>  <SCORE>
-39.1851

>  <SCORE.INTER>
-39.1851

>  <SCORE.INTER.CONST>
1

>  <SCORE.INTER.POLAR>
-1.9258

>  <SCORE.INTER.ROT>
0

>  <SCORE.INTER.SOLV>
9.81732

>  <SCORE.INTER.VDW>
-26.5765

>  <SCORE.INTER.norm>
-3.01424

>  <SCORE.INTRA>
0

>  <SCORE.INTRA.DIHEDRAL>
0

>  <SCORE.INTRA.DIHEDRAL.0>
0

>  <SCORE.INTRA.POLAR>
0

>  <SCORE.INTRA.POLAR.0>
0

>  <SCORE.INTRA.REPUL>
0

>  <SCORE.INTRA.REPUL.0>
0

>  <SCORE.INTRA.SOLV>
0

>  <SCORE.INTRA.SOLV.lig_0>
-12.9768

>  <SCORE.INTRA.VDW>
0

>  <SCORE.INTRA.VDW.0>
0

>  <SCORE.INTRA.norm>
0

>  <SCORE.RESTR>
0

>  <SCORE.RESTR.CAVITY>
0

>  <SCORE.RESTR.norm>
0

>  <SCORE.SYSTEM>
0

>  <SCORE.SYSTEM.CONST>
0

>  <SCORE.SYSTEM.DIHEDRAL>
0

>  <SCORE.SYSTEM.SOLV>
0

>  <SCORE.SYSTEM.norm>
0

>  <SCORE.heavy>
13

>  <SCORE.norm>
-3.01424

>  <RMSD>
0.703

$$$$
1eht cryst
 OpenBabel11021811383D
libRbt.so/2013.1/901 2013/11/27
 13 14  0  0  0  0  0  0  0  0999 V2000
   -4.8054   -7.8696   10.5498 C   0  0  0  0  0  0  0  0  0  0  0  0
   -5.2631   -7.0063   11.5411 N   0  0  0  0  0  0  0  0  0  0  0  0
   -5.6314   -7.5439   12.7474 C   0  0  0  0  0  0  0  0  0  0  0  0
   -5.5315   -8.7675   12.8568 O   0  0  0  0  0  0  0  0  0  0  0  0
   -6.0999   -6.8186   13.8137 N   0  0  0  0  0  0  0  0  0  0  0  0
   -6.4647   -7.3845   15.0243 C   0  0  0  0  0  0  0  0  0  0  0  0
   -6.1708   -5.4807   13.5595 C   0  0  0  0  0  0  0  0  0  0  0  0
   -5.8027   -4.9563   12.3545 C   0  0  0  0  0  0  0  0  0  0  0  0
   -5.3194   -5.6818   11.2505 C   0  0  0  0  0  0  0  0  0  0  0  0
   -4.9748   -5.2585   10.1481 O   0  0  0  0  0  0  0  0  0  0  0  0
   -6.0062   -3.5872   12.4617 N   0  0  0  0  0  0  0  0  0  0  0  0
   -6.4801   -3.3784   13.7129 C   0  0  0  0  0  0  0  0  0  0  0  0
   -6.5984   -4.4713   14.4148 N   0  0  0  0  0  0  0  0  0  0  0  0
  1  2  1  0  0  0  0
  2  9  1  0  0  0  0
  2  3  1  0  0  0  0
  3  5  1  0  0  0  0
  3  4  2  0  0  0  0
  5  6  1  0  0  0  0
  5  7  1  0  0  0  0
  7  8  2  0  0  0  0
  7 13  1  0  0  0  0
  8  9  1  0  0  0  0
  8 11  1  0  0  0  0
  9 10  2  0  0  0  0
 11 12  1  0  0  0  0
 12 13  2  0  0  0  0
M  END
>  <CHROM.1>
-5.76602637,-6.05770752,12.62189442,-0.75464036,1.20958943,-0.32300297

>  <Name>
1eht cryst

>  <RI>
0

>  <Rbt.Current_Directory>
/home/itssahil/PROJECTS/Mol_Feturizer/New_Systems/rnas/1eht

>  <Rbt.Executable>
rbdock ($Id: //depot/dev/client3/rdock/2013.1/src/exe/rbdock.cxx#4 $)

>  <Rbt.Library>
libRbt.so (2013.1, Build901 2013/11/27)

>  <Rbt.Parameter_File>
/export/apps/rDock/src/rDock_2013.1_src/data/scripts/dock_solv.prm

>  <Rbt.Receptor>
prm/pocket_docking_5.prm

>  <SCORE>
-39.1825

>  <SCORE.INTER>
-39.1825

>  <SCORE.INTER.CONST>
1

>  <SCORE.INTER.POLAR>
-1.9232

>  <SCORE.INTER.ROT>
0

>  <SCORE.INTER.SOLV>
9.79769

>  <SCORE.INTER.VDW>
-26.5769

>  <SCORE.INTER.norm>
-3.01404

>  <SCORE.INTRA>
0

>  <SCORE.INTRA.DIHEDRAL>
0

>  <SCORE.INTRA.DIHEDRAL.0>
0

>  <SCORE.INTRA.POLAR>
0

>  <SCORE.INTRA.POLAR.0>
0

>  <SCORE.INTRA.REPUL>
0

>  <SCORE.INTRA.REPUL.0>
0

>  <SCORE.INTRA.SOLV>
0

>  <SCORE.INTRA.SOLV.lig_0>
-12.9768

>  <SCORE.INTRA.VDW>
0

>  <SCORE.INTRA.VDW.0>
0

>  <SCORE.INTRA.norm>
0

>  <SCORE.RESTR>
0

>  <SCORE.RESTR.CAVITY>
0

>  <SCORE.RESTR.norm>
0

>  <SCORE.SYSTEM>
0

>  <SCORE.SYSTEM.CONST>
0

>  <SCORE.SYSTEM.DIHEDRAL>
0

>  <SCORE.SYSTEM.SOLV>
0

>  <SCORE.SYSTEM.norm>
0

>  <SCORE.heavy>
13

>  <SCORE.norm>
-3.01404

>  <RMSD>
0.703

$$$$
1eht cryst
 OpenBabel11021811383D
libRbt.so/2013.1/901 2013/11/27
 13 14  0  0  0  0  0  0  0  0999 V2000
   -4.7997   -7.8654   10.5509 C   0  0  0  0  0  0  0  0  0  0  0  0
   -5.2565   -7.0025   11.5431 N   0  0  0  0  0  0  0  0  0  0  0  0
   -5.6302   -7.5414   12.7471 C   0  0  0  0  0  0  0  0  0  0  0  0
   -5.5356   -8.7657   12.8539 O   0  0  0  0  0  0  0  0  0  0  0  0
   -6.0986   -6.8168   13.8138 N   0  0  0  0  0  0  0  0  0  0  0  0
   -6.4690   -7.3839   15.0221 C   0  0  0  0  0  0  0  0  0  0  0  0
   -6.1634   -5.4780   13.5626 C   0  0  0  0  0  0  0  0  0  0  0  0
   -5.7899   -4.9523   12.3597 C   0  0  0  0  0  0  0  0  0  0  0  0
   -5.3066   -5.6772   11.2554 C   0  0  0  0  0  0  0  0  0  0  0  0
   -4.9574   -5.2527   10.1549 O   0  0  0  0  0  0  0  0  0  0  0  0
   -5.9882   -3.5826   12.4696 N   0  0  0  0  0  0  0  0  0  0  0  0
   -6.4646   -3.3748   13.7200 C   0  0  0  0  0  0  0  0  0  0  0  0
   -6.5891   -4.4688   14.4191 N   0  0  0  0  0  0  0  0  0  0  0  0
  1  2  1  0  0  0  0
  2  9  1  0  0  0  0
  2  3  1  0  0  0  0
  3  5  1  0  0  0  0
  3  4  2  0  0  0  0
  5  6  1  0  0  0  0
  5  7  1  0  0  0  0
  7  8  2  0  0  0  0
  7 13  1  0  0  0  0
  8  9  1  0  0  0  0
  8 11  1  0  0  0  0
  9 10  2  0  0  0  0
 11 12  1  0  0  0  0
 12 13  2  0  0  0  0
M  END
>  <CHROM.1>
-5.75845780,-6.05445910,12.62468108,-0.76791314,1.20831119,-0.30825392

>  <Name>
1eht cryst

>  <RI>
0

>  <Rbt.Current_Directory>
/home/itssahil/PROJECTS/Mol_Feturizer/New_Systems/rnas/1eht

>  <Rbt.Executable>
rbdock ($Id: //depot/dev/client3/rdock/2013.1/src/exe/rbdock.cxx#4 $)

>  <Rbt.Library>
libRbt.so (2013.1, Build901 2013/11/27)

>  <Rbt.Parameter_File>
/export/apps/rDock/src/rDock_2013.1_src/data/scripts/dock_solv.prm

>  <Rbt.Receptor>
prm/blind_docking_100.prm

>  <SCORE>
-39.1836

>  <SCORE.INTER>
-39.1836

>  <SCORE.INTER.CONST>
1

>  <SCORE.INTER.POLAR>
-1.92622

>  <SCORE.INTER.ROT>
0

>  <SCORE.INTER.SOLV>
9.81776

>  <SCORE.INTER.VDW>
-26.5743

>  <SCORE.INTER.norm>
-3.01412

>  <SCORE.INTRA>
0

>  <SCORE.INTRA.DIHEDRAL>
0

>  <SCORE.INTRA.DIHEDRAL.0>
0

>  <SCORE.INTRA.POLAR>
0

>  <SCORE.INTRA.POLAR.0>
0

>  <SCORE.INTRA.REPUL>
0

>  <SCORE.INTRA.REPUL.0>
0

>  <SCORE.INTRA.SOLV>
0

>  <SCORE.INTRA.SOLV.lig_0>
-12.9768

>  <SCORE.INTRA.VDW>
0

>  <SCORE.INTRA.VDW.0>
0

>  <SCORE.INTRA.norm>
0

>  <SCORE.RESTR>
0

>  <SCORE.RESTR.CAVITY>
0

>  <SCORE.RESTR.norm>
0

>  <SCORE.SYSTEM>
0

>  <SCORE.SYSTEM.CONST>
0

>  <SCORE.SYSTEM.DIHEDRAL>
0

>  <SCORE.SYSTEM.SOLV>
0

>  <SCORE.SYSTEM.norm>
0

>  <SCORE.heavy>
13

>  <SCORE.norm>
-3.01412

>  <RMSD>
0.704

$$$$
1eht cryst
 OpenBabel11021811383D
libRbt.so/2013.1/901 2013/11/27
 13 14  0  0  0  0  0  0  0  0999 V2000
   -4.7990   -7.8651   10.5501 C   0  0  0  0  0  0  0  0  0  0  0  0
   -5.2562   -7.0010   11.5410 N   0  0  0  0  0  0  0  0  0  0  0  0
   -5.6310   -7.5385   12.7453 C   0  0  0  0  0  0  0  0  0  0  0  0
   -5.5370   -8.7627   12.8535 O   0  0  0  0  0  0  0  0  0  0  0  0
   -6.0998   -6.8125   13.8109 N   0  0  0  0  0  0  0  0  0  0  0  0
   -6.4713   -7.3782   15.0195 C   0  0  0  0  0  0  0  0  0  0  0  0
   -6.1638   -5.4740   13.5583 C   0  0  0  0  0  0  0  0  0  0  0  0
   -5.7892   -4.9497   12.3552 C   0  0  0  0  0  0  0  0  0  0  0  0
   -5.3054   -5.6759   11.2519 C   0  0  0  0  0  0  0  0  0  0  0  0
   -4.9552   -5.2528   10.1512 O   0  0  0  0  0  0  0  0  0  0  0  0
   -5.9868   -3.5798   12.4635 N   0  0  0  0  0  0  0  0  0  0  0  0
   -6.4640   -3.3704   13.7134 C   0  0  0  0  0  0  0  0  0  0  0  0
   -6.5896   -4.4637   14.4135 N   0  0  0  0  0  0  0  0  0  0  0  0
  1  2  1  0  0  0  0
  2  9  1  0  0  0  0
  2  3  1  0  0  0  0
  3  5  1  0  0  0  0
  3  4  2  0  0  0  0
  5  6  1  0  0  0  0
  5  7  1  0  0  0  0
  7  8  2  0  0  0  0
  7 13  1  0  0  0  0
  8  9  1  0  0  0  0
  8 11  1  0  0  0  0
  9 10  2  0  0  0  0
 11 12  1  0  0  0  0
 12 13  2  0  0  0  0
M  END
>  <CHROM.1>
-5.75842905,-6.05158101,12.62130850,-0.76987256,1.20777176,-0.30745328

>  <Name>
1eht cryst

>  <RI>
0

>  <Rbt.Current_Directory>
/home/itssahil/PROJECTS/Mol_Feturizer/New_Systems/rnas/1eht

>  <Rbt.Executable>
rbdock ($Id: //depot/dev/client3/rdock/2013.1/src/exe/rbdock.cxx#4 $)

>  <Rbt.Library>
libRbt.so (2013.1, Build901 2013/11/27)

>  <Rbt.Parameter_File>
/export/apps/rDock/src/rDock_2013.1_src/data/scripts/dock_solv.prm

>  <Rbt.Receptor>
prm/blind_docking_40.prm

>  <SCORE>
-39.1834

>  <SCORE.INTER>
-39.1834

>  <SCORE.INTER.CONST>
1

>  <SCORE.INTER.POLAR>
-1.92827

>  <SCORE.INTER.ROT>
0

>  <SCORE.INTER.SOLV>
9.82459

>  <SCORE.INTER.VDW>
-26.5695

>  <SCORE.INTER.norm>
-3.01411

>  <SCORE.INTRA>
0

>  <SCORE.INTRA.DIHEDRAL>
0

>  <SCORE.INTRA.DIHEDRAL.0>
0

>  <SCORE.INTRA.POLAR>
0

>  <SCORE.INTRA.POLAR.0>
0

>  <SCORE.INTRA.REPUL>
0

>  <SCORE.INTRA.REPUL.0>
0

>  <SCORE.INTRA.SOLV>
0

>  <SCORE.INTRA.SOLV.lig_0>
-12.9768

>  <SCORE.INTRA.VDW>
0

>  <SCORE.INTRA.VDW.0>
0

>  <SCORE.INTRA.norm>
0

>  <SCORE.RESTR>
0

>  <SCORE.RESTR.CAVITY>
0

>  <SCORE.RESTR.norm>
0

>  <SCORE.SYSTEM>
0

>  <SCORE.SYSTEM.CONST>
0

>  <SCORE.SYSTEM.DIHEDRAL>
0

>  <SCORE.SYSTEM.SOLV>
0

>  <SCORE.SYSTEM.norm>
0

>  <SCORE.heavy>
13

>  <SCORE.norm>
-3.01411

>  <RMSD>
0.704

$$$$
1eht cryst
 OpenBabel11021811383D
libRbt.so/2013.1/901 2013/11/27
 13 14  0  0  0  0  0  0  0  0999 V2000
   -4.7779   -7.8581   10.5706 C   0  0  0  0  0  0  0  0  0  0  0  0
   -5.2384   -7.0101   11.5738 N   0  0  0  0  0  0  0  0  0  0  0  0
   -5.6278   -7.5680   12.7640 C   0  0  0  0  0  0  0  0  0  0  0  0
   -5.5430   -8.7947   12.8494 O   0  0  0  0  0  0  0  0  0  0  0  0
   -6.1014   -6.8595   13.8392 N   0  0  0  0  0  0  0  0  0  0  0  0
   -6.4878   -7.4458   15.0332 C   0  0  0  0  0  0  0  0  0  0  0  0
   -6.1541   -5.5159   13.6119 C   0  0  0  0  0  0  0  0  0  0  0  0
   -5.7650   -4.9712   12.4226 C   0  0  0  0  0  0  0  0  0  0  0  0
   -5.2760   -5.6794   11.3099 C   0  0  0  0  0  0  0  0  0  0  0  0
   -4.9129   -5.2375   10.2208 O   0  0  0  0  0  0  0  0  0  0  0  0
   -5.9544   -3.6023   12.5555 N   0  0  0  0  0  0  0  0  0  0  0  0
   -6.4416   -3.4137   13.8048 C   0  0  0  0  0  0  0  0  0  0  0  0
   -6.5810   -4.5194   14.4825 N   0  0  0  0  0  0  0  0  0  0  0  0
  1  2  1  0  0  0  0
  2  9  1  0  0  0  0
  2  3  1  0  0  0  0
  3  5  1  0  0  0  0
  3  4  2  0  0  0  0
  5  6  1  0  0  0  0
  5  7  1  0  0  0  0
  7  8  2  0  0  0  0
  7 13  1  0  0  0  0
  8  9  1  0  0  0  0
  8 11  1  0  0  0  0
  9 10  2  0  0  0  0
 11 12  1  0  0  0  0
 12 13  2  0  0  0  0
M  END
>  <CHROM.1>
-5.74408098,-6.07816696,12.66760332,-0.79524861,1.20095990,-0.26448876

>  <Name>
1eht cryst

>  <RI>
0

>  <Rbt.Current_Directory>
/home/itssahil/PROJECTS/Mol_Feturizer/New_Systems/rnas/1eht

>  <Rbt.Executable>
rbdock ($Id: //depot/dev/client3/rdock/2013.1/src/exe/rbdock.cxx#4 $)

>  <Rbt.Library>
libRbt.so (2013.1, Build901 2013/11/27)

>  <Rbt.Parameter_File>
/export/apps/rDock/src/rDock_2013.1_src/data/scripts/dock_solv.prm

>  <Rbt.Receptor>
prm/pocket_docking_3.prm

>  <SCORE>
-39.1924

>  <SCORE.INTER>
-39.1924

>  <SCORE.INTER.CONST>
1

>  <SCORE.INTER.POLAR>
-1.9248

>  <SCORE.INTER.ROT>
0

>  <SCORE.INTER.SOLV>
9.80588

>  <SCORE.INTER.VDW>
-26.5809

>  <SCORE.INTER.norm>
-3.0148

>  <SCORE.INTRA>
0

>  <SCORE.INTRA.DIHEDRAL>
0

>  <SCORE.INTRA.DIHEDRAL.0>
0

>  <SCORE.INTRA.POLAR>
0

>  <SCORE.INTRA.POLAR.0>
0

>  <SCORE.INTRA.REPUL>
0

>  <SCORE.INTRA.REPUL.0>
0

>  <SCORE.INTRA.SOLV>
0

>  <SCORE.INTRA.SOLV.lig_0>
-12.9768

>  <SCORE.INTRA.VDW>
0

>  <SCORE.INTRA.VDW.0>
0

>  <SCORE.INTRA.norm>
0

>  <SCORE.RESTR>
0

>  <SCORE.RESTR.CAVITY>
0

>  <SCORE.RESTR.norm>
0

>  <SCORE.SYSTEM>
0

>  <SCORE.SYSTEM.CONST>
0

>  <SCORE.SYSTEM.DIHEDRAL>
0

>  <SCORE.SYSTEM.SOLV>
0

>  <SCORE.SYSTEM.norm>
0

>  <SCORE.heavy>
13

>  <SCORE.norm>
-3.0148

>  <RMSD>
0.704

$$$$
1eht cryst
 OpenBabel11021811383D
libRbt.so/2013.1/901 2013/11/27
 13 14  0  0  0  0  0  0  0  0999 V2000
   -4.7479   -7.8615   10.5753 C   0  0  0  0  0  0  0  0  0  0  0  0
   -5.2167   -7.0121   11.5734 N   0  0  0  0  0  0  0  0  0  0  0  0
   -5.6022   -7.5669   12.7664 C   0  0  0  0  0  0  0  0  0  0  0  0
   -5.5067   -8.7923   12.8586 O   0  0  0  0  0  0  0  0  0  0  0  0
   -6.0831   -6.8566   13.8372 N   0  0  0  0  0  0  0  0  0  0  0  0
   -6.4654   -7.4398   15.0342 C   0  0  0  0  0  0  0  0  0  0  0  0
   -6.1475   -5.5149   13.6025 C   0  0  0  0  0  0  0  0  0  0  0  0
   -5.7622   -4.9732   12.4105 C   0  0  0  0  0  0  0  0  0  0  0  0
   -5.2659   -5.6832   11.3021 C   0  0  0  0  0  0  0  0  0  0  0  0
   -4.9058   -5.2442   10.2109 O   0  0  0  0  0  0  0  0  0  0  0  0
   -5.9639   -3.6054   12.5357 N   0  0  0  0  0  0  0  0  0  0  0  0
   -6.4539   -3.4143   13.7835 C   0  0  0  0  0  0  0  0  0  0  0  0
   -6.5840   -4.5174   14.4672 N   0  0  0  0  0  0  0  0  0  0  0  0
  1  2  1  0  0  0  0
  2  9  1  0  0  0  0
  2  3  1  0  0  0  0
  3  5  1  0  0  0  0
  3  4  2  0  0  0  0
  5  6  1  0  0  0  0
  5  7  1  0  0  0  0
  7  8  2  0  0  0  0
  7 13  1  0  0  0  0
  8  9  1  0  0  0  0
  8 11  1  0  0  0  0
  9 10  2  0  0  0  0
 11 12  1  0  0  0  0
 12 13  2  0  0  0  0
M  END
>  <CHROM.1>
-5.73166714,-6.07866285,12.66164943,-0.77238397,1.19768014,-0.29131564

>  <Name>
1eht cryst

>  <RI>
0

>  <Rbt.Current_Directory>
/home/itssahil/PROJECTS/Mol_Feturizer/New_Systems/rnas/1eht

>  <Rbt.Executable>
rbdock ($Id: //depot/dev/client3/rdock/2013.1/src/exe/rbdock.cxx#4 $)

>  <Rbt.Library>
libRbt.so (2013.1, Build901 2013/11/27)

>  <Rbt.Parameter_File>
/export/apps/rDock/src/rDock_2013.1_src/data/scripts/dock_solv.prm

>  <Rbt.Receptor>
prm/pocket_docking_4.prm

>  <SCORE>
-39.2337

>  <SCORE.INTER>
-39.2337

>  <SCORE.INTER.CONST>
1

>  <SCORE.INTER.POLAR>
-1.9299

>  <SCORE.INTER.ROT>
0

>  <SCORE.INTER.SOLV>
9.79037

>  <SCORE.INTER.VDW>
-26.5862

>  <SCORE.INTER.norm>
-3.01797

>  <SCORE.INTRA>
0

>  <SCORE.INTRA.DIHEDRAL>
0

>  <SCORE.INTRA.DIHEDRAL.0>
0

>  <SCORE.INTRA.POLAR>
0

>  <SCORE.INTRA.POLAR.0>
0

>  <SCORE.INTRA.REPUL>
0

>  <SCORE.INTRA.REPUL.0>
0

>  <SCORE.INTRA.SOLV>
0

>  <SCORE.INTRA.SOLV.lig_0>
-12.9768

>  <SCORE.INTRA.VDW>
0

>  <SCORE.INTRA.VDW.0>
0

>  <SCORE.INTRA.norm>
0

>  <SCORE.RESTR>
0

>  <SCORE.RESTR.CAVITY>
0

>  <SCORE.RESTR.norm>
0

>  <SCORE.SYSTEM>
0

>  <SCORE.SYSTEM.CONST>
0

>  <SCORE.SYSTEM.DIHEDRAL>
0

>  <SCORE.SYSTEM.SOLV>
0

>  <SCORE.SYSTEM.norm>
0

>  <SCORE.heavy>
13

>  <SCORE.norm>
-3.01797

>  <RMSD>
0.704

$$$$
1eht cryst
 OpenBabel11021811383D
libRbt.so/2013.1/901 2013/11/27
 13 14  0  0  0  0  0  0  0  0999 V2000
   -4.7966   -7.8733   10.5642 C   0  0  0  0  0  0  0  0  0  0  0  0
   -5.2463   -7.0198   11.5676 N   0  0  0  0  0  0  0  0  0  0  0  0
   -5.6213   -7.5710   12.7656 C   0  0  0  0  0  0  0  0  0  0  0  0
   -5.5342   -8.7970   12.8573 O   0  0  0  0  0  0  0  0  0  0  0  0
   -6.0832   -6.8565   13.8420 N   0  0  0  0  0  0  0  0  0  0  0  0
   -6.4551   -7.4360   15.0439 C   0  0  0  0  0  0  0  0  0  0  0  0
   -6.1401   -5.5144   13.6073 C   0  0  0  0  0  0  0  0  0  0  0  0
   -5.7653   -4.9763   12.4103 C   0  0  0  0  0  0  0  0  0  0  0  0
   -5.2885   -5.6907   11.2963 C   0  0  0  0  0  0  0  0  0  0  0  0
   -4.9385   -5.2550   10.2004 O   0  0  0  0  0  0  0  0  0  0  0  0
   -5.9547   -3.6069   12.5373 N   0  0  0  0  0  0  0  0  0  0  0  0
   -6.4276   -3.4114   13.7910 C   0  0  0  0  0  0  0  0  0  0  0  0
   -6.5579   -4.5131   14.4768 N   0  0  0  0  0  0  0  0  0  0  0  0
  1  2  1  0  0  0  0
  2  9  1  0  0  0  0
  2  3  1  0  0  0  0
  3  5  1  0  0  0  0
  3  4  2  0  0  0  0
  5  6  1  0  0  0  0
  5  7  1  0  0  0  0
  7  8  2  0  0  0  0
  7 13  1  0  0  0  0
  8  9  1  0  0  0  0
  8 11  1  0  0  0  0
  9 10  2  0  0  0  0
 11 12  1  0  0  0  0
 12 13  2  0  0  0  0
M  END
>  <CHROM.1>
-5.74034967,-6.08182391,12.66166804,-0.78361466,1.21183284,-0.28132958

>  <Name>
1eht cryst

>  <RI>
0

>  <Rbt.Current_Directory>
/home/itssahil/PROJECTS/Mol_Feturizer/New_Systems/rnas/1eht

>  <Rbt.Executable>
rbdock ($Id: //depot/dev/client3/rdock/2013.1/src/exe/rbdock.cxx#4 $)

>  <Rbt.Library>
libRbt.so (2013.1, Build901 2013/11/27)

>  <Rbt.Parameter_File>
/export/apps/rDock/src/rDock_2013.1_src/data/scripts/dock_solv.prm

>  <Rbt.Receptor>
prm/pocket_docking_6.prm

>  <SCORE>
-39.2097

>  <SCORE.INTER>
-39.2097

>  <SCORE.INTER.CONST>
1

>  <SCORE.INTER.POLAR>
-1.91669

>  <SCORE.INTER.ROT>
0

>  <SCORE.INTER.SOLV>
9.78014

>  <SCORE.INTER.VDW>
-26.6109

>  <SCORE.INTER.norm>
-3.01613

>  <SCORE.INTRA>
0

>  <SCORE.INTRA.DIHEDRAL>
0

>  <SCORE.INTRA.DIHEDRAL.0>
0

>  <SCORE.INTRA.POLAR>
0

>  <SCORE.INTRA.POLAR.0>
0

>  <SCORE.INTRA.REPUL>
0

>  <SCORE.INTRA.REPUL.0>
0

>  <SCORE.INTRA.SOLV>
0

>  <SCORE.INTRA.SOLV.lig_0>
-12.9768

>  <SCORE.INTRA.VDW>
0

>  <SCORE.INTRA.VDW.0>
0

>  <SCORE.INTRA.norm>
0

>  <SCORE.RESTR>
0

>  <SCORE.RESTR.CAVITY>
0

>  <SCORE.RESTR.norm>
0

>  <SCORE.SYSTEM>
0

>  <SCORE.SYSTEM.CONST>
0

>  <SCORE.SYSTEM.DIHEDRAL>
0

>  <SCORE.SYSTEM.SOLV>
0

>  <SCORE.SYSTEM.norm>
0

>  <SCORE.heavy>
13

>  <SCORE.norm>
-3.01613

>  <RMSD>
0.704

$$$$
1eht cryst
 OpenBabel11021811383D
libRbt.so/2013.1/901 2013/11/27
 13 14  0  0  0  0  0  0  0  0999 V2000
   -4.8136   -7.8768   10.5468 C   0  0  0  0  0  0  0  0  0  0  0  0
   -5.2650   -7.0103   11.5382 N   0  0  0  0  0  0  0  0  0  0  0  0
   -5.6319   -7.5448   12.7463 C   0  0  0  0  0  0  0  0  0  0  0  0
   -5.5366   -8.7687   12.8571 O   0  0  0  0  0  0  0  0  0  0  0  0
   -6.0944   -6.8162   13.8129 N   0  0  0  0  0  0  0  0  0  0  0  0
   -6.4580   -7.3790   15.0253 C   0  0  0  0  0  0  0  0  0  0  0  0
   -6.1608   -5.4784   13.5571 C   0  0  0  0  0  0  0  0  0  0  0  0
   -5.7941   -4.9571   12.3503 C   0  0  0  0  0  0  0  0  0  0  0  0
   -5.3168   -5.6860   11.2459 C   0  0  0  0  0  0  0  0  0  0  0  0
   -4.9738   -5.2656   10.1419 O   0  0  0  0  0  0  0  0  0  0  0  0
   -5.9918   -3.5871   12.4563 N   0  0  0  0  0  0  0  0  0  0  0  0
   -6.4612   -3.3746   13.7085 C   0  0  0  0  0  0  0  0  0  0  0  0
   -6.5818   -4.4661   14.4123 N   0  0  0  0  0  0  0  0  0  0  0  0
  1  2  1  0  0  0  0
  2  9  1  0  0  0  0
  2  3  1  0  0  0  0
  3  5  1  0  0  0  0
  3  4  2  0  0  0  0
  5  6  1  0  0  0  0
  5  7  1  0  0  0  0
  7  8  2  0  0  0  0
  7 13  1  0  0  0  0
  8  9  1  0  0  0  0
  8 11  1  0  0  0  0
  9 10  2  0  0  0  0
 11 12  1  0  0  0  0
 12 13  2  0  0  0  0
M  END
>  <CHROM.1>
-5.76100426,-6.05828822,12.61913812,-0.76283647,1.21359163,-0.31668966

>  <Name>
1eht cryst

>  <RI>
0

>  <Rbt.Current_Directory>
/home/itssahil/PROJECTS/Mol_Feturizer/New_Systems/rnas/1eht

>  <Rbt.Executable>
rbdock ($Id: //depot/dev/client3/rdock/2013.1/src/exe/rbdock.cxx#4 $)

>  <Rbt.Library>
libRbt.so (2013.1, Build901 2013/11/27)

>  <Rbt.Parameter_File>
/export/apps/rDock/src/rDock_2013.1_src/data/scripts/dock_solv.prm

>  <Rbt.Receptor>
prm/pocket_docking_6.prm

>  <SCORE>
-39.2006

>  <SCORE.INTER>
-39.2006

>  <SCORE.INTER.CONST>
1

>  <SCORE.INTER.POLAR>
-1.92689

>  <SCORE.INTER.ROT>
0

>  <SCORE.INTER.SOLV>
9.79935

>  <SCORE.INTER.VDW>
-26.5772

>  <SCORE.INTER.norm>
-3.01543

>  <SCORE.INTRA>
0

>  <SCORE.INTRA.DIHEDRAL>
0

>  <SCORE.INTRA.DIHEDRAL.0>
0

>  <SCORE.INTRA.POLAR>
0

>  <SCORE.INTRA.POLAR.0>
0

>  <SCORE.INTRA.REPUL>
0

>  <SCORE.INTRA.REPUL.0>
0

>  <SCORE.INTRA.SOLV>
0

>  <SCORE.INTRA.SOLV.lig_0>
-12.9768

>  <SCORE.INTRA.VDW>
0

>  <SCORE.INTRA.VDW.0>
0

>  <SCORE.INTRA.norm>
0

>  <SCORE.RESTR>
0

>  <SCORE.RESTR.CAVITY>
0

>  <SCORE.RESTR.norm>
0

>  <SCORE.SYSTEM>
0

>  <SCORE.SYSTEM.CONST>
0

>  <SCORE.SYSTEM.DIHEDRAL>
0

>  <SCORE.SYSTEM.SOLV>
0

>  <SCORE.SYSTEM.norm>
0

>  <SCORE.heavy>
13

>  <SCORE.norm>
-3.01543

>  <RMSD>
0.704

$$$$
1eht cryst
 OpenBabel11021811383D
libRbt.so/2013.1/901 2013/11/27
 13 14  0  0  0  0  0  0  0  0999 V2000
   -4.8125   -7.8758   10.5470 C   0  0  0  0  0  0  0  0  0  0  0  0
   -5.2688   -7.0099   11.5367 N   0  0  0  0  0  0  0  0  0  0  0  0
   -5.6434   -7.5453   12.7421 C   0  0  0  0  0  0  0  0  0  0  0  0
   -5.5499   -8.7694   12.8521 O   0  0  0  0  0  0  0  0  0  0  0  0
   -6.1114   -6.8174   13.8067 N   0  0  0  0  0  0  0  0  0  0  0  0
   -6.4827   -7.3810   15.0164 C   0  0  0  0  0  0  0  0  0  0  0  0
   -6.1749   -5.4792   13.5520 C   0  0  0  0  0  0  0  0  0  0  0  0
   -5.8005   -4.9570   12.3479 C   0  0  0  0  0  0  0  0  0  0  0  0
   -5.3175   -5.6853   11.2456 C   0  0  0  0  0  0  0  0  0  0  0  0
   -4.9676   -5.2640   10.1440 O   0  0  0  0  0  0  0  0  0  0  0  0
   -5.9975   -3.5869   12.4541 N   0  0  0  0  0  0  0  0  0  0  0  0
   -6.4740   -3.3753   13.7038 C   0  0  0  0  0  0  0  0  0  0  0  0
   -6.5998   -4.4674   14.4057 N   0  0  0  0  0  0  0  0  0  0  0  0
  1  2  1  0  0  0  0
  2  9  1  0  0  0  0
  2  3  1  0  0  0  0
  3  5  1  0  0  0  0
  3  4  2  0  0  0  0
  5  6  1  0  0  0  0
  5  7  1  0  0  0  0
  7  8  2  0  0  0  0
  7 13  1  0  0  0  0
  8  9  1  0  0  0  0
  8 11  1  0  0  0  0
  9 10  2  0  0  0  0
 11 12  1  0  0  0  0
 12 13  2  0  0  0  0
M  END
>  <CHROM.1>
-5.77015452,-6.05851825,12.61572520,-0.77073496,1.20831322,-0.30824726

>  <Name>
1eht cryst

>  <RI>
0

>  <Rbt.Current_Directory>
/home/itssahil/PROJECTS/Mol_Feturizer/New_Systems/rnas/1eht

>  <Rbt.Executable>
rbdock ($Id: //depot/dev/client3/rdock/2013.1/src/exe/rbdock.cxx#4 $)

>  <Rbt.Library>
libRbt.so (2013.1, Build901 2013/11/27)

>  <Rbt.Parameter_File>
/export/apps/rDock/src/rDock_2013.1_src/data/scripts/dock_solv.prm

>  <Rbt.Receptor>
prm/blind_docking_20.prm

>  <SCORE>
-39.1772

>  <SCORE.INTER>
-39.1772

>  <SCORE.INTER.CONST>
1

>  <SCORE.INTER.POLAR>
-1.93456

>  <SCORE.INTER.ROT>
0

>  <SCORE.INTER.SOLV>
9.80474

>  <SCORE.INTER.VDW>
-26.5378

>  <SCORE.INTER.norm>
-3.01363

>  <SCORE.INTRA>
0

>  <SCORE.INTRA.DIHEDRAL>
0

>  <SCORE.INTRA.DIHEDRAL.0>
0

>  <SCORE.INTRA.POLAR>
0

>  <SCORE.INTRA.POLAR.0>
0

>  <SCORE.INTRA.REPUL>
0

>  <SCORE.INTRA.REPUL.0>
0

>  <SCORE.INTRA.SOLV>
0

>  <SCORE.INTRA.SOLV.lig_0>
-12.9768

>  <SCORE.INTRA.VDW>
0

>  <SCORE.INTRA.VDW.0>
0

>  <SCORE.INTRA.norm>
0

>  <SCORE.RESTR>
0

>  <SCORE.RESTR.CAVITY>
0

>  <SCORE.RESTR.norm>
0

>  <SCORE.SYSTEM>
0

>  <SCORE.SYSTEM.CONST>
0

>  <SCORE.SYSTEM.DIHEDRAL>
0

>  <SCORE.SYSTEM.SOLV>
0

>  <SCORE.SYSTEM.norm>
0

>  <SCORE.heavy>
13

>  <SCORE.norm>
-3.01363

>  <RMSD>
0.705

$$$$
1eht cryst
 OpenBabel11021811383D
libRbt.so/2013.1/901 2013/11/27
 13 14  0  0  0  0  0  0  0  0999 V2000
   -4.7940   -7.8706   10.5537 C   0  0  0  0  0  0  0  0  0  0  0  0
   -5.2526   -7.0065   11.5439 N   0  0  0  0  0  0  0  0  0  0  0  0
   -5.6265   -7.5436   12.7486 C   0  0  0  0  0  0  0  0  0  0  0  0
   -5.5304   -8.7675   12.8578 O   0  0  0  0  0  0  0  0  0  0  0  0
   -6.0964   -6.8175   13.8136 N   0  0  0  0  0  0  0  0  0  0  0  0
   -6.4670   -7.3828   15.0228 C   0  0  0  0  0  0  0  0  0  0  0  0
   -6.1628   -5.4793   13.5599 C   0  0  0  0  0  0  0  0  0  0  0  0
   -5.7891   -4.9553   12.3563 C   0  0  0  0  0  0  0  0  0  0  0  0
   -5.3041   -5.6817   11.2536 C   0  0  0  0  0  0  0  0  0  0  0  0
   -4.9547   -5.2589   10.1526 O   0  0  0  0  0  0  0  0  0  0  0  0
   -5.9891   -3.5857   12.4635 N   0  0  0  0  0  0  0  0  0  0  0  0
   -6.4666   -3.3761   13.7132 C   0  0  0  0  0  0  0  0  0  0  0  0
   -6.5903   -4.4690   14.4142 N   0  0  0  0  0  0  0  0  0  0  0  0
  1  2  1  0  0  0  0
  2  9  1  0  0  0  0
  2  3  1  0  0  0  0
  3  5  1  0  0  0  0
  3  4  2  0  0  0  0
  5  6  1  0  0  0  0
  5  7  1  0  0  0  0
  7  8  2  0  0  0  0
  7 13  1  0  0  0  0
  8  9  1  0  0  0  0
  8 11  1  0  0  0  0
  9 10  2  0  0  0  0
 11 12  1  0  0  0  0
 12 13  2  0  0  0  0
M  END
>  <CHROM.1>
-5.75646081,-6.05697244,12.62336176,-0.76520676,1.20728578,-0.31266709

>  <Name>
1eht cryst

>  <RI>
0

>  <Rbt.Current_Directory>
/home/itssahil/PROJECTS/Mol_Feturizer/New_Systems/rnas/1eht

>  <Rbt.Executable>
rbdock ($Id: //depot/dev/client3/rdock/2013.1/src/exe/rbdock.cxx#4 $)

>  <Rbt.Library>
libRbt.so (2013.1, Build901 2013/11/27)

>  <Rbt.Parameter_File>
/export/apps/rDock/src/rDock_2013.1_src/data/scripts/dock_solv.prm

>  <Rbt.Receptor>
prm/blind_docking_40.prm

>  <SCORE>
-39.1583

>  <SCORE.INTER>
-39.1583

>  <SCORE.INTER.CONST>
1

>  <SCORE.INTER.POLAR>
-1.93043

>  <SCORE.INTER.ROT>
0

>  <SCORE.INTER.SOLV>
9.81086

>  <SCORE.INTER.VDW>
-26.5411

>  <SCORE.INTER.norm>
-3.01218

>  <SCORE.INTRA>
0

>  <SCORE.INTRA.DIHEDRAL>
0

>  <SCORE.INTRA.DIHEDRAL.0>
0

>  <SCORE.INTRA.POLAR>
0

>  <SCORE.INTRA.POLAR.0>
0

>  <SCORE.INTRA.REPUL>
0

>  <SCORE.INTRA.REPUL.0>
0

>  <SCORE.INTRA.SOLV>
0

>  <SCORE.INTRA.SOLV.lig_0>
-12.9768

>  <SCORE.INTRA.VDW>
0

>  <SCORE.INTRA.VDW.0>
0

>  <SCORE.INTRA.norm>
0

>  <SCORE.RESTR>
0

>  <SCORE.RESTR.CAVITY>
0

>  <SCORE.RESTR.norm>
0

>  <SCORE.SYSTEM>
0

>  <SCORE.SYSTEM.CONST>
0

>  <SCORE.SYSTEM.DIHEDRAL>
0

>  <SCORE.SYSTEM.SOLV>
0

>  <SCORE.SYSTEM.norm>
0

>  <SCORE.heavy>
13

>  <SCORE.norm>
-3.01218

>  <RMSD>
0.705

$$$$
1eht cryst
 OpenBabel11021811383D
libRbt.so/2013.1/901 2013/11/27
 13 14  0  0  0  0  0  0  0  0999 V2000
   -4.7284   -7.6295   10.6012 C   0  0  0  0  0  0  0  0  0  0  0  0
   -5.2308   -6.8291   11.6231 N   0  0  0  0  0  0  0  0  0  0  0  0
   -5.6133   -7.4361   12.7914 C   0  0  0  0  0  0  0  0  0  0  0  0
   -5.4849   -8.6610   12.8416 O   0  0  0  0  0  0  0  0  0  0  0  0
   -6.1247   -6.7776   13.8810 N   0  0  0  0  0  0  0  0  0  0  0  0
   -6.5032   -7.4130   15.0523 C   0  0  0  0  0  0  0  0  0  0  0  0
   -6.2237   -5.4307   13.6928 C   0  0  0  0  0  0  0  0  0  0  0  0
   -5.8411   -4.8368   12.5250 C   0  0  0  0  0  0  0  0  0  0  0  0
   -5.3139   -5.4933   11.3981 C   0  0  0  0  0  0  0  0  0  0  0  0
   -4.9547   -5.0062   10.3272 O   0  0  0  0  0  0  0  0  0  0  0  0
   -6.0817   -3.4803   12.6959 N   0  0  0  0  0  0  0  0  0  0  0  0
   -6.5898   -3.3469   13.9440 C   0  0  0  0  0  0  0  0  0  0  0  0
   -6.6965   -4.4767   14.5870 N   0  0  0  0  0  0  0  0  0  0  0  0
  1  2  1  0  0  0  0
  2  9  1  0  0  0  0
  2  3  1  0  0  0  0
  3  5  1  0  0  0  0
  3  4  2  0  0  0  0
  5  6  1  0  0  0  0
  5  7  1  0  0  0  0
  7  8  2  0  0  0  0
  7 13  1  0  0  0  0
  8  9  1  0  0  0  0
  8 11  1  0  0  0  0
  9 10  2  0  0  0  0
 11 12  1  0  0  0  0
 12 13  2  0  0  0  0
M  END
>  <CHROM.1>
-5.78267430,-5.94920836,12.73753929,-0.71088414,1.17910895,-0.31308401

>  <Name>
1eht cryst

>  <RI>
0

>  <Rbt.Current_Directory>
/home/itssahil/PROJECTS/Mol_Feturizer/New_Systems/rnas/1eht

>  <Rbt.Executable>
rbdock ($Id: //depot/dev/client3/rdock/2013.1/src/exe/rbdock.cxx#4 $)

>  <Rbt.Library>
libRbt.so (2013.1, Build901 2013/11/27)

>  <Rbt.Parameter_File>
/export/apps/rDock/src/rDock_2013.1_src/data/scripts/dock_solv.prm

>  <Rbt.Receptor>
prm/blind_docking_80.prm

>  <SCORE>
-38.66

>  <SCORE.INTER>
-38.6633

>  <SCORE.INTER.CONST>
1

>  <SCORE.INTER.POLAR>
-1.75037

>  <SCORE.INTER.ROT>
0

>  <SCORE.INTER.SOLV>
10.0746

>  <SCORE.INTER.VDW>
-26.8992

>  <SCORE.INTER.norm>
-2.9741

>  <SCORE.INTRA>
0

>  <SCORE.INTRA.DIHEDRAL>
0

>  <SCORE.INTRA.DIHEDRAL.0>
0

>  <SCORE.INTRA.POLAR>
0

>  <SCORE.INTRA.POLAR.0>
0

>  <SCORE.INTRA.REPUL>
0

>  <SCORE.INTRA.REPUL.0>
0

>  <SCORE.INTRA.SOLV>
0

>  <SCORE.INTRA.SOLV.lig_0>
-12.9768

>  <SCORE.INTRA.VDW>
0

>  <SCORE.INTRA.VDW.0>
0

>  <SCORE.INTRA.norm>
0

>  <SCORE.RESTR>
0.00332624

>  <SCORE.RESTR.CAVITY>
0.00332624

>  <SCORE.RESTR.norm>
0.000255865

>  <SCORE.SYSTEM>
0

>  <SCORE.SYSTEM.CONST>
0

>  <SCORE.SYSTEM.DIHEDRAL>
0

>  <SCORE.SYSTEM.SOLV>
0

>  <SCORE.SYSTEM.norm>
0

>  <SCORE.heavy>
13

>  <SCORE.norm>
-2.97384

>  <RMSD>
0.705

$$$$
1eht cryst
 OpenBabel11021811383D
libRbt.so/2013.1/901 2013/11/27
 13 14  0  0  0  0  0  0  0  0999 V2000
   -4.6589   -7.6295   10.6144 C   0  0  0  0  0  0  0  0  0  0  0  0
   -5.1849   -6.8306   11.6257 N   0  0  0  0  0  0  0  0  0  0  0  0
   -5.5688   -7.4358   12.7944 C   0  0  0  0  0  0  0  0  0  0  0  0
   -5.4205   -8.6580   12.8545 O   0  0  0  0  0  0  0  0  0  0  0  0
   -6.1021   -6.7785   13.8742 N   0  0  0  0  0  0  0  0  0  0  0  0
   -6.4815   -7.4120   15.0461 C   0  0  0  0  0  0  0  0  0  0  0  0
   -6.2217   -5.4347   13.6755 C   0  0  0  0  0  0  0  0  0  0  0  0
   -5.8373   -4.8426   12.5074 C   0  0  0  0  0  0  0  0  0  0  0  0
   -5.2880   -5.4979   11.3904 C   0  0  0  0  0  0  0  0  0  0  0  0
   -4.9263   -5.0123   10.3197 O   0  0  0  0  0  0  0  0  0  0  0  0
   -6.1023   -3.4892   12.6663 N   0  0  0  0  0  0  0  0  0  0  0  0
   -6.6250   -3.3557   13.9083 C   0  0  0  0  0  0  0  0  0  0  0  0
   -6.7193   -4.4826   14.5582 N   0  0  0  0  0  0  0  0  0  0  0  0
  1  2  1  0  0  0  0
  2  9  1  0  0  0  0
  2  3  1  0  0  0  0
  3  5  1  0  0  0  0
  3  4  2  0  0  0  0
  5  6  1  0  0  0  0
  5  7  1  0  0  0  0
  7  8  2  0  0  0  0
  7 13  1  0  0  0  0
  8  9  1  0  0  0  0
  8 11  1  0  0  0  0
  9 10  2  0  0  0  0
 11 12  1  0  0  0  0
 12 13  2  0  0  0  0
M  END
>  <CHROM.1>
-5.76247921,-5.95235782,12.72832597,-0.67847001,1.16425586,-0.34994716

>  <Name>
1eht cryst

>  <RI>
0

>  <Rbt.Current_Directory>
/home/itssahil/PROJECTS/Mol_Feturizer/New_Systems/rnas/1eht

>  <Rbt.Executable>
rbdock ($Id: //depot/dev/client3/rdock/2013.1/src/exe/rbdock.cxx#4 $)

>  <Rbt.Library>
libRbt.so (2013.1, Build901 2013/11/27)

>  <Rbt.Parameter_File>
/export/apps/rDock/src/rDock_2013.1_src/data/scripts/dock_solv.prm

>  <Rbt.Receptor>
prm/blind_docking_80.prm

>  <SCORE>
-38.6511

>  <SCORE.INTER>
-38.6511

>  <SCORE.INTER.CONST>
1

>  <SCORE.INTER.POLAR>
-1.7692

>  <SCORE.INTER.ROT>
0

>  <SCORE.INTER.SOLV>
10.0607

>  <SCORE.INTER.VDW>
-26.8236

>  <SCORE.INTER.norm>
-2.97316

>  <SCORE.INTRA>
0

>  <SCORE.INTRA.DIHEDRAL>
0

>  <SCORE.INTRA.DIHEDRAL.0>
0

>  <SCORE.INTRA.POLAR>
0

>  <SCORE.INTRA.POLAR.0>
0

>  <SCORE.INTRA.REPUL>
0

>  <SCORE.INTRA.REPUL.0>
0

>  <SCORE.INTRA.SOLV>
0

>  <SCORE.INTRA.SOLV.lig_0>
-12.9768

>  <SCORE.INTRA.VDW>
0

>  <SCORE.INTRA.VDW.0>
0

>  <SCORE.INTRA.norm>
0

>  <SCORE.RESTR>
0

>  <SCORE.RESTR.CAVITY>
0

>  <SCORE.RESTR.norm>
0

>  <SCORE.SYSTEM>
0

>  <SCORE.SYSTEM.CONST>
0

>  <SCORE.SYSTEM.DIHEDRAL>
0

>  <SCORE.SYSTEM.SOLV>
0

>  <SCORE.SYSTEM.norm>
0

>  <SCORE.heavy>
13

>  <SCORE.norm>
-2.97316

>  <RMSD>
0.705

$$$$
1eht cryst
 OpenBabel11021811383D
libRbt.so/2013.1/901 2013/11/27
 13 14  0  0  0  0  0  0  0  0999 V2000
   -4.8148   -7.8758   10.5467 C   0  0  0  0  0  0  0  0  0  0  0  0
   -5.2703   -7.0104   11.5372 N   0  0  0  0  0  0  0  0  0  0  0  0
   -5.6463   -7.5466   12.7417 C   0  0  0  0  0  0  0  0  0  0  0  0
   -5.5548   -8.7709   12.8503 O   0  0  0  0  0  0  0  0  0  0  0  0
   -6.1138   -6.8192   13.8070 N   0  0  0  0  0  0  0  0  0  0  0  0
   -6.4866   -7.3837   15.0158 C   0  0  0  0  0  0  0  0  0  0  0  0
   -6.1751   -5.4807   13.5538 C   0  0  0  0  0  0  0  0  0  0  0  0
   -5.7993   -4.9576   12.3505 C   0  0  0  0  0  0  0  0  0  0  0  0
   -5.3169   -5.6853   11.2476 C   0  0  0  0  0  0  0  0  0  0  0  0
   -4.9657   -5.2633   10.1468 O   0  0  0  0  0  0  0  0  0  0  0  0
   -5.9943   -3.5873   12.4583 N   0  0  0  0  0  0  0  0  0  0  0  0
   -6.4712   -3.3765   13.7080 C   0  0  0  0  0  0  0  0  0  0  0  0
   -6.5990   -4.4692   14.4085 N   0  0  0  0  0  0  0  0  0  0  0  0
  1  2  1  0  0  0  0
  2  9  1  0  0  0  0
  2  3  1  0  0  0  0
  3  5  1  0  0  0  0
  3  4  2  0  0  0  0
  5  6  1  0  0  0  0
  5  7  1  0  0  0  0
  7  8  2  0  0  0  0
  7 13  1  0  0  0  0
  8  9  1  0  0  0  0
  8 11  1  0  0  0  0
  9 10  2  0  0  0  0
 11 12  1  0  0  0  0
 12 13  2  0  0  0  0
M  END
>  <CHROM.1>
-5.77080517,-6.05948034,12.61706585,-0.77527989,1.20826913,-0.30280688

>  <Name>
1eht cryst

>  <RI>
0

>  <Rbt.Current_Directory>
/home/itssahil/PROJECTS/Mol_Feturizer/New_Systems/rnas/1eht

>  <Rbt.Executable>
rbdock ($Id: //depot/dev/client3/rdock/2013.1/src/exe/rbdock.cxx#4 $)

>  <Rbt.Library>
libRbt.so (2013.1, Build901 2013/11/27)

>  <Rbt.Parameter_File>
/export/apps/rDock/src/rDock_2013.1_src/data/scripts/dock_solv.prm

>  <Rbt.Receptor>
prm/pocket_docking_3.prm

>  <SCORE>
-39.1795

>  <SCORE.INTER>
-39.1795

>  <SCORE.INTER.CONST>
1

>  <SCORE.INTER.POLAR>
-1.93506

>  <SCORE.INTER.ROT>
0

>  <SCORE.INTER.SOLV>
9.8063

>  <SCORE.INTER.VDW>
-26.5382

>  <SCORE.INTER.norm>
-3.01381

>  <SCORE.INTRA>
0

>  <SCORE.INTRA.DIHEDRAL>
0

>  <SCORE.INTRA.DIHEDRAL.0>
0

>  <SCORE.INTRA.POLAR>
0

>  <SCORE.INTRA.POLAR.0>
0

>  <SCORE.INTRA.REPUL>
0

>  <SCORE.INTRA.REPUL.0>
0

>  <SCORE.INTRA.SOLV>
0

>  <SCORE.INTRA.SOLV.lig_0>
-12.9768

>  <SCORE.INTRA.VDW>
0

>  <SCORE.INTRA.VDW.0>
0

>  <SCORE.INTRA.norm>
0

>  <SCORE.RESTR>
0

>  <SCORE.RESTR.CAVITY>
0

>  <SCORE.RESTR.norm>
0

>  <SCORE.SYSTEM>
0

>  <SCORE.SYSTEM.CONST>
0

>  <SCORE.SYSTEM.DIHEDRAL>
0

>  <SCORE.SYSTEM.SOLV>
0

>  <SCORE.SYSTEM.norm>
0

>  <SCORE.heavy>
13

>  <SCORE.norm>
-3.01381

>  <RMSD>
0.705

$$$$
1eht cryst
 OpenBabel11021811383D
libRbt.so/2013.1/901 2013/11/27
 13 14  0  0  0  0  0  0  0  0999 V2000
   -4.8096   -7.8718   10.5500 C   0  0  0  0  0  0  0  0  0  0  0  0
   -5.2679   -7.0071   11.5399 N   0  0  0  0  0  0  0  0  0  0  0  0
   -5.6380   -7.5432   12.7462 C   0  0  0  0  0  0  0  0  0  0  0  0
   -5.5391   -8.7668   12.8571 O   0  0  0  0  0  0  0  0  0  0  0  0
   -6.1072   -6.8165   13.8112 N   0  0  0  0  0  0  0  0  0  0  0  0
   -6.4739   -7.3808   15.0219 C   0  0  0  0  0  0  0  0  0  0  0  0
   -6.1769   -5.4788   13.5556 C   0  0  0  0  0  0  0  0  0  0  0  0
   -5.8070   -4.9559   12.3504 C   0  0  0  0  0  0  0  0  0  0  0  0
   -5.3228   -5.6829   11.2478 C   0  0  0  0  0  0  0  0  0  0  0  0
   -4.9767   -5.2610   10.1453 O   0  0  0  0  0  0  0  0  0  0  0  0
   -6.0096   -3.5866   12.4560 N   0  0  0  0  0  0  0  0  0  0  0  0
   -6.4849   -3.3761   13.7064 C   0  0  0  0  0  0  0  0  0  0  0  0
   -6.6047   -4.4682   14.4093 N   0  0  0  0  0  0  0  0  0  0  0  0
  1  2  1  0  0  0  0
  2  9  1  0  0  0  0
  2  3  1  0  0  0  0
  3  5  1  0  0  0  0
  3  4  2  0  0  0  0
  5  6  1  0  0  0  0
  5  7  1  0  0  0  0
  7  8  2  0  0  0  0
  7 13  1  0  0  0  0
  8  9  1  0  0  0  0
  8 11  1  0  0  0  0
  9 10  2  0  0  0  0
 11 12  1  0  0  0  0
 12 13  2  0  0  0  0
M  END
>  <CHROM.1>
-5.77140283,-6.05705389,12.61902516,-0.75762495,1.20868245,-0.32126045

>  <Name>
1eht cryst

>  <RI>
0

>  <Rbt.Current_Directory>
/home/itssahil/PROJECTS/Mol_Feturizer/New_Systems/rnas/1eht

>  <Rbt.Executable>
rbdock ($Id: //depot/dev/client3/rdock/2013.1/src/exe/rbdock.cxx#4 $)

>  <Rbt.Library>
libRbt.so (2013.1, Build901 2013/11/27)

>  <Rbt.Parameter_File>
/export/apps/rDock/src/rDock_2013.1_src/data/scripts/dock_solv.prm

>  <Rbt.Receptor>
prm/pocket_docking_4.prm

>  <SCORE>
-39.1751

>  <SCORE.INTER>
-39.1751

>  <SCORE.INTER.CONST>
1

>  <SCORE.INTER.POLAR>
-1.92608

>  <SCORE.INTER.ROT>
0

>  <SCORE.INTER.SOLV>
9.79838

>  <SCORE.INTER.VDW>
-26.5626

>  <SCORE.INTER.norm>
-3.01347

>  <SCORE.INTRA>
0

>  <SCORE.INTRA.DIHEDRAL>
0

>  <SCORE.INTRA.DIHEDRAL.0>
0

>  <SCORE.INTRA.POLAR>
0

>  <SCORE.INTRA.POLAR.0>
0

>  <SCORE.INTRA.REPUL>
0

>  <SCORE.INTRA.REPUL.0>
0

>  <SCORE.INTRA.SOLV>
0

>  <SCORE.INTRA.SOLV.lig_0>
-12.9768

>  <SCORE.INTRA.VDW>
0

>  <SCORE.INTRA.VDW.0>
0

>  <SCORE.INTRA.norm>
0

>  <SCORE.RESTR>
0

>  <SCORE.RESTR.CAVITY>
0

>  <SCORE.RESTR.norm>
0

>  <SCORE.SYSTEM>
0

>  <SCORE.SYSTEM.CONST>
0

>  <SCORE.SYSTEM.DIHEDRAL>
0

>  <SCORE.SYSTEM.SOLV>
0

>  <SCORE.SYSTEM.norm>
0

>  <SCORE.heavy>
13

>  <SCORE.norm>
-3.01347

>  <RMSD>
0.705

$$$$
1eht cryst
 OpenBabel11021811383D
libRbt.so/2013.1/901 2013/11/27
 13 14  0  0  0  0  0  0  0  0999 V2000
   -4.8081   -7.8722   10.5488 C   0  0  0  0  0  0  0  0  0  0  0  0
   -5.2643   -7.0063   11.5386 N   0  0  0  0  0  0  0  0  0  0  0  0
   -5.6362   -7.5412   12.7449 C   0  0  0  0  0  0  0  0  0  0  0  0
   -5.5406   -8.7651   12.8557 O   0  0  0  0  0  0  0  0  0  0  0  0
   -6.1036   -6.8132   13.8096 N   0  0  0  0  0  0  0  0  0  0  0  0
   -6.4722   -7.3764   15.0203 C   0  0  0  0  0  0  0  0  0  0  0  0
   -6.1696   -5.4754   13.5539 C   0  0  0  0  0  0  0  0  0  0  0  0
   -5.7979   -4.9535   12.3488 C   0  0  0  0  0  0  0  0  0  0  0  0
   -5.3155   -5.6819   11.2464 C   0  0  0  0  0  0  0  0  0  0  0  0
   -4.9679   -5.2610   10.1440 O   0  0  0  0  0  0  0  0  0  0  0  0
   -5.9968   -3.5836   12.4543 N   0  0  0  0  0  0  0  0  0  0  0  0
   -6.4718   -3.3718   13.7046 C   0  0  0  0  0  0  0  0  0  0  0  0
   -6.5949   -4.4635   14.4075 N   0  0  0  0  0  0  0  0  0  0  0  0
  1  2  1  0  0  0  0
  2  9  1  0  0  0  0
  2  3  1  0  0  0  0
  3  5  1  0  0  0  0
  3  4  2  0  0  0  0
  5  6  1  0  0  0  0
  5  7  1  0  0  0  0
  7  8  2  0  0  0  0
  7 13  1  0  0  0  0
  8  9  1  0  0  0  0
  8 11  1  0  0  0  0
  9 10  2  0  0  0  0
 11 12  1  0  0  0  0
 12 13  2  0  0  0  0
M  END
>  <CHROM.1>
-5.76543243,-6.05475486,12.61753380,-0.76525941,1.20929300,-0.31416534

>  <Name>
1eht cryst

>  <RI>
0

>  <Rbt.Current_Directory>
/home/itssahil/PROJECTS/Mol_Feturizer/New_Systems/rnas/1eht

>  <Rbt.Executable>
rbdock ($Id: //depot/dev/client3/rdock/2013.1/src/exe/rbdock.cxx#4 $)

>  <Rbt.Library>
libRbt.so (2013.1, Build901 2013/11/27)

>  <Rbt.Parameter_File>
/export/apps/rDock/src/rDock_2013.1_src/data/scripts/dock_solv.prm

>  <Rbt.Receptor>
prm/pocket_docking_5.prm

>  <SCORE>
-39.1985

>  <SCORE.INTER>
-39.1985

>  <SCORE.INTER.CONST>
1

>  <SCORE.INTER.POLAR>
-1.92935

>  <SCORE.INTER.ROT>
0

>  <SCORE.INTER.SOLV>
9.80967

>  <SCORE.INTER.VDW>
-26.5711

>  <SCORE.INTER.norm>
-3.01527

>  <SCORE.INTRA>
0

>  <SCORE.INTRA.DIHEDRAL>
0

>  <SCORE.INTRA.DIHEDRAL.0>
0

>  <SCORE.INTRA.POLAR>
0

>  <SCORE.INTRA.POLAR.0>
0

>  <SCORE.INTRA.REPUL>
0

>  <SCORE.INTRA.REPUL.0>
0

>  <SCORE.INTRA.SOLV>
0

>  <SCORE.INTRA.SOLV.lig_0>
-12.9768

>  <SCORE.INTRA.VDW>
0

>  <SCORE.INTRA.VDW.0>
0

>  <SCORE.INTRA.norm>
0

>  <SCORE.RESTR>
0

>  <SCORE.RESTR.CAVITY>
0

>  <SCORE.RESTR.norm>
0

>  <SCORE.SYSTEM>
0

>  <SCORE.SYSTEM.CONST>
0

>  <SCORE.SYSTEM.DIHEDRAL>
0

>  <SCORE.SYSTEM.SOLV>
0

>  <SCORE.SYSTEM.norm>
0

>  <SCORE.heavy>
13

>  <SCORE.norm>
-3.01527

>  <RMSD>
0.705

$$$$
1eht cryst
 OpenBabel11021811383D
libRbt.so/2013.1/901 2013/11/27
 13 14  0  0  0  0  0  0  0  0999 V2000
   -4.8096   -7.8734   10.5485 C   0  0  0  0  0  0  0  0  0  0  0  0
   -5.2664   -7.0069   11.5375 N   0  0  0  0  0  0  0  0  0  0  0  0
   -5.6415   -7.5416   12.7430 C   0  0  0  0  0  0  0  0  0  0  0  0
   -5.5480   -8.7656   12.8538 O   0  0  0  0  0  0  0  0  0  0  0  0
   -6.1099   -6.8131   13.8070 N   0  0  0  0  0  0  0  0  0  0  0  0
   -6.4817   -7.3761   15.0169 C   0  0  0  0  0  0  0  0  0  0  0  0
   -6.1734   -5.4751   13.5515 C   0  0  0  0  0  0  0  0  0  0  0  0
   -5.7985   -4.9536   12.3472 C   0  0  0  0  0  0  0  0  0  0  0  0
   -5.3150   -5.6824   11.2456 C   0  0  0  0  0  0  0  0  0  0  0  0
   -4.9646   -5.2618   10.1439 O   0  0  0  0  0  0  0  0  0  0  0  0
   -5.9955   -3.5834   12.4526 N   0  0  0  0  0  0  0  0  0  0  0  0
   -6.4727   -3.3711   13.7020 C   0  0  0  0  0  0  0  0  0  0  0  0
   -6.5987   -4.4628   14.4045 N   0  0  0  0  0  0  0  0  0  0  0  0
  1  2  1  0  0  0  0
  2  9  1  0  0  0  0
  2  3  1  0  0  0  0
  3  5  1  0  0  0  0
  3  4  2  0  0  0  0
  5  6  1  0  0  0  0
  5  7  1  0  0  0  0
  7  8  2  0  0  0  0
  7 13  1  0  0  0  0
  8  9  1  0  0  0  0
  8 11  1  0  0  0  0
  9 10  2  0  0  0  0
 11 12  1  0  0  0  0
 12 13  2  0  0  0  0
M  END
>  <CHROM.1>
-5.76822569,-6.05491171,12.61574574,-0.77102845,1.20789680,-0.30854509

>  <Name>
1eht cryst

>  <RI>
0

>  <Rbt.Current_Directory>
/home/itssahil/PROJECTS/Mol_Feturizer/New_Systems/rnas/1eht

>  <Rbt.Executable>
rbdock ($Id: //depot/dev/client3/rdock/2013.1/src/exe/rbdock.cxx#4 $)

>  <Rbt.Library>
libRbt.so (2013.1, Build901 2013/11/27)

>  <Rbt.Parameter_File>
/export/apps/rDock/src/rDock_2013.1_src/data/scripts/dock_solv.prm

>  <Rbt.Receptor>
prm/blind_docking_20.prm

>  <SCORE>
-39.1755

>  <SCORE.INTER>
-39.1755

>  <SCORE.INTER.CONST>
1

>  <SCORE.INTER.POLAR>
-1.93347

>  <SCORE.INTER.ROT>
0

>  <SCORE.INTER.SOLV>
9.81277

>  <SCORE.INTER.VDW>
-26.543

>  <SCORE.INTER.norm>
-3.0135

>  <SCORE.INTRA>
0

>  <SCORE.INTRA.DIHEDRAL>
0

>  <SCORE.INTRA.DIHEDRAL.0>
0

>  <SCORE.INTRA.POLAR>
0

>  <SCORE.INTRA.POLAR.0>
0

>  <SCORE.INTRA.REPUL>
0

>  <SCORE.INTRA.REPUL.0>
0

>  <SCORE.INTRA.SOLV>
0

>  <SCORE.INTRA.SOLV.lig_0>
-12.9768

>  <SCORE.INTRA.VDW>
0

>  <SCORE.INTRA.VDW.0>
0

>  <SCORE.INTRA.norm>
0

>  <SCORE.RESTR>
0

>  <SCORE.RESTR.CAVITY>
0

>  <SCORE.RESTR.norm>
0

>  <SCORE.SYSTEM>
0

>  <SCORE.SYSTEM.CONST>
0

>  <SCORE.SYSTEM.DIHEDRAL>
0

>  <SCORE.SYSTEM.SOLV>
0

>  <SCORE.SYSTEM.norm>
0

>  <SCORE.heavy>
13

>  <SCORE.norm>
-3.0135

>  <RMSD>
0.706

$$$$
1eht cryst
 OpenBabel11021811383D
libRbt.so/2013.1/901 2013/11/27
 13 14  0  0  0  0  0  0  0  0999 V2000
   -4.8175   -7.8772   10.5487 C   0  0  0  0  0  0  0  0  0  0  0  0
   -5.2697   -7.0110   11.5400 N   0  0  0  0  0  0  0  0  0  0  0  0
   -5.6409   -7.5461   12.7464 C   0  0  0  0  0  0  0  0  0  0  0  0
   -5.5483   -8.7703   12.8561 O   0  0  0  0  0  0  0  0  0  0  0  0
   -6.1047   -6.8178   13.8127 N   0  0  0  0  0  0  0  0  0  0  0  0
   -6.4726   -7.3812   15.0235 C   0  0  0  0  0  0  0  0  0  0  0  0
   -6.1677   -5.4796   13.5582 C   0  0  0  0  0  0  0  0  0  0  0  0
   -5.7967   -4.9576   12.3530 C   0  0  0  0  0  0  0  0  0  0  0  0
   -5.3181   -5.6863   11.2490 C   0  0  0  0  0  0  0  0  0  0  0  0
   -4.9713   -5.2653   10.1464 O   0  0  0  0  0  0  0  0  0  0  0  0
   -5.9920   -3.5873   12.4599 N   0  0  0  0  0  0  0  0  0  0  0  0
   -6.4643   -3.3754   13.7112 C   0  0  0  0  0  0  0  0  0  0  0  0
   -6.5889   -4.4674   14.4134 N   0  0  0  0  0  0  0  0  0  0  0  0
  1  2  1  0  0  0  0
  2  9  1  0  0  0  0
  2  3  1  0  0  0  0
  3  5  1  0  0  0  0
  3  4  2  0  0  0  0
  5  6  1  0  0  0  0
  5  7  1  0  0  0  0
  7  8  2  0  0  0  0
  7 13  1  0  0  0  0
  8  9  1  0  0  0  0
  8 11  1  0  0  0  0
  9 10  2  0  0  0  0
 11 12  1  0  0  0  0
 12 13  2  0  0  0  0
M  END
>  <CHROM.1>
-5.76661272,-6.05918100,12.62063082,-0.77058885,1.21171252,-0.30830624

>  <Name>
1eht cryst

>  <RI>
0

>  <Rbt.Current_Directory>
/home/itssahil/PROJECTS/Mol_Feturizer/New_Systems/rnas/1eht

>  <Rbt.Executable>
rbdock ($Id: //depot/dev/client3/rdock/2013.1/src/exe/rbdock.cxx#4 $)

>  <Rbt.Library>
libRbt.so (2013.1, Build901 2013/11/27)

>  <Rbt.Parameter_File>
/export/apps/rDock/src/rDock_2013.1_src/data/scripts/dock_solv.prm

>  <Rbt.Receptor>
prm/blind_docking_20.prm

>  <SCORE>
-39.1806

>  <SCORE.INTER>
-39.1806

>  <SCORE.INTER.CONST>
1

>  <SCORE.INTER.POLAR>
-1.9296

>  <SCORE.INTER.ROT>
0

>  <SCORE.INTER.SOLV>
9.80194

>  <SCORE.INTER.VDW>
-26.5557

>  <SCORE.INTER.norm>
-3.01389

>  <SCORE.INTRA>
0

>  <SCORE.INTRA.DIHEDRAL>
0

>  <SCORE.INTRA.DIHEDRAL.0>
0

>  <SCORE.INTRA.POLAR>
0

>  <SCORE.INTRA.POLAR.0>
0

>  <SCORE.INTRA.REPUL>
0

>  <SCORE.INTRA.REPUL.0>
0

>  <SCORE.INTRA.SOLV>
0

>  <SCORE.INTRA.SOLV.lig_0>
-12.9768

>  <SCORE.INTRA.VDW>
0

>  <SCORE.INTRA.VDW.0>
0

>  <SCORE.INTRA.norm>
0

>  <SCORE.RESTR>
0

>  <SCORE.RESTR.CAVITY>
0

>  <SCORE.RESTR.norm>
0

>  <SCORE.SYSTEM>
0

>  <SCORE.SYSTEM.CONST>
0

>  <SCORE.SYSTEM.DIHEDRAL>
0

>  <SCORE.SYSTEM.SOLV>
0

>  <SCORE.SYSTEM.norm>
0

>  <SCORE.heavy>
13

>  <SCORE.norm>
-3.01389

>  <RMSD>
0.706

$$$$
1eht cryst
 OpenBabel11021811383D
libRbt.so/2013.1/901 2013/11/27
 13 14  0  0  0  0  0  0  0  0999 V2000
   -4.8122   -7.8753   10.5476 C   0  0  0  0  0  0  0  0  0  0  0  0
   -5.2647   -7.0077   11.5376 N   0  0  0  0  0  0  0  0  0  0  0  0
   -5.6323   -7.5408   12.7461 C   0  0  0  0  0  0  0  0  0  0  0  0
   -5.5367   -8.7645   12.8585 O   0  0  0  0  0  0  0  0  0  0  0  0
   -6.0958   -6.8110   13.8114 N   0  0  0  0  0  0  0  0  0  0  0  0
   -6.4602   -7.3723   15.0243 C   0  0  0  0  0  0  0  0  0  0  0  0
   -6.1625   -5.4735   13.5539 C   0  0  0  0  0  0  0  0  0  0  0  0
   -5.7949   -4.9536   12.3466 C   0  0  0  0  0  0  0  0  0  0  0  0
   -5.3166   -5.6839   11.2436 C   0  0  0  0  0  0  0  0  0  0  0  0
   -4.9729   -5.2647   10.1393 O   0  0  0  0  0  0  0  0  0  0  0  0
   -5.9932   -3.5835   12.4507 N   0  0  0  0  0  0  0  0  0  0  0  0
   -6.4637   -3.3696   13.7023 C   0  0  0  0  0  0  0  0  0  0  0  0
   -6.5844   -4.4602   14.4074 N   0  0  0  0  0  0  0  0  0  0  0  0
  1  2  1  0  0  0  0
  2  9  1  0  0  0  0
  2  3  1  0  0  0  0
  3  5  1  0  0  0  0
  3  4  2  0  0  0  0
  5  6  1  0  0  0  0
  5  7  1  0  0  0  0
  7  8  2  0  0  0  0
  7 13  1  0  0  0  0
  8  9  1  0  0  0  0
  8 11  1  0  0  0  0
  9 10  2  0  0  0  0
 11 12  1  0  0  0  0
 12 13  2  0  0  0  0
M  END
>  <CHROM.1>
-5.76175571,-6.05446555,12.61691463,-0.76265770,1.21276291,-0.31815926

>  <Name>
1eht cryst

>  <RI>
0

>  <Rbt.Current_Directory>
/home/itssahil/PROJECTS/Mol_Feturizer/New_Systems/rnas/1eht

>  <Rbt.Executable>
rbdock ($Id: //depot/dev/client3/rdock/2013.1/src/exe/rbdock.cxx#4 $)

>  <Rbt.Library>
libRbt.so (2013.1, Build901 2013/11/27)

>  <Rbt.Parameter_File>
/export/apps/rDock/src/rDock_2013.1_src/data/scripts/dock_solv.prm

>  <Rbt.Receptor>
prm/blind_docking_60.prm

>  <SCORE>
-39.194

>  <SCORE.INTER>
-39.194

>  <SCORE.INTER.CONST>
1

>  <SCORE.INTER.POLAR>
-1.92706

>  <SCORE.INTER.ROT>
0

>  <SCORE.INTER.SOLV>
9.80607

>  <SCORE.INTER.VDW>
-26.5745

>  <SCORE.INTER.norm>
-3.01492

>  <SCORE.INTRA>
0

>  <SCORE.INTRA.DIHEDRAL>
0

>  <SCORE.INTRA.DIHEDRAL.0>
0

>  <SCORE.INTRA.POLAR>
0

>  <SCORE.INTRA.POLAR.0>
0

>  <SCORE.INTRA.REPUL>
0

>  <SCORE.INTRA.REPUL.0>
0

>  <SCORE.INTRA.SOLV>
0

>  <SCORE.INTRA.SOLV.lig_0>
-12.9768

>  <SCORE.INTRA.VDW>
0

>  <SCORE.INTRA.VDW.0>
0

>  <SCORE.INTRA.norm>
0

>  <SCORE.RESTR>
0

>  <SCORE.RESTR.CAVITY>
0

>  <SCORE.RESTR.norm>
0

>  <SCORE.SYSTEM>
0

>  <SCORE.SYSTEM.CONST>
0

>  <SCORE.SYSTEM.DIHEDRAL>
0

>  <SCORE.SYSTEM.SOLV>
0

>  <SCORE.SYSTEM.norm>
0

>  <SCORE.heavy>
13

>  <SCORE.norm>
-3.01492

>  <RMSD>
0.706

$$$$
1eht cryst
 OpenBabel11021811383D
libRbt.so/2013.1/901 2013/11/27
 13 14  0  0  0  0  0  0  0  0999 V2000
   -4.8252   -7.8830   10.5442 C   0  0  0  0  0  0  0  0  0  0  0  0
   -5.2768   -7.0150   11.5343 N   0  0  0  0  0  0  0  0  0  0  0  0
   -5.6468   -7.5480   12.7420 C   0  0  0  0  0  0  0  0  0  0  0  0
   -5.5538   -8.7719   12.8539 O   0  0  0  0  0  0  0  0  0  0  0  0
   -6.1099   -6.8178   13.8073 N   0  0  0  0  0  0  0  0  0  0  0  0
   -6.4767   -7.3791   15.0195 C   0  0  0  0  0  0  0  0  0  0  0  0
   -6.1735   -5.4801   13.5505 C   0  0  0  0  0  0  0  0  0  0  0  0
   -5.8037   -4.9603   12.3439 C   0  0  0  0  0  0  0  0  0  0  0  0
   -5.3257   -5.6908   11.2409 C   0  0  0  0  0  0  0  0  0  0  0  0
   -4.9800   -5.2718   10.1373 O   0  0  0  0  0  0  0  0  0  0  0  0
   -5.9992   -3.5898   12.4486 N   0  0  0  0  0  0  0  0  0  0  0  0
   -6.4705   -3.3757   13.6998 C   0  0  0  0  0  0  0  0  0  0  0  0
   -6.5942   -4.4664   14.4041 N   0  0  0  0  0  0  0  0  0  0  0  0
  1  2  1  0  0  0  0
  2  9  1  0  0  0  0
  2  3  1  0  0  0  0
  3  5  1  0  0  0  0
  3  4  2  0  0  0  0
  5  6  1  0  0  0  0
  5  7  1  0  0  0  0
  7  8  2  0  0  0  0
  7 13  1  0  0  0  0
  8  9  1  0  0  0  0
  8 11  1  0  0  0  0
  9 10  2  0  0  0  0
 11 12  1  0  0  0  0
 12 13  2  0  0  0  0
M  END
>  <CHROM.1>
-5.77303993,-6.06131983,12.61359852,-0.76920643,1.21242677,-0.31143633

>  <Name>
1eht cryst

>  <RI>
0

>  <Rbt.Current_Directory>
/home/itssahil/PROJECTS/Mol_Feturizer/New_Systems/rnas/1eht

>  <Rbt.Executable>
rbdock ($Id: //depot/dev/client3/rdock/2013.1/src/exe/rbdock.cxx#4 $)

>  <Rbt.Library>
libRbt.so (2013.1, Build901 2013/11/27)

>  <Rbt.Parameter_File>
/export/apps/rDock/src/rDock_2013.1_src/data/scripts/dock_solv.prm

>  <Rbt.Receptor>
prm/blind_docking_60.prm

>  <SCORE>
-39.1703

>  <SCORE.INTER>
-39.1703

>  <SCORE.INTER.CONST>
1

>  <SCORE.INTER.POLAR>
-1.93368

>  <SCORE.INTER.ROT>
0

>  <SCORE.INTER.SOLV>
9.79193

>  <SCORE.INTER.VDW>
-26.5319

>  <SCORE.INTER.norm>
-3.0131

>  <SCORE.INTRA>
0

>  <SCORE.INTRA.DIHEDRAL>
0

>  <SCORE.INTRA.DIHEDRAL.0>
0

>  <SCORE.INTRA.POLAR>
0

>  <SCORE.INTRA.POLAR.0>
0

>  <SCORE.INTRA.REPUL>
0

>  <SCORE.INTRA.REPUL.0>
0

>  <SCORE.INTRA.SOLV>
0

>  <SCORE.INTRA.SOLV.lig_0>
-12.9768

>  <SCORE.INTRA.VDW>
0

>  <SCORE.INTRA.VDW.0>
0

>  <SCORE.INTRA.norm>
0

>  <SCORE.RESTR>
0

>  <SCORE.RESTR.CAVITY>
0

>  <SCORE.RESTR.norm>
0

>  <SCORE.SYSTEM>
0

>  <SCORE.SYSTEM.CONST>
0

>  <SCORE.SYSTEM.DIHEDRAL>
0

>  <SCORE.SYSTEM.SOLV>
0

>  <SCORE.SYSTEM.norm>
0

>  <SCORE.heavy>
13

>  <SCORE.norm>
-3.0131

>  <RMSD>
0.706

$$$$
1eht cryst
 OpenBabel11021811383D
libRbt.so/2013.1/901 2013/11/27
 13 14  0  0  0  0  0  0  0  0999 V2000
   -4.8080   -7.8725   10.5474 C   0  0  0  0  0  0  0  0  0  0  0  0
   -5.2647   -7.0059   11.5363 N   0  0  0  0  0  0  0  0  0  0  0  0
   -5.6386   -7.5402   12.7423 C   0  0  0  0  0  0  0  0  0  0  0  0
   -5.5445   -8.7641   12.8536 O   0  0  0  0  0  0  0  0  0  0  0  0
   -6.1068   -6.8114   13.8063 N   0  0  0  0  0  0  0  0  0  0  0  0
   -6.4775   -7.3739   15.0166 C   0  0  0  0  0  0  0  0  0  0  0  0
   -6.1712   -5.4736   13.5501 C   0  0  0  0  0  0  0  0  0  0  0  0
   -5.7974   -4.9524   12.3454 C   0  0  0  0  0  0  0  0  0  0  0  0
   -5.3142   -5.6815   11.2437 C   0  0  0  0  0  0  0  0  0  0  0  0
   -4.9648   -5.2612   10.1417 O   0  0  0  0  0  0  0  0  0  0  0  0
   -5.9951   -3.5823   12.4502 N   0  0  0  0  0  0  0  0  0  0  0  0
   -6.4716   -3.3696   13.6998 C   0  0  0  0  0  0  0  0  0  0  0  0
   -6.5966   -4.4610   14.4029 N   0  0  0  0  0  0  0  0  0  0  0  0
  1  2  1  0  0  0  0
  2  9  1  0  0  0  0
  2  3  1  0  0  0  0
  3  5  1  0  0  0  0
  3  4  2  0  0  0  0
  5  6  1  0  0  0  0
  5  7  1  0  0  0  0
  7  8  2  0  0  0  0
  7 13  1  0  0  0  0
  8  9  1  0  0  0  0
  8 11  1  0  0  0  0
  9 10  2  0  0  0  0
 11 12  1  0  0  0  0
 12 13  2  0  0  0  0
M  END
>  <CHROM.1>
-5.76633702,-6.05359113,12.61439057,-0.76897532,1.20834032,-0.31095929

>  <Name>
1eht cryst

>  <RI>
0

>  <Rbt.Current_Directory>
/home/itssahil/PROJECTS/Mol_Feturizer/New_Systems/rnas/1eht

>  <Rbt.Executable>
rbdock ($Id: //depot/dev/client3/rdock/2013.1/src/exe/rbdock.cxx#4 $)

>  <Rbt.Library>
libRbt.so (2013.1, Build901 2013/11/27)

>  <Rbt.Parameter_File>
/export/apps/rDock/src/rDock_2013.1_src/data/scripts/dock_solv.prm

>  <Rbt.Receptor>
prm/blind_docking_60.prm

>  <SCORE>
-39.1752

>  <SCORE.INTER>
-39.1752

>  <SCORE.INTER.CONST>
1

>  <SCORE.INTER.POLAR>
-1.93279

>  <SCORE.INTER.ROT>
0

>  <SCORE.INTER.SOLV>
9.81433

>  <SCORE.INTER.VDW>
-26.5456

>  <SCORE.INTER.norm>
-3.01348

>  <SCORE.INTRA>
0

>  <SCORE.INTRA.DIHEDRAL>
0

>  <SCORE.INTRA.DIHEDRAL.0>
0

>  <SCORE.INTRA.POLAR>
0

>  <SCORE.INTRA.POLAR.0>
0

>  <SCORE.INTRA.REPUL>
0

>  <SCORE.INTRA.REPUL.0>
0

>  <SCORE.INTRA.SOLV>
0

>  <SCORE.INTRA.SOLV.lig_0>
-12.9768

>  <SCORE.INTRA.VDW>
0

>  <SCORE.INTRA.VDW.0>
0

>  <SCORE.INTRA.norm>
0

>  <SCORE.RESTR>
0

>  <SCORE.RESTR.CAVITY>
0

>  <SCORE.RESTR.norm>
0

>  <SCORE.SYSTEM>
0

>  <SCORE.SYSTEM.CONST>
0

>  <SCORE.SYSTEM.DIHEDRAL>
0

>  <SCORE.SYSTEM.SOLV>
0

>  <SCORE.SYSTEM.norm>
0

>  <SCORE.heavy>
13

>  <SCORE.norm>
-3.01348

>  <RMSD>
0.706

$$$$
1eht cryst
 OpenBabel11021811383D
libRbt.so/2013.1/901 2013/11/27
 13 14  0  0  0  0  0  0  0  0999 V2000
   -4.8080   -7.8732   10.5473 C   0  0  0  0  0  0  0  0  0  0  0  0
   -5.2640   -7.0055   11.5355 N   0  0  0  0  0  0  0  0  0  0  0  0
   -5.6356   -7.5382   12.7429 C   0  0  0  0  0  0  0  0  0  0  0  0
   -5.5400   -8.7618   12.8560 O   0  0  0  0  0  0  0  0  0  0  0  0
   -6.1030   -6.8082   13.8064 N   0  0  0  0  0  0  0  0  0  0  0  0
   -6.4713   -7.3692   15.0182 C   0  0  0  0  0  0  0  0  0  0  0  0
   -6.1691   -5.4709   13.5482 C   0  0  0  0  0  0  0  0  0  0  0  0
   -5.7977   -4.9513   12.3421 C   0  0  0  0  0  0  0  0  0  0  0  0
   -5.3154   -5.6817   11.2409 C   0  0  0  0  0  0  0  0  0  0  0  0
   -4.9681   -5.2628   10.1376 O   0  0  0  0  0  0  0  0  0  0  0  0
   -5.9967   -3.5812   12.4450 N   0  0  0  0  0  0  0  0  0  0  0  0
   -6.4714   -3.3670   13.6950 C   0  0  0  0  0  0  0  0  0  0  0  0
   -6.5942   -4.4574   14.4000 N   0  0  0  0  0  0  0  0  0  0  0  0
  1  2  1  0  0  0  0
  2  9  1  0  0  0  0
  2  3  1  0  0  0  0
  3  5  1  0  0  0  0
  3  4  2  0  0  0  0
  5  6  1  0  0  0  0
  5  7  1  0  0  0  0
  7  8  2  0  0  0  0
  7 13  1  0  0  0  0
  8  9  1  0  0  0  0
  8 11  1  0  0  0  0
  9 10  2  0  0  0  0
 11 12  1  0  0  0  0
 12 13  2  0  0  0  0
M  END
>  <CHROM.1>
-5.76506338,-6.05199398,12.61281236,-0.76487147,1.20946921,-0.31639914

>  <Name>
1eht cryst

>  <RI>
0

>  <Rbt.Current_Directory>
/home/itssahil/PROJECTS/Mol_Feturizer/New_Systems/rnas/1eht

>  <Rbt.Executable>
rbdock ($Id: //depot/dev/client3/rdock/2013.1/src/exe/rbdock.cxx#4 $)

>  <Rbt.Library>
libRbt.so (2013.1, Build901 2013/11/27)

>  <Rbt.Parameter_File>
/export/apps/rDock/src/rDock_2013.1_src/data/scripts/dock_solv.prm

>  <Rbt.Receptor>
prm/pocket_docking_3.prm

>  <SCORE>
-39.1953

>  <SCORE.INTER>
-39.1953

>  <SCORE.INTER.CONST>
1

>  <SCORE.INTER.POLAR>
-1.9312

>  <SCORE.INTER.ROT>
0

>  <SCORE.INTER.SOLV>
9.81322

>  <SCORE.INTER.VDW>
-26.564

>  <SCORE.INTER.norm>
-3.01503

>  <SCORE.INTRA>
0

>  <SCORE.INTRA.DIHEDRAL>
0

>  <SCORE.INTRA.DIHEDRAL.0>
0

>  <SCORE.INTRA.POLAR>
0

>  <SCORE.INTRA.POLAR.0>
0

>  <SCORE.INTRA.REPUL>
0

>  <SCORE.INTRA.REPUL.0>
0

>  <SCORE.INTRA.SOLV>
0

>  <SCORE.INTRA.SOLV.lig_0>
-12.9768

>  <SCORE.INTRA.VDW>
0

>  <SCORE.INTRA.VDW.0>
0

>  <SCORE.INTRA.norm>
0

>  <SCORE.RESTR>
0

>  <SCORE.RESTR.CAVITY>
0

>  <SCORE.RESTR.norm>
0

>  <SCORE.SYSTEM>
0

>  <SCORE.SYSTEM.CONST>
0

>  <SCORE.SYSTEM.DIHEDRAL>
0

>  <SCORE.SYSTEM.SOLV>
0

>  <SCORE.SYSTEM.norm>
0

>  <SCORE.heavy>
13

>  <SCORE.norm>
-3.01503

>  <RMSD>
0.706

$$$$
1eht cryst
 OpenBabel11021811383D
libRbt.so/2013.1/901 2013/11/27
 13 14  0  0  0  0  0  0  0  0999 V2000
   -4.8112   -7.8737   10.5492 C   0  0  0  0  0  0  0  0  0  0  0  0
   -5.2657   -7.0070   11.5391 N   0  0  0  0  0  0  0  0  0  0  0  0
   -5.6347   -7.5410   12.7467 C   0  0  0  0  0  0  0  0  0  0  0  0
   -5.5383   -8.7647   12.8585 O   0  0  0  0  0  0  0  0  0  0  0  0
   -6.1003   -6.8122   13.8118 N   0  0  0  0  0  0  0  0  0  0  0  0
   -6.4660   -7.3745   15.0238 C   0  0  0  0  0  0  0  0  0  0  0  0
   -6.1675   -5.4746   13.5549 C   0  0  0  0  0  0  0  0  0  0  0  0
   -5.7987   -4.9538   12.3485 C   0  0  0  0  0  0  0  0  0  0  0  0
   -5.3182   -5.6830   11.2457 C   0  0  0  0  0  0  0  0  0  0  0  0
   -4.9732   -5.2629   10.1422 O   0  0  0  0  0  0  0  0  0  0  0  0
   -5.9981   -3.5839   12.4531 N   0  0  0  0  0  0  0  0  0  0  0  0
   -6.4705   -3.3711   13.7042 C   0  0  0  0  0  0  0  0  0  0  0  0
   -6.5915   -4.4622   14.4084 N   0  0  0  0  0  0  0  0  0  0  0  0
  1  2  1  0  0  0  0
  2  9  1  0  0  0  0
  2  3  1  0  0  0  0
  3  5  1  0  0  0  0
  3  4  2  0  0  0  0
  5  6  1  0  0  0  0
  5  7  1  0  0  0  0
  7  8  2  0  0  0  0
  7 13  1  0  0  0  0
  8  9  1  0  0  0  0
  8 11  1  0  0  0  0
  9 10  2  0  0  0  0
 11 12  1  0  0  0  0
 12 13  2  0  0  0  0
M  END
>  <CHROM.1>
-5.76505091,-6.05472760,12.61820099,-0.76191177,1.21116978,-0.31826393

>  <Name>
1eht cryst

>  <RI>
224

>  <Rbt.Current_Directory>
/home/itssahil/PROJECTS/Mol_Feturizer/New_Systems/rnas/1eht

>  <Rbt.Executable>
rbdock ($Id: //depot/dev/client3/rdock/2013.1/src/exe/rbdock.cxx#4 $)

>  <Rbt.Library>
libRbt.so (2013.1, Build901 2013/11/27)

>  <Rbt.Parameter_File>
/export/apps/rDock/src/rDock_2013.1_src/data/scripts/dock_solv.prm

>  <Rbt.Receptor>
prm/pocket_docking_7.prm

>  <SCORE>
-39.19

>  <SCORE.INTER>
-39.19

>  <SCORE.INTER.CONST>
1

>  <SCORE.INTER.POLAR>
-1.92655

>  <SCORE.INTER.ROT>
0

>  <SCORE.INTER.SOLV>
9.80548

>  <SCORE.INTER.VDW>
-26.5733

>  <SCORE.INTER.norm>
-3.01462

>  <SCORE.INTRA>
0

>  <SCORE.INTRA.DIHEDRAL>
0

>  <SCORE.INTRA.DIHEDRAL.0>
0

>  <SCORE.INTRA.POLAR>
0

>  <SCORE.INTRA.POLAR.0>
0

>  <SCORE.INTRA.REPUL>
0

>  <SCORE.INTRA.REPUL.0>
0

>  <SCORE.INTRA.SOLV>
0

>  <SCORE.INTRA.SOLV.lig_0>
-12.9768

>  <SCORE.INTRA.VDW>
0

>  <SCORE.INTRA.VDW.0>
0

>  <SCORE.INTRA.norm>
0

>  <SCORE.RESTR>
0

>  <SCORE.RESTR.CAVITY>
0

>  <SCORE.RESTR.norm>
0

>  <SCORE.SYSTEM>
0

>  <SCORE.SYSTEM.CONST>
0

>  <SCORE.SYSTEM.DIHEDRAL>
0

>  <SCORE.SYSTEM.SOLV>
0

>  <SCORE.SYSTEM.norm>
0

>  <SCORE.heavy>
13

>  <SCORE.norm>
-3.01462

>  <RMSD>
0.706

$$$$
1eht cryst
 OpenBabel11021811383D
libRbt.so/2013.1/901 2013/11/27
 13 14  0  0  0  0  0  0  0  0999 V2000
   -4.8108   -7.8736   10.5490 C   0  0  0  0  0  0  0  0  0  0  0  0
   -5.2660   -7.0066   11.5383 N   0  0  0  0  0  0  0  0  0  0  0  0
   -5.6374   -7.5405   12.7452 C   0  0  0  0  0  0  0  0  0  0  0  0
   -5.5424   -8.7643   12.8570 O   0  0  0  0  0  0  0  0  0  0  0  0
   -6.1039   -6.8114   13.8097 N   0  0  0  0  0  0  0  0  0  0  0  0
   -6.4720   -7.3735   15.0211 C   0  0  0  0  0  0  0  0  0  0  0  0
   -6.1694   -5.4738   13.5530 C   0  0  0  0  0  0  0  0  0  0  0  0
   -5.7982   -4.9530   12.3473 C   0  0  0  0  0  0  0  0  0  0  0  0
   -5.3168   -5.6825   11.2451 C   0  0  0  0  0  0  0  0  0  0  0  0
   -4.9696   -5.2626   10.1422 O   0  0  0  0  0  0  0  0  0  0  0  0
   -5.9964   -3.5830   12.4518 N   0  0  0  0  0  0  0  0  0  0  0  0
   -6.4706   -3.3699   13.7022 C   0  0  0  0  0  0  0  0  0  0  0  0
   -6.5937   -4.4610   14.4061 N   0  0  0  0  0  0  0  0  0  0  0  0
  1  2  1  0  0  0  0
  2  9  1  0  0  0  0
  2  3  1  0  0  0  0
  3  5  1  0  0  0  0
  3  4  2  0  0  0  0
  5  6  1  0  0  0  0
  5  7  1  0  0  0  0
  7  8  2  0  0  0  0
  7 13  1  0  0  0  0
  8  9  1  0  0  0  0
  8 11  1  0  0  0  0
  9 10  2  0  0  0  0
 11 12  1  0  0  0  0
 12 13  2  0  0  0  0
M  END
>  <CHROM.1>
-5.76606563,-6.05406103,12.61683430,-0.76595319,1.21000745,-0.31429747

>  <Name>
1eht cryst

>  <RI>
0

>  <Rbt.Current_Directory>
/home/itssahil/PROJECTS/Mol_Feturizer/New_Systems/rnas/1eht

>  <Rbt.Executable>
rbdock ($Id: //depot/dev/client3/rdock/2013.1/src/exe/rbdock.cxx#4 $)

>  <Rbt.Library>
libRbt.so (2013.1, Build901 2013/11/27)

>  <Rbt.Parameter_File>
/export/apps/rDock/src/rDock_2013.1_src/data/scripts/dock_solv.prm

>  <Rbt.Receptor>
prm/blind_docking_20.prm

>  <SCORE>
-39.1958

>  <SCORE.INTER>
-39.1958

>  <SCORE.INTER.CONST>
1

>  <SCORE.INTER.POLAR>
-1.92932

>  <SCORE.INTER.ROT>
0

>  <SCORE.INTER.SOLV>
9.80984

>  <SCORE.INTER.VDW>
-26.5694

>  <SCORE.INTER.norm>
-3.01506

>  <SCORE.INTRA>
0

>  <SCORE.INTRA.DIHEDRAL>
0

>  <SCORE.INTRA.DIHEDRAL.0>
0

>  <SCORE.INTRA.POLAR>
0

>  <SCORE.INTRA.POLAR.0>
0

>  <SCORE.INTRA.REPUL>
0

>  <SCORE.INTRA.REPUL.0>
0

>  <SCORE.INTRA.SOLV>
0

>  <SCORE.INTRA.SOLV.lig_0>
-12.9768

>  <SCORE.INTRA.VDW>
0

>  <SCORE.INTRA.VDW.0>
0

>  <SCORE.INTRA.norm>
0

>  <SCORE.RESTR>
0

>  <SCORE.RESTR.CAVITY>
0

>  <SCORE.RESTR.norm>
0

>  <SCORE.SYSTEM>
0

>  <SCORE.SYSTEM.CONST>
0

>  <SCORE.SYSTEM.DIHEDRAL>
0

>  <SCORE.SYSTEM.SOLV>
0

>  <SCORE.SYSTEM.norm>
0

>  <SCORE.heavy>
13

>  <SCORE.norm>
-3.01506

>  <RMSD>
0.707

$$$$
1eht cryst
 OpenBabel11021811383D
libRbt.so/2013.1/901 2013/11/27
 13 14  0  0  0  0  0  0  0  0999 V2000
   -4.8038   -7.8590   10.5535 C   0  0  0  0  0  0  0  0  0  0  0  0
   -5.2598   -6.9945   11.5445 N   0  0  0  0  0  0  0  0  0  0  0  0
   -5.6362   -7.5317   12.7484 C   0  0  0  0  0  0  0  0  0  0  0  0
   -5.5446   -8.7562   12.8561 O   0  0  0  0  0  0  0  0  0  0  0  0
   -6.1042   -6.8053   13.8141 N   0  0  0  0  0  0  0  0  0  0  0  0
   -6.4774   -7.3709   15.0223 C   0  0  0  0  0  0  0  0  0  0  0  0
   -6.1656   -5.4666   13.5620 C   0  0  0  0  0  0  0  0  0  0  0  0
   -5.7895   -4.9425   12.3593 C   0  0  0  0  0  0  0  0  0  0  0  0
   -5.3065   -5.6692   11.2560 C   0  0  0  0  0  0  0  0  0  0  0  0
   -4.9550   -5.2461   10.1556 O   0  0  0  0  0  0  0  0  0  0  0  0
   -5.9846   -3.5723   12.4681 N   0  0  0  0  0  0  0  0  0  0  0  0
   -6.4621   -3.3626   13.7178 C   0  0  0  0  0  0  0  0  0  0  0  0
   -6.5900   -4.4559   14.4174 N   0  0  0  0  0  0  0  0  0  0  0  0
  1  2  1  0  0  0  0
  2  9  1  0  0  0  0
  2  3  1  0  0  0  0
  3  5  1  0  0  0  0
  3  4  2  0  0  0  0
  5  6  1  0  0  0  0
  5  7  1  0  0  0  0
  7  8  2  0  0  0  0
  7 13  1  0  0  0  0
  8  9  1  0  0  0  0
  8 11  1  0  0  0  0
  9 10  2  0  0  0  0
 11 12  1  0  0  0  0
 12 13  2  0  0  0  0
M  END
>  <CHROM.1>
-5.76086957,-6.04453475,12.62497735,-0.77520667,1.20785574,-0.30204420

>  <Name>
1eht cryst

>  <RI>
0

>  <Rbt.Current_Directory>
/home/itssahil/PROJECTS/Mol_Feturizer/New_Systems/rnas/1eht

>  <Rbt.Executable>
rbdock ($Id: //depot/dev/client3/rdock/2013.1/src/exe/rbdock.cxx#4 $)

>  <Rbt.Library>
libRbt.so (2013.1, Build901 2013/11/27)

>  <Rbt.Parameter_File>
/export/apps/rDock/src/rDock_2013.1_src/data/scripts/dock_solv.prm

>  <Rbt.Receptor>
prm/blind_docking_20.prm

>  <SCORE>
-39.1607

>  <SCORE.INTER>
-39.1607

>  <SCORE.INTER.CONST>
1

>  <SCORE.INTER.POLAR>
-1.92272

>  <SCORE.INTER.ROT>
0

>  <SCORE.INTER.SOLV>
9.84049

>  <SCORE.INTER.VDW>
-26.5782

>  <SCORE.INTER.norm>
-3.01236

>  <SCORE.INTRA>
0

>  <SCORE.INTRA.DIHEDRAL>
0

>  <SCORE.INTRA.DIHEDRAL.0>
0

>  <SCORE.INTRA.POLAR>
0

>  <SCORE.INTRA.POLAR.0>
0

>  <SCORE.INTRA.REPUL>
0

>  <SCORE.INTRA.REPUL.0>
0

>  <SCORE.INTRA.SOLV>
0

>  <SCORE.INTRA.SOLV.lig_0>
-12.9768

>  <SCORE.INTRA.VDW>
0

>  <SCORE.INTRA.VDW.0>
0

>  <SCORE.INTRA.norm>
0

>  <SCORE.RESTR>
0

>  <SCORE.RESTR.CAVITY>
0

>  <SCORE.RESTR.norm>
0

>  <SCORE.SYSTEM>
0

>  <SCORE.SYSTEM.CONST>
0

>  <SCORE.SYSTEM.DIHEDRAL>
0

>  <SCORE.SYSTEM.SOLV>
0

>  <SCORE.SYSTEM.norm>
0

>  <SCORE.heavy>
13

>  <SCORE.norm>
-3.01236

>  <RMSD>
0.707

$$$$
1eht cryst
 OpenBabel11021811383D
libRbt.so/2013.1/901 2013/11/27
 13 14  0  0  0  0  0  0  0  0999 V2000
   -4.8115   -7.8741   10.5489 C   0  0  0  0  0  0  0  0  0  0  0  0
   -5.2678   -7.0069   11.5375 N   0  0  0  0  0  0  0  0  0  0  0  0
   -5.6393   -7.5403   12.7446 C   0  0  0  0  0  0  0  0  0  0  0  0
   -5.5434   -8.7640   12.8572 O   0  0  0  0  0  0  0  0  0  0  0  0
   -6.1068   -6.8110   13.8085 N   0  0  0  0  0  0  0  0  0  0  0  0
   -6.4750   -7.3726   15.0200 C   0  0  0  0  0  0  0  0  0  0  0  0
   -6.1732   -5.4735   13.5509 C   0  0  0  0  0  0  0  0  0  0  0  0
   -5.8018   -4.9532   12.3451 C   0  0  0  0  0  0  0  0  0  0  0  0
   -5.3194   -5.6830   11.2435 C   0  0  0  0  0  0  0  0  0  0  0  0
   -4.9721   -5.2635   10.1405 O   0  0  0  0  0  0  0  0  0  0  0  0
   -6.0011   -3.5832   12.4487 N   0  0  0  0  0  0  0  0  0  0  0  0
   -6.4759   -3.3698   13.6987 C   0  0  0  0  0  0  0  0  0  0  0  0
   -6.5985   -4.4606   14.4032 N   0  0  0  0  0  0  0  0  0  0  0  0
  1  2  1  0  0  0  0
  2  9  1  0  0  0  0
  2  3  1  0  0  0  0
  3  5  1  0  0  0  0
  3  4  2  0  0  0  0
  5  6  1  0  0  0  0
  5  7  1  0  0  0  0
  7  8  2  0  0  0  0
  7 13  1  0  0  0  0
  8  9  1  0  0  0  0
  8 11  1  0  0  0  0
  9 10  2  0  0  0  0
 11 12  1  0  0  0  0
 12 13  2  0  0  0  0
M  END
>  <CHROM.1>
-5.76901199,-6.05407198,12.61525179,-0.76438413,1.20937372,-0.31635940

>  <Name>
1eht cryst

>  <RI>
0

>  <Rbt.Current_Directory>
/home/itssahil/PROJECTS/Mol_Feturizer/New_Systems/rnas/1eht

>  <Rbt.Executable>
rbdock ($Id: //depot/dev/client3/rdock/2013.1/src/exe/rbdock.cxx#4 $)

>  <Rbt.Library>
libRbt.so (2013.1, Build901 2013/11/27)

>  <Rbt.Parameter_File>
/export/apps/rDock/src/rDock_2013.1_src/data/scripts/dock_solv.prm

>  <Rbt.Receptor>
prm/pocket_docking_4.prm

>  <SCORE>
-39.1878

>  <SCORE.INTER>
-39.1878

>  <SCORE.INTER.CONST>
1

>  <SCORE.INTER.POLAR>
-1.92991

>  <SCORE.INTER.ROT>
0

>  <SCORE.INTER.SOLV>
9.80754

>  <SCORE.INTER.VDW>
-26.5613

>  <SCORE.INTER.norm>
-3.01444

>  <SCORE.INTRA>
0

>  <SCORE.INTRA.DIHEDRAL>
0

>  <SCORE.INTRA.DIHEDRAL.0>
0

>  <SCORE.INTRA.POLAR>
0

>  <SCORE.INTRA.POLAR.0>
0

>  <SCORE.INTRA.REPUL>
0

>  <SCORE.INTRA.REPUL.0>
0

>  <SCORE.INTRA.SOLV>
0

>  <SCORE.INTRA.SOLV.lig_0>
-12.9768

>  <SCORE.INTRA.VDW>
0

>  <SCORE.INTRA.VDW.0>
0

>  <SCORE.INTRA.norm>
0

>  <SCORE.RESTR>
0

>  <SCORE.RESTR.CAVITY>
0

>  <SCORE.RESTR.norm>
0

>  <SCORE.SYSTEM>
0

>  <SCORE.SYSTEM.CONST>
0

>  <SCORE.SYSTEM.DIHEDRAL>
0

>  <SCORE.SYSTEM.SOLV>
0

>  <SCORE.SYSTEM.norm>
0

>  <SCORE.heavy>
13

>  <SCORE.norm>
-3.01444

>  <RMSD>
0.707

$$$$
1eht cryst
 OpenBabel11021811383D
libRbt.so/2013.1/901 2013/11/27
 13 14  0  0  0  0  0  0  0  0999 V2000
   -4.8166   -7.8782   10.5473 C   0  0  0  0  0  0  0  0  0  0  0  0
   -5.2689   -7.0101   11.5369 N   0  0  0  0  0  0  0  0  0  0  0  0
   -5.6374   -7.5425   12.7453 C   0  0  0  0  0  0  0  0  0  0  0  0
   -5.5426   -8.7663   12.8581 O   0  0  0  0  0  0  0  0  0  0  0  0
   -6.1009   -6.8122   13.8102 N   0  0  0  0  0  0  0  0  0  0  0  0
   -6.4662   -7.3729   15.0231 C   0  0  0  0  0  0  0  0  0  0  0  0
   -6.1665   -5.4747   13.5523 C   0  0  0  0  0  0  0  0  0  0  0  0
   -5.7982   -4.9554   12.3451 C   0  0  0  0  0  0  0  0  0  0  0  0
   -5.3199   -5.6862   11.2425 C   0  0  0  0  0  0  0  0  0  0  0  0
   -4.9754   -5.2676   10.1382 O   0  0  0  0  0  0  0  0  0  0  0  0
   -5.9956   -3.5851   12.4487 N   0  0  0  0  0  0  0  0  0  0  0  0
   -6.4664   -3.3706   13.7001 C   0  0  0  0  0  0  0  0  0  0  0  0
   -6.5882   -4.4609   14.4054 N   0  0  0  0  0  0  0  0  0  0  0  0
  1  2  1  0  0  0  0
  2  9  1  0  0  0  0
  2  3  1  0  0  0  0
  3  5  1  0  0  0  0
  3  4  2  0  0  0  0
  5  6  1  0  0  0  0
  5  7  1  0  0  0  0
  7  8  2  0  0  0  0
  7 13  1  0  0  0  0
  8  9  1  0  0  0  0
  8 11  1  0  0  0  0
  9 10  2  0  0  0  0
 11 12  1  0  0  0  0
 12 13  2  0  0  0  0
M  END
>  <CHROM.1>
-5.76583550,-6.05618035,12.61570178,-0.76481936,1.21256991,-0.31639023

>  <Name>
1eht cryst

>  <RI>
224

>  <Rbt.Current_Directory>
/home/itssahil/PROJECTS/Mol_Feturizer/New_Systems/rnas/1eht

>  <Rbt.Executable>
rbdock ($Id: //depot/dev/client3/rdock/2013.1/src/exe/rbdock.cxx#4 $)

>  <Rbt.Library>
libRbt.so (2013.1, Build901 2013/11/27)

>  <Rbt.Parameter_File>
/export/apps/rDock/src/rDock_2013.1_src/data/scripts/dock_solv.prm

>  <Rbt.Receptor>
prm/pocket_docking_7.prm

>  <SCORE>
-39.1957

>  <SCORE.INTER>
-39.1957

>  <SCORE.INTER.CONST>
1

>  <SCORE.INTER.POLAR>
-1.92928

>  <SCORE.INTER.ROT>
0

>  <SCORE.INTER.SOLV>
9.80194

>  <SCORE.INTER.VDW>
-26.5669

>  <SCORE.INTER.norm>
-3.01506

>  <SCORE.INTRA>
0

>  <SCORE.INTRA.DIHEDRAL>
0

>  <SCORE.INTRA.DIHEDRAL.0>
0

>  <SCORE.INTRA.POLAR>
0

>  <SCORE.INTRA.POLAR.0>
0

>  <SCORE.INTRA.REPUL>
0

>  <SCORE.INTRA.REPUL.0>
0

>  <SCORE.INTRA.SOLV>
0

>  <SCORE.INTRA.SOLV.lig_0>
-12.9768

>  <SCORE.INTRA.VDW>
0

>  <SCORE.INTRA.VDW.0>
0

>  <SCORE.INTRA.norm>
0

>  <SCORE.RESTR>
0

>  <SCORE.RESTR.CAVITY>
0

>  <SCORE.RESTR.norm>
0

>  <SCORE.SYSTEM>
0

>  <SCORE.SYSTEM.CONST>
0

>  <SCORE.SYSTEM.DIHEDRAL>
0

>  <SCORE.SYSTEM.SOLV>
0

>  <SCORE.SYSTEM.norm>
0

>  <SCORE.heavy>
13

>  <SCORE.norm>
-3.01506

>  <RMSD>
0.707

$$$$
1eht cryst
 OpenBabel11021811383D
libRbt.so/2013.1/901 2013/11/27
 13 14  0  0  0  0  0  0  0  0999 V2000
   -4.8124   -7.8738   10.5498 C   0  0  0  0  0  0  0  0  0  0  0  0
   -5.2664   -7.0066   11.5395 N   0  0  0  0  0  0  0  0  0  0  0  0
   -5.6376   -7.5404   12.7466 C   0  0  0  0  0  0  0  0  0  0  0  0
   -5.5433   -8.7642   12.8582 O   0  0  0  0  0  0  0  0  0  0  0  0
   -6.1030   -6.8111   13.8114 N   0  0  0  0  0  0  0  0  0  0  0  0
   -6.4708   -7.3731   15.0229 C   0  0  0  0  0  0  0  0  0  0  0  0
   -6.1677   -5.4733   13.5548 C   0  0  0  0  0  0  0  0  0  0  0  0
   -5.7968   -4.9527   12.3490 C   0  0  0  0  0  0  0  0  0  0  0  0
   -5.3165   -5.6824   11.2464 C   0  0  0  0  0  0  0  0  0  0  0  0
   -4.9697   -5.2627   10.1434 O   0  0  0  0  0  0  0  0  0  0  0  0
   -5.9941   -3.5826   12.4537 N   0  0  0  0  0  0  0  0  0  0  0  0
   -6.4674   -3.3693   13.7044 C   0  0  0  0  0  0  0  0  0  0  0  0
   -6.5908   -4.4604   14.4082 N   0  0  0  0  0  0  0  0  0  0  0  0
  1  2  1  0  0  0  0
  2  9  1  0  0  0  0
  2  3  1  0  0  0  0
  3  5  1  0  0  0  0
  3  4  2  0  0  0  0
  5  6  1  0  0  0  0
  5  7  1  0  0  0  0
  7  8  2  0  0  0  0
  7 13  1  0  0  0  0
  8  9  1  0  0  0  0
  8 11  1  0  0  0  0
  9 10  2  0  0  0  0
 11 12  1  0  0  0  0
 12 13  2  0  0  0  0
M  END
>  <CHROM.1>
-5.76529143,-6.05383141,12.61837022,-0.76731202,1.21073582,-0.31293554

>  <Name>
1eht cryst

>  <RI>
0

>  <Rbt.Current_Directory>
/home/itssahil/PROJECTS/Mol_Feturizer/New_Systems/rnas/1eht

>  <Rbt.Executable>
rbdock ($Id: //depot/dev/client3/rdock/2013.1/src/exe/rbdock.cxx#4 $)

>  <Rbt.Library>
libRbt.so (2013.1, Build901 2013/11/27)

>  <Rbt.Parameter_File>
/export/apps/rDock/src/rDock_2013.1_src/data/scripts/dock_solv.prm

>  <Rbt.Receptor>
prm/pocket_docking_8.prm

>  <SCORE>
-39.1966

>  <SCORE.INTER>
-39.1966

>  <SCORE.INTER.CONST>
1

>  <SCORE.INTER.POLAR>
-1.92831

>  <SCORE.INTER.ROT>
0

>  <SCORE.INTER.SOLV>
9.81087

>  <SCORE.INTER.VDW>
-26.5736

>  <SCORE.INTER.norm>
-3.01512

>  <SCORE.INTRA>
0

>  <SCORE.INTRA.DIHEDRAL>
0

>  <SCORE.INTRA.DIHEDRAL.0>
0

>  <SCORE.INTRA.POLAR>
0

>  <SCORE.INTRA.POLAR.0>
0

>  <SCORE.INTRA.REPUL>
0

>  <SCORE.INTRA.REPUL.0>
0

>  <SCORE.INTRA.SOLV>
0

>  <SCORE.INTRA.SOLV.lig_0>
-12.9768

>  <SCORE.INTRA.VDW>
0

>  <SCORE.INTRA.VDW.0>
0

>  <SCORE.INTRA.norm>
0

>  <SCORE.RESTR>
0

>  <SCORE.RESTR.CAVITY>
0

>  <SCORE.RESTR.norm>
0

>  <SCORE.SYSTEM>
0

>  <SCORE.SYSTEM.CONST>
0

>  <SCORE.SYSTEM.DIHEDRAL>
0

>  <SCORE.SYSTEM.SOLV>
0

>  <SCORE.SYSTEM.norm>
0

>  <SCORE.heavy>
13

>  <SCORE.norm>
-3.01512

>  <RMSD>
0.707

$$$$
1eht cryst
 OpenBabel11021811383D
libRbt.so/2013.1/901 2013/11/27
 13 14  0  0  0  0  0  0  0  0999 V2000
   -4.8106   -7.8659   10.5577 C   0  0  0  0  0  0  0  0  0  0  0  0
   -5.2670   -7.0025   11.5495 N   0  0  0  0  0  0  0  0  0  0  0  0
   -5.6420   -7.5408   12.7533 C   0  0  0  0  0  0  0  0  0  0  0  0
   -5.5489   -8.7652   12.8602 O   0  0  0  0  0  0  0  0  0  0  0  0
   -6.1101   -6.8155   13.8197 N   0  0  0  0  0  0  0  0  0  0  0  0
   -6.4819   -7.3821   15.0278 C   0  0  0  0  0  0  0  0  0  0  0  0
   -6.1732   -5.4767   13.5683 C   0  0  0  0  0  0  0  0  0  0  0  0
   -5.7983   -4.9515   12.3657 C   0  0  0  0  0  0  0  0  0  0  0  0
   -5.3152   -5.6771   11.2616 C   0  0  0  0  0  0  0  0  0  0  0  0
   -4.9649   -5.2531   10.1613 O   0  0  0  0  0  0  0  0  0  0  0  0
   -5.9950   -3.5816   12.4754 N   0  0  0  0  0  0  0  0  0  0  0  0
   -6.4718   -3.3730   13.7255 C   0  0  0  0  0  0  0  0  0  0  0  0
   -6.5982   -4.4669   14.4245 N   0  0  0  0  0  0  0  0  0  0  0  0
  1  2  1  0  0  0  0
  2  9  1  0  0  0  0
  2  3  1  0  0  0  0
  3  5  1  0  0  0  0
  3  4  2  0  0  0  0
  5  6  1  0  0  0  0
  5  7  1  0  0  0  0
  7  8  2  0  0  0  0
  7 13  1  0  0  0  0
  8  9  1  0  0  0  0
  8 11  1  0  0  0  0
  9 10  2  0  0  0  0
 11 12  1  0  0  0  0
 12 13  2  0  0  0  0
M  END
>  <CHROM.1>
-5.76836486,-6.05366906,12.63072290,-0.77172185,1.20811168,-0.30476669

>  <Name>
1eht cryst

>  <RI>
0

>  <Rbt.Current_Directory>
/home/itssahil/PROJECTS/Mol_Feturizer/New_Systems/rnas/1eht

>  <Rbt.Executable>
rbdock ($Id: //depot/dev/client3/rdock/2013.1/src/exe/rbdock.cxx#4 $)

>  <Rbt.Library>
libRbt.so (2013.1, Build901 2013/11/27)

>  <Rbt.Parameter_File>
/export/apps/rDock/src/rDock_2013.1_src/data/scripts/dock_solv.prm

>  <Rbt.Receptor>
prm/pocket_docking_6.prm

>  <SCORE>
-39.1606

>  <SCORE.INTER>
-39.1606

>  <SCORE.INTER.CONST>
1

>  <SCORE.INTER.POLAR>
-1.92204

>  <SCORE.INTER.ROT>
0

>  <SCORE.INTER.SOLV>
9.81635

>  <SCORE.INTER.VDW>
-26.5724

>  <SCORE.INTER.norm>
-3.01235

>  <SCORE.INTRA>
0

>  <SCORE.INTRA.DIHEDRAL>
0

>  <SCORE.INTRA.DIHEDRAL.0>
0

>  <SCORE.INTRA.POLAR>
0

>  <SCORE.INTRA.POLAR.0>
0

>  <SCORE.INTRA.REPUL>
0

>  <SCORE.INTRA.REPUL.0>
0

>  <SCORE.INTRA.SOLV>
0

>  <SCORE.INTRA.SOLV.lig_0>
-12.9768

>  <SCORE.INTRA.VDW>
0

>  <SCORE.INTRA.VDW.0>
0

>  <SCORE.INTRA.norm>
0

>  <SCORE.RESTR>
0

>  <SCORE.RESTR.CAVITY>
0

>  <SCORE.RESTR.norm>
0

>  <SCORE.SYSTEM>
0

>  <SCORE.SYSTEM.CONST>
0

>  <SCORE.SYSTEM.DIHEDRAL>
0

>  <SCORE.SYSTEM.SOLV>
0

>  <SCORE.SYSTEM.norm>
0

>  <SCORE.heavy>
13

>  <SCORE.norm>
-3.01235

>  <RMSD>
0.708

$$$$
1eht cryst
 OpenBabel11021811383D
libRbt.so/2013.1/901 2013/11/27
 13 14  0  0  0  0  0  0  0  0999 V2000
   -4.7525   -7.8640   10.5788 C   0  0  0  0  0  0  0  0  0  0  0  0
   -5.2208   -7.0133   11.5761 N   0  0  0  0  0  0  0  0  0  0  0  0
   -5.6072   -7.5667   12.7694 C   0  0  0  0  0  0  0  0  0  0  0  0
   -5.5128   -8.7921   12.8627 O   0  0  0  0  0  0  0  0  0  0  0  0
   -6.0876   -6.8551   13.8395 N   0  0  0  0  0  0  0  0  0  0  0  0
   -6.4708   -7.4368   15.0369 C   0  0  0  0  0  0  0  0  0  0  0  0
   -6.1507   -5.5135   13.6036 C   0  0  0  0  0  0  0  0  0  0  0  0
   -5.7645   -4.9732   12.4112 C   0  0  0  0  0  0  0  0  0  0  0  0
   -5.2687   -5.6846   11.3036 C   0  0  0  0  0  0  0  0  0  0  0  0
   -4.9078   -5.2469   10.2121 O   0  0  0  0  0  0  0  0  0  0  0  0
   -5.9650   -3.6051   12.5352 N   0  0  0  0  0  0  0  0  0  0  0  0
   -6.4551   -3.4124   13.7827 C   0  0  0  0  0  0  0  0  0  0  0  0
   -6.5865   -4.5148   14.4673 N   0  0  0  0  0  0  0  0  0  0  0  0
  1  2  1  0  0  0  0
  2  9  1  0  0  0  0
  2  3  1  0  0  0  0
  3  5  1  0  0  0  0
  3  4  2  0  0  0  0
  5  6  1  0  0  0  0
  5  7  1  0  0  0  0
  7  8  2  0  0  0  0
  7 13  1  0  0  0  0
  8  9  1  0  0  0  0
  8 11  1  0  0  0  0
  9 10  2  0  0  0  0
 11 12  1  0  0  0  0
 12 13  2  0  0  0  0
M  END
>  <CHROM.1>
-5.73515046,-6.07845004,12.66335102,-0.77507652,1.19769741,-0.28967502

>  <Name>
1eht cryst

>  <RI>
0

>  <Rbt.Current_Directory>
/home/itssahil/PROJECTS/Mol_Feturizer/New_Systems/rnas/1eht

>  <Rbt.Executable>
rbdock ($Id: //depot/dev/client3/rdock/2013.1/src/exe/rbdock.cxx#4 $)

>  <Rbt.Library>
libRbt.so (2013.1, Build901 2013/11/27)

>  <Rbt.Parameter_File>
/export/apps/rDock/src/rDock_2013.1_src/data/scripts/dock_solv.prm

>  <Rbt.Receptor>
prm/pocket_docking_6.prm

>  <SCORE>
-39.2353

>  <SCORE.INTER>
-39.2353

>  <SCORE.INTER.CONST>
1

>  <SCORE.INTER.POLAR>
-1.92993

>  <SCORE.INTER.ROT>
0

>  <SCORE.INTER.SOLV>
9.79104

>  <SCORE.INTER.VDW>
-26.5874

>  <SCORE.INTER.norm>
-3.0181

>  <SCORE.INTRA>
0

>  <SCORE.INTRA.DIHEDRAL>
0

>  <SCORE.INTRA.DIHEDRAL.0>
0

>  <SCORE.INTRA.POLAR>
0

>  <SCORE.INTRA.POLAR.0>
0

>  <SCORE.INTRA.REPUL>
0

>  <SCORE.INTRA.REPUL.0>
0

>  <SCORE.INTRA.SOLV>
0

>  <SCORE.INTRA.SOLV.lig_0>
-12.9768

>  <SCORE.INTRA.VDW>
0

>  <SCORE.INTRA.VDW.0>
0

>  <SCORE.INTRA.norm>
0

>  <SCORE.RESTR>
0

>  <SCORE.RESTR.CAVITY>
0

>  <SCORE.RESTR.norm>
0

>  <SCORE.SYSTEM>
0

>  <SCORE.SYSTEM.CONST>
0

>  <SCORE.SYSTEM.DIHEDRAL>
0

>  <SCORE.SYSTEM.SOLV>
0

>  <SCORE.SYSTEM.norm>
0

>  <SCORE.heavy>
13

>  <SCORE.norm>
-3.0181

>  <RMSD>
0.708

$$$$
1eht cryst
 OpenBabel11021811383D
libRbt.so/2013.1/901 2013/11/27
 13 14  0  0  0  0  0  0  0  0999 V2000
   -4.8143   -7.8752   10.5494 C   0  0  0  0  0  0  0  0  0  0  0  0
   -5.2679   -7.0075   11.5388 N   0  0  0  0  0  0  0  0  0  0  0  0
   -5.6392   -7.5407   12.7461 C   0  0  0  0  0  0  0  0  0  0  0  0
   -5.5456   -8.7646   12.8580 O   0  0  0  0  0  0  0  0  0  0  0  0
   -6.1042   -6.8108   13.8107 N   0  0  0  0  0  0  0  0  0  0  0  0
   -6.4723   -7.3723   15.0224 C   0  0  0  0  0  0  0  0  0  0  0  0
   -6.1683   -5.4732   13.5538 C   0  0  0  0  0  0  0  0  0  0  0  0
   -5.7972   -4.9531   12.3477 C   0  0  0  0  0  0  0  0  0  0  0  0
   -5.3173   -5.6834   11.2454 C   0  0  0  0  0  0  0  0  0  0  0  0
   -4.9703   -5.2641   10.1422 O   0  0  0  0  0  0  0  0  0  0  0  0
   -5.9937   -3.5828   12.4521 N   0  0  0  0  0  0  0  0  0  0  0  0
   -6.4669   -3.3689   13.7027 C   0  0  0  0  0  0  0  0  0  0  0  0
   -6.5909   -4.4598   14.4069 N   0  0  0  0  0  0  0  0  0  0  0  0
  1  2  1  0  0  0  0
  2  9  1  0  0  0  0
  2  3  1  0  0  0  0
  3  5  1  0  0  0  0
  3  4  2  0  0  0  0
  5  6  1  0  0  0  0
  5  7  1  0  0  0  0
  7  8  2  0  0  0  0
  7 13  1  0  0  0  0
  8  9  1  0  0  0  0
  8 11  1  0  0  0  0
  9 10  2  0  0  0  0
 11 12  1  0  0  0  0
 12 13  2  0  0  0  0
M  END
>  <CHROM.1>
-5.76620385,-6.05412699,12.61743752,-0.76865271,1.21094185,-0.31196431

>  <Name>
1eht cryst

>  <RI>
0

>  <Rbt.Current_Directory>
/home/itssahil/PROJECTS/Mol_Feturizer/New_Systems/rnas/1eht

>  <Rbt.Executable>
rbdock ($Id: //depot/dev/client3/rdock/2013.1/src/exe/rbdock.cxx#4 $)

>  <Rbt.Library>
libRbt.so (2013.1, Build901 2013/11/27)

>  <Rbt.Parameter_File>
/export/apps/rDock/src/rDock_2013.1_src/data/scripts/dock_solv.prm

>  <Rbt.Receptor>
prm/pocket_docking_6.prm

>  <SCORE>
-39.1968

>  <SCORE.INTER>
-39.1968

>  <SCORE.INTER.CONST>
1

>  <SCORE.INTER.POLAR>
-1.92926

>  <SCORE.INTER.ROT>
0

>  <SCORE.INTER.SOLV>
9.8102

>  <SCORE.INTER.VDW>
-26.5704

>  <SCORE.INTER.norm>
-3.01514

>  <SCORE.INTRA>
0

>  <SCORE.INTRA.DIHEDRAL>
0

>  <SCORE.INTRA.DIHEDRAL.0>
0

>  <SCORE.INTRA.POLAR>
0

>  <SCORE.INTRA.POLAR.0>
0

>  <SCORE.INTRA.REPUL>
0

>  <SCORE.INTRA.REPUL.0>
0

>  <SCORE.INTRA.SOLV>
0

>  <SCORE.INTRA.SOLV.lig_0>
-12.9768

>  <SCORE.INTRA.VDW>
0

>  <SCORE.INTRA.VDW.0>
0

>  <SCORE.INTRA.norm>
0

>  <SCORE.RESTR>
0

>  <SCORE.RESTR.CAVITY>
0

>  <SCORE.RESTR.norm>
0

>  <SCORE.SYSTEM>
0

>  <SCORE.SYSTEM.CONST>
0

>  <SCORE.SYSTEM.DIHEDRAL>
0

>  <SCORE.SYSTEM.SOLV>
0

>  <SCORE.SYSTEM.norm>
0

>  <SCORE.heavy>
13

>  <SCORE.norm>
-3.01514

>  <RMSD>
0.708

$$$$
1eht cryst
 OpenBabel11021811383D
libRbt.so/2013.1/901 2013/11/27
 13 14  0  0  0  0  0  0  0  0999 V2000
   -4.8163   -7.8750   10.5510 C   0  0  0  0  0  0  0  0  0  0  0  0
   -5.2691   -7.0078   11.5412 N   0  0  0  0  0  0  0  0  0  0  0  0
   -5.6399   -7.5416   12.7483 C   0  0  0  0  0  0  0  0  0  0  0  0
   -5.5467   -8.7656   12.8595 O   0  0  0  0  0  0  0  0  0  0  0  0
   -6.1041   -6.8122   13.8136 N   0  0  0  0  0  0  0  0  0  0  0  0
   -6.4718   -7.3743   15.0251 C   0  0  0  0  0  0  0  0  0  0  0  0
   -6.1679   -5.4744   13.5576 C   0  0  0  0  0  0  0  0  0  0  0  0
   -5.7972   -4.9537   12.3517 C   0  0  0  0  0  0  0  0  0  0  0  0
   -5.3181   -5.6834   11.2486 C   0  0  0  0  0  0  0  0  0  0  0  0
   -4.9716   -5.2636   10.1455 O   0  0  0  0  0  0  0  0  0  0  0  0
   -5.9932   -3.5833   12.4570 N   0  0  0  0  0  0  0  0  0  0  0  0
   -6.4656   -3.3701   13.7080 C   0  0  0  0  0  0  0  0  0  0  0  0
   -6.5896   -4.4613   14.4115 N   0  0  0  0  0  0  0  0  0  0  0  0
  1  2  1  0  0  0  0
  2  9  1  0  0  0  0
  2  3  1  0  0  0  0
  3  5  1  0  0  0  0
  3  4  2  0  0  0  0
  5  6  1  0  0  0  0
  5  7  1  0  0  0  0
  7  8  2  0  0  0  0
  7 13  1  0  0  0  0
  8  9  1  0  0  0  0
  8 11  1  0  0  0  0
  9 10  2  0  0  0  0
 11 12  1  0  0  0  0
 12 13  2  0  0  0  0
M  END
>  <CHROM.1>
-5.76647204,-6.05488024,12.62068106,-0.76915473,1.21153967,-0.31086856

>  <Name>
1eht cryst

>  <RI>
224

>  <Rbt.Current_Directory>
/home/itssahil/PROJECTS/Mol_Feturizer/New_Systems/rnas/1eht

>  <Rbt.Executable>
rbdock ($Id: //depot/dev/client3/rdock/2013.1/src/exe/rbdock.cxx#4 $)

>  <Rbt.Library>
libRbt.so (2013.1, Build901 2013/11/27)

>  <Rbt.Parameter_File>
/export/apps/rDock/src/rDock_2013.1_src/data/scripts/dock_solv.prm

>  <Rbt.Receptor>
prm/pocket_docking_7.prm

>  <SCORE>
-39.1956

>  <SCORE.INTER>
-39.1956

>  <SCORE.INTER.CONST>
1

>  <SCORE.INTER.POLAR>
-1.92725

>  <SCORE.INTER.ROT>
0

>  <SCORE.INTER.SOLV>
9.80877

>  <SCORE.INTER.VDW>
-26.5758

>  <SCORE.INTER.norm>
-3.01505

>  <SCORE.INTRA>
0

>  <SCORE.INTRA.DIHEDRAL>
0

>  <SCORE.INTRA.DIHEDRAL.0>
0

>  <SCORE.INTRA.POLAR>
0

>  <SCORE.INTRA.POLAR.0>
0

>  <SCORE.INTRA.REPUL>
0

>  <SCORE.INTRA.REPUL.0>
0

>  <SCORE.INTRA.SOLV>
0

>  <SCORE.INTRA.SOLV.lig_0>
-12.9768

>  <SCORE.INTRA.VDW>
0

>  <SCORE.INTRA.VDW.0>
0

>  <SCORE.INTRA.norm>
0

>  <SCORE.RESTR>
0

>  <SCORE.RESTR.CAVITY>
0

>  <SCORE.RESTR.norm>
0

>  <SCORE.SYSTEM>
0

>  <SCORE.SYSTEM.CONST>
0

>  <SCORE.SYSTEM.DIHEDRAL>
0

>  <SCORE.SYSTEM.SOLV>
0

>  <SCORE.SYSTEM.norm>
0

>  <SCORE.heavy>
13

>  <SCORE.norm>
-3.01505

>  <RMSD>
0.708

$$$$
1eht cryst
 OpenBabel11021811383D
libRbt.so/2013.1/901 2013/11/27
 13 14  0  0  0  0  0  0  0  0999 V2000
   -4.8173   -7.8722   10.5549 C   0  0  0  0  0  0  0  0  0  0  0  0
   -5.2729   -7.0062   11.5449 N   0  0  0  0  0  0  0  0  0  0  0  0
   -5.6454   -7.5414   12.7509 C   0  0  0  0  0  0  0  0  0  0  0  0
   -5.5510   -8.7654   12.8613 O   0  0  0  0  0  0  0  0  0  0  0  0
   -6.1124   -6.8134   13.8159 N   0  0  0  0  0  0  0  0  0  0  0  0
   -6.4816   -7.3769   15.0263 C   0  0  0  0  0  0  0  0  0  0  0  0
   -6.1771   -5.4754   13.5608 C   0  0  0  0  0  0  0  0  0  0  0  0
   -5.8048   -4.9534   12.3560 C   0  0  0  0  0  0  0  0  0  0  0  0
   -5.3229   -5.6817   11.2533 C   0  0  0  0  0  0  0  0  0  0  0  0
   -4.9747   -5.2606   10.1511 O   0  0  0  0  0  0  0  0  0  0  0  0
   -6.0025   -3.5834   12.4620 N   0  0  0  0  0  0  0  0  0  0  0  0
   -6.4775   -3.3716   13.7123 C   0  0  0  0  0  0  0  0  0  0  0  0
   -6.6016   -4.4635   14.4147 N   0  0  0  0  0  0  0  0  0  0  0  0
  1  2  1  0  0  0  0
  2  9  1  0  0  0  0
  2  3  1  0  0  0  0
  3  5  1  0  0  0  0
  3  4  2  0  0  0  0
  5  6  1  0  0  0  0
  5  7  1  0  0  0  0
  7  8  2  0  0  0  0
  7 13  1  0  0  0  0
  8  9  1  0  0  0  0
  8 11  1  0  0  0  0
  9 10  2  0  0  0  0
 11 12  1  0  0  0  0
 12 13  2  0  0  0  0
M  END
>  <CHROM.1>
-5.77334526,-6.05477461,12.62420251,-0.76775257,1.20943022,-0.31140268

>  <Name>
1eht cryst

>  <RI>
0

>  <Rbt.Current_Directory>
/home/itssahil/PROJECTS/Mol_Feturizer/New_Systems/rnas/1eht

>  <Rbt.Executable>
rbdock ($Id: //depot/dev/client3/rdock/2013.1/src/exe/rbdock.cxx#4 $)

>  <Rbt.Library>
libRbt.so (2013.1, Build901 2013/11/27)

>  <Rbt.Parameter_File>
/export/apps/rDock/src/rDock_2013.1_src/data/scripts/dock_solv.prm

>  <Rbt.Receptor>
prm/blind_docking_20.prm

>  <SCORE>
-39.1758

>  <SCORE.INTER>
-39.1758

>  <SCORE.INTER.CONST>
1

>  <SCORE.INTER.POLAR>
-1.92457

>  <SCORE.INTER.ROT>
0

>  <SCORE.INTER.SOLV>
9.80696

>  <SCORE.INTER.VDW>
-26.571

>  <SCORE.INTER.norm>
-3.01353

>  <SCORE.INTRA>
0

>  <SCORE.INTRA.DIHEDRAL>
0

>  <SCORE.INTRA.DIHEDRAL.0>
0

>  <SCORE.INTRA.POLAR>
0

>  <SCORE.INTRA.POLAR.0>
0

>  <SCORE.INTRA.REPUL>
0

>  <SCORE.INTRA.REPUL.0>
0

>  <SCORE.INTRA.SOLV>
0

>  <SCORE.INTRA.SOLV.lig_0>
-12.9768

>  <SCORE.INTRA.VDW>
0

>  <SCORE.INTRA.VDW.0>
0

>  <SCORE.INTRA.norm>
0

>  <SCORE.RESTR>
0

>  <SCORE.RESTR.CAVITY>
0

>  <SCORE.RESTR.norm>
0

>  <SCORE.SYSTEM>
0

>  <SCORE.SYSTEM.CONST>
0

>  <SCORE.SYSTEM.DIHEDRAL>
0

>  <SCORE.SYSTEM.SOLV>
0

>  <SCORE.SYSTEM.norm>
0

>  <SCORE.heavy>
13

>  <SCORE.norm>
-3.01353

>  <RMSD>
0.709

$$$$
1eht cryst
 OpenBabel11021811383D
libRbt.so/2013.1/901 2013/11/27
 13 14  0  0  0  0  0  0  0  0999 V2000
   -4.8337   -7.8886   10.5462 C   0  0  0  0  0  0  0  0  0  0  0  0
   -5.2807   -7.0180   11.5361 N   0  0  0  0  0  0  0  0  0  0  0  0
   -5.6427   -7.5476   12.7478 C   0  0  0  0  0  0  0  0  0  0  0  0
   -5.5472   -8.7710   12.8630 O   0  0  0  0  0  0  0  0  0  0  0  0
   -6.1004   -6.8146   13.8134 N   0  0  0  0  0  0  0  0  0  0  0  0
   -6.4591   -7.3724   15.0296 C   0  0  0  0  0  0  0  0  0  0  0  0
   -6.1675   -5.4778   13.5526 C   0  0  0  0  0  0  0  0  0  0  0  0
   -5.8056   -4.9614   12.3422 C   0  0  0  0  0  0  0  0  0  0  0  0
   -5.3333   -5.6949   11.2387 C   0  0  0  0  0  0  0  0  0  0  0  0
   -4.9947   -5.2789   10.1316 O   0  0  0  0  0  0  0  0  0  0  0  0
   -6.0025   -3.5909   12.4435 N   0  0  0  0  0  0  0  0  0  0  0  0
   -6.4666   -3.3733   13.6969 C   0  0  0  0  0  0  0  0  0  0  0  0
   -6.5846   -4.4620   14.4055 N   0  0  0  0  0  0  0  0  0  0  0  0
  1  2  1  0  0  0  0
  2  9  1  0  0  0  0
  2  3  1  0  0  0  0
  3  5  1  0  0  0  0
  3  4  2  0  0  0  0
  5  6  1  0  0  0  0
  5  7  1  0  0  0  0
  7  8  2  0  0  0  0
  7 13  1  0  0  0  0
  8  9  1  0  0  0  0
  8 11  1  0  0  0  0
  9 10  2  0  0  0  0
 11 12  1  0  0  0  0
 12 13  2  0  0  0  0
M  END
>  <CHROM.1>
-5.77179275,-6.06151476,12.61523262,-0.75992179,1.21767212,-0.32340572

>  <Name>
1eht cryst

>  <RI>
0

>  <Rbt.Current_Directory>
/home/itssahil/PROJECTS/Mol_Feturizer/New_Systems/rnas/1eht

>  <Rbt.Executable>
rbdock ($Id: //depot/dev/client3/rdock/2013.1/src/exe/rbdock.cxx#4 $)

>  <Rbt.Library>
libRbt.so (2013.1, Build901 2013/11/27)

>  <Rbt.Parameter_File>
/export/apps/rDock/src/rDock_2013.1_src/data/scripts/dock_solv.prm

>  <Rbt.Receptor>
prm/blind_docking_60.prm

>  <SCORE>
-39.1723

>  <SCORE.INTER>
-39.1723

>  <SCORE.INTER.CONST>
1

>  <SCORE.INTER.POLAR>
-1.92671

>  <SCORE.INTER.ROT>
0

>  <SCORE.INTER.SOLV>
9.77898

>  <SCORE.INTER.VDW>
-26.5522

>  <SCORE.INTER.norm>
-3.01326

>  <SCORE.INTRA>
0

>  <SCORE.INTRA.DIHEDRAL>
0

>  <SCORE.INTRA.DIHEDRAL.0>
0

>  <SCORE.INTRA.POLAR>
0

>  <SCORE.INTRA.POLAR.0>
0

>  <SCORE.INTRA.REPUL>
0

>  <SCORE.INTRA.REPUL.0>
0

>  <SCORE.INTRA.SOLV>
0

>  <SCORE.INTRA.SOLV.lig_0>
-12.9768

>  <SCORE.INTRA.VDW>
0

>  <SCORE.INTRA.VDW.0>
0

>  <SCORE.INTRA.norm>
0

>  <SCORE.RESTR>
0

>  <SCORE.RESTR.CAVITY>
0

>  <SCORE.RESTR.norm>
0

>  <SCORE.SYSTEM>
0

>  <SCORE.SYSTEM.CONST>
0

>  <SCORE.SYSTEM.DIHEDRAL>
0

>  <SCORE.SYSTEM.SOLV>
0

>  <SCORE.SYSTEM.norm>
0

>  <SCORE.heavy>
13

>  <SCORE.norm>
-3.01326

>  <RMSD>
0.709

$$$$
1eht cryst
 OpenBabel11021811383D
libRbt.so/2013.1/901 2013/11/27
 13 14  0  0  0  0  0  0  0  0999 V2000
   -4.7997   -7.8742   10.5538 C   0  0  0  0  0  0  0  0  0  0  0  0
   -5.2587   -7.0057   11.5400 N   0  0  0  0  0  0  0  0  0  0  0  0
   -5.6317   -7.5374   12.7475 C   0  0  0  0  0  0  0  0  0  0  0  0
   -5.5345   -8.7607   12.8625 O   0  0  0  0  0  0  0  0  0  0  0  0
   -6.1019   -6.8066   13.8091 N   0  0  0  0  0  0  0  0  0  0  0  0
   -6.4715   -7.3664   15.0211 C   0  0  0  0  0  0  0  0  0  0  0  0
   -6.1695   -5.4697   13.5490 C   0  0  0  0  0  0  0  0  0  0  0  0
   -5.7967   -4.9512   12.3428 C   0  0  0  0  0  0  0  0  0  0  0  0
   -5.3115   -5.6824   11.2434 C   0  0  0  0  0  0  0  0  0  0  0  0
   -4.9628   -5.2646   10.1402 O   0  0  0  0  0  0  0  0  0  0  0  0
   -5.9978   -3.5813   12.4434 N   0  0  0  0  0  0  0  0  0  0  0  0
   -6.4751   -3.3660   13.6923 C   0  0  0  0  0  0  0  0  0  0  0  0
   -6.5975   -4.4557   14.3986 N   0  0  0  0  0  0  0  0  0  0  0  0
  1  2  1  0  0  0  0
  2  9  1  0  0  0  0
  2  3  1  0  0  0  0
  3  5  1  0  0  0  0
  3  4  2  0  0  0  0
  5  6  1  0  0  0  0
  5  7  1  0  0  0  0
  7  8  2  0  0  0  0
  7 13  1  0  0  0  0
  8  9  1  0  0  0  0
  8 11  1  0  0  0  0
  9 10  2  0  0  0  0
 11 12  1  0  0  0  0
 12 13  2  0  0  0  0
M  END
>  <CHROM.1>
-5.76298125,-6.05149386,12.61509073,-0.76255910,1.20736903,-0.31994805

>  <Name>
1eht cryst

>  <RI>
0

>  <Rbt.Current_Directory>
/home/itssahil/PROJECTS/Mol_Feturizer/New_Systems/rnas/1eht

>  <Rbt.Executable>
rbdock ($Id: //depot/dev/client3/rdock/2013.1/src/exe/rbdock.cxx#4 $)

>  <Rbt.Library>
libRbt.so (2013.1, Build901 2013/11/27)

>  <Rbt.Parameter_File>
/export/apps/rDock/src/rDock_2013.1_src/data/scripts/dock_solv.prm

>  <Rbt.Receptor>
prm/blind_docking_100.prm

>  <SCORE>
-39.1617

>  <SCORE.INTER>
-39.1617

>  <SCORE.INTER.CONST>
1

>  <SCORE.INTER.POLAR>
-1.9322

>  <SCORE.INTER.ROT>
0

>  <SCORE.INTER.SOLV>
9.81349

>  <SCORE.INTER.VDW>
-26.5383

>  <SCORE.INTER.norm>
-3.01243

>  <SCORE.INTRA>
0

>  <SCORE.INTRA.DIHEDRAL>
0

>  <SCORE.INTRA.DIHEDRAL.0>
0

>  <SCORE.INTRA.POLAR>
0

>  <SCORE.INTRA.POLAR.0>
0

>  <SCORE.INTRA.REPUL>
0

>  <SCORE.INTRA.REPUL.0>
0

>  <SCORE.INTRA.SOLV>
0

>  <SCORE.INTRA.SOLV.lig_0>
-12.9768

>  <SCORE.INTRA.VDW>
0

>  <SCORE.INTRA.VDW.0>
0

>  <SCORE.INTRA.norm>
0

>  <SCORE.RESTR>
0

>  <SCORE.RESTR.CAVITY>
0

>  <SCORE.RESTR.norm>
0

>  <SCORE.SYSTEM>
0

>  <SCORE.SYSTEM.CONST>
0

>  <SCORE.SYSTEM.DIHEDRAL>
0

>  <SCORE.SYSTEM.SOLV>
0

>  <SCORE.SYSTEM.norm>
0

>  <SCORE.heavy>
13

>  <SCORE.norm>
-3.01243

>  <RMSD>
0.710

$$$$
1eht cryst
 OpenBabel11021811383D
libRbt.so/2013.1/901 2013/11/27
 13 14  0  0  0  0  0  0  0  0999 V2000
   -4.8273   -7.8819   10.5499 C   0  0  0  0  0  0  0  0  0  0  0  0
   -5.2772   -7.0124   11.5395 N   0  0  0  0  0  0  0  0  0  0  0  0
   -5.6445   -7.5435   12.7489 C   0  0  0  0  0  0  0  0  0  0  0  0
   -5.5508   -8.7672   12.8626 O   0  0  0  0  0  0  0  0  0  0  0  0
   -6.1056   -6.8118   13.8139 N   0  0  0  0  0  0  0  0  0  0  0  0
   -6.4696   -7.3711   15.0278 C   0  0  0  0  0  0  0  0  0  0  0  0
   -6.1701   -5.4745   13.5550 C   0  0  0  0  0  0  0  0  0  0  0  0
   -5.8030   -4.9565   12.3468 C   0  0  0  0  0  0  0  0  0  0  0  0
   -5.3272   -5.6888   11.2441 C   0  0  0  0  0  0  0  0  0  0  0  0
   -4.9839   -5.2714   10.1390 O   0  0  0  0  0  0  0  0  0  0  0  0
   -5.9988   -3.5860   12.4496 N   0  0  0  0  0  0  0  0  0  0  0  0
   -6.4675   -3.3699   13.7015 C   0  0  0  0  0  0  0  0  0  0  0  0
   -6.5894   -4.4595   14.4079 N   0  0  0  0  0  0  0  0  0  0  0  0
  1  2  1  0  0  0  0
  2  9  1  0  0  0  0
  2  3  1  0  0  0  0
  3  5  1  0  0  0  0
  3  4  2  0  0  0  0
  5  6  1  0  0  0  0
  5  7  1  0  0  0  0
  7  8  2  0  0  0  0
  7 13  1  0  0  0  0
  8  9  1  0  0  0  0
  8 11  1  0  0  0  0
  9 10  2  0  0  0  0
 11 12  1  0  0  0  0
 12 13  2  0  0  0  0
M  END
>  <CHROM.1>
-5.77144965,-6.05712395,12.61826640,-0.76643249,1.21431899,-0.31569387

>  <Name>
1eht cryst

>  <RI>
0

>  <Rbt.Current_Directory>
/home/itssahil/PROJECTS/Mol_Feturizer/New_Systems/rnas/1eht

>  <Rbt.Executable>
rbdock ($Id: //depot/dev/client3/rdock/2013.1/src/exe/rbdock.cxx#4 $)

>  <Rbt.Library>
libRbt.so (2013.1, Build901 2013/11/27)

>  <Rbt.Parameter_File>
/export/apps/rDock/src/rDock_2013.1_src/data/scripts/dock_solv.prm

>  <Rbt.Receptor>
prm/blind_docking_100.prm

>  <SCORE>
-39.181

>  <SCORE.INTER>
-39.181

>  <SCORE.INTER.CONST>
1

>  <SCORE.INTER.POLAR>
-1.92689

>  <SCORE.INTER.ROT>
0

>  <SCORE.INTER.SOLV>
9.79604

>  <SCORE.INTER.VDW>
-26.563

>  <SCORE.INTER.norm>
-3.01392

>  <SCORE.INTRA>
0

>  <SCORE.INTRA.DIHEDRAL>
0

>  <SCORE.INTRA.DIHEDRAL.0>
0

>  <SCORE.INTRA.POLAR>
0

>  <SCORE.INTRA.POLAR.0>
0

>  <SCORE.INTRA.REPUL>
0

>  <SCORE.INTRA.REPUL.0>
0

>  <SCORE.INTRA.SOLV>
0

>  <SCORE.INTRA.SOLV.lig_0>
-12.9768

>  <SCORE.INTRA.VDW>
0

>  <SCORE.INTRA.VDW.0>
0

>  <SCORE.INTRA.norm>
0

>  <SCORE.RESTR>
0

>  <SCORE.RESTR.CAVITY>
0

>  <SCORE.RESTR.norm>
0

>  <SCORE.SYSTEM>
0

>  <SCORE.SYSTEM.CONST>
0

>  <SCORE.SYSTEM.DIHEDRAL>
0

>  <SCORE.SYSTEM.SOLV>
0

>  <SCORE.SYSTEM.norm>
0

>  <SCORE.heavy>
13

>  <SCORE.norm>
-3.01392

>  <RMSD>
0.710

$$$$
1eht cryst
 OpenBabel11021811383D
libRbt.so/2013.1/901 2013/11/27
 13 14  0  0  0  0  0  0  0  0999 V2000
   -4.8188   -7.8744   10.5519 C   0  0  0  0  0  0  0  0  0  0  0  0
   -5.2722   -7.0060   11.5407 N   0  0  0  0  0  0  0  0  0  0  0  0
   -5.6449   -7.5384   12.7479 C   0  0  0  0  0  0  0  0  0  0  0  0
   -5.5526   -8.7623   12.8603 O   0  0  0  0  0  0  0  0  0  0  0  0
   -6.1099   -6.8077   13.8120 N   0  0  0  0  0  0  0  0  0  0  0  0
   -6.4794   -7.3684   15.0236 C   0  0  0  0  0  0  0  0  0  0  0  0
   -6.1724   -5.4700   13.5546 C   0  0  0  0  0  0  0  0  0  0  0  0
   -5.7998   -4.9508   12.3486 C   0  0  0  0  0  0  0  0  0  0  0  0
   -5.3199   -5.6819   11.2469 C   0  0  0  0  0  0  0  0  0  0  0  0
   -4.9717   -5.2633   10.1438 O   0  0  0  0  0  0  0  0  0  0  0  0
   -5.9950   -3.5802   12.4524 N   0  0  0  0  0  0  0  0  0  0  0  0
   -6.4688   -3.3654   13.7026 C   0  0  0  0  0  0  0  0  0  0  0  0
   -6.5944   -4.4559   14.4071 N   0  0  0  0  0  0  0  0  0  0  0  0
  1  2  1  0  0  0  0
  2  9  1  0  0  0  0
  2  3  1  0  0  0  0
  3  5  1  0  0  0  0
  3  4  2  0  0  0  0
  5  6  1  0  0  0  0
  5  7  1  0  0  0  0
  7  8  2  0  0  0  0
  7 13  1  0  0  0  0
  8  9  1  0  0  0  0
  8 11  1  0  0  0  0
  9 10  2  0  0  0  0
 11 12  1  0  0  0  0
 12 13  2  0  0  0  0
M  END
>  <CHROM.1>
-5.77021693,-6.05172512,12.61873432,-0.77214060,1.21059247,-0.30902027

>  <Name>
1eht cryst

>  <RI>
0

>  <Rbt.Current_Directory>
/home/itssahil/PROJECTS/Mol_Feturizer/New_Systems/rnas/1eht

>  <Rbt.Executable>
rbdock ($Id: //depot/dev/client3/rdock/2013.1/src/exe/rbdock.cxx#4 $)

>  <Rbt.Library>
libRbt.so (2013.1, Build901 2013/11/27)

>  <Rbt.Parameter_File>
/export/apps/rDock/src/rDock_2013.1_src/data/scripts/dock_solv.prm

>  <Rbt.Receptor>
prm/blind_docking_60.prm

>  <SCORE>
-39.1856

>  <SCORE.INTER>
-39.1856

>  <SCORE.INTER.CONST>
1

>  <SCORE.INTER.POLAR>
-1.92822

>  <SCORE.INTER.ROT>
0

>  <SCORE.INTER.SOLV>
9.81511

>  <SCORE.INTER.VDW>
-26.568

>  <SCORE.INTER.norm>
-3.01427

>  <SCORE.INTRA>
0

>  <SCORE.INTRA.DIHEDRAL>
0

>  <SCORE.INTRA.DIHEDRAL.0>
0

>  <SCORE.INTRA.POLAR>
0

>  <SCORE.INTRA.POLAR.0>
0

>  <SCORE.INTRA.REPUL>
0

>  <SCORE.INTRA.REPUL.0>
0

>  <SCORE.INTRA.SOLV>
0

>  <SCORE.INTRA.SOLV.lig_0>
-12.9768

>  <SCORE.INTRA.VDW>
0

>  <SCORE.INTRA.VDW.0>
0

>  <SCORE.INTRA.norm>
0

>  <SCORE.RESTR>
0

>  <SCORE.RESTR.CAVITY>
0

>  <SCORE.RESTR.norm>
0

>  <SCORE.SYSTEM>
0

>  <SCORE.SYSTEM.CONST>
0

>  <SCORE.SYSTEM.DIHEDRAL>
0

>  <SCORE.SYSTEM.SOLV>
0

>  <SCORE.SYSTEM.norm>
0

>  <SCORE.heavy>
13

>  <SCORE.norm>
-3.01427

>  <RMSD>
0.710

$$$$
1eht cryst
 OpenBabel11021811383D
libRbt.so/2013.1/901 2013/11/27
 13 14  0  0  0  0  0  0  0  0999 V2000
   -4.7208   -7.6394   10.6090 C   0  0  0  0  0  0  0  0  0  0  0  0
   -5.2284   -6.8359   11.6259 N   0  0  0  0  0  0  0  0  0  0  0  0
   -5.6122   -7.4387   12.7960 C   0  0  0  0  0  0  0  0  0  0  0  0
   -5.4801   -8.6629   12.8521 O   0  0  0  0  0  0  0  0  0  0  0  0
   -6.1285   -6.7768   13.8812 N   0  0  0  0  0  0  0  0  0  0  0  0
   -6.5082   -7.4080   15.0544 C   0  0  0  0  0  0  0  0  0  0  0  0
   -6.2312   -5.4310   13.6865 C   0  0  0  0  0  0  0  0  0  0  0  0
   -5.8472   -4.8414   12.5171 C   0  0  0  0  0  0  0  0  0  0  0  0
   -5.3150   -5.5014   11.3946 C   0  0  0  0  0  0  0  0  0  0  0  0
   -4.9544   -5.0181   10.3224 O   0  0  0  0  0  0  0  0  0  0  0  0
   -6.0925   -3.4848   12.6811 N   0  0  0  0  0  0  0  0  0  0  0  0
   -6.6044   -3.3473   13.9272 C   0  0  0  0  0  0  0  0  0  0  0  0
   -6.7093   -4.4744   14.5751 N   0  0  0  0  0  0  0  0  0  0  0  0
  1  2  1  0  0  0  0
  2  9  1  0  0  0  0
  2  3  1  0  0  0  0
  3  5  1  0  0  0  0
  3  4  2  0  0  0  0
  5  6  1  0  0  0  0
  5  7  1  0  0  0  0
  7  8  2  0  0  0  0
  7 13  1  0  0  0  0
  8  9  1  0  0  0  0
  8 11  1  0  0  0  0
  9 10  2  0  0  0  0
 11 12  1  0  0  0  0
 12 13  2  0  0  0  0
M  END
>  <CHROM.1>
-5.78596937,-5.95259131,12.73483848,-0.70541122,1.17559514,-0.32272550

>  <Name>
1eht cryst

>  <RI>
0

>  <Rbt.Current_Directory>
/home/itssahil/PROJECTS/Mol_Feturizer/New_Systems/rnas/1eht

>  <Rbt.Executable>
rbdock ($Id: //depot/dev/client3/rdock/2013.1/src/exe/rbdock.cxx#4 $)

>  <Rbt.Library>
libRbt.so (2013.1, Build901 2013/11/27)

>  <Rbt.Parameter_File>
/export/apps/rDock/src/rDock_2013.1_src/data/scripts/dock_solv.prm

>  <Rbt.Receptor>
prm/blind_docking_80.prm

>  <SCORE>
-38.6829

>  <SCORE.INTER>
-38.6919

>  <SCORE.INTER.CONST>
1

>  <SCORE.INTER.POLAR>
-1.75898

>  <SCORE.INTER.ROT>
0

>  <SCORE.INTER.SOLV>
10.0563

>  <SCORE.INTER.VDW>
-26.8834

>  <SCORE.INTER.norm>
-2.9763

>  <SCORE.INTRA>
0

>  <SCORE.INTRA.DIHEDRAL>
0

>  <SCORE.INTRA.DIHEDRAL.0>
0

>  <SCORE.INTRA.POLAR>
0

>  <SCORE.INTRA.POLAR.0>
0

>  <SCORE.INTRA.REPUL>
0

>  <SCORE.INTRA.REPUL.0>
0

>  <SCORE.INTRA.SOLV>
0

>  <SCORE.INTRA.SOLV.lig_0>
-12.9768

>  <SCORE.INTRA.VDW>
0

>  <SCORE.INTRA.VDW.0>
0

>  <SCORE.INTRA.norm>
0

>  <SCORE.RESTR>
0.00901603

>  <SCORE.RESTR.CAVITY>
0.00901603

>  <SCORE.RESTR.norm>
0.000693541

>  <SCORE.SYSTEM>
0

>  <SCORE.SYSTEM.CONST>
0

>  <SCORE.SYSTEM.DIHEDRAL>
0

>  <SCORE.SYSTEM.SOLV>
0

>  <SCORE.SYSTEM.norm>
0

>  <SCORE.heavy>
13

>  <SCORE.norm>
-2.97561

>  <RMSD>
0.710

$$$$
1eht cryst
 OpenBabel11021811383D
libRbt.so/2013.1/901 2013/11/27
 13 14  0  0  0  0  0  0  0  0999 V2000
   -4.8247   -7.8751   10.5560 C   0  0  0  0  0  0  0  0  0  0  0  0
   -5.2753   -7.0088   11.5479 N   0  0  0  0  0  0  0  0  0  0  0  0
   -5.6447   -7.5439   12.7550 C   0  0  0  0  0  0  0  0  0  0  0  0
   -5.5521   -8.7681   12.8645 O   0  0  0  0  0  0  0  0  0  0  0  0
   -6.1068   -6.8155   13.8219 N   0  0  0  0  0  0  0  0  0  0  0  0
   -6.4729   -7.3788   15.0333 C   0  0  0  0  0  0  0  0  0  0  0  0
   -6.1700   -5.4773   13.5676 C   0  0  0  0  0  0  0  0  0  0  0  0
   -5.8008   -4.9554   12.3618 C   0  0  0  0  0  0  0  0  0  0  0  0
   -5.3239   -5.6841   11.2571 C   0  0  0  0  0  0  0  0  0  0  0  0
   -4.9788   -5.2631   10.1540 O   0  0  0  0  0  0  0  0  0  0  0  0
   -5.9957   -3.5850   12.4691 N   0  0  0  0  0  0  0  0  0  0  0  0
   -6.4660   -3.3730   13.7210 C   0  0  0  0  0  0  0  0  0  0  0  0
   -6.5897   -4.4650   14.4234 N   0  0  0  0  0  0  0  0  0  0  0  0
  1  2  1  0  0  0  0
  2  9  1  0  0  0  0
  2  3  1  0  0  0  0
  3  5  1  0  0  0  0
  3  4  2  0  0  0  0
  5  6  1  0  0  0  0
  5  7  1  0  0  0  0
  7  8  2  0  0  0  0
  7 13  1  0  0  0  0
  8  9  1  0  0  0  0
  8 11  1  0  0  0  0
  9 10  2  0  0  0  0
 11 12  1  0  0  0  0
 12 13  2  0  0  0  0
M  END
>  <CHROM.1>
-5.77040671,-6.05693167,12.62937433,-0.76967725,1.21320869,-0.30914751

>  <Name>
1eht cryst

>  <RI>
0

>  <Rbt.Current_Directory>
/home/itssahil/PROJECTS/Mol_Feturizer/New_Systems/rnas/1eht

>  <Rbt.Executable>
rbdock ($Id: //depot/dev/client3/rdock/2013.1/src/exe/rbdock.cxx#4 $)

>  <Rbt.Library>
libRbt.so (2013.1, Build901 2013/11/27)

>  <Rbt.Parameter_File>
/export/apps/rDock/src/rDock_2013.1_src/data/scripts/dock_solv.prm

>  <Rbt.Receptor>
prm/pocket_docking_2.prm

>  <SCORE>
-39.1803

>  <SCORE.INTER>
-39.1803

>  <SCORE.INTER.CONST>
1

>  <SCORE.INTER.POLAR>
-1.92065

>  <SCORE.INTER.ROT>
0

>  <SCORE.INTER.SOLV>
9.80196

>  <SCORE.INTER.VDW>
-26.5853

>  <SCORE.INTER.norm>
-3.01387

>  <SCORE.INTRA>
0

>  <SCORE.INTRA.DIHEDRAL>
0

>  <SCORE.INTRA.DIHEDRAL.0>
0

>  <SCORE.INTRA.POLAR>
0

>  <SCORE.INTRA.POLAR.0>
0

>  <SCORE.INTRA.REPUL>
0

>  <SCORE.INTRA.REPUL.0>
0

>  <SCORE.INTRA.SOLV>
0

>  <SCORE.INTRA.SOLV.lig_0>
-12.9768

>  <SCORE.INTRA.VDW>
0

>  <SCORE.INTRA.VDW.0>
0

>  <SCORE.INTRA.norm>
0

>  <SCORE.RESTR>
0

>  <SCORE.RESTR.CAVITY>
0

>  <SCORE.RESTR.norm>
0

>  <SCORE.SYSTEM>
0

>  <SCORE.SYSTEM.CONST>
0

>  <SCORE.SYSTEM.DIHEDRAL>
0

>  <SCORE.SYSTEM.SOLV>
0

>  <SCORE.SYSTEM.norm>
0

>  <SCORE.heavy>
13

>  <SCORE.norm>
-3.01387

>  <RMSD>
0.710

$$$$
1eht cryst
 OpenBabel11021811383D
libRbt.so/2013.1/901 2013/11/27
 13 14  0  0  0  0  0  0  0  0999 V2000
   -4.8295   -7.8810   10.5510 C   0  0  0  0  0  0  0  0  0  0  0  0
   -5.2807   -7.0132   11.5414 N   0  0  0  0  0  0  0  0  0  0  0  0
   -5.6551   -7.5469   12.7475 C   0  0  0  0  0  0  0  0  0  0  0  0
   -5.5662   -8.7713   12.8576 O   0  0  0  0  0  0  0  0  0  0  0  0
   -6.1183   -6.8170   13.8129 N   0  0  0  0  0  0  0  0  0  0  0  0
   -6.4896   -7.3791   15.0233 C   0  0  0  0  0  0  0  0  0  0  0  0
   -6.1772   -5.4787   13.5581 C   0  0  0  0  0  0  0  0  0  0  0  0
   -5.8030   -4.9581   12.3532 C   0  0  0  0  0  0  0  0  0  0  0  0
   -5.3248   -5.6884   11.2501 C   0  0  0  0  0  0  0  0  0  0  0  0
   -4.9753   -5.2686   10.1479 O   0  0  0  0  0  0  0  0  0  0  0  0
   -5.9945   -3.5872   12.4596 N   0  0  0  0  0  0  0  0  0  0  0  0
   -6.4680   -3.3736   13.7101 C   0  0  0  0  0  0  0  0  0  0  0  0
   -6.5967   -4.4651   14.4124 N   0  0  0  0  0  0  0  0  0  0  0  0
  1  2  1  0  0  0  0
  2  9  1  0  0  0  0
  2  3  1  0  0  0  0
  3  5  1  0  0  0  0
  3  4  2  0  0  0  0
  5  6  1  0  0  0  0
  5  7  1  0  0  0  0
  7  8  2  0  0  0  0
  7 13  1  0  0  0  0
  8  9  1  0  0  0  0
  8 11  1  0  0  0  0
  9 10  2  0  0  0  0
 11 12  1  0  0  0  0
 12 13  2  0  0  0  0
M  END
>  <CHROM.1>
-5.77639641,-6.05967555,12.62117798,-0.77959525,1.21120891,-0.30011208

>  <Name>
1eht cryst

>  <RI>
0

>  <Rbt.Current_Directory>
/home/itssahil/PROJECTS/Mol_Feturizer/New_Systems/rnas/1eht

>  <Rbt.Executable>
rbdock ($Id: //depot/dev/client3/rdock/2013.1/src/exe/rbdock.cxx#4 $)

>  <Rbt.Library>
libRbt.so (2013.1, Build901 2013/11/27)

>  <Rbt.Parameter_File>
/export/apps/rDock/src/rDock_2013.1_src/data/scripts/dock_solv.prm

>  <Rbt.Receptor>
prm/pocket_docking_2.prm

>  <SCORE>
-39.1635

>  <SCORE.INTER>
-39.1635

>  <SCORE.INTER.CONST>
1

>  <SCORE.INTER.POLAR>
-1.93148

>  <SCORE.INTER.ROT>
0

>  <SCORE.INTER.SOLV>
9.80165

>  <SCORE.INTER.VDW>
-26.538

>  <SCORE.INTER.norm>
-3.01258

>  <SCORE.INTRA>
0

>  <SCORE.INTRA.DIHEDRAL>
0

>  <SCORE.INTRA.DIHEDRAL.0>
0

>  <SCORE.INTRA.POLAR>
0

>  <SCORE.INTRA.POLAR.0>
0

>  <SCORE.INTRA.REPUL>
0

>  <SCORE.INTRA.REPUL.0>
0

>  <SCORE.INTRA.SOLV>
0

>  <SCORE.INTRA.SOLV.lig_0>
-12.9768

>  <SCORE.INTRA.VDW>
0

>  <SCORE.INTRA.VDW.0>
0

>  <SCORE.INTRA.norm>
0

>  <SCORE.RESTR>
0

>  <SCORE.RESTR.CAVITY>
0

>  <SCORE.RESTR.norm>
0

>  <SCORE.SYSTEM>
0

>  <SCORE.SYSTEM.CONST>
0

>  <SCORE.SYSTEM.DIHEDRAL>
0

>  <SCORE.SYSTEM.SOLV>
0

>  <SCORE.SYSTEM.norm>
0

>  <SCORE.heavy>
13

>  <SCORE.norm>
-3.01258

>  <RMSD>
0.710

$$$$
1eht cryst
 OpenBabel11021811383D
libRbt.so/2013.1/901 2013/11/27
 13 14  0  0  0  0  0  0  0  0999 V2000
   -4.7941   -7.8807   10.5576 C   0  0  0  0  0  0  0  0  0  0  0  0
   -5.2567   -7.0136   11.5433 N   0  0  0  0  0  0  0  0  0  0  0  0
   -5.6328   -7.5467   12.7491 C   0  0  0  0  0  0  0  0  0  0  0  0
   -5.5348   -8.7701   12.8632 O   0  0  0  0  0  0  0  0  0  0  0  0
   -6.1067   -6.8173   13.8101 N   0  0  0  0  0  0  0  0  0  0  0  0
   -6.4794   -7.3787   15.0205 C   0  0  0  0  0  0  0  0  0  0  0  0
   -6.1747   -5.4803   13.5511 C   0  0  0  0  0  0  0  0  0  0  0  0
   -5.7988   -4.9603   12.3465 C   0  0  0  0  0  0  0  0  0  0  0  0
   -5.3098   -5.6901   11.2478 C   0  0  0  0  0  0  0  0  0  0  0  0
   -4.9582   -5.2708   10.1460 O   0  0  0  0  0  0  0  0  0  0  0  0
   -6.0014   -3.5906   12.4479 N   0  0  0  0  0  0  0  0  0  0  0  0
   -6.4825   -3.3770   13.6955 C   0  0  0  0  0  0  0  0  0  0  0  0
   -6.6061   -4.4674   14.4004 N   0  0  0  0  0  0  0  0  0  0  0  0
  1  2  1  0  0  0  0
  2  9  1  0  0  0  0
  2  3  1  0  0  0  0
  3  5  1  0  0  0  0
  3  4  2  0  0  0  0
  5  6  1  0  0  0  0
  5  7  1  0  0  0  0
  7  8  2  0  0  0  0
  7 13  1  0  0  0  0
  8  9  1  0  0  0  0
  8 11  1  0  0  0  0
  9 10  2  0  0  0  0
 11 12  1  0  0  0  0
 12 13  2  0  0  0  0
M  END
>  <CHROM.1>
-5.76495833,-6.06083128,12.61781745,-0.76286592,1.20431784,-0.31869121

>  <Name>
1eht cryst

>  <RI>
0

>  <Rbt.Current_Directory>
/home/itssahil/PROJECTS/Mol_Feturizer/New_Systems/rnas/1eht

>  <Rbt.Executable>
rbdock ($Id: //depot/dev/client3/rdock/2013.1/src/exe/rbdock.cxx#4 $)

>  <Rbt.Library>
libRbt.so (2013.1, Build901 2013/11/27)

>  <Rbt.Parameter_File>
/export/apps/rDock/src/rDock_2013.1_src/data/scripts/dock_solv.prm

>  <Rbt.Receptor>
prm/pocket_docking_3.prm

>  <SCORE>
-39.1843

>  <SCORE.INTER>
-39.1843

>  <SCORE.INTER.CONST>
1

>  <SCORE.INTER.POLAR>
-1.93908

>  <SCORE.INTER.ROT>
0

>  <SCORE.INTER.SOLV>
9.79672

>  <SCORE.INTER.VDW>
-26.5249

>  <SCORE.INTER.norm>
-3.01418

>  <SCORE.INTRA>
0

>  <SCORE.INTRA.DIHEDRAL>
0

>  <SCORE.INTRA.DIHEDRAL.0>
0

>  <SCORE.INTRA.POLAR>
0

>  <SCORE.INTRA.POLAR.0>
0

>  <SCORE.INTRA.REPUL>
0

>  <SCORE.INTRA.REPUL.0>
0

>  <SCORE.INTRA.SOLV>
0

>  <SCORE.INTRA.SOLV.lig_0>
-12.9768

>  <SCORE.INTRA.VDW>
0

>  <SCORE.INTRA.VDW.0>
0

>  <SCORE.INTRA.norm>
0

>  <SCORE.RESTR>
0

>  <SCORE.RESTR.CAVITY>
0

>  <SCORE.RESTR.norm>
0

>  <SCORE.SYSTEM>
0

>  <SCORE.SYSTEM.CONST>
0

>  <SCORE.SYSTEM.DIHEDRAL>
0

>  <SCORE.SYSTEM.SOLV>
0

>  <SCORE.SYSTEM.norm>
0

>  <SCORE.heavy>
13

>  <SCORE.norm>
-3.01418

>  <RMSD>
0.710

$$$$
1eht cryst
 OpenBabel11021811383D
libRbt.so/2013.1/901 2013/11/27
 13 14  0  0  0  0  0  0  0  0999 V2000
   -4.7927   -7.8815   10.5571 C   0  0  0  0  0  0  0  0  0  0  0  0
   -5.2525   -7.0136   11.5434 N   0  0  0  0  0  0  0  0  0  0  0  0
   -5.6242   -7.5457   12.7510 C   0  0  0  0  0  0  0  0  0  0  0  0
   -5.5253   -8.7689   12.8660 O   0  0  0  0  0  0  0  0  0  0  0  0
   -6.0951   -6.8156   13.8129 N   0  0  0  0  0  0  0  0  0  0  0  0
   -6.4634   -7.3759   15.0250 C   0  0  0  0  0  0  0  0  0  0  0  0
   -6.1647   -5.4788   13.5527 C   0  0  0  0  0  0  0  0  0  0  0  0
   -5.7931   -4.9598   12.3464 C   0  0  0  0  0  0  0  0  0  0  0  0
   -5.3072   -5.6904   11.2468 C   0  0  0  0  0  0  0  0  0  0  0  0
   -4.9596   -5.2720   10.1435 O   0  0  0  0  0  0  0  0  0  0  0  0
   -5.9961   -3.5902   12.4471 N   0  0  0  0  0  0  0  0  0  0  0  0
   -6.4732   -3.3756   13.6961 C   0  0  0  0  0  0  0  0  0  0  0  0
   -6.5939   -4.4654   14.4025 N   0  0  0  0  0  0  0  0  0  0  0  0
  1  2  1  0  0  0  0
  2  9  1  0  0  0  0
  2  3  1  0  0  0  0
  3  5  1  0  0  0  0
  3  4  2  0  0  0  0
  5  6  1  0  0  0  0
  5  7  1  0  0  0  0
  7  8  2  0  0  0  0
  7 13  1  0  0  0  0
  8  9  1  0  0  0  0
  8 11  1  0  0  0  0
  9 10  2  0  0  0  0
 11 12  1  0  0  0  0
 12 13  2  0  0  0  0
M  END
>  <CHROM.1>
-5.75771065,-6.06005327,12.61868868,-0.75846274,1.20727319,-0.32379096

>  <Name>
1eht cryst

>  <RI>
0

>  <Rbt.Current_Directory>
/home/itssahil/PROJECTS/Mol_Feturizer/New_Systems/rnas/1eht

>  <Rbt.Executable>
rbdock ($Id: //depot/dev/client3/rdock/2013.1/src/exe/rbdock.cxx#4 $)

>  <Rbt.Library>
libRbt.so (2013.1, Build901 2013/11/27)

>  <Rbt.Parameter_File>
/export/apps/rDock/src/rDock_2013.1_src/data/scripts/dock_solv.prm

>  <Rbt.Receptor>
prm/pocket_docking_5.prm

>  <SCORE>
-39.1794

>  <SCORE.INTER>
-39.1794

>  <SCORE.INTER.CONST>
1

>  <SCORE.INTER.POLAR>
-1.93376

>  <SCORE.INTER.ROT>
0

>  <SCORE.INTER.SOLV>
9.79556

>  <SCORE.INTER.VDW>
-26.5389

>  <SCORE.INTER.norm>
-3.0138

>  <SCORE.INTRA>
0

>  <SCORE.INTRA.DIHEDRAL>
0

>  <SCORE.INTRA.DIHEDRAL.0>
0

>  <SCORE.INTRA.POLAR>
0

>  <SCORE.INTRA.POLAR.0>
0

>  <SCORE.INTRA.REPUL>
0

>  <SCORE.INTRA.REPUL.0>
0

>  <SCORE.INTRA.SOLV>
0

>  <SCORE.INTRA.SOLV.lig_0>
-12.9768

>  <SCORE.INTRA.VDW>
0

>  <SCORE.INTRA.VDW.0>
0

>  <SCORE.INTRA.norm>
0

>  <SCORE.RESTR>
0

>  <SCORE.RESTR.CAVITY>
0

>  <SCORE.RESTR.norm>
0

>  <SCORE.SYSTEM>
0

>  <SCORE.SYSTEM.CONST>
0

>  <SCORE.SYSTEM.DIHEDRAL>
0

>  <SCORE.SYSTEM.SOLV>
0

>  <SCORE.SYSTEM.norm>
0

>  <SCORE.heavy>
13

>  <SCORE.norm>
-3.0138

>  <RMSD>
0.710

$$$$
1eht cryst
 OpenBabel11021811383D
libRbt.so/2013.1/901 2013/11/27
 13 14  0  0  0  0  0  0  0  0999 V2000
   -4.8012   -7.8810   10.5562 C   0  0  0  0  0  0  0  0  0  0  0  0
   -5.2605   -7.0136   11.5432 N   0  0  0  0  0  0  0  0  0  0  0  0
   -5.6342   -7.5465   12.7498 C   0  0  0  0  0  0  0  0  0  0  0  0
   -5.5373   -8.7700   12.8635 O   0  0  0  0  0  0  0  0  0  0  0  0
   -6.1049   -6.8169   13.8121 N   0  0  0  0  0  0  0  0  0  0  0  0
   -6.4752   -7.3781   15.0232 C   0  0  0  0  0  0  0  0  0  0  0  0
   -6.1720   -5.4797   13.5535 C   0  0  0  0  0  0  0  0  0  0  0  0
   -5.7985   -4.9599   12.3481 C   0  0  0  0  0  0  0  0  0  0  0  0
   -5.3129   -5.6899   11.2481 C   0  0  0  0  0  0  0  0  0  0  0  0
   -4.9635   -5.2709   10.1456 O   0  0  0  0  0  0  0  0  0  0  0  0
   -5.9994   -3.5900   12.4502 N   0  0  0  0  0  0  0  0  0  0  0  0
   -6.4773   -3.3762   13.6990 C   0  0  0  0  0  0  0  0  0  0  0  0
   -6.6004   -4.4666   14.4040 N   0  0  0  0  0  0  0  0  0  0  0  0
  1  2  1  0  0  0  0
  2  9  1  0  0  0  0
  2  3  1  0  0  0  0
  3  5  1  0  0  0  0
  3  4  2  0  0  0  0
  5  6  1  0  0  0  0
  5  7  1  0  0  0  0
  7  8  2  0  0  0  0
  7 13  1  0  0  0  0
  8  9  1  0  0  0  0
  8 11  1  0  0  0  0
  9 10  2  0  0  0  0
 11 12  1  0  0  0  0
 12 13  2  0  0  0  0
M  END
>  <CHROM.1>
-5.76517601,-6.06049569,12.61911067,-0.76357388,1.20691568,-0.31783520

>  <Name>
1eht cryst

>  <RI>
0

>  <Rbt.Current_Directory>
/home/itssahil/PROJECTS/Mol_Feturizer/New_Systems/rnas/1eht

>  <Rbt.Executable>
rbdock ($Id: //depot/dev/client3/rdock/2013.1/src/exe/rbdock.cxx#4 $)

>  <Rbt.Library>
libRbt.so (2013.1, Build901 2013/11/27)

>  <Rbt.Parameter_File>
/export/apps/rDock/src/rDock_2013.1_src/data/scripts/dock_solv.prm

>  <Rbt.Receptor>
prm/pocket_docking_5.prm

>  <SCORE>
-39.18

>  <SCORE.INTER>
-39.18

>  <SCORE.INTER.CONST>
1

>  <SCORE.INTER.POLAR>
-1.93573

>  <SCORE.INTER.ROT>
0

>  <SCORE.INTER.SOLV>
9.79609

>  <SCORE.INTER.VDW>
-26.533

>  <SCORE.INTER.norm>
-3.01385

>  <SCORE.INTRA>
0

>  <SCORE.INTRA.DIHEDRAL>
0

>  <SCORE.INTRA.DIHEDRAL.0>
0

>  <SCORE.INTRA.POLAR>
0

>  <SCORE.INTRA.POLAR.0>
0

>  <SCORE.INTRA.REPUL>
0

>  <SCORE.INTRA.REPUL.0>
0

>  <SCORE.INTRA.SOLV>
0

>  <SCORE.INTRA.SOLV.lig_0>
-12.9768

>  <SCORE.INTRA.VDW>
0

>  <SCORE.INTRA.VDW.0>
0

>  <SCORE.INTRA.norm>
0

>  <SCORE.RESTR>
0

>  <SCORE.RESTR.CAVITY>
0

>  <SCORE.RESTR.norm>
0

>  <SCORE.SYSTEM>
0

>  <SCORE.SYSTEM.CONST>
0

>  <SCORE.SYSTEM.DIHEDRAL>
0

>  <SCORE.SYSTEM.SOLV>
0

>  <SCORE.SYSTEM.norm>
0

>  <SCORE.heavy>
13

>  <SCORE.norm>
-3.01385

>  <RMSD>
0.710

$$$$
1eht cryst
 OpenBabel11021811383D
libRbt.so/2013.1/901 2013/11/27
 13 14  0  0  0  0  0  0  0  0999 V2000
   -4.8170   -7.8676   10.5595 C   0  0  0  0  0  0  0  0  0  0  0  0
   -5.2712   -7.0038   11.5521 N   0  0  0  0  0  0  0  0  0  0  0  0
   -5.6447   -7.5419   12.7565 C   0  0  0  0  0  0  0  0  0  0  0  0
   -5.5524   -8.7664   12.8632 O   0  0  0  0  0  0  0  0  0  0  0  0
   -6.1106   -6.8163   13.8236 N   0  0  0  0  0  0  0  0  0  0  0  0
   -6.4809   -7.3827   15.0323 C   0  0  0  0  0  0  0  0  0  0  0  0
   -6.1730   -5.4774   13.5725 C   0  0  0  0  0  0  0  0  0  0  0  0
   -5.7997   -4.9525   12.3692 C   0  0  0  0  0  0  0  0  0  0  0  0
   -5.3189   -5.6784   11.2644 C   0  0  0  0  0  0  0  0  0  0  0  0
   -4.9699   -5.2546   10.1635 O   0  0  0  0  0  0  0  0  0  0  0  0
   -5.9950   -3.5824   12.4793 N   0  0  0  0  0  0  0  0  0  0  0  0
   -6.4698   -3.3736   13.7302 C   0  0  0  0  0  0  0  0  0  0  0  0
   -6.5958   -4.4674   14.4294 N   0  0  0  0  0  0  0  0  0  0  0  0
  1  2  1  0  0  0  0
  2  9  1  0  0  0  0
  2  3  1  0  0  0  0
  3  5  1  0  0  0  0
  3  4  2  0  0  0  0
  5  6  1  0  0  0  0
  5  7  1  0  0  0  0
  7  8  2  0  0  0  0
  7 13  1  0  0  0  0
  8  9  1  0  0  0  0
  8 11  1  0  0  0  0
  9 10  2  0  0  0  0
 11 12  1  0  0  0  0
 12 13  2  0  0  0  0
M  END
>  <CHROM.1>
-5.77012375,-6.05469499,12.63419092,-0.77245567,1.20986235,-0.30403268

>  <Name>
1eht cryst

>  <RI>
0

>  <Rbt.Current_Directory>
/home/itssahil/PROJECTS/Mol_Feturizer/New_Systems/rnas/1eht

>  <Rbt.Executable>
rbdock ($Id: //depot/dev/client3/rdock/2013.1/src/exe/rbdock.cxx#4 $)

>  <Rbt.Library>
libRbt.so (2013.1, Build901 2013/11/27)

>  <Rbt.Parameter_File>
/export/apps/rDock/src/rDock_2013.1_src/data/scripts/dock_solv.prm

>  <Rbt.Receptor>
prm/pocket_docking_6.prm

>  <SCORE>
-39.1536

>  <SCORE.INTER>
-39.1536

>  <SCORE.INTER.CONST>
1

>  <SCORE.INTER.POLAR>
-1.919

>  <SCORE.INTER.ROT>
0

>  <SCORE.INTER.SOLV>
9.81243

>  <SCORE.INTER.VDW>
-26.5765

>  <SCORE.INTER.norm>
-3.01182

>  <SCORE.INTRA>
0

>  <SCORE.INTRA.DIHEDRAL>
0

>  <SCORE.INTRA.DIHEDRAL.0>
0

>  <SCORE.INTRA.POLAR>
0

>  <SCORE.INTRA.POLAR.0>
0

>  <SCORE.INTRA.REPUL>
0

>  <SCORE.INTRA.REPUL.0>
0

>  <SCORE.INTRA.SOLV>
0

>  <SCORE.INTRA.SOLV.lig_0>
-12.9768

>  <SCORE.INTRA.VDW>
0

>  <SCORE.INTRA.VDW.0>
0

>  <SCORE.INTRA.norm>
0

>  <SCORE.RESTR>
0

>  <SCORE.RESTR.CAVITY>
0

>  <SCORE.RESTR.norm>
0

>  <SCORE.SYSTEM>
0

>  <SCORE.SYSTEM.CONST>
0

>  <SCORE.SYSTEM.DIHEDRAL>
0

>  <SCORE.SYSTEM.SOLV>
0

>  <SCORE.SYSTEM.norm>
0

>  <SCORE.heavy>
13

>  <SCORE.norm>
-3.01182

>  <RMSD>
0.710

$$$$
1eht cryst
 OpenBabel11021811383D
libRbt.so/2013.1/901 2013/11/27
 13 14  0  0  0  0  0  0  0  0999 V2000
   -4.7915   -7.8803   10.5585 C   0  0  0  0  0  0  0  0  0  0  0  0
   -5.2536   -7.0122   11.5435 N   0  0  0  0  0  0  0  0  0  0  0  0
   -5.6276   -7.5439   12.7506 C   0  0  0  0  0  0  0  0  0  0  0  0
   -5.5285   -8.7670   12.8664 O   0  0  0  0  0  0  0  0  0  0  0  0
   -6.1009   -6.8134   13.8112 N   0  0  0  0  0  0  0  0  0  0  0  0
   -6.4715   -7.3733   15.0228 C   0  0  0  0  0  0  0  0  0  0  0  0
   -6.1703   -5.4767   13.5503 C   0  0  0  0  0  0  0  0  0  0  0  0
   -5.7965   -4.9582   12.3445 C   0  0  0  0  0  0  0  0  0  0  0  0
   -5.3082   -5.6891   11.2463 C   0  0  0  0  0  0  0  0  0  0  0  0
   -4.9584   -5.2712   10.1434 O   0  0  0  0  0  0  0  0  0  0  0  0
   -6.0001   -3.5886   12.4442 N   0  0  0  0  0  0  0  0  0  0  0  0
   -6.4798   -3.3736   13.6921 C   0  0  0  0  0  0  0  0  0  0  0  0
   -6.6016   -4.4631   14.3987 N   0  0  0  0  0  0  0  0  0  0  0  0
  1  2  1  0  0  0  0
  2  9  1  0  0  0  0
  2  3  1  0  0  0  0
  3  5  1  0  0  0  0
  3  4  2  0  0  0  0
  5  6  1  0  0  0  0
  5  7  1  0  0  0  0
  7  8  2  0  0  0  0
  7 13  1  0  0  0  0
  8  9  1  0  0  0  0
  8 11  1  0  0  0  0
  9 10  2  0  0  0  0
 11 12  1  0  0  0  0
 12 13  2  0  0  0  0
M  END
>  <CHROM.1>
-5.76129331,-6.05830668,12.61735414,-0.75942139,1.20524630,-0.32334898

>  <Name>
1eht cryst

>  <RI>
0

>  <Rbt.Current_Directory>
/home/itssahil/PROJECTS/Mol_Feturizer/New_Systems/rnas/1eht

>  <Rbt.Executable>
rbdock ($Id: //depot/dev/client3/rdock/2013.1/src/exe/rbdock.cxx#4 $)

>  <Rbt.Library>
libRbt.so (2013.1, Build901 2013/11/27)

>  <Rbt.Parameter_File>
/export/apps/rDock/src/rDock_2013.1_src/data/scripts/dock_solv.prm

>  <Rbt.Receptor>
prm/pocket_docking_3.prm

>  <SCORE>
-39.1798

>  <SCORE.INTER>
-39.1798

>  <SCORE.INTER.CONST>
1

>  <SCORE.INTER.POLAR>
-1.93646

>  <SCORE.INTER.ROT>
0

>  <SCORE.INTER.SOLV>
9.79916

>  <SCORE.INTER.VDW>
-26.5314

>  <SCORE.INTER.norm>
-3.01383

>  <SCORE.INTRA>
0

>  <SCORE.INTRA.DIHEDRAL>
0

>  <SCORE.INTRA.DIHEDRAL.0>
0

>  <SCORE.INTRA.POLAR>
0

>  <SCORE.INTRA.POLAR.0>
0

>  <SCORE.INTRA.REPUL>
0

>  <SCORE.INTRA.REPUL.0>
0

>  <SCORE.INTRA.SOLV>
0

>  <SCORE.INTRA.SOLV.lig_0>
-12.9768

>  <SCORE.INTRA.VDW>
0

>  <SCORE.INTRA.VDW.0>
0

>  <SCORE.INTRA.norm>
0

>  <SCORE.RESTR>
0

>  <SCORE.RESTR.CAVITY>
0

>  <SCORE.RESTR.norm>
0

>  <SCORE.SYSTEM>
0

>  <SCORE.SYSTEM.CONST>
0

>  <SCORE.SYSTEM.DIHEDRAL>
0

>  <SCORE.SYSTEM.SOLV>
0

>  <SCORE.SYSTEM.norm>
0

>  <SCORE.heavy>
13

>  <SCORE.norm>
-3.01383

>  <RMSD>
0.711

$$$$
1eht cryst
 OpenBabel11021811383D
libRbt.so/2013.1/901 2013/11/27
 13 14  0  0  0  0  0  0  0  0999 V2000
   -4.8208   -7.8745   10.5546 C   0  0  0  0  0  0  0  0  0  0  0  0
   -5.2741   -7.0067   11.5440 N   0  0  0  0  0  0  0  0  0  0  0  0
   -5.6468   -7.5401   12.7508 C   0  0  0  0  0  0  0  0  0  0  0  0
   -5.5545   -8.7641   12.8623 O   0  0  0  0  0  0  0  0  0  0  0  0
   -6.1119   -6.8102   13.8154 N   0  0  0  0  0  0  0  0  0  0  0  0
   -6.4813   -7.3718   15.0266 C   0  0  0  0  0  0  0  0  0  0  0  0
   -6.1744   -5.4724   13.5590 C   0  0  0  0  0  0  0  0  0  0  0  0
   -5.8020   -4.9522   12.3535 C   0  0  0  0  0  0  0  0  0  0  0  0
   -5.3220   -5.6824   11.2512 C   0  0  0  0  0  0  0  0  0  0  0  0
   -4.9739   -5.2630   10.1484 O   0  0  0  0  0  0  0  0  0  0  0  0
   -5.9972   -3.5817   12.4583 N   0  0  0  0  0  0  0  0  0  0  0  0
   -6.4710   -3.3679   13.7086 C   0  0  0  0  0  0  0  0  0  0  0  0
   -6.5966   -4.4589   14.4123 N   0  0  0  0  0  0  0  0  0  0  0  0
  1  2  1  0  0  0  0
  2  9  1  0  0  0  0
  2  3  1  0  0  0  0
  3  5  1  0  0  0  0
  3  4  2  0  0  0  0
  5  6  1  0  0  0  0
  5  7  1  0  0  0  0
  7  8  2  0  0  0  0
  7 13  1  0  0  0  0
  8  9  1  0  0  0  0
  8 11  1  0  0  0  0
  9 10  2  0  0  0  0
 11 12  1  0  0  0  0
 12 13  2  0  0  0  0
M  END
>  <CHROM.1>
-5.77226368,-6.05333848,12.62274677,-0.77193676,1.21057547,-0.30847141

>  <Name>
1eht cryst

>  <RI>
0

>  <Rbt.Current_Directory>
/home/itssahil/PROJECTS/Mol_Feturizer/New_Systems/rnas/1eht

>  <Rbt.Executable>
rbdock ($Id: //depot/dev/client3/rdock/2013.1/src/exe/rbdock.cxx#4 $)

>  <Rbt.Library>
libRbt.so (2013.1, Build901 2013/11/27)

>  <Rbt.Parameter_File>
/export/apps/rDock/src/rDock_2013.1_src/data/scripts/dock_solv.prm

>  <Rbt.Receptor>
prm/pocket_docking_4.prm

>  <SCORE>
-39.1812

>  <SCORE.INTER>
-39.1812

>  <SCORE.INTER.CONST>
1

>  <SCORE.INTER.POLAR>
-1.92604

>  <SCORE.INTER.ROT>
0

>  <SCORE.INTER.SOLV>
9.81106

>  <SCORE.INTER.VDW>
-26.571

>  <SCORE.INTER.norm>
-3.01394

>  <SCORE.INTRA>
0

>  <SCORE.INTRA.DIHEDRAL>
0

>  <SCORE.INTRA.DIHEDRAL.0>
0

>  <SCORE.INTRA.POLAR>
0

>  <SCORE.INTRA.POLAR.0>
0

>  <SCORE.INTRA.REPUL>
0

>  <SCORE.INTRA.REPUL.0>
0

>  <SCORE.INTRA.SOLV>
0

>  <SCORE.INTRA.SOLV.lig_0>
-12.9768

>  <SCORE.INTRA.VDW>
0

>  <SCORE.INTRA.VDW.0>
0

>  <SCORE.INTRA.norm>
0

>  <SCORE.RESTR>
0

>  <SCORE.RESTR.CAVITY>
0

>  <SCORE.RESTR.norm>
0

>  <SCORE.SYSTEM>
0

>  <SCORE.SYSTEM.CONST>
0

>  <SCORE.SYSTEM.DIHEDRAL>
0

>  <SCORE.SYSTEM.SOLV>
0

>  <SCORE.SYSTEM.norm>
0

>  <SCORE.heavy>
13

>  <SCORE.norm>
-3.01394

>  <RMSD>
0.711

$$$$
1eht cryst
 OpenBabel11021811383D
libRbt.so/2013.1/901 2013/11/27
 13 14  0  0  0  0  0  0  0  0999 V2000
   -4.7943   -7.8940   10.5625 C   0  0  0  0  0  0  0  0  0  0  0  0
   -5.2559   -7.0282   11.5499 N   0  0  0  0  0  0  0  0  0  0  0  0
   -5.6288   -7.5627   12.7560 C   0  0  0  0  0  0  0  0  0  0  0  0
   -5.5293   -8.7860   12.8690 O   0  0  0  0  0  0  0  0  0  0  0  0
   -6.1015   -6.8348   13.8186 N   0  0  0  0  0  0  0  0  0  0  0  0
   -6.4710   -7.3975   15.0292 C   0  0  0  0  0  0  0  0  0  0  0  0
   -6.1715   -5.4976   13.5608 C   0  0  0  0  0  0  0  0  0  0  0  0
   -5.7987   -4.9762   12.3559 C   0  0  0  0  0  0  0  0  0  0  0  0
   -5.3110   -5.7045   11.2556 C   0  0  0  0  0  0  0  0  0  0  0  0
   -4.9623   -5.2839   10.1535 O   0  0  0  0  0  0  0  0  0  0  0  0
   -6.0027   -3.6068   12.4588 N   0  0  0  0  0  0  0  0  0  0  0  0
   -6.4815   -3.3948   13.7076 C   0  0  0  0  0  0  0  0  0  0  0  0
   -6.6024   -4.4859   14.4119 N   0  0  0  0  0  0  0  0  0  0  0  0
  1  2  1  0  0  0  0
  2  9  1  0  0  0  0
  2  3  1  0  0  0  0
  3  5  1  0  0  0  0
  3  4  2  0  0  0  0
  5  6  1  0  0  0  0
  5  7  1  0  0  0  0
  7  8  2  0  0  0  0
  7 13  1  0  0  0  0
  8  9  1  0  0  0  0
  8 11  1  0  0  0  0
  9 10  2  0  0  0  0
 11 12  1  0  0  0  0
 12 13  2  0  0  0  0
M  END
>  <CHROM.1>
-5.76303046,-6.07688040,12.62623563,-0.75801681,1.20588921,-0.32239344

>  <Name>
1eht cryst

>  <RI>
0

>  <Rbt.Current_Directory>
/home/itssahil/PROJECTS/Mol_Feturizer/New_Systems/rnas/1eht

>  <Rbt.Executable>
rbdock ($Id: //depot/dev/client3/rdock/2013.1/src/exe/rbdock.cxx#4 $)

>  <Rbt.Library>
libRbt.so (2013.1, Build901 2013/11/27)

>  <Rbt.Parameter_File>
/export/apps/rDock/src/rDock_2013.1_src/data/scripts/dock_solv.prm

>  <Rbt.Receptor>
prm/pocket_docking_8.prm

>  <SCORE>
-39.1523

>  <SCORE.INTER>
-39.1523

>  <SCORE.INTER.CONST>
1

>  <SCORE.INTER.POLAR>
-1.94167

>  <SCORE.INTER.ROT>
0

>  <SCORE.INTER.SOLV>
9.75989

>  <SCORE.INTER.VDW>
-26.4826

>  <SCORE.INTER.norm>
-3.01171

>  <SCORE.INTRA>
0

>  <SCORE.INTRA.DIHEDRAL>
0

>  <SCORE.INTRA.DIHEDRAL.0>
0

>  <SCORE.INTRA.POLAR>
0

>  <SCORE.INTRA.POLAR.0>
0

>  <SCORE.INTRA.REPUL>
0

>  <SCORE.INTRA.REPUL.0>
0

>  <SCORE.INTRA.SOLV>
0

>  <SCORE.INTRA.SOLV.lig_0>
-12.9768

>  <SCORE.INTRA.VDW>
0

>  <SCORE.INTRA.VDW.0>
0

>  <SCORE.INTRA.norm>
0

>  <SCORE.RESTR>
0

>  <SCORE.RESTR.CAVITY>
0

>  <SCORE.RESTR.norm>
0

>  <SCORE.SYSTEM>
0

>  <SCORE.SYSTEM.CONST>
0

>  <SCORE.SYSTEM.DIHEDRAL>
0

>  <SCORE.SYSTEM.SOLV>
0

>  <SCORE.SYSTEM.norm>
0

>  <SCORE.heavy>
13

>  <SCORE.norm>
-3.01171

>  <RMSD>
0.711

$$$$
1eht cryst
 OpenBabel11021811383D
libRbt.so/2013.1/901 2013/11/27
 13 14  0  0  0  0  0  0  0  0999 V2000
   -4.7921   -7.8840   10.5602 C   0  0  0  0  0  0  0  0  0  0  0  0
   -5.2510   -7.0151   11.5461 N   0  0  0  0  0  0  0  0  0  0  0  0
   -5.6205   -7.5458   12.7550 C   0  0  0  0  0  0  0  0  0  0  0  0
   -5.5207   -8.7688   12.8714 O   0  0  0  0  0  0  0  0  0  0  0  0
   -6.0902   -6.8145   13.8166 N   0  0  0  0  0  0  0  0  0  0  0  0
   -6.4564   -7.3735   15.0300 C   0  0  0  0  0  0  0  0  0  0  0  0
   -6.1609   -5.4781   13.5547 C   0  0  0  0  0  0  0  0  0  0  0  0
   -5.7915   -4.9605   12.3471 C   0  0  0  0  0  0  0  0  0  0  0  0
   -5.3069   -5.6923   11.2478 C   0  0  0  0  0  0  0  0  0  0  0  0
   -4.9612   -5.2752   10.1434 O   0  0  0  0  0  0  0  0  0  0  0  0
   -5.9951   -3.5909   12.4464 N   0  0  0  0  0  0  0  0  0  0  0  0
   -6.4704   -3.3749   13.6958 C   0  0  0  0  0  0  0  0  0  0  0  0
   -6.5894   -4.4639   14.4038 N   0  0  0  0  0  0  0  0  0  0  0  0
  1  2  1  0  0  0  0
  2  9  1  0  0  0  0
  2  3  1  0  0  0  0
  3  5  1  0  0  0  0
  3  4  2  0  0  0  0
  5  6  1  0  0  0  0
  5  7  1  0  0  0  0
  7  8  2  0  0  0  0
  7 13  1  0  0  0  0
  8  9  1  0  0  0  0
  8 11  1  0  0  0  0
  9 10  2  0  0  0  0
 11 12  1  0  0  0  0
 12 13  2  0  0  0  0
M  END
>  <CHROM.1>
-5.75506822,-6.06041596,12.62086024,-0.75556096,1.20853943,-0.32782514

>  <Name>
1eht cryst

>  <RI>
0

>  <Rbt.Current_Directory>
/home/itssahil/PROJECTS/Mol_Feturizer/New_Systems/rnas/1eht

>  <Rbt.Executable>
rbdock ($Id: //depot/dev/client3/rdock/2013.1/src/exe/rbdock.cxx#4 $)

>  <Rbt.Library>
libRbt.so (2013.1, Build901 2013/11/27)

>  <Rbt.Parameter_File>
/export/apps/rDock/src/rDock_2013.1_src/data/scripts/dock_solv.prm

>  <Rbt.Receptor>
prm/blind_docking_100.prm

>  <SCORE>
-39.1716

>  <SCORE.INTER>
-39.1716

>  <SCORE.INTER.CONST>
1

>  <SCORE.INTER.POLAR>
-1.93134

>  <SCORE.INTER.ROT>
0

>  <SCORE.INTER.SOLV>
9.79167

>  <SCORE.INTER.VDW>
-26.5405

>  <SCORE.INTER.norm>
-3.0132

>  <SCORE.INTRA>
0

>  <SCORE.INTRA.DIHEDRAL>
0

>  <SCORE.INTRA.DIHEDRAL.0>
0

>  <SCORE.INTRA.POLAR>
0

>  <SCORE.INTRA.POLAR.0>
0

>  <SCORE.INTRA.REPUL>
0

>  <SCORE.INTRA.REPUL.0>
0

>  <SCORE.INTRA.SOLV>
0

>  <SCORE.INTRA.SOLV.lig_0>
-12.9768

>  <SCORE.INTRA.VDW>
0

>  <SCORE.INTRA.VDW.0>
0

>  <SCORE.INTRA.norm>
0

>  <SCORE.RESTR>
0

>  <SCORE.RESTR.CAVITY>
0

>  <SCORE.RESTR.norm>
0

>  <SCORE.SYSTEM>
0

>  <SCORE.SYSTEM.CONST>
0

>  <SCORE.SYSTEM.DIHEDRAL>
0

>  <SCORE.SYSTEM.SOLV>
0

>  <SCORE.SYSTEM.norm>
0

>  <SCORE.heavy>
13

>  <SCORE.norm>
-3.0132

>  <RMSD>
0.712

$$$$
1eht cryst
 OpenBabel11021811383D
libRbt.so/2013.1/901 2013/11/27
 13 14  0  0  0  0  0  0  0  0999 V2000
   -4.7906   -7.8829   10.5603 C   0  0  0  0  0  0  0  0  0  0  0  0
   -5.2532   -7.0149   11.5452 N   0  0  0  0  0  0  0  0  0  0  0  0
   -5.6268   -7.5467   12.7524 C   0  0  0  0  0  0  0  0  0  0  0  0
   -5.5268   -8.7697   12.8684 O   0  0  0  0  0  0  0  0  0  0  0  0
   -6.1005   -6.8164   13.8129 N   0  0  0  0  0  0  0  0  0  0  0  0
   -6.4707   -7.3764   15.0246 C   0  0  0  0  0  0  0  0  0  0  0  0
   -6.1710   -5.4799   13.5518 C   0  0  0  0  0  0  0  0  0  0  0  0
   -5.7975   -4.9612   12.3459 C   0  0  0  0  0  0  0  0  0  0  0  0
   -5.3088   -5.6920   11.2478 C   0  0  0  0  0  0  0  0  0  0  0  0
   -4.9594   -5.2739   10.1448 O   0  0  0  0  0  0  0  0  0  0  0  0
   -6.0022   -3.5917   12.4454 N   0  0  0  0  0  0  0  0  0  0  0  0
   -6.4819   -3.3769   13.6933 C   0  0  0  0  0  0  0  0  0  0  0  0
   -6.6029   -4.4664   14.4001 N   0  0  0  0  0  0  0  0  0  0  0  0
  1  2  1  0  0  0  0
  2  9  1  0  0  0  0
  2  3  1  0  0  0  0
  3  5  1  0  0  0  0
  3  4  2  0  0  0  0
  5  6  1  0  0  0  0
  5  7  1  0  0  0  0
  7  8  2  0  0  0  0
  7 13  1  0  0  0  0
  8  9  1  0  0  0  0
  8 11  1  0  0  0  0
  9 10  2  0  0  0  0
 11 12  1  0  0  0  0
 12 13  2  0  0  0  0
M  END
>  <CHROM.1>
-5.76156425,-6.06126554,12.61893648,-0.75749164,1.20506631,-0.32529938

>  <Name>
1eht cryst

>  <RI>
0

>  <Rbt.Current_Directory>
/home/itssahil/PROJECTS/Mol_Feturizer/New_Systems/rnas/1eht

>  <Rbt.Executable>
rbdock ($Id: //depot/dev/client3/rdock/2013.1/src/exe/rbdock.cxx#4 $)

>  <Rbt.Library>
libRbt.so (2013.1, Build901 2013/11/27)

>  <Rbt.Parameter_File>
/export/apps/rDock/src/rDock_2013.1_src/data/scripts/dock_solv.prm

>  <Rbt.Receptor>
prm/blind_docking_100.prm

>  <SCORE>
-39.1865

>  <SCORE.INTER>
-39.1865

>  <SCORE.INTER.CONST>
1

>  <SCORE.INTER.POLAR>
-1.9377

>  <SCORE.INTER.ROT>
0

>  <SCORE.INTER.SOLV>
9.79166

>  <SCORE.INTER.VDW>
-26.5292

>  <SCORE.INTER.norm>
-3.01434

>  <SCORE.INTRA>
0

>  <SCORE.INTRA.DIHEDRAL>
0

>  <SCORE.INTRA.DIHEDRAL.0>
0

>  <SCORE.INTRA.POLAR>
0

>  <SCORE.INTRA.POLAR.0>
0

>  <SCORE.INTRA.REPUL>
0

>  <SCORE.INTRA.REPUL.0>
0

>  <SCORE.INTRA.SOLV>
0

>  <SCORE.INTRA.SOLV.lig_0>
-12.9768

>  <SCORE.INTRA.VDW>
0

>  <SCORE.INTRA.VDW.0>
0

>  <SCORE.INTRA.norm>
0

>  <SCORE.RESTR>
0

>  <SCORE.RESTR.CAVITY>
0

>  <SCORE.RESTR.norm>
0

>  <SCORE.SYSTEM>
0

>  <SCORE.SYSTEM.CONST>
0

>  <SCORE.SYSTEM.DIHEDRAL>
0

>  <SCORE.SYSTEM.SOLV>
0

>  <SCORE.SYSTEM.norm>
0

>  <SCORE.heavy>
13

>  <SCORE.norm>
-3.01434

>  <RMSD>
0.712

$$$$
1eht cryst
 OpenBabel11021811383D
libRbt.so/2013.1/901 2013/11/27
 13 14  0  0  0  0  0  0  0  0999 V2000
   -4.7874   -7.8829   10.5601 C   0  0  0  0  0  0  0  0  0  0  0  0
   -5.2519   -7.0150   11.5442 N   0  0  0  0  0  0  0  0  0  0  0  0
   -5.6287   -7.5471   12.7503 C   0  0  0  0  0  0  0  0  0  0  0  0
   -5.5297   -8.7702   12.8660 O   0  0  0  0  0  0  0  0  0  0  0  0
   -6.1045   -6.8169   13.8100 N   0  0  0  0  0  0  0  0  0  0  0  0
   -6.4779   -7.3772   15.0206 C   0  0  0  0  0  0  0  0  0  0  0  0
   -6.1735   -5.4802   13.5492 C   0  0  0  0  0  0  0  0  0  0  0  0
   -5.7969   -4.9613   12.3444 C   0  0  0  0  0  0  0  0  0  0  0  0
   -5.3060   -5.6919   11.2472 C   0  0  0  0  0  0  0  0  0  0  0  0
   -4.9537   -5.2736   10.1453 O   0  0  0  0  0  0  0  0  0  0  0  0
   -6.0010   -3.5918   12.4440 N   0  0  0  0  0  0  0  0  0  0  0  0
   -6.4837   -3.3772   13.6908 C   0  0  0  0  0  0  0  0  0  0  0  0
   -6.6069   -4.4668   14.3969 N   0  0  0  0  0  0  0  0  0  0  0  0
  1  2  1  0  0  0  0
  2  9  1  0  0  0  0
  2  3  1  0  0  0  0
  3  5  1  0  0  0  0
  3  4  2  0  0  0  0
  5  6  1  0  0  0  0
  5  7  1  0  0  0  0
  7  8  2  0  0  0  0
  7 13  1  0  0  0  0
  8  9  1  0  0  0  0
  8 11  1  0  0  0  0
  9 10  2  0  0  0  0
 11 12  1  0  0  0  0
 12 13  2  0  0  0  0
M  END
>  <CHROM.1>
-5.76225501,-6.06150406,12.61711445,-0.76110605,1.20299445,-0.32153013

>  <Name>
1eht cryst

>  <RI>
0

>  <Rbt.Current_Directory>
/home/itssahil/PROJECTS/Mol_Feturizer/New_Systems/rnas/1eht

>  <Rbt.Executable>
rbdock ($Id: //depot/dev/client3/rdock/2013.1/src/exe/rbdock.cxx#4 $)

>  <Rbt.Library>
libRbt.so (2013.1, Build901 2013/11/27)

>  <Rbt.Parameter_File>
/export/apps/rDock/src/rDock_2013.1_src/data/scripts/dock_solv.prm

>  <Rbt.Receptor>
prm/blind_docking_60.prm

>  <SCORE>
-39.1856

>  <SCORE.INTER>
-39.1856

>  <SCORE.INTER.CONST>
1

>  <SCORE.INTER.POLAR>
-1.94018

>  <SCORE.INTER.ROT>
0

>  <SCORE.INTER.SOLV>
9.79491

>  <SCORE.INTER.VDW>
-26.5214

>  <SCORE.INTER.norm>
-3.01428

>  <SCORE.INTRA>
0

>  <SCORE.INTRA.DIHEDRAL>
0

>  <SCORE.INTRA.DIHEDRAL.0>
0

>  <SCORE.INTRA.POLAR>
0

>  <SCORE.INTRA.POLAR.0>
0

>  <SCORE.INTRA.REPUL>
0

>  <SCORE.INTRA.REPUL.0>
0

>  <SCORE.INTRA.SOLV>
0

>  <SCORE.INTRA.SOLV.lig_0>
-12.9768

>  <SCORE.INTRA.VDW>
0

>  <SCORE.INTRA.VDW.0>
0

>  <SCORE.INTRA.norm>
0

>  <SCORE.RESTR>
0

>  <SCORE.RESTR.CAVITY>
0

>  <SCORE.RESTR.norm>
0

>  <SCORE.SYSTEM>
0

>  <SCORE.SYSTEM.CONST>
0

>  <SCORE.SYSTEM.DIHEDRAL>
0

>  <SCORE.SYSTEM.SOLV>
0

>  <SCORE.SYSTEM.norm>
0

>  <SCORE.heavy>
13

>  <SCORE.norm>
-3.01428

>  <RMSD>
0.712

$$$$
1eht cryst
 OpenBabel11021811383D
libRbt.so/2013.1/901 2013/11/27
 13 14  0  0  0  0  0  0  0  0999 V2000
   -4.8178   -7.8672   10.5611 C   0  0  0  0  0  0  0  0  0  0  0  0
   -5.2691   -7.0022   11.5539 N   0  0  0  0  0  0  0  0  0  0  0  0
   -5.6449   -7.5395   12.7580 C   0  0  0  0  0  0  0  0  0  0  0  0
   -5.5569   -8.7643   12.8642 O   0  0  0  0  0  0  0  0  0  0  0  0
   -6.1084   -6.8126   13.8253 N   0  0  0  0  0  0  0  0  0  0  0  0
   -6.4811   -7.3782   15.0337 C   0  0  0  0  0  0  0  0  0  0  0  0
   -6.1661   -5.4734   13.5746 C   0  0  0  0  0  0  0  0  0  0  0  0
   -5.7906   -4.9493   12.3717 C   0  0  0  0  0  0  0  0  0  0  0  0
   -5.3121   -5.6765   11.2667 C   0  0  0  0  0  0  0  0  0  0  0  0
   -4.9614   -5.2535   10.1661 O   0  0  0  0  0  0  0  0  0  0  0  0
   -5.9811   -3.5786   12.4822 N   0  0  0  0  0  0  0  0  0  0  0  0
   -6.4554   -3.3686   13.7331 C   0  0  0  0  0  0  0  0  0  0  0  0
   -6.5855   -4.4622   14.4318 N   0  0  0  0  0  0  0  0  0  0  0  0
  1  2  1  0  0  0  0
  2  9  1  0  0  0  0
  2  3  1  0  0  0  0
  3  5  1  0  0  0  0
  3  4  2  0  0  0  0
  5  6  1  0  0  0  0
  5  7  1  0  0  0  0
  7  8  2  0  0  0  0
  7 13  1  0  0  0  0
  8  9  1  0  0  0  0
  8 11  1  0  0  0  0
  9 10  2  0  0  0  0
 11 12  1  0  0  0  0
 12 13  2  0  0  0  0
M  END
>  <CHROM.1>
-5.76498693,-6.05173603,12.63621520,-0.78224642,1.21067536,-0.29448013

>  <Name>
1eht cryst

>  <RI>
0

>  <Rbt.Current_Directory>
/home/itssahil/PROJECTS/Mol_Feturizer/New_Systems/rnas/1eht

>  <Rbt.Executable>
rbdock ($Id: //depot/dev/client3/rdock/2013.1/src/exe/rbdock.cxx#4 $)

>  <Rbt.Library>
libRbt.so (2013.1, Build901 2013/11/27)

>  <Rbt.Parameter_File>
/export/apps/rDock/src/rDock_2013.1_src/data/scripts/dock_solv.prm

>  <Rbt.Receptor>
prm/blind_docking_60.prm

>  <SCORE>
-39.1645

>  <SCORE.INTER>
-39.1645

>  <SCORE.INTER.CONST>
1

>  <SCORE.INTER.POLAR>
-1.91998

>  <SCORE.INTER.ROT>
0

>  <SCORE.INTER.SOLV>
9.82547

>  <SCORE.INTER.VDW>
-26.5849

>  <SCORE.INTER.norm>
-3.01266

>  <SCORE.INTRA>
0

>  <SCORE.INTRA.DIHEDRAL>
0

>  <SCORE.INTRA.DIHEDRAL.0>
0

>  <SCORE.INTRA.POLAR>
0

>  <SCORE.INTRA.POLAR.0>
0

>  <SCORE.INTRA.REPUL>
0

>  <SCORE.INTRA.REPUL.0>
0

>  <SCORE.INTRA.SOLV>
0

>  <SCORE.INTRA.SOLV.lig_0>
-12.9768

>  <SCORE.INTRA.VDW>
0

>  <SCORE.INTRA.VDW.0>
0

>  <SCORE.INTRA.norm>
0

>  <SCORE.RESTR>
0

>  <SCORE.RESTR.CAVITY>
0

>  <SCORE.RESTR.norm>
0

>  <SCORE.SYSTEM>
0

>  <SCORE.SYSTEM.CONST>
0

>  <SCORE.SYSTEM.DIHEDRAL>
0

>  <SCORE.SYSTEM.SOLV>
0

>  <SCORE.SYSTEM.norm>
0

>  <SCORE.heavy>
13

>  <SCORE.norm>
-3.01266

>  <RMSD>
0.712

$$$$
1eht cryst
 OpenBabel11021811383D
libRbt.so/2013.1/901 2013/11/27
 13 14  0  0  0  0  0  0  0  0999 V2000
   -4.7896   -7.8826   10.5614 C   0  0  0  0  0  0  0  0  0  0  0  0
   -5.2539   -7.0149   11.5457 N   0  0  0  0  0  0  0  0  0  0  0  0
   -5.6299   -7.5469   12.7520 C   0  0  0  0  0  0  0  0  0  0  0  0
   -5.5306   -8.7700   12.8677 O   0  0  0  0  0  0  0  0  0  0  0  0
   -6.1054   -6.8169   13.8119 N   0  0  0  0  0  0  0  0  0  0  0  0
   -6.4781   -7.3772   15.0227 C   0  0  0  0  0  0  0  0  0  0  0  0
   -6.1749   -5.4802   13.5511 C   0  0  0  0  0  0  0  0  0  0  0  0
   -5.7990   -4.9612   12.3461 C   0  0  0  0  0  0  0  0  0  0  0  0
   -5.3084   -5.6917   11.2486 C   0  0  0  0  0  0  0  0  0  0  0  0
   -4.9567   -5.2734   10.1465 O   0  0  0  0  0  0  0  0  0  0  0  0
   -6.0033   -3.5917   12.4457 N   0  0  0  0  0  0  0  0  0  0  0  0
   -6.4854   -3.3772   13.6928 C   0  0  0  0  0  0  0  0  0  0  0  0
   -6.6081   -4.4669   14.3990 N   0  0  0  0  0  0  0  0  0  0  0  0
  1  2  1  0  0  0  0
  2  9  1  0  0  0  0
  2  3  1  0  0  0  0
  3  5  1  0  0  0  0
  3  4  2  0  0  0  0
  5  6  1  0  0  0  0
  5  7  1  0  0  0  0
  7  8  2  0  0  0  0
  7 13  1  0  0  0  0
  8  9  1  0  0  0  0
  8 11  1  0  0  0  0
  9 10  2  0  0  0  0
 11 12  1  0  0  0  0
 12 13  2  0  0  0  0
M  END
>  <CHROM.1>
-5.76391123,-6.06139307,12.61880098,-0.76008150,1.20337684,-0.32252014

>  <Name>
1eht cryst

>  <RI>
0

>  <Rbt.Current_Directory>
/home/itssahil/PROJECTS/Mol_Feturizer/New_Systems/rnas/1eht

>  <Rbt.Executable>
rbdock ($Id: //depot/dev/client3/rdock/2013.1/src/exe/rbdock.cxx#4 $)

>  <Rbt.Library>
libRbt.so (2013.1, Build901 2013/11/27)

>  <Rbt.Parameter_File>
/export/apps/rDock/src/rDock_2013.1_src/data/scripts/dock_solv.prm

>  <Rbt.Receptor>
prm/pocket_docking_4.prm

>  <SCORE>
-39.1866

>  <SCORE.INTER>
-39.1866

>  <SCORE.INTER.CONST>
1

>  <SCORE.INTER.POLAR>
-1.93982

>  <SCORE.INTER.ROT>
0

>  <SCORE.INTER.SOLV>
9.79341

>  <SCORE.INTER.VDW>
-26.5228

>  <SCORE.INTER.norm>
-3.01436

>  <SCORE.INTRA>
0

>  <SCORE.INTRA.DIHEDRAL>
0

>  <SCORE.INTRA.DIHEDRAL.0>
0

>  <SCORE.INTRA.POLAR>
0

>  <SCORE.INTRA.POLAR.0>
0

>  <SCORE.INTRA.REPUL>
0

>  <SCORE.INTRA.REPUL.0>
0

>  <SCORE.INTRA.SOLV>
0

>  <SCORE.INTRA.SOLV.lig_0>
-12.9768

>  <SCORE.INTRA.VDW>
0

>  <SCORE.INTRA.VDW.0>
0

>  <SCORE.INTRA.norm>
0

>  <SCORE.RESTR>
0

>  <SCORE.RESTR.CAVITY>
0

>  <SCORE.RESTR.norm>
0

>  <SCORE.SYSTEM>
0

>  <SCORE.SYSTEM.CONST>
0

>  <SCORE.SYSTEM.DIHEDRAL>
0

>  <SCORE.SYSTEM.SOLV>
0

>  <SCORE.SYSTEM.norm>
0

>  <SCORE.heavy>
13

>  <SCORE.norm>
-3.01436

>  <RMSD>
0.712

$$$$
1eht cryst
 OpenBabel11021811383D
libRbt.so/2013.1/901 2013/11/27
 13 14  0  0  0  0  0  0  0  0999 V2000
   -4.7680   -7.8685   10.5824 C   0  0  0  0  0  0  0  0  0  0  0  0
   -5.2324   -7.0152   11.5792 N   0  0  0  0  0  0  0  0  0  0  0  0
   -5.6193   -7.5661   12.7736 C   0  0  0  0  0  0  0  0  0  0  0  0
   -5.5288   -8.7917   12.8681 O   0  0  0  0  0  0  0  0  0  0  0  0
   -6.0964   -6.8518   13.8434 N   0  0  0  0  0  0  0  0  0  0  0  0
   -6.4801   -7.4310   15.0418 C   0  0  0  0  0  0  0  0  0  0  0  0
   -6.1554   -5.5102   13.6061 C   0  0  0  0  0  0  0  0  0  0  0  0
   -5.7688   -4.9725   12.4128 C   0  0  0  0  0  0  0  0  0  0  0  0
   -5.2764   -5.6867   11.3054 C   0  0  0  0  0  0  0  0  0  0  0  0
   -4.9153   -5.2512   10.2131 O   0  0  0  0  0  0  0  0  0  0  0  0
   -5.9647   -3.6036   12.5355 N   0  0  0  0  0  0  0  0  0  0  0  0
   -6.4528   -3.4080   13.7834 C   0  0  0  0  0  0  0  0  0  0  0  0
   -6.5870   -4.5092   14.4693 N   0  0  0  0  0  0  0  0  0  0  0  0
  1  2  1  0  0  0  0
  2  9  1  0  0  0  0
  2  3  1  0  0  0  0
  3  5  1  0  0  0  0
  3  4  2  0  0  0  0
  5  6  1  0  0  0  0
  5  7  1  0  0  0  0
  7  8  2  0  0  0  0
  7 13  1  0  0  0  0
  8  9  1  0  0  0  0
  8 11  1  0  0  0  0
  9 10  2  0  0  0  0
 11 12  1  0  0  0  0
 12 13  2  0  0  0  0
M  END
>  <CHROM.1>
-5.74264234,-6.07754116,12.66607617,-0.78271258,1.19963389,-0.28363149

>  <Name>
1eht cryst

>  <RI>
0

>  <Rbt.Current_Directory>
/home/itssahil/PROJECTS/Mol_Feturizer/New_Systems/rnas/1eht

>  <Rbt.Executable>
rbdock ($Id: //depot/dev/client3/rdock/2013.1/src/exe/rbdock.cxx#4 $)

>  <Rbt.Library>
libRbt.so (2013.1, Build901 2013/11/27)

>  <Rbt.Parameter_File>
/export/apps/rDock/src/rDock_2013.1_src/data/scripts/dock_solv.prm

>  <Rbt.Receptor>
prm/pocket_docking_4.prm

>  <SCORE>
-39.2607

>  <SCORE.INTER>
-39.2607

>  <SCORE.INTER.CONST>
1

>  <SCORE.INTER.POLAR>
-1.92748

>  <SCORE.INTER.ROT>
0

>  <SCORE.INTER.SOLV>
9.79359

>  <SCORE.INTER.VDW>
-26.6134

>  <SCORE.INTER.norm>
-3.02006

>  <SCORE.INTRA>
0

>  <SCORE.INTRA.DIHEDRAL>
0

>  <SCORE.INTRA.DIHEDRAL.0>
0

>  <SCORE.INTRA.POLAR>
0

>  <SCORE.INTRA.POLAR.0>
0

>  <SCORE.INTRA.REPUL>
0

>  <SCORE.INTRA.REPUL.0>
0

>  <SCORE.INTRA.SOLV>
0

>  <SCORE.INTRA.SOLV.lig_0>
-12.9768

>  <SCORE.INTRA.VDW>
0

>  <SCORE.INTRA.VDW.0>
0

>  <SCORE.INTRA.norm>
0

>  <SCORE.RESTR>
0

>  <SCORE.RESTR.CAVITY>
0

>  <SCORE.RESTR.norm>
0

>  <SCORE.SYSTEM>
0

>  <SCORE.SYSTEM.CONST>
0

>  <SCORE.SYSTEM.DIHEDRAL>
0

>  <SCORE.SYSTEM.SOLV>
0

>  <SCORE.SYSTEM.norm>
0

>  <SCORE.heavy>
13

>  <SCORE.norm>
-3.02006

>  <RMSD>
0.712

$$$$
1eht cryst
 OpenBabel11021811383D
libRbt.so/2013.1/901 2013/11/27
 13 14  0  0  0  0  0  0  0  0999 V2000
   -4.8120   -7.8697   10.5526 C   0  0  0  0  0  0  0  0  0  0  0  0
   -5.2678   -6.9995   11.5388 N   0  0  0  0  0  0  0  0  0  0  0  0
   -5.6414   -7.5296   12.7467 C   0  0  0  0  0  0  0  0  0  0  0  0
   -5.5477   -8.7531   12.8622 O   0  0  0  0  0  0  0  0  0  0  0  0
   -6.1088   -6.7970   13.8084 N   0  0  0  0  0  0  0  0  0  0  0  0
   -6.4791   -7.3553   15.0209 C   0  0  0  0  0  0  0  0  0  0  0  0
   -6.1727   -5.4600   13.5478 C   0  0  0  0  0  0  0  0  0  0  0  0
   -5.7993   -4.9431   12.3411 C   0  0  0  0  0  0  0  0  0  0  0  0
   -5.3170   -5.6762   11.2417 C   0  0  0  0  0  0  0  0  0  0  0  0
   -4.9679   -5.2598   10.1381 O   0  0  0  0  0  0  0  0  0  0  0  0
   -5.9964   -3.5726   12.4414 N   0  0  0  0  0  0  0  0  0  0  0  0
   -6.4722   -3.3555   13.6904 C   0  0  0  0  0  0  0  0  0  0  0  0
   -6.5973   -4.4445   14.3973 N   0  0  0  0  0  0  0  0  0  0  0  0
  1  2  1  0  0  0  0
  2  9  1  0  0  0  0
  2  3  1  0  0  0  0
  3  5  1  0  0  0  0
  3  4  2  0  0  0  0
  5  6  1  0  0  0  0
  5  7  1  0  0  0  0
  7  8  2  0  0  0  0
  7 13  1  0  0  0  0
  8  9  1  0  0  0  0
  8 11  1  0  0  0  0
  9 10  2  0  0  0  0
 11 12  1  0  0  0  0
 12 13  2  0  0  0  0
M  END
>  <CHROM.1>
-5.76856508,-6.04340727,12.61383640,-0.76964250,1.20892435,-0.31372826

>  <Name>
1eht cryst

>  <RI>
0

>  <Rbt.Current_Directory>
/home/itssahil/PROJECTS/Mol_Feturizer/New_Systems/rnas/1eht

>  <Rbt.Executable>
rbdock ($Id: //depot/dev/client3/rdock/2013.1/src/exe/rbdock.cxx#4 $)

>  <Rbt.Library>
libRbt.so (2013.1, Build901 2013/11/27)

>  <Rbt.Parameter_File>
/export/apps/rDock/src/rDock_2013.1_src/data/scripts/dock_solv.prm

>  <Rbt.Receptor>
prm/pocket_docking_4.prm

>  <SCORE>
-39.2125

>  <SCORE.INTER>
-39.2125

>  <SCORE.INTER.CONST>
1

>  <SCORE.INTER.POLAR>
-1.92788

>  <SCORE.INTER.ROT>
0

>  <SCORE.INTER.SOLV>
9.83004

>  <SCORE.INTER.VDW>
-26.5921

>  <SCORE.INTER.norm>
-3.01635

>  <SCORE.INTRA>
0

>  <SCORE.INTRA.DIHEDRAL>
0

>  <SCORE.INTRA.DIHEDRAL.0>
0

>  <SCORE.INTRA.POLAR>
0

>  <SCORE.INTRA.POLAR.0>
0

>  <SCORE.INTRA.REPUL>
0

>  <SCORE.INTRA.REPUL.0>
0

>  <SCORE.INTRA.SOLV>
0

>  <SCORE.INTRA.SOLV.lig_0>
-12.9768

>  <SCORE.INTRA.VDW>
0

>  <SCORE.INTRA.VDW.0>
0

>  <SCORE.INTRA.norm>
0

>  <SCORE.RESTR>
0

>  <SCORE.RESTR.CAVITY>
0

>  <SCORE.RESTR.norm>
0

>  <SCORE.SYSTEM>
0

>  <SCORE.SYSTEM.CONST>
0

>  <SCORE.SYSTEM.DIHEDRAL>
0

>  <SCORE.SYSTEM.SOLV>
0

>  <SCORE.SYSTEM.norm>
0

>  <SCORE.heavy>
13

>  <SCORE.norm>
-3.01635

>  <RMSD>
0.712

$$$$
1eht cryst
 OpenBabel11021811383D
libRbt.so/2013.1/901 2013/11/27
 13 14  0  0  0  0  0  0  0  0999 V2000
   -4.7996   -7.8816   10.5593 C   0  0  0  0  0  0  0  0  0  0  0  0
   -5.2597   -7.0140   11.5458 N   0  0  0  0  0  0  0  0  0  0  0  0
   -5.6336   -7.5467   12.7525 C   0  0  0  0  0  0  0  0  0  0  0  0
   -5.5361   -8.7701   12.8666 O   0  0  0  0  0  0  0  0  0  0  0  0
   -6.1050   -6.8169   13.8143 N   0  0  0  0  0  0  0  0  0  0  0  0
   -6.4755   -7.3778   15.0255 C   0  0  0  0  0  0  0  0  0  0  0  0
   -6.1728   -5.4798   13.5552 C   0  0  0  0  0  0  0  0  0  0  0  0
   -5.7990   -4.9603   12.3497 C   0  0  0  0  0  0  0  0  0  0  0  0
   -5.3126   -5.6905   11.2502 C   0  0  0  0  0  0  0  0  0  0  0  0
   -4.9631   -5.2717   10.1476 O   0  0  0  0  0  0  0  0  0  0  0  0
   -6.0007   -3.5905   12.4513 N   0  0  0  0  0  0  0  0  0  0  0  0
   -6.4791   -3.3764   13.6999 C   0  0  0  0  0  0  0  0  0  0  0  0
   -6.6019   -4.4666   14.4052 N   0  0  0  0  0  0  0  0  0  0  0  0
  1  2  1  0  0  0  0
  2  9  1  0  0  0  0
  2  3  1  0  0  0  0
  3  5  1  0  0  0  0
  3  4  2  0  0  0  0
  5  6  1  0  0  0  0
  5  7  1  0  0  0  0
  7  8  2  0  0  0  0
  7 13  1  0  0  0  0
  8  9  1  0  0  0  0
  8 11  1  0  0  0  0
  9 10  2  0  0  0  0
 11 12  1  0  0  0  0
 12 13  2  0  0  0  0
M  END
>  <CHROM.1>
-5.76525283,-6.06078126,12.62118782,-0.76255285,1.20640567,-0.31916417

>  <Name>
1eht cryst

>  <RI>
0

>  <Rbt.Current_Directory>
/home/itssahil/PROJECTS/Mol_Feturizer/New_Systems/rnas/1eht

>  <Rbt.Executable>
rbdock ($Id: //depot/dev/client3/rdock/2013.1/src/exe/rbdock.cxx#4 $)

>  <Rbt.Library>
libRbt.so (2013.1, Build901 2013/11/27)

>  <Rbt.Parameter_File>
/export/apps/rDock/src/rDock_2013.1_src/data/scripts/dock_solv.prm

>  <Rbt.Receptor>
prm/pocket_docking_5.prm

>  <SCORE>
-39.1794

>  <SCORE.INTER>
-39.1794

>  <SCORE.INTER.CONST>
1

>  <SCORE.INTER.POLAR>
-1.93513

>  <SCORE.INTER.ROT>
0

>  <SCORE.INTER.SOLV>
9.79446

>  <SCORE.INTER.VDW>
-26.534

>  <SCORE.INTER.norm>
-3.0138

>  <SCORE.INTRA>
0

>  <SCORE.INTRA.DIHEDRAL>
0

>  <SCORE.INTRA.DIHEDRAL.0>
0

>  <SCORE.INTRA.POLAR>
0

>  <SCORE.INTRA.POLAR.0>
0

>  <SCORE.INTRA.REPUL>
0

>  <SCORE.INTRA.REPUL.0>
0

>  <SCORE.INTRA.SOLV>
0

>  <SCORE.INTRA.SOLV.lig_0>
-12.9768

>  <SCORE.INTRA.VDW>
0

>  <SCORE.INTRA.VDW.0>
0

>  <SCORE.INTRA.norm>
0

>  <SCORE.RESTR>
0

>  <SCORE.RESTR.CAVITY>
0

>  <SCORE.RESTR.norm>
0

>  <SCORE.SYSTEM>
0

>  <SCORE.SYSTEM.CONST>
0

>  <SCORE.SYSTEM.DIHEDRAL>
0

>  <SCORE.SYSTEM.SOLV>
0

>  <SCORE.SYSTEM.norm>
0

>  <SCORE.heavy>
13

>  <SCORE.norm>
-3.0138

>  <RMSD>
0.712

$$$$
1eht cryst
 OpenBabel11021811383D
libRbt.so/2013.1/901 2013/11/27
 13 14  0  0  0  0  0  0  0  0999 V2000
   -4.7925   -7.8823   10.5602 C   0  0  0  0  0  0  0  0  0  0  0  0
   -5.2546   -7.0145   11.5456 N   0  0  0  0  0  0  0  0  0  0  0  0
   -5.6290   -7.5467   12.7523 C   0  0  0  0  0  0  0  0  0  0  0  0
   -5.5302   -8.7699   12.8675 O   0  0  0  0  0  0  0  0  0  0  0  0
   -6.1022   -6.8166   13.8132 N   0  0  0  0  0  0  0  0  0  0  0  0
   -6.4732   -7.3771   15.0244 C   0  0  0  0  0  0  0  0  0  0  0  0
   -6.1713   -5.4798   13.5529 C   0  0  0  0  0  0  0  0  0  0  0  0
   -5.7970   -4.9607   12.3474 C   0  0  0  0  0  0  0  0  0  0  0  0
   -5.3087   -5.6912   11.2489 C   0  0  0  0  0  0  0  0  0  0  0  0
   -4.9586   -5.2728   10.1464 O   0  0  0  0  0  0  0  0  0  0  0  0
   -6.0003   -3.5911   12.4478 N   0  0  0  0  0  0  0  0  0  0  0  0
   -6.4802   -3.3766   13.6957 C   0  0  0  0  0  0  0  0  0  0  0  0
   -6.6024   -4.4665   14.4018 N   0  0  0  0  0  0  0  0  0  0  0  0
  1  2  1  0  0  0  0
  2  9  1  0  0  0  0
  2  3  1  0  0  0  0
  3  5  1  0  0  0  0
  3  4  2  0  0  0  0
  5  6  1  0  0  0  0
  5  7  1  0  0  0  0
  7  8  2  0  0  0  0
  7 13  1  0  0  0  0
  8  9  1  0  0  0  0
  8 11  1  0  0  0  0
  9 10  2  0  0  0  0
 11 12  1  0  0  0  0
 12 13  2  0  0  0  0
M  END
>  <CHROM.1>
-5.76220520,-6.06101391,12.61977314,-0.76031556,1.20514609,-0.32200402

>  <Name>
1eht cryst

>  <RI>
224

>  <Rbt.Current_Directory>
/home/itssahil/PROJECTS/Mol_Feturizer/New_Systems/rnas/1eht

>  <Rbt.Executable>
rbdock ($Id: //depot/dev/client3/rdock/2013.1/src/exe/rbdock.cxx#4 $)

>  <Rbt.Library>
libRbt.so (2013.1, Build901 2013/11/27)

>  <Rbt.Parameter_File>
/export/apps/rDock/src/rDock_2013.1_src/data/scripts/dock_solv.prm

>  <Rbt.Receptor>
prm/pocket_docking_7.prm

>  <SCORE>
-39.1859

>  <SCORE.INTER>
-39.1859

>  <SCORE.INTER.CONST>
1

>  <SCORE.INTER.POLAR>
-1.93712

>  <SCORE.INTER.ROT>
0

>  <SCORE.INTER.SOLV>
9.79413

>  <SCORE.INTER.VDW>
-26.5316

>  <SCORE.INTER.norm>
-3.0143

>  <SCORE.INTRA>
0

>  <SCORE.INTRA.DIHEDRAL>
0

>  <SCORE.INTRA.DIHEDRAL.0>
0

>  <SCORE.INTRA.POLAR>
0

>  <SCORE.INTRA.POLAR.0>
0

>  <SCORE.INTRA.REPUL>
0

>  <SCORE.INTRA.REPUL.0>
0

>  <SCORE.INTRA.SOLV>
0

>  <SCORE.INTRA.SOLV.lig_0>
-12.9768

>  <SCORE.INTRA.VDW>
0

>  <SCORE.INTRA.VDW.0>
0

>  <SCORE.INTRA.norm>
0

>  <SCORE.RESTR>
0

>  <SCORE.RESTR.CAVITY>
0

>  <SCORE.RESTR.norm>
0

>  <SCORE.SYSTEM>
0

>  <SCORE.SYSTEM.CONST>
0

>  <SCORE.SYSTEM.DIHEDRAL>
0

>  <SCORE.SYSTEM.SOLV>
0

>  <SCORE.SYSTEM.norm>
0

>  <SCORE.heavy>
13

>  <SCORE.norm>
-3.0143

>  <RMSD>
0.712

$$$$
1eht cryst
 OpenBabel11021811383D
libRbt.so/2013.1/901 2013/11/27
 13 14  0  0  0  0  0  0  0  0999 V2000
   -4.7914   -7.8819   10.5600 C   0  0  0  0  0  0  0  0  0  0  0  0
   -5.2553   -7.0145   11.5448 N   0  0  0  0  0  0  0  0  0  0  0  0
   -5.6323   -7.5472   12.7505 C   0  0  0  0  0  0  0  0  0  0  0  0
   -5.5341   -8.7704   12.8653 O   0  0  0  0  0  0  0  0  0  0  0  0
   -6.1076   -6.8175   13.8107 N   0  0  0  0  0  0  0  0  0  0  0  0
   -6.4812   -7.3784   15.0209 C   0  0  0  0  0  0  0  0  0  0  0  0
   -6.1757   -5.4805   13.5510 C   0  0  0  0  0  0  0  0  0  0  0  0
   -5.7989   -4.9610   12.3466 C   0  0  0  0  0  0  0  0  0  0  0  0
   -5.3085   -5.6911   11.2487 C   0  0  0  0  0  0  0  0  0  0  0  0
   -4.9560   -5.2722   10.1471 O   0  0  0  0  0  0  0  0  0  0  0  0
   -6.0020   -3.5913   12.4472 N   0  0  0  0  0  0  0  0  0  0  0  0
   -6.4844   -3.3774   13.6943 C   0  0  0  0  0  0  0  0  0  0  0  0
   -6.6084   -4.4675   14.3995 N   0  0  0  0  0  0  0  0  0  0  0  0
  1  2  1  0  0  0  0
  2  9  1  0  0  0  0
  2  3  1  0  0  0  0
  3  5  1  0  0  0  0
  3  4  2  0  0  0  0
  5  6  1  0  0  0  0
  5  7  1  0  0  0  0
  7  8  2  0  0  0  0
  7 13  1  0  0  0  0
  8  9  1  0  0  0  0
  8 11  1  0  0  0  0
  9 10  2  0  0  0  0
 11 12  1  0  0  0  0
 12 13  2  0  0  0  0
M  END
>  <CHROM.1>
-5.76490763,-6.06138510,12.61843218,-0.76282395,1.20327239,-0.31916799

>  <Name>
1eht cryst

>  <RI>
0

>  <Rbt.Current_Directory>
/home/itssahil/PROJECTS/Mol_Feturizer/New_Systems/rnas/1eht

>  <Rbt.Executable>
rbdock ($Id: //depot/dev/client3/rdock/2013.1/src/exe/rbdock.cxx#4 $)

>  <Rbt.Library>
libRbt.so (2013.1, Build901 2013/11/27)

>  <Rbt.Parameter_File>
/export/apps/rDock/src/rDock_2013.1_src/data/scripts/dock_solv.prm

>  <Rbt.Receptor>
prm/pocket_docking_8.prm

>  <SCORE>
-39.1854

>  <SCORE.INTER>
-39.1854

>  <SCORE.INTER.CONST>
1

>  <SCORE.INTER.POLAR>
-1.94012

>  <SCORE.INTER.ROT>
0

>  <SCORE.INTER.SOLV>
9.79562

>  <SCORE.INTER.VDW>
-26.5218

>  <SCORE.INTER.norm>
-3.01426

>  <SCORE.INTRA>
0

>  <SCORE.INTRA.DIHEDRAL>
0

>  <SCORE.INTRA.DIHEDRAL.0>
0

>  <SCORE.INTRA.POLAR>
0

>  <SCORE.INTRA.POLAR.0>
0

>  <SCORE.INTRA.REPUL>
0

>  <SCORE.INTRA.REPUL.0>
0

>  <SCORE.INTRA.SOLV>
0

>  <SCORE.INTRA.SOLV.lig_0>
-12.9768

>  <SCORE.INTRA.VDW>
0

>  <SCORE.INTRA.VDW.0>
0

>  <SCORE.INTRA.norm>
0

>  <SCORE.RESTR>
0

>  <SCORE.RESTR.CAVITY>
0

>  <SCORE.RESTR.norm>
0

>  <SCORE.SYSTEM>
0

>  <SCORE.SYSTEM.CONST>
0

>  <SCORE.SYSTEM.DIHEDRAL>
0

>  <SCORE.SYSTEM.SOLV>
0

>  <SCORE.SYSTEM.norm>
0

>  <SCORE.heavy>
13

>  <SCORE.norm>
-3.01426

>  <RMSD>
0.712

$$$$
1eht cryst
 OpenBabel11021811383D
libRbt.so/2013.1/901 2013/11/27
 13 14  0  0  0  0  0  0  0  0999 V2000
   -4.7754   -7.8696   10.5811 C   0  0  0  0  0  0  0  0  0  0  0  0
   -5.2369   -7.0160   11.5790 N   0  0  0  0  0  0  0  0  0  0  0  0
   -5.6209   -7.5665   12.7745 C   0  0  0  0  0  0  0  0  0  0  0  0
   -5.5307   -8.7922   12.8689 O   0  0  0  0  0  0  0  0  0  0  0  0
   -6.0948   -6.8518   13.8455 N   0  0  0  0  0  0  0  0  0  0  0  0
   -6.4757   -7.4307   15.0449 C   0  0  0  0  0  0  0  0  0  0  0  0
   -6.1538   -5.5103   13.6081 C   0  0  0  0  0  0  0  0  0  0  0  0
   -5.7700   -4.9729   12.4137 C   0  0  0  0  0  0  0  0  0  0  0  0
   -5.2809   -5.6875   11.3052 C   0  0  0  0  0  0  0  0  0  0  0  0
   -4.9224   -5.2524   10.2118 O   0  0  0  0  0  0  0  0  0  0  0  0
   -5.9649   -3.6039   12.5368 N   0  0  0  0  0  0  0  0  0  0  0  0
   -6.4497   -3.4079   13.7858 C   0  0  0  0  0  0  0  0  0  0  0  0
   -6.5827   -4.5090   14.4723 N   0  0  0  0  0  0  0  0  0  0  0  0
  1  2  1  0  0  0  0
  2  9  1  0  0  0  0
  2  3  1  0  0  0  0
  3  5  1  0  0  0  0
  3  4  2  0  0  0  0
  5  6  1  0  0  0  0
  5  7  1  0  0  0  0
  7  8  2  0  0  0  0
  7 13  1  0  0  0  0
  8  9  1  0  0  0  0
  8 11  1  0  0  0  0
  9 10  2  0  0  0  0
 11 12  1  0  0  0  0
 12 13  2  0  0  0  0
M  END
>  <CHROM.1>
-5.74378328,-6.07793847,12.66707050,-0.78202538,1.20227515,-0.28440778

>  <Name>
1eht cryst

>  <RI>
0

>  <Rbt.Current_Directory>
/home/itssahil/PROJECTS/Mol_Feturizer/New_Systems/rnas/1eht

>  <Rbt.Executable>
rbdock ($Id: //depot/dev/client3/rdock/2013.1/src/exe/rbdock.cxx#4 $)

>  <Rbt.Library>
libRbt.so (2013.1, Build901 2013/11/27)

>  <Rbt.Parameter_File>
/export/apps/rDock/src/rDock_2013.1_src/data/scripts/dock_solv.prm

>  <Rbt.Receptor>
prm/pocket_docking_8.prm

>  <SCORE>
-39.2534

>  <SCORE.INTER>
-39.2534

>  <SCORE.INTER.CONST>
1

>  <SCORE.INTER.POLAR>
-1.92493

>  <SCORE.INTER.ROT>
0

>  <SCORE.INTER.SOLV>
9.79013

>  <SCORE.INTER.VDW>
-26.6158

>  <SCORE.INTER.norm>
-3.01949

>  <SCORE.INTRA>
0

>  <SCORE.INTRA.DIHEDRAL>
0

>  <SCORE.INTRA.DIHEDRAL.0>
0

>  <SCORE.INTRA.POLAR>
0

>  <SCORE.INTRA.POLAR.0>
0

>  <SCORE.INTRA.REPUL>
0

>  <SCORE.INTRA.REPUL.0>
0

>  <SCORE.INTRA.SOLV>
0

>  <SCORE.INTRA.SOLV.lig_0>
-12.9768

>  <SCORE.INTRA.VDW>
0

>  <SCORE.INTRA.VDW.0>
0

>  <SCORE.INTRA.norm>
0

>  <SCORE.RESTR>
0

>  <SCORE.RESTR.CAVITY>
0

>  <SCORE.RESTR.norm>
0

>  <SCORE.SYSTEM>
0

>  <SCORE.SYSTEM.CONST>
0

>  <SCORE.SYSTEM.DIHEDRAL>
0

>  <SCORE.SYSTEM.SOLV>
0

>  <SCORE.SYSTEM.norm>
0

>  <SCORE.heavy>
13

>  <SCORE.norm>
-3.01949

>  <RMSD>
0.712

$$$$
1eht cryst
 OpenBabel11021811383D
libRbt.so/2013.1/901 2013/11/27
 13 14  0  0  0  0  0  0  0  0999 V2000
   -4.7843   -7.8815   10.5619 C   0  0  0  0  0  0  0  0  0  0  0  0
   -5.2512   -7.0139   11.5452 N   0  0  0  0  0  0  0  0  0  0  0  0
   -5.6297   -7.5461   12.7506 C   0  0  0  0  0  0  0  0  0  0  0  0
   -5.5300   -8.7691   12.8666 O   0  0  0  0  0  0  0  0  0  0  0  0
   -6.1078   -6.8162   13.8094 N   0  0  0  0  0  0  0  0  0  0  0  0
   -6.4830   -7.3766   15.0194 C   0  0  0  0  0  0  0  0  0  0  0  0
   -6.1773   -5.4795   13.5484 C   0  0  0  0  0  0  0  0  0  0  0  0
   -5.7990   -4.9605   12.3442 C   0  0  0  0  0  0  0  0  0  0  0  0
   -5.3056   -5.6908   11.2479 C   0  0  0  0  0  0  0  0  0  0  0  0
   -4.9517   -5.2724   10.1465 O   0  0  0  0  0  0  0  0  0  0  0  0
   -6.0042   -3.5910   12.4432 N   0  0  0  0  0  0  0  0  0  0  0  0
   -6.4891   -3.3766   13.6893 C   0  0  0  0  0  0  0  0  0  0  0  0
   -6.6129   -4.4664   14.3952 N   0  0  0  0  0  0  0  0  0  0  0  0
  1  2  1  0  0  0  0
  2  9  1  0  0  0  0
  2  3  1  0  0  0  0
  3  5  1  0  0  0  0
  3  4  2  0  0  0  0
  5  6  1  0  0  0  0
  5  7  1  0  0  0  0
  7  8  2  0  0  0  0
  7 13  1  0  0  0  0
  8  9  1  0  0  0  0
  8 11  1  0  0  0  0
  9 10  2  0  0  0  0
 11 12  1  0  0  0  0
 12 13  2  0  0  0  0
M  END
>  <CHROM.1>
-5.76401955,-6.06060140,12.61704040,-0.76086637,1.20110693,-0.32184412

>  <Name>
1eht cryst

>  <RI>
0

>  <Rbt.Current_Directory>
/home/itssahil/PROJECTS/Mol_Feturizer/New_Systems/rnas/1eht

>  <Rbt.Executable>
rbdock ($Id: //depot/dev/client3/rdock/2013.1/src/exe/rbdock.cxx#4 $)

>  <Rbt.Library>
libRbt.so (2013.1, Build901 2013/11/27)

>  <Rbt.Parameter_File>
/export/apps/rDock/src/rDock_2013.1_src/data/scripts/dock_solv.prm

>  <Rbt.Receptor>
prm/blind_docking_60.prm

>  <SCORE>
-39.1577

>  <SCORE.INTER>
-39.1577

>  <SCORE.INTER.CONST>
1

>  <SCORE.INTER.POLAR>
-1.94241

>  <SCORE.INTER.ROT>
0

>  <SCORE.INTER.SOLV>
9.79701

>  <SCORE.INTER.VDW>
-26.4961

>  <SCORE.INTER.norm>
-3.01213

>  <SCORE.INTRA>
0

>  <SCORE.INTRA.DIHEDRAL>
0

>  <SCORE.INTRA.DIHEDRAL.0>
0

>  <SCORE.INTRA.POLAR>
0

>  <SCORE.INTRA.POLAR.0>
0

>  <SCORE.INTRA.REPUL>
0

>  <SCORE.INTRA.REPUL.0>
0

>  <SCORE.INTRA.SOLV>
0

>  <SCORE.INTRA.SOLV.lig_0>
-12.9768

>  <SCORE.INTRA.VDW>
0

>  <SCORE.INTRA.VDW.0>
0

>  <SCORE.INTRA.norm>
0

>  <SCORE.RESTR>
0

>  <SCORE.RESTR.CAVITY>
0

>  <SCORE.RESTR.norm>
0

>  <SCORE.SYSTEM>
0

>  <SCORE.SYSTEM.CONST>
0

>  <SCORE.SYSTEM.DIHEDRAL>
0

>  <SCORE.SYSTEM.SOLV>
0

>  <SCORE.SYSTEM.norm>
0

>  <SCORE.heavy>
13

>  <SCORE.norm>
-3.01213

>  <RMSD>
0.713

$$$$
1eht cryst
 OpenBabel11021811383D
libRbt.so/2013.1/901 2013/11/27
 13 14  0  0  0  0  0  0  0  0999 V2000
   -4.7888   -7.8837   10.5621 C   0  0  0  0  0  0  0  0  0  0  0  0
   -5.2510   -7.0153   11.5469 N   0  0  0  0  0  0  0  0  0  0  0  0
   -5.6227   -7.5464   12.7550 C   0  0  0  0  0  0  0  0  0  0  0  0
   -5.5217   -8.7693   12.8717 O   0  0  0  0  0  0  0  0  0  0  0  0
   -6.0957   -6.8157   13.8154 N   0  0  0  0  0  0  0  0  0  0  0  0
   -6.4640   -7.3750   15.0280 C   0  0  0  0  0  0  0  0  0  0  0  0
   -6.1674   -5.4794   13.5534 C   0  0  0  0  0  0  0  0  0  0  0  0
   -5.7958   -4.9614   12.3466 C   0  0  0  0  0  0  0  0  0  0  0  0
   -5.3078   -5.6926   11.2485 C   0  0  0  0  0  0  0  0  0  0  0  0
   -4.9600   -5.2751   10.1449 O   0  0  0  0  0  0  0  0  0  0  0  0
   -6.0013   -3.5919   12.4453 N   0  0  0  0  0  0  0  0  0  0  0  0
   -6.4797   -3.3765   13.6937 C   0  0  0  0  0  0  0  0  0  0  0  0
   -6.5991   -4.4655   14.4015 N   0  0  0  0  0  0  0  0  0  0  0  0
  1  2  1  0  0  0  0
  2  9  1  0  0  0  0
  2  3  1  0  0  0  0
  3  5  1  0  0  0  0
  3  4  2  0  0  0  0
  5  6  1  0  0  0  0
  5  7  1  0  0  0  0
  7  8  2  0  0  0  0
  7 13  1  0  0  0  0
  8  9  1  0  0  0  0
  8 11  1  0  0  0  0
  9 10  2  0  0  0  0
 11 12  1  0  0  0  0
 12 13  2  0  0  0  0
M  END
>  <CHROM.1>
-5.75870746,-6.06117162,12.62049658,-0.75451069,1.20596330,-0.32884542

>  <Name>
1eht cryst

>  <RI>
0

>  <Rbt.Current_Directory>
/home/itssahil/PROJECTS/Mol_Feturizer/New_Systems/rnas/1eht

>  <Rbt.Executable>
rbdock ($Id: //depot/dev/client3/rdock/2013.1/src/exe/rbdock.cxx#4 $)

>  <Rbt.Library>
libRbt.so (2013.1, Build901 2013/11/27)

>  <Rbt.Parameter_File>
/export/apps/rDock/src/rDock_2013.1_src/data/scripts/dock_solv.prm

>  <Rbt.Receptor>
prm/blind_docking_60.prm

>  <SCORE>
-39.185

>  <SCORE.INTER>
-39.185

>  <SCORE.INTER.CONST>
1

>  <SCORE.INTER.POLAR>
-1.93579

>  <SCORE.INTER.ROT>
0

>  <SCORE.INTER.SOLV>
9.78967

>  <SCORE.INTER.VDW>
-26.5339

>  <SCORE.INTER.norm>
-3.01423

>  <SCORE.INTRA>
0

>  <SCORE.INTRA.DIHEDRAL>
0

>  <SCORE.INTRA.DIHEDRAL.0>
0

>  <SCORE.INTRA.POLAR>
0

>  <SCORE.INTRA.POLAR.0>
0

>  <SCORE.INTRA.REPUL>
0

>  <SCORE.INTRA.REPUL.0>
0

>  <SCORE.INTRA.SOLV>
0

>  <SCORE.INTRA.SOLV.lig_0>
-12.9768

>  <SCORE.INTRA.VDW>
0

>  <SCORE.INTRA.VDW.0>
0

>  <SCORE.INTRA.norm>
0

>  <SCORE.RESTR>
0

>  <SCORE.RESTR.CAVITY>
0

>  <SCORE.RESTR.norm>
0

>  <SCORE.SYSTEM>
0

>  <SCORE.SYSTEM.CONST>
0

>  <SCORE.SYSTEM.DIHEDRAL>
0

>  <SCORE.SYSTEM.SOLV>
0

>  <SCORE.SYSTEM.norm>
0

>  <SCORE.heavy>
13

>  <SCORE.norm>
-3.01423

>  <RMSD>
0.713

$$$$
1eht cryst
 OpenBabel11021811383D
libRbt.so/2013.1/901 2013/11/27
 13 14  0  0  0  0  0  0  0  0999 V2000
   -4.7758   -7.8730   10.5814 C   0  0  0  0  0  0  0  0  0  0  0  0
   -5.2351   -7.0181   11.5793 N   0  0  0  0  0  0  0  0  0  0  0  0
   -5.6157   -7.5672   12.7765 C   0  0  0  0  0  0  0  0  0  0  0  0
   -5.5245   -8.7926   12.8725 O   0  0  0  0  0  0  0  0  0  0  0  0
   -6.0872   -6.8512   13.8477 N   0  0  0  0  0  0  0  0  0  0  0  0
   -6.4646   -7.4285   15.0490 C   0  0  0  0  0  0  0  0  0  0  0  0
   -6.1476   -5.5100   13.6085 C   0  0  0  0  0  0  0  0  0  0  0  0
   -5.7673   -4.9742   12.4123 C   0  0  0  0  0  0  0  0  0  0  0  0
   -5.2806   -5.6901   11.3036 C   0  0  0  0  0  0  0  0  0  0  0  0
   -4.9253   -5.2563   10.2086 O   0  0  0  0  0  0  0  0  0  0  0  0
   -5.9627   -3.6051   12.5339 N   0  0  0  0  0  0  0  0  0  0  0  0
   -6.4444   -3.4076   13.7840 C   0  0  0  0  0  0  0  0  0  0  0  0
   -6.5748   -4.5077   14.4723 N   0  0  0  0  0  0  0  0  0  0  0  0
  1  2  1  0  0  0  0
  2  9  1  0  0  0  0
  2  3  1  0  0  0  0
  3  5  1  0  0  0  0
  3  4  2  0  0  0  0
  5  6  1  0  0  0  0
  5  7  1  0  0  0  0
  7  8  2  0  0  0  0
  7 13  1  0  0  0  0
  8  9  1  0  0  0  0
  8 11  1  0  0  0  0
  9 10  2  0  0  0  0
 11 12  1  0  0  0  0
 12 13  2  0  0  0  0
M  END
>  <CHROM.1>
-5.73973686,-6.07880174,12.66724729,-0.77830576,1.20461973,-0.28934659

>  <Name>
1eht cryst

>  <RI>
0

>  <Rbt.Current_Directory>
/home/itssahil/PROJECTS/Mol_Feturizer/New_Systems/rnas/1eht

>  <Rbt.Executable>
rbdock ($Id: //depot/dev/client3/rdock/2013.1/src/exe/rbdock.cxx#4 $)

>  <Rbt.Library>
libRbt.so (2013.1, Build901 2013/11/27)

>  <Rbt.Parameter_File>
/export/apps/rDock/src/rDock_2013.1_src/data/scripts/dock_solv.prm

>  <Rbt.Receptor>
prm/blind_docking_60.prm

>  <SCORE>
-39.2352

>  <SCORE.INTER>
-39.2352

>  <SCORE.INTER.CONST>
1

>  <SCORE.INTER.POLAR>
-1.92185

>  <SCORE.INTER.ROT>
0

>  <SCORE.INTER.SOLV>
9.78489

>  <SCORE.INTER.VDW>
-26.6123

>  <SCORE.INTER.norm>
-3.01809

>  <SCORE.INTRA>
0

>  <SCORE.INTRA.DIHEDRAL>
0

>  <SCORE.INTRA.DIHEDRAL.0>
0

>  <SCORE.INTRA.POLAR>
0

>  <SCORE.INTRA.POLAR.0>
0

>  <SCORE.INTRA.REPUL>
0

>  <SCORE.INTRA.REPUL.0>
0

>  <SCORE.INTRA.SOLV>
0

>  <SCORE.INTRA.SOLV.lig_0>
-12.9768

>  <SCORE.INTRA.VDW>
0

>  <SCORE.INTRA.VDW.0>
0

>  <SCORE.INTRA.norm>
0

>  <SCORE.RESTR>
0

>  <SCORE.RESTR.CAVITY>
0

>  <SCORE.RESTR.norm>
0

>  <SCORE.SYSTEM>
0

>  <SCORE.SYSTEM.CONST>
0

>  <SCORE.SYSTEM.DIHEDRAL>
0

>  <SCORE.SYSTEM.SOLV>
0

>  <SCORE.SYSTEM.norm>
0

>  <SCORE.heavy>
13

>  <SCORE.norm>
-3.01809

>  <RMSD>
0.713

$$$$
1eht cryst
 OpenBabel11021811383D
libRbt.so/2013.1/901 2013/11/27
 13 14  0  0  0  0  0  0  0  0999 V2000
   -4.7673   -7.8690   10.5842 C   0  0  0  0  0  0  0  0  0  0  0  0
   -5.2324   -7.0157   11.5808 N   0  0  0  0  0  0  0  0  0  0  0  0
   -5.6193   -7.5666   12.7752 C   0  0  0  0  0  0  0  0  0  0  0  0
   -5.5283   -8.7921   12.8699 O   0  0  0  0  0  0  0  0  0  0  0  0
   -6.0969   -6.8523   13.8448 N   0  0  0  0  0  0  0  0  0  0  0  0
   -6.4806   -7.4314   15.0432 C   0  0  0  0  0  0  0  0  0  0  0  0
   -6.1564   -5.5108   13.6072 C   0  0  0  0  0  0  0  0  0  0  0  0
   -5.7697   -4.9731   12.4139 C   0  0  0  0  0  0  0  0  0  0  0  0
   -5.2767   -5.6873   11.3067 C   0  0  0  0  0  0  0  0  0  0  0  0
   -4.9155   -5.2519   10.2144 O   0  0  0  0  0  0  0  0  0  0  0  0
   -5.9661   -3.6043   12.5363 N   0  0  0  0  0  0  0  0  0  0  0  0
   -6.4547   -3.4087   13.7840 C   0  0  0  0  0  0  0  0  0  0  0  0
   -6.5886   -4.5098   14.4701 N   0  0  0  0  0  0  0  0  0  0  0  0
  1  2  1  0  0  0  0
  2  9  1  0  0  0  0
  2  3  1  0  0  0  0
  3  5  1  0  0  0  0
  3  4  2  0  0  0  0
  5  6  1  0  0  0  0
  5  7  1  0  0  0  0
  7  8  2  0  0  0  0
  7 13  1  0  0  0  0
  8  9  1  0  0  0  0
  8 11  1  0  0  0  0
  9 10  2  0  0  0  0
 11 12  1  0  0  0  0
 12 13  2  0  0  0  0
M  END
>  <CHROM.1>
-5.74317144,-6.07810704,12.66735092,-0.78187915,1.19929971,-0.28457213

>  <Name>
1eht cryst

>  <RI>
0

>  <Rbt.Current_Directory>
/home/itssahil/PROJECTS/Mol_Feturizer/New_Systems/rnas/1eht

>  <Rbt.Executable>
rbdock ($Id: //depot/dev/client3/rdock/2013.1/src/exe/rbdock.cxx#4 $)

>  <Rbt.Library>
libRbt.so (2013.1, Build901 2013/11/27)

>  <Rbt.Parameter_File>
/export/apps/rDock/src/rDock_2013.1_src/data/scripts/dock_solv.prm

>  <Rbt.Receptor>
prm/pocket_docking_2.prm

>  <SCORE>
-39.2648

>  <SCORE.INTER>
-39.2648

>  <SCORE.INTER.CONST>
1

>  <SCORE.INTER.POLAR>
-1.92796

>  <SCORE.INTER.ROT>
0

>  <SCORE.INTER.SOLV>
9.79196

>  <SCORE.INTER.VDW>
-26.614

>  <SCORE.INTER.norm>
-3.02037

>  <SCORE.INTRA>
0

>  <SCORE.INTRA.DIHEDRAL>
0

>  <SCORE.INTRA.DIHEDRAL.0>
0

>  <SCORE.INTRA.POLAR>
0

>  <SCORE.INTRA.POLAR.0>
0

>  <SCORE.INTRA.REPUL>
0

>  <SCORE.INTRA.REPUL.0>
0

>  <SCORE.INTRA.SOLV>
0

>  <SCORE.INTRA.SOLV.lig_0>
-12.9768

>  <SCORE.INTRA.VDW>
0

>  <SCORE.INTRA.VDW.0>
0

>  <SCORE.INTRA.norm>
0

>  <SCORE.RESTR>
0

>  <SCORE.RESTR.CAVITY>
0

>  <SCORE.RESTR.norm>
0

>  <SCORE.SYSTEM>
0

>  <SCORE.SYSTEM.CONST>
0

>  <SCORE.SYSTEM.DIHEDRAL>
0

>  <SCORE.SYSTEM.SOLV>
0

>  <SCORE.SYSTEM.norm>
0

>  <SCORE.heavy>
13

>  <SCORE.norm>
-3.02037

>  <RMSD>
0.713

$$$$
1eht cryst
 OpenBabel11021811383D
libRbt.so/2013.1/901 2013/11/27
 13 14  0  0  0  0  0  0  0  0999 V2000
   -4.7659   -7.8732   10.5819 C   0  0  0  0  0  0  0  0  0  0  0  0
   -5.2342   -7.0188   11.5760 N   0  0  0  0  0  0  0  0  0  0  0  0
   -5.6227   -7.5680   12.7706 C   0  0  0  0  0  0  0  0  0  0  0  0
   -5.5301   -8.7932   12.8677 O   0  0  0  0  0  0  0  0  0  0  0  0
   -6.1033   -6.8524   13.8380 N   0  0  0  0  0  0  0  0  0  0  0  0
   -6.4886   -7.4299   15.0367 C   0  0  0  0  0  0  0  0  0  0  0  0
   -6.1643   -5.5115   13.5978 C   0  0  0  0  0  0  0  0  0  0  0  0
   -5.7760   -4.9754   12.4043 C   0  0  0  0  0  0  0  0  0  0  0  0
   -5.2799   -5.6909   11.2994 C   0  0  0  0  0  0  0  0  0  0  0  0
   -4.9172   -5.2570   10.2070 O   0  0  0  0  0  0  0  0  0  0  0  0
   -5.9747   -3.6066   12.5238 N   0  0  0  0  0  0  0  0  0  0  0  0
   -6.4659   -3.4095   13.7702 C   0  0  0  0  0  0  0  0  0  0  0  0
   -6.5996   -4.5095   14.4580 N   0  0  0  0  0  0  0  0  0  0  0  0
  1  2  1  0  0  0  0
  2  9  1  0  0  0  0
  2  3  1  0  0  0  0
  3  5  1  0  0  0  0
  3  4  2  0  0  0  0
  5  6  1  0  0  0  0
  5  7  1  0  0  0  0
  7  8  2  0  0  0  0
  7 13  1  0  0  0  0
  8  9  1  0  0  0  0
  8 11  1  0  0  0  0
  9 10  2  0  0  0  0
 11 12  1  0  0  0  0
 12 13  2  0  0  0  0
M  END
>  <CHROM.1>
-5.74844467,-6.07990280,12.65982292,-0.77962286,1.19701675,-0.28850947

>  <Name>
1eht cryst

>  <RI>
0

>  <Rbt.Current_Directory>
/home/itssahil/PROJECTS/Mol_Feturizer/New_Systems/rnas/1eht

>  <Rbt.Executable>
rbdock ($Id: //depot/dev/client3/rdock/2013.1/src/exe/rbdock.cxx#4 $)

>  <Rbt.Library>
libRbt.so (2013.1, Build901 2013/11/27)

>  <Rbt.Parameter_File>
/export/apps/rDock/src/rDock_2013.1_src/data/scripts/dock_solv.prm

>  <Rbt.Receptor>
prm/pocket_docking_2.prm

>  <SCORE>
-39.1703

>  <SCORE.INTER>
-39.1703

>  <SCORE.INTER.CONST>
1

>  <SCORE.INTER.POLAR>
-1.93544

>  <SCORE.INTER.ROT>
0

>  <SCORE.INTER.SOLV>
9.78379

>  <SCORE.INTER.VDW>
-26.5233

>  <SCORE.INTER.norm>
-3.0131

>  <SCORE.INTRA>
0

>  <SCORE.INTRA.DIHEDRAL>
0

>  <SCORE.INTRA.DIHEDRAL.0>
0

>  <SCORE.INTRA.POLAR>
0

>  <SCORE.INTRA.POLAR.0>
0

>  <SCORE.INTRA.REPUL>
0

>  <SCORE.INTRA.REPUL.0>
0

>  <SCORE.INTRA.SOLV>
0

>  <SCORE.INTRA.SOLV.lig_0>
-12.9768

>  <SCORE.INTRA.VDW>
0

>  <SCORE.INTRA.VDW.0>
0

>  <SCORE.INTRA.norm>
0

>  <SCORE.RESTR>
0

>  <SCORE.RESTR.CAVITY>
0

>  <SCORE.RESTR.norm>
0

>  <SCORE.SYSTEM>
0

>  <SCORE.SYSTEM.CONST>
0

>  <SCORE.SYSTEM.DIHEDRAL>
0

>  <SCORE.SYSTEM.SOLV>
0

>  <SCORE.SYSTEM.norm>
0

>  <SCORE.heavy>
13

>  <SCORE.norm>
-3.0131

>  <RMSD>
0.713

$$$$
1eht cryst
 OpenBabel11021811383D
libRbt.so/2013.1/901 2013/11/27
 13 14  0  0  0  0  0  0  0  0999 V2000
   -4.7672   -7.8669   10.5844 C   0  0  0  0  0  0  0  0  0  0  0  0
   -5.2349   -7.0148   11.5807 N   0  0  0  0  0  0  0  0  0  0  0  0
   -5.6276   -7.5672   12.7725 C   0  0  0  0  0  0  0  0  0  0  0  0
   -5.5390   -8.7930   12.8653 O   0  0  0  0  0  0  0  0  0  0  0  0
   -6.1084   -6.8541   13.8414 N   0  0  0  0  0  0  0  0  0  0  0  0
   -6.4980   -7.4348   15.0372 C   0  0  0  0  0  0  0  0  0  0  0  0
   -6.1648   -5.5121   13.6061 C   0  0  0  0  0  0  0  0  0  0  0  0
   -5.7723   -4.9728   12.4154 C   0  0  0  0  0  0  0  0  0  0  0  0
   -5.2761   -5.6857   11.3089 C   0  0  0  0  0  0  0  0  0  0  0  0
   -4.9097   -5.2489   10.2189 O   0  0  0  0  0  0  0  0  0  0  0  0
   -5.9671   -3.6039   12.5396 N   0  0  0  0  0  0  0  0  0  0  0  0
   -6.4604   -3.4098   13.7856 C   0  0  0  0  0  0  0  0  0  0  0  0
   -6.5989   -4.5120   14.4691 N   0  0  0  0  0  0  0  0  0  0  0  0
  1  2  1  0  0  0  0
  2  9  1  0  0  0  0
  2  3  1  0  0  0  0
  3  5  1  0  0  0  0
  3  4  2  0  0  0  0
  5  6  1  0  0  0  0
  5  7  1  0  0  0  0
  7  8  2  0  0  0  0
  7 13  1  0  0  0  0
  8  9  1  0  0  0  0
  8 11  1  0  0  0  0
  9 10  2  0  0  0  0
 11 12  1  0  0  0  0
 12 13  2  0  0  0  0
M  END
>  <CHROM.1>
-5.74867145,-6.07829539,12.66690271,-0.78921761,1.19583086,-0.27589386

>  <Name>
1eht cryst

>  <RI>
0

>  <Rbt.Current_Directory>
/home/itssahil/PROJECTS/Mol_Feturizer/New_Systems/rnas/1eht

>  <Rbt.Executable>
rbdock ($Id: //depot/dev/client3/rdock/2013.1/src/exe/rbdock.cxx#4 $)

>  <Rbt.Library>
libRbt.so (2013.1, Build901 2013/11/27)

>  <Rbt.Parameter_File>
/export/apps/rDock/src/rDock_2013.1_src/data/scripts/dock_solv.prm

>  <Rbt.Receptor>
prm/pocket_docking_2.prm

>  <SCORE>
-39.2168

>  <SCORE.INTER>
-39.2168

>  <SCORE.INTER.CONST>
1

>  <SCORE.INTER.POLAR>
-1.93249

>  <SCORE.INTER.ROT>
0

>  <SCORE.INTER.SOLV>
9.79777

>  <SCORE.INTER.VDW>
-26.5689

>  <SCORE.INTER.norm>
-3.01668

>  <SCORE.INTRA>
0

>  <SCORE.INTRA.DIHEDRAL>
0

>  <SCORE.INTRA.DIHEDRAL.0>
0

>  <SCORE.INTRA.POLAR>
0

>  <SCORE.INTRA.POLAR.0>
0

>  <SCORE.INTRA.REPUL>
0

>  <SCORE.INTRA.REPUL.0>
0

>  <SCORE.INTRA.SOLV>
0

>  <SCORE.INTRA.SOLV.lig_0>
-12.9768

>  <SCORE.INTRA.VDW>
0

>  <SCORE.INTRA.VDW.0>
0

>  <SCORE.INTRA.norm>
0

>  <SCORE.RESTR>
0

>  <SCORE.RESTR.CAVITY>
0

>  <SCORE.RESTR.norm>
0

>  <SCORE.SYSTEM>
0

>  <SCORE.SYSTEM.CONST>
0

>  <SCORE.SYSTEM.DIHEDRAL>
0

>  <SCORE.SYSTEM.SOLV>
0

>  <SCORE.SYSTEM.norm>
0

>  <SCORE.heavy>
13

>  <SCORE.norm>
-3.01668

>  <RMSD>
0.713

$$$$
1eht cryst
 OpenBabel11021811383D
libRbt.so/2013.1/901 2013/11/27
 13 14  0  0  0  0  0  0  0  0999 V2000
   -4.7895   -7.8845   10.5627 C   0  0  0  0  0  0  0  0  0  0  0  0
   -5.2533   -7.0161   11.5467 N   0  0  0  0  0  0  0  0  0  0  0  0
   -5.6274   -7.5472   12.7540 C   0  0  0  0  0  0  0  0  0  0  0  0
   -5.5268   -8.7701   12.8709 O   0  0  0  0  0  0  0  0  0  0  0  0
   -6.1021   -6.8164   13.8137 N   0  0  0  0  0  0  0  0  0  0  0  0
   -6.4728   -7.3758   15.0256 C   0  0  0  0  0  0  0  0  0  0  0  0
   -6.1731   -5.4801   13.5516 C   0  0  0  0  0  0  0  0  0  0  0  0
   -5.7992   -4.9621   12.3456 C   0  0  0  0  0  0  0  0  0  0  0  0
   -5.3093   -5.6933   11.2483 C   0  0  0  0  0  0  0  0  0  0  0  0
   -4.9594   -5.2758   10.1453 O   0  0  0  0  0  0  0  0  0  0  0  0
   -6.0046   -3.5926   12.4440 N   0  0  0  0  0  0  0  0  0  0  0  0
   -6.4853   -3.3772   13.6915 C   0  0  0  0  0  0  0  0  0  0  0  0
   -6.6061   -4.4662   14.3990 N   0  0  0  0  0  0  0  0  0  0  0  0
  1  2  1  0  0  0  0
  2  9  1  0  0  0  0
  2  3  1  0  0  0  0
  3  5  1  0  0  0  0
  3  4  2  0  0  0  0
  5  6  1  0  0  0  0
  5  7  1  0  0  0  0
  7  8  2  0  0  0  0
  7 13  1  0  0  0  0
  8  9  1  0  0  0  0
  8 11  1  0  0  0  0
  9 10  2  0  0  0  0
 11 12  1  0  0  0  0
 12 13  2  0  0  0  0
M  END
>  <CHROM.1>
-5.76279839,-6.06191491,12.61943889,-0.75667734,1.20428883,-0.32674748

>  <Name>
1eht cryst

>  <RI>
0

>  <Rbt.Current_Directory>
/home/itssahil/PROJECTS/Mol_Feturizer/New_Systems/rnas/1eht

>  <Rbt.Executable>
rbdock ($Id: //depot/dev/client3/rdock/2013.1/src/exe/rbdock.cxx#4 $)

>  <Rbt.Library>
libRbt.so (2013.1, Build901 2013/11/27)

>  <Rbt.Parameter_File>
/export/apps/rDock/src/rDock_2013.1_src/data/scripts/dock_solv.prm

>  <Rbt.Receptor>
prm/pocket_docking_3.prm

>  <SCORE>
-39.1849

>  <SCORE.INTER>
-39.1849

>  <SCORE.INTER.CONST>
1

>  <SCORE.INTER.POLAR>
-1.93852

>  <SCORE.INTER.ROT>
0

>  <SCORE.INTER.SOLV>
9.78896

>  <SCORE.INTER.VDW>
-26.5245

>  <SCORE.INTER.norm>
-3.01422

>  <SCORE.INTRA>
0

>  <SCORE.INTRA.DIHEDRAL>
0

>  <SCORE.INTRA.DIHEDRAL.0>
0

>  <SCORE.INTRA.POLAR>
0

>  <SCORE.INTRA.POLAR.0>
0

>  <SCORE.INTRA.REPUL>
0

>  <SCORE.INTRA.REPUL.0>
0

>  <SCORE.INTRA.SOLV>
0

>  <SCORE.INTRA.SOLV.lig_0>
-12.9768

>  <SCORE.INTRA.VDW>
0

>  <SCORE.INTRA.VDW.0>
0

>  <SCORE.INTRA.norm>
0

>  <SCORE.RESTR>
0

>  <SCORE.RESTR.CAVITY>
0

>  <SCORE.RESTR.norm>
0

>  <SCORE.SYSTEM>
0

>  <SCORE.SYSTEM.CONST>
0

>  <SCORE.SYSTEM.DIHEDRAL>
0

>  <SCORE.SYSTEM.SOLV>
0

>  <SCORE.SYSTEM.norm>
0

>  <SCORE.heavy>
13

>  <SCORE.norm>
-3.01422

>  <RMSD>
0.713

$$$$
1eht cryst
 OpenBabel11021811383D
libRbt.so/2013.1/901 2013/11/27
 13 14  0  0  0  0  0  0  0  0999 V2000
   -4.7886   -7.8829   10.5620 C   0  0  0  0  0  0  0  0  0  0  0  0
   -5.2522   -7.0150   11.5465 N   0  0  0  0  0  0  0  0  0  0  0  0
   -5.6265   -7.5468   12.7535 C   0  0  0  0  0  0  0  0  0  0  0  0
   -5.5263   -8.7698   12.8696 O   0  0  0  0  0  0  0  0  0  0  0  0
   -6.1012   -6.8165   13.8136 N   0  0  0  0  0  0  0  0  0  0  0  0
   -6.4721   -7.3766   15.0251 C   0  0  0  0  0  0  0  0  0  0  0  0
   -6.1717   -5.4800   13.5524 C   0  0  0  0  0  0  0  0  0  0  0  0
   -5.7975   -4.9613   12.3467 C   0  0  0  0  0  0  0  0  0  0  0  0
   -5.3078   -5.6920   11.2490 C   0  0  0  0  0  0  0  0  0  0  0  0
   -4.9577   -5.2739   10.1463 O   0  0  0  0  0  0  0  0  0  0  0  0
   -6.0026   -3.5919   12.4460 N   0  0  0  0  0  0  0  0  0  0  0  0
   -6.4833   -3.3771   13.6936 C   0  0  0  0  0  0  0  0  0  0  0  0
   -6.6045   -4.4666   14.4004 N   0  0  0  0  0  0  0  0  0  0  0  0
  1  2  1  0  0  0  0
  2  9  1  0  0  0  0
  2  3  1  0  0  0  0
  3  5  1  0  0  0  0
  3  4  2  0  0  0  0
  5  6  1  0  0  0  0
  5  7  1  0  0  0  0
  7  8  2  0  0  0  0
  7 13  1  0  0  0  0
  8  9  1  0  0  0  0
  8 11  1  0  0  0  0
  9 10  2  0  0  0  0
 11 12  1  0  0  0  0
 12 13  2  0  0  0  0
M  END
>  <CHROM.1>
-5.76151309,-6.06134962,12.61984348,-0.75753027,1.20432254,-0.32530755

>  <Name>
1eht cryst

>  <RI>
0

>  <Rbt.Current_Directory>
/home/itssahil/PROJECTS/Mol_Feturizer/New_Systems/rnas/1eht

>  <Rbt.Executable>
rbdock ($Id: //depot/dev/client3/rdock/2013.1/src/exe/rbdock.cxx#4 $)

>  <Rbt.Library>
libRbt.so (2013.1, Build901 2013/11/27)

>  <Rbt.Parameter_File>
/export/apps/rDock/src/rDock_2013.1_src/data/scripts/dock_solv.prm

>  <Rbt.Receptor>
prm/pocket_docking_3.prm

>  <SCORE>
-39.1878

>  <SCORE.INTER>
-39.1878

>  <SCORE.INTER.CONST>
1

>  <SCORE.INTER.POLAR>
-1.93805

>  <SCORE.INTER.ROT>
0

>  <SCORE.INTER.SOLV>
9.79182

>  <SCORE.INTER.VDW>
-26.529

>  <SCORE.INTER.norm>
-3.01445

>  <SCORE.INTRA>
0

>  <SCORE.INTRA.DIHEDRAL>
0

>  <SCORE.INTRA.DIHEDRAL.0>
0

>  <SCORE.INTRA.POLAR>
0

>  <SCORE.INTRA.POLAR.0>
0

>  <SCORE.INTRA.REPUL>
0

>  <SCORE.INTRA.REPUL.0>
0

>  <SCORE.INTRA.SOLV>
0

>  <SCORE.INTRA.SOLV.lig_0>
-12.9768

>  <SCORE.INTRA.VDW>
0

>  <SCORE.INTRA.VDW.0>
0

>  <SCORE.INTRA.norm>
0

>  <SCORE.RESTR>
0

>  <SCORE.RESTR.CAVITY>
0

>  <SCORE.RESTR.norm>
0

>  <SCORE.SYSTEM>
0

>  <SCORE.SYSTEM.CONST>
0

>  <SCORE.SYSTEM.DIHEDRAL>
0

>  <SCORE.SYSTEM.SOLV>
0

>  <SCORE.SYSTEM.norm>
0

>  <SCORE.heavy>
13

>  <SCORE.norm>
-3.01445

>  <RMSD>
0.713

$$$$
1eht cryst
 OpenBabel11021811383D
libRbt.so/2013.1/901 2013/11/27
 13 14  0  0  0  0  0  0  0  0999 V2000
   -4.7662   -7.8681   10.5843 C   0  0  0  0  0  0  0  0  0  0  0  0
   -5.2320   -7.0151   11.5808 N   0  0  0  0  0  0  0  0  0  0  0  0
   -5.6200   -7.5662   12.7747 C   0  0  0  0  0  0  0  0  0  0  0  0
   -5.5292   -8.7918   12.8691 O   0  0  0  0  0  0  0  0  0  0  0  0
   -6.0984   -6.8522   13.8441 N   0  0  0  0  0  0  0  0  0  0  0  0
   -6.4832   -7.4317   15.0420 C   0  0  0  0  0  0  0  0  0  0  0  0
   -6.1575   -5.5106   13.6069 C   0  0  0  0  0  0  0  0  0  0  0  0
   -5.7697   -4.9726   12.4141 C   0  0  0  0  0  0  0  0  0  0  0  0
   -5.2760   -5.6865   11.3071 C   0  0  0  0  0  0  0  0  0  0  0  0
   -4.9138   -5.2508   10.2152 O   0  0  0  0  0  0  0  0  0  0  0  0
   -5.9662   -3.6038   12.5368 N   0  0  0  0  0  0  0  0  0  0  0  0
   -6.4557   -3.4085   13.7841 C   0  0  0  0  0  0  0  0  0  0  0  0
   -6.5903   -4.5099   14.4697 N   0  0  0  0  0  0  0  0  0  0  0  0
  1  2  1  0  0  0  0
  2  9  1  0  0  0  0
  2  3  1  0  0  0  0
  3  5  1  0  0  0  0
  3  4  2  0  0  0  0
  5  6  1  0  0  0  0
  5  7  1  0  0  0  0
  7  8  2  0  0  0  0
  7 13  1  0  0  0  0
  8  9  1  0  0  0  0
  8 11  1  0  0  0  0
  9 10  2  0  0  0  0
 11 12  1  0  0  0  0
 12 13  2  0  0  0  0
M  END
>  <CHROM.1>
-5.74359812,-6.07770971,12.66722475,-0.78281471,1.19851736,-0.28339515

>  <Name>
1eht cryst

>  <RI>
0

>  <Rbt.Current_Directory>
/home/itssahil/PROJECTS/Mol_Feturizer/New_Systems/rnas/1eht

>  <Rbt.Executable>
rbdock ($Id: //depot/dev/client3/rdock/2013.1/src/exe/rbdock.cxx#4 $)

>  <Rbt.Library>
libRbt.so (2013.1, Build901 2013/11/27)

>  <Rbt.Parameter_File>
/export/apps/rDock/src/rDock_2013.1_src/data/scripts/dock_solv.prm

>  <Rbt.Receptor>
prm/pocket_docking_3.prm

>  <SCORE>
-39.2668

>  <SCORE.INTER>
-39.2668

>  <SCORE.INTER.CONST>
1

>  <SCORE.INTER.POLAR>
-1.9287

>  <SCORE.INTER.ROT>
0

>  <SCORE.INTER.SOLV>
9.79393

>  <SCORE.INTER.VDW>
-26.6135

>  <SCORE.INTER.norm>
-3.02052

>  <SCORE.INTRA>
0

>  <SCORE.INTRA.DIHEDRAL>
0

>  <SCORE.INTRA.DIHEDRAL.0>
0

>  <SCORE.INTRA.POLAR>
0

>  <SCORE.INTRA.POLAR.0>
0

>  <SCORE.INTRA.REPUL>
0

>  <SCORE.INTRA.REPUL.0>
0

>  <SCORE.INTRA.SOLV>
0

>  <SCORE.INTRA.SOLV.lig_0>
-12.9768

>  <SCORE.INTRA.VDW>
0

>  <SCORE.INTRA.VDW.0>
0

>  <SCORE.INTRA.norm>
0

>  <SCORE.RESTR>
0

>  <SCORE.RESTR.CAVITY>
0

>  <SCORE.RESTR.norm>
0

>  <SCORE.SYSTEM>
0

>  <SCORE.SYSTEM.CONST>
0

>  <SCORE.SYSTEM.DIHEDRAL>
0

>  <SCORE.SYSTEM.SOLV>
0

>  <SCORE.SYSTEM.norm>
0

>  <SCORE.heavy>
13

>  <SCORE.norm>
-3.02052

>  <RMSD>
0.713

$$$$
1eht cryst
 OpenBabel11021811383D
libRbt.so/2013.1/901 2013/11/27
 13 14  0  0  0  0  0  0  0  0999 V2000
   -4.7857   -7.8838   10.5630 C   0  0  0  0  0  0  0  0  0  0  0  0
   -5.2502   -7.0154   11.5467 N   0  0  0  0  0  0  0  0  0  0  0  0
   -5.6243   -7.5464   12.7541 C   0  0  0  0  0  0  0  0  0  0  0  0
   -5.5230   -8.7692   12.8712 O   0  0  0  0  0  0  0  0  0  0  0  0
   -6.0997   -6.8157   13.8134 N   0  0  0  0  0  0  0  0  0  0  0  0
   -6.4703   -7.3750   15.0254 C   0  0  0  0  0  0  0  0  0  0  0  0
   -6.1714   -5.4795   13.5510 C   0  0  0  0  0  0  0  0  0  0  0  0
   -5.7975   -4.9615   12.3450 C   0  0  0  0  0  0  0  0  0  0  0  0
   -5.3069   -5.6927   11.2479 C   0  0  0  0  0  0  0  0  0  0  0  0
   -4.9570   -5.2753   10.1449 O   0  0  0  0  0  0  0  0  0  0  0  0
   -6.0037   -3.5922   12.4430 N   0  0  0  0  0  0  0  0  0  0  0  0
   -6.4848   -3.3767   13.6903 C   0  0  0  0  0  0  0  0  0  0  0  0
   -6.6052   -4.4657   14.3980 N   0  0  0  0  0  0  0  0  0  0  0  0
  1  2  1  0  0  0  0
  2  9  1  0  0  0  0
  2  3  1  0  0  0  0
  3  5  1  0  0  0  0
  3  4  2  0  0  0  0
  5  6  1  0  0  0  0
  5  7  1  0  0  0  0
  7  8  2  0  0  0  0
  7 13  1  0  0  0  0
  8  9  1  0  0  0  0
  8 11  1  0  0  0  0
  9 10  2  0  0  0  0
 11 12  1  0  0  0  0
 12 13  2  0  0  0  0
M  END
>  <CHROM.1>
-5.76052790,-6.06127186,12.61906516,-0.75535936,1.20388818,-0.32822186

>  <Name>
1eht cryst

>  <RI>
0

>  <Rbt.Current_Directory>
/home/itssahil/PROJECTS/Mol_Feturizer/New_Systems/rnas/1eht

>  <Rbt.Executable>
rbdock ($Id: //depot/dev/client3/rdock/2013.1/src/exe/rbdock.cxx#4 $)

>  <Rbt.Library>
libRbt.so (2013.1, Build901 2013/11/27)

>  <Rbt.Parameter_File>
/export/apps/rDock/src/rDock_2013.1_src/data/scripts/dock_solv.prm

>  <Rbt.Receptor>
prm/pocket_docking_4.prm

>  <SCORE>
-39.1879

>  <SCORE.INTER>
-39.1879

>  <SCORE.INTER.CONST>
1

>  <SCORE.INTER.POLAR>
-1.93879

>  <SCORE.INTER.ROT>
0

>  <SCORE.INTER.SOLV>
9.79047

>  <SCORE.INTER.VDW>
-26.5261

>  <SCORE.INTER.norm>
-3.01446

>  <SCORE.INTRA>
0

>  <SCORE.INTRA.DIHEDRAL>
0

>  <SCORE.INTRA.DIHEDRAL.0>
0

>  <SCORE.INTRA.POLAR>
0

>  <SCORE.INTRA.POLAR.0>
0

>  <SCORE.INTRA.REPUL>
0

>  <SCORE.INTRA.REPUL.0>
0

>  <SCORE.INTRA.SOLV>
0

>  <SCORE.INTRA.SOLV.lig_0>
-12.9768

>  <SCORE.INTRA.VDW>
0

>  <SCORE.INTRA.VDW.0>
0

>  <SCORE.INTRA.norm>
0

>  <SCORE.RESTR>
0

>  <SCORE.RESTR.CAVITY>
0

>  <SCORE.RESTR.norm>
0

>  <SCORE.SYSTEM>
0

>  <SCORE.SYSTEM.CONST>
0

>  <SCORE.SYSTEM.DIHEDRAL>
0

>  <SCORE.SYSTEM.SOLV>
0

>  <SCORE.SYSTEM.norm>
0

>  <SCORE.heavy>
13

>  <SCORE.norm>
-3.01446

>  <RMSD>
0.713

$$$$
1eht cryst
 OpenBabel11021811383D
libRbt.so/2013.1/901 2013/11/27
 13 14  0  0  0  0  0  0  0  0999 V2000
   -4.7845   -7.8836   10.5630 C   0  0  0  0  0  0  0  0  0  0  0  0
   -5.2496   -7.0154   11.5465 N   0  0  0  0  0  0  0  0  0  0  0  0
   -5.6244   -7.5466   12.7536 C   0  0  0  0  0  0  0  0  0  0  0  0
   -5.5232   -8.7694   12.8707 O   0  0  0  0  0  0  0  0  0  0  0  0
   -6.1004   -6.8159   13.8128 N   0  0  0  0  0  0  0  0  0  0  0  0
   -6.4718   -7.3753   15.0244 C   0  0  0  0  0  0  0  0  0  0  0  0
   -6.1720   -5.4796   13.5505 C   0  0  0  0  0  0  0  0  0  0  0  0
   -5.7973   -4.9616   12.3447 C   0  0  0  0  0  0  0  0  0  0  0  0
   -5.3061   -5.6927   11.2479 C   0  0  0  0  0  0  0  0  0  0  0  0
   -4.9556   -5.2752   10.1451 O   0  0  0  0  0  0  0  0  0  0  0  0
   -6.0036   -3.5922   12.4428 N   0  0  0  0  0  0  0  0  0  0  0  0
   -6.4854   -3.3769   13.6898 C   0  0  0  0  0  0  0  0  0  0  0  0
   -6.6062   -4.4659   14.3973 N   0  0  0  0  0  0  0  0  0  0  0  0
  1  2  1  0  0  0  0
  2  9  1  0  0  0  0
  2  3  1  0  0  0  0
  3  5  1  0  0  0  0
  3  4  2  0  0  0  0
  5  6  1  0  0  0  0
  5  7  1  0  0  0  0
  7  8  2  0  0  0  0
  7 13  1  0  0  0  0
  8  9  1  0  0  0  0
  8 11  1  0  0  0  0
  9 10  2  0  0  0  0
 11 12  1  0  0  0  0
 12 13  2  0  0  0  0
M  END
>  <CHROM.1>
-5.76054642,-6.06136183,12.61871171,-0.75589849,1.20333029,-0.32761508

>  <Name>
1eht cryst

>  <RI>
0

>  <Rbt.Current_Directory>
/home/itssahil/PROJECTS/Mol_Feturizer/New_Systems/rnas/1eht

>  <Rbt.Executable>
rbdock ($Id: //depot/dev/client3/rdock/2013.1/src/exe/rbdock.cxx#4 $)

>  <Rbt.Library>
libRbt.so (2013.1, Build901 2013/11/27)

>  <Rbt.Parameter_File>
/export/apps/rDock/src/rDock_2013.1_src/data/scripts/dock_solv.prm

>  <Rbt.Receptor>
prm/pocket_docking_5.prm

>  <SCORE>
-39.1888

>  <SCORE.INTER>
-39.1888

>  <SCORE.INTER.CONST>
1

>  <SCORE.INTER.POLAR>
-1.93948

>  <SCORE.INTER.ROT>
0

>  <SCORE.INTER.SOLV>
9.7911

>  <SCORE.INTER.VDW>
-26.5246

>  <SCORE.INTER.norm>
-3.01452

>  <SCORE.INTRA>
0

>  <SCORE.INTRA.DIHEDRAL>
0

>  <SCORE.INTRA.DIHEDRAL.0>
0

>  <SCORE.INTRA.POLAR>
0

>  <SCORE.INTRA.POLAR.0>
0

>  <SCORE.INTRA.REPUL>
0

>  <SCORE.INTRA.REPUL.0>
0

>  <SCORE.INTRA.SOLV>
0

>  <SCORE.INTRA.SOLV.lig_0>
-12.9768

>  <SCORE.INTRA.VDW>
0

>  <SCORE.INTRA.VDW.0>
0

>  <SCORE.INTRA.norm>
0

>  <SCORE.RESTR>
0

>  <SCORE.RESTR.CAVITY>
0

>  <SCORE.RESTR.norm>
0

>  <SCORE.SYSTEM>
0

>  <SCORE.SYSTEM.CONST>
0

>  <SCORE.SYSTEM.DIHEDRAL>
0

>  <SCORE.SYSTEM.SOLV>
0

>  <SCORE.SYSTEM.norm>
0

>  <SCORE.heavy>
13

>  <SCORE.norm>
-3.01452

>  <RMSD>
0.713

$$$$
1eht cryst
 OpenBabel11021811383D
libRbt.so/2013.1/901 2013/11/27
 13 14  0  0  0  0  0  0  0  0999 V2000
   -4.7683   -7.8680   10.5835 C   0  0  0  0  0  0  0  0  0  0  0  0
   -5.2332   -7.0151   11.5805 N   0  0  0  0  0  0  0  0  0  0  0  0
   -5.6201   -7.5663   12.7747 C   0  0  0  0  0  0  0  0  0  0  0  0
   -5.5293   -8.7919   12.8689 O   0  0  0  0  0  0  0  0  0  0  0  0
   -6.0975   -6.8523   13.8446 N   0  0  0  0  0  0  0  0  0  0  0  0
   -6.4813   -7.4319   15.0428 C   0  0  0  0  0  0  0  0  0  0  0  0
   -6.1569   -5.5108   13.6075 C   0  0  0  0  0  0  0  0  0  0  0  0
   -5.7702   -4.9727   12.4143 C   0  0  0  0  0  0  0  0  0  0  0  0
   -5.2774   -5.6865   11.3069 C   0  0  0  0  0  0  0  0  0  0  0  0
   -4.9163   -5.2508   10.2147 O   0  0  0  0  0  0  0  0  0  0  0  0
   -5.9665   -3.6039   12.5373 N   0  0  0  0  0  0  0  0  0  0  0  0
   -6.4549   -3.4087   13.7851 C   0  0  0  0  0  0  0  0  0  0  0  0
   -6.5889   -4.5101   14.4708 N   0  0  0  0  0  0  0  0  0  0  0  0
  1  2  1  0  0  0  0
  2  9  1  0  0  0  0
  2  3  1  0  0  0  0
  3  5  1  0  0  0  0
  3  4  2  0  0  0  0
  5  6  1  0  0  0  0
  5  7  1  0  0  0  0
  7  8  2  0  0  0  0
  7 13  1  0  0  0  0
  8  9  1  0  0  0  0
  8 11  1  0  0  0  0
  9 10  2  0  0  0  0
 11 12  1  0  0  0  0
 12 13  2  0  0  0  0
M  END
>  <CHROM.1>
-5.74383665,-6.07778593,12.66741127,-0.78212433,1.19939664,-0.28397615

>  <Name>
1eht cryst

>  <RI>
0

>  <Rbt.Current_Directory>
/home/itssahil/PROJECTS/Mol_Feturizer/New_Systems/rnas/1eht

>  <Rbt.Executable>
rbdock ($Id: //depot/dev/client3/rdock/2013.1/src/exe/rbdock.cxx#4 $)

>  <Rbt.Library>
libRbt.so (2013.1, Build901 2013/11/27)

>  <Rbt.Parameter_File>
/export/apps/rDock/src/rDock_2013.1_src/data/scripts/dock_solv.prm

>  <Rbt.Receptor>
prm/pocket_docking_6.prm

>  <SCORE>
-39.2626

>  <SCORE.INTER>
-39.2626

>  <SCORE.INTER.CONST>
1

>  <SCORE.INTER.POLAR>
-1.92735

>  <SCORE.INTER.ROT>
0

>  <SCORE.INTER.SOLV>
9.79269

>  <SCORE.INTER.VDW>
-26.6148

>  <SCORE.INTER.norm>
-3.0202

>  <SCORE.INTRA>
0

>  <SCORE.INTRA.DIHEDRAL>
0

>  <SCORE.INTRA.DIHEDRAL.0>
0

>  <SCORE.INTRA.POLAR>
0

>  <SCORE.INTRA.POLAR.0>
0

>  <SCORE.INTRA.REPUL>
0

>  <SCORE.INTRA.REPUL.0>
0

>  <SCORE.INTRA.SOLV>
0

>  <SCORE.INTRA.SOLV.lig_0>
-12.9768

>  <SCORE.INTRA.VDW>
0

>  <SCORE.INTRA.VDW.0>
0

>  <SCORE.INTRA.norm>
0

>  <SCORE.RESTR>
0

>  <SCORE.RESTR.CAVITY>
0

>  <SCORE.RESTR.norm>
0

>  <SCORE.SYSTEM>
0

>  <SCORE.SYSTEM.CONST>
0

>  <SCORE.SYSTEM.DIHEDRAL>
0

>  <SCORE.SYSTEM.SOLV>
0

>  <SCORE.SYSTEM.norm>
0

>  <SCORE.heavy>
13

>  <SCORE.norm>
-3.0202

>  <RMSD>
0.713

$$$$
1eht cryst
 OpenBabel11021811383D
libRbt.so/2013.1/901 2013/11/27
 13 14  0  0  0  0  0  0  0  0999 V2000
   -4.7862   -7.8838   10.5622 C   0  0  0  0  0  0  0  0  0  0  0  0
   -5.2536   -7.0160   11.5450 N   0  0  0  0  0  0  0  0  0  0  0  0
   -5.6330   -7.5480   12.7503 C   0  0  0  0  0  0  0  0  0  0  0  0
   -5.5337   -8.7710   12.8665 O   0  0  0  0  0  0  0  0  0  0  0  0
   -6.1117   -6.8178   13.8086 N   0  0  0  0  0  0  0  0  0  0  0  0
   -6.4878   -7.3780   15.0184 C   0  0  0  0  0  0  0  0  0  0  0  0
   -6.1807   -5.4812   13.5475 C   0  0  0  0  0  0  0  0  0  0  0  0
   -5.8014   -4.9624   12.3435 C   0  0  0  0  0  0  0  0  0  0  0  0
   -5.3075   -5.6930   11.2476 C   0  0  0  0  0  0  0  0  0  0  0  0
   -4.9527   -5.2747   10.1464 O   0  0  0  0  0  0  0  0  0  0  0  0
   -6.0064   -3.5929   12.4422 N   0  0  0  0  0  0  0  0  0  0  0  0
   -6.4921   -3.3782   13.6879 C   0  0  0  0  0  0  0  0  0  0  0  0
   -6.6166   -4.4678   14.3939 N   0  0  0  0  0  0  0  0  0  0  0  0
  1  2  1  0  0  0  0
  2  9  1  0  0  0  0
  2  3  1  0  0  0  0
  3  5  1  0  0  0  0
  3  4  2  0  0  0  0
  5  6  1  0  0  0  0
  5  7  1  0  0  0  0
  7  8  2  0  0  0  0
  7 13  1  0  0  0  0
  8  9  1  0  0  0  0
  8 11  1  0  0  0  0
  9 10  2  0  0  0  0
 11 12  1  0  0  0  0
 12 13  2  0  0  0  0
M  END
>  <CHROM.1>
-5.76692445,-6.06248420,12.61646909,-0.76208156,1.20053799,-0.32081870

>  <Name>
1eht cryst

>  <RI>
224

>  <Rbt.Current_Directory>
/home/itssahil/PROJECTS/Mol_Feturizer/New_Systems/rnas/1eht

>  <Rbt.Executable>
rbdock ($Id: //depot/dev/client3/rdock/2013.1/src/exe/rbdock.cxx#4 $)

>  <Rbt.Library>
libRbt.so (2013.1, Build901 2013/11/27)

>  <Rbt.Parameter_File>
/export/apps/rDock/src/rDock_2013.1_src/data/scripts/dock_solv.prm

>  <Rbt.Receptor>
prm/pocket_docking_7.prm

>  <SCORE>
-39.1818

>  <SCORE.INTER>
-39.1818

>  <SCORE.INTER.CONST>
1

>  <SCORE.INTER.POLAR>
-1.94459

>  <SCORE.INTER.ROT>
0

>  <SCORE.INTER.SOLV>
9.79285

>  <SCORE.INTER.VDW>
-26.5035

>  <SCORE.INTER.norm>
-3.01399

>  <SCORE.INTRA>
0

>  <SCORE.INTRA.DIHEDRAL>
0

>  <SCORE.INTRA.DIHEDRAL.0>
0

>  <SCORE.INTRA.POLAR>
0

>  <SCORE.INTRA.POLAR.0>
0

>  <SCORE.INTRA.REPUL>
0

>  <SCORE.INTRA.REPUL.0>
0

>  <SCORE.INTRA.SOLV>
0

>  <SCORE.INTRA.SOLV.lig_0>
-12.9768

>  <SCORE.INTRA.VDW>
0

>  <SCORE.INTRA.VDW.0>
0

>  <SCORE.INTRA.norm>
0

>  <SCORE.RESTR>
0

>  <SCORE.RESTR.CAVITY>
0

>  <SCORE.RESTR.norm>
0

>  <SCORE.SYSTEM>
0

>  <SCORE.SYSTEM.CONST>
0

>  <SCORE.SYSTEM.DIHEDRAL>
0

>  <SCORE.SYSTEM.SOLV>
0

>  <SCORE.SYSTEM.norm>
0

>  <SCORE.heavy>
13

>  <SCORE.norm>
-3.01399

>  <RMSD>
0.713

$$$$
1eht cryst
 OpenBabel11021811383D
libRbt.so/2013.1/901 2013/11/27
 13 14  0  0  0  0  0  0  0  0999 V2000
   -4.7887   -7.8831   10.5619 C   0  0  0  0  0  0  0  0  0  0  0  0
   -5.2524   -7.0151   11.5464 N   0  0  0  0  0  0  0  0  0  0  0  0
   -5.6271   -7.5469   12.7532 C   0  0  0  0  0  0  0  0  0  0  0  0
   -5.5271   -8.7699   12.8692 O   0  0  0  0  0  0  0  0  0  0  0  0
   -6.1019   -6.8167   13.8132 N   0  0  0  0  0  0  0  0  0  0  0  0
   -6.4732   -7.3767   15.0246 C   0  0  0  0  0  0  0  0  0  0  0  0
   -6.1722   -5.4801   13.5520 C   0  0  0  0  0  0  0  0  0  0  0  0
   -5.7976   -4.9614   12.3465 C   0  0  0  0  0  0  0  0  0  0  0  0
   -5.3077   -5.6921   11.2488 C   0  0  0  0  0  0  0  0  0  0  0  0
   -4.9573   -5.2741   10.1463 O   0  0  0  0  0  0  0  0  0  0  0  0
   -6.0024   -3.5920   12.4458 N   0  0  0  0  0  0  0  0  0  0  0  0
   -6.4834   -3.3772   13.6933 C   0  0  0  0  0  0  0  0  0  0  0  0
   -6.6050   -4.4667   14.3999 N   0  0  0  0  0  0  0  0  0  0  0  0
  1  2  1  0  0  0  0
  2  9  1  0  0  0  0
  2  3  1  0  0  0  0
  3  5  1  0  0  0  0
  3  4  2  0  0  0  0
  5  6  1  0  0  0  0
  5  7  1  0  0  0  0
  7  8  2  0  0  0  0
  7 13  1  0  0  0  0
  8  9  1  0  0  0  0
  8 11  1  0  0  0  0
  9 10  2  0  0  0  0
 11 12  1  0  0  0  0
 12 13  2  0  0  0  0
M  END
>  <CHROM.1>
-5.76181399,-6.06148298,12.61957418,-0.75816585,1.20412099,-0.32467061

>  <Name>
1eht cryst

>  <RI>
0

>  <Rbt.Current_Directory>
/home/itssahil/PROJECTS/Mol_Feturizer/New_Systems/rnas/1eht

>  <Rbt.Executable>
rbdock ($Id: //depot/dev/client3/rdock/2013.1/src/exe/rbdock.cxx#4 $)

>  <Rbt.Library>
libRbt.so (2013.1, Build901 2013/11/27)

>  <Rbt.Parameter_File>
/export/apps/rDock/src/rDock_2013.1_src/data/scripts/dock_solv.prm

>  <Rbt.Receptor>
prm/pocket_docking_8.prm

>  <SCORE>
-39.1885

>  <SCORE.INTER>
-39.1885

>  <SCORE.INTER.CONST>
1

>  <SCORE.INTER.POLAR>
-1.93858

>  <SCORE.INTER.ROT>
0

>  <SCORE.INTER.SOLV>
9.792

>  <SCORE.INTER.VDW>
-26.5277

>  <SCORE.INTER.norm>
-3.0145

>  <SCORE.INTRA>
0

>  <SCORE.INTRA.DIHEDRAL>
0

>  <SCORE.INTRA.DIHEDRAL.0>
0

>  <SCORE.INTRA.POLAR>
0

>  <SCORE.INTRA.POLAR.0>
0

>  <SCORE.INTRA.REPUL>
0

>  <SCORE.INTRA.REPUL.0>
0

>  <SCORE.INTRA.SOLV>
0

>  <SCORE.INTRA.SOLV.lig_0>
-12.9768

>  <SCORE.INTRA.VDW>
0

>  <SCORE.INTRA.VDW.0>
0

>  <SCORE.INTRA.norm>
0

>  <SCORE.RESTR>
0

>  <SCORE.RESTR.CAVITY>
0

>  <SCORE.RESTR.norm>
0

>  <SCORE.SYSTEM>
0

>  <SCORE.SYSTEM.CONST>
0

>  <SCORE.SYSTEM.DIHEDRAL>
0

>  <SCORE.SYSTEM.SOLV>
0

>  <SCORE.SYSTEM.norm>
0

>  <SCORE.heavy>
13

>  <SCORE.norm>
-3.0145

>  <RMSD>
0.713

$$$$
1eht cryst
 OpenBabel11021811383D
libRbt.so/2013.1/901 2013/11/27
 13 14  0  0  0  0  0  0  0  0999 V2000
   -4.7676   -7.8688   10.5835 C   0  0  0  0  0  0  0  0  0  0  0  0
   -5.2326   -7.0156   11.5803 N   0  0  0  0  0  0  0  0  0  0  0  0
   -5.6197   -7.5667   12.7745 C   0  0  0  0  0  0  0  0  0  0  0  0
   -5.5288   -8.7922   12.8690 O   0  0  0  0  0  0  0  0  0  0  0  0
   -6.0973   -6.8525   13.8442 N   0  0  0  0  0  0  0  0  0  0  0  0
   -6.4812   -7.4318   15.0424 C   0  0  0  0  0  0  0  0  0  0  0  0
   -6.1566   -5.5110   13.6069 C   0  0  0  0  0  0  0  0  0  0  0  0
   -5.7697   -4.9731   12.4137 C   0  0  0  0  0  0  0  0  0  0  0  0
   -5.2768   -5.6871   11.3065 C   0  0  0  0  0  0  0  0  0  0  0  0
   -4.9154   -5.2516   10.2142 O   0  0  0  0  0  0  0  0  0  0  0  0
   -5.9660   -3.6043   12.5364 N   0  0  0  0  0  0  0  0  0  0  0  0
   -6.4546   -3.4088   13.7841 C   0  0  0  0  0  0  0  0  0  0  0  0
   -6.5887   -4.5101   14.4699 N   0  0  0  0  0  0  0  0  0  0  0  0
  1  2  1  0  0  0  0
  2  9  1  0  0  0  0
  2  3  1  0  0  0  0
  3  5  1  0  0  0  0
  3  4  2  0  0  0  0
  5  6  1  0  0  0  0
  5  7  1  0  0  0  0
  7  8  2  0  0  0  0
  7 13  1  0  0  0  0
  8  9  1  0  0  0  0
  8 11  1  0  0  0  0
  9 10  2  0  0  0  0
 11 12  1  0  0  0  0
 12 13  2  0  0  0  0
M  END
>  <CHROM.1>
-5.74337494,-6.07814621,12.66696562,-0.78225487,1.19924993,-0.28403213

>  <Name>
1eht cryst

>  <RI>
0

>  <Rbt.Current_Directory>
/home/itssahil/PROJECTS/Mol_Feturizer/New_Systems/rnas/1eht

>  <Rbt.Executable>
rbdock ($Id: //depot/dev/client3/rdock/2013.1/src/exe/rbdock.cxx#4 $)

>  <Rbt.Library>
libRbt.so (2013.1, Build901 2013/11/27)

>  <Rbt.Parameter_File>
/export/apps/rDock/src/rDock_2013.1_src/data/scripts/dock_solv.prm

>  <Rbt.Receptor>
prm/pocket_docking_8.prm

>  <SCORE>
-39.2653

>  <SCORE.INTER>
-39.2653

>  <SCORE.INTER.CONST>
1

>  <SCORE.INTER.POLAR>
-1.92818

>  <SCORE.INTER.ROT>
0

>  <SCORE.INTER.SOLV>
9.79217

>  <SCORE.INTER.VDW>
-26.6136

>  <SCORE.INTER.norm>
-3.02041

>  <SCORE.INTRA>
0

>  <SCORE.INTRA.DIHEDRAL>
0

>  <SCORE.INTRA.DIHEDRAL.0>
0

>  <SCORE.INTRA.POLAR>
0

>  <SCORE.INTRA.POLAR.0>
0

>  <SCORE.INTRA.REPUL>
0

>  <SCORE.INTRA.REPUL.0>
0

>  <SCORE.INTRA.SOLV>
0

>  <SCORE.INTRA.SOLV.lig_0>
-12.9768

>  <SCORE.INTRA.VDW>
0

>  <SCORE.INTRA.VDW.0>
0

>  <SCORE.INTRA.norm>
0

>  <SCORE.RESTR>
0

>  <SCORE.RESTR.CAVITY>
0

>  <SCORE.RESTR.norm>
0

>  <SCORE.SYSTEM>
0

>  <SCORE.SYSTEM.CONST>
0

>  <SCORE.SYSTEM.DIHEDRAL>
0

>  <SCORE.SYSTEM.SOLV>
0

>  <SCORE.SYSTEM.norm>
0

>  <SCORE.heavy>
13

>  <SCORE.norm>
-3.02041

>  <RMSD>
0.713

$$$$
1eht cryst
 OpenBabel11021811383D
libRbt.so/2013.1/901 2013/11/27
 13 14  0  0  0  0  0  0  0  0999 V2000
   -4.7884   -7.8853   10.5631 C   0  0  0  0  0  0  0  0  0  0  0  0
   -5.2523   -7.0166   11.5468 N   0  0  0  0  0  0  0  0  0  0  0  0
   -5.6261   -7.5474   12.7544 C   0  0  0  0  0  0  0  0  0  0  0  0
   -5.5252   -8.7702   12.8717 O   0  0  0  0  0  0  0  0  0  0  0  0
   -6.1009   -6.8164   13.8138 N   0  0  0  0  0  0  0  0  0  0  0  0
   -6.4713   -7.3754   15.0259 C   0  0  0  0  0  0  0  0  0  0  0  0
   -6.1723   -5.4802   13.5513 C   0  0  0  0  0  0  0  0  0  0  0  0
   -5.7986   -4.9625   12.3450 C   0  0  0  0  0  0  0  0  0  0  0  0
   -5.3087   -5.6940   11.2479 C   0  0  0  0  0  0  0  0  0  0  0  0
   -4.9590   -5.2769   10.1447 O   0  0  0  0  0  0  0  0  0  0  0  0
   -6.0044   -3.5931   12.4429 N   0  0  0  0  0  0  0  0  0  0  0  0
   -6.4850   -3.3773   13.6904 C   0  0  0  0  0  0  0  0  0  0  0  0
   -6.6054   -4.4661   14.3983 N   0  0  0  0  0  0  0  0  0  0  0  0
  1  2  1  0  0  0  0
  2  9  1  0  0  0  0
  2  3  1  0  0  0  0
  3  5  1  0  0  0  0
  3  4  2  0  0  0  0
  5  6  1  0  0  0  0
  5  7  1  0  0  0  0
  7  8  2  0  0  0  0
  7 13  1  0  0  0  0
  8  9  1  0  0  0  0
  8 11  1  0  0  0  0
  9 10  2  0  0  0  0
 11 12  1  0  0  0  0
 12 13  2  0  0  0  0
M  END
>  <CHROM.1>
-5.76194189,-6.06222908,12.61922331,-0.75589487,1.20431877,-0.32785550

>  <Name>
1eht cryst

>  <RI>
0

>  <Rbt.Current_Directory>
/home/itssahil/PROJECTS/Mol_Feturizer/New_Systems/rnas/1eht

>  <Rbt.Executable>
rbdock ($Id: //depot/dev/client3/rdock/2013.1/src/exe/rbdock.cxx#4 $)

>  <Rbt.Library>
libRbt.so (2013.1, Build901 2013/11/27)

>  <Rbt.Parameter_File>
/export/apps/rDock/src/rDock_2013.1_src/data/scripts/dock_solv.prm

>  <Rbt.Receptor>
prm/blind_docking_100.prm

>  <SCORE>
-39.187

>  <SCORE.INTER>
-39.187

>  <SCORE.INTER.CONST>
1

>  <SCORE.INTER.POLAR>
-1.93897

>  <SCORE.INTER.ROT>
0

>  <SCORE.INTER.SOLV>
9.78774

>  <SCORE.INTER.VDW>
-26.524

>  <SCORE.INTER.norm>
-3.01438

>  <SCORE.INTRA>
0

>  <SCORE.INTRA.DIHEDRAL>
0

>  <SCORE.INTRA.DIHEDRAL.0>
0

>  <SCORE.INTRA.POLAR>
0

>  <SCORE.INTRA.POLAR.0>
0

>  <SCORE.INTRA.REPUL>
0

>  <SCORE.INTRA.REPUL.0>
0

>  <SCORE.INTRA.SOLV>
0

>  <SCORE.INTRA.SOLV.lig_0>
-12.9768

>  <SCORE.INTRA.VDW>
0

>  <SCORE.INTRA.VDW.0>
0

>  <SCORE.INTRA.norm>
0

>  <SCORE.RESTR>
0

>  <SCORE.RESTR.CAVITY>
0

>  <SCORE.RESTR.norm>
0

>  <SCORE.SYSTEM>
0

>  <SCORE.SYSTEM.CONST>
0

>  <SCORE.SYSTEM.DIHEDRAL>
0

>  <SCORE.SYSTEM.SOLV>
0

>  <SCORE.SYSTEM.norm>
0

>  <SCORE.heavy>
13

>  <SCORE.norm>
-3.01438

>  <RMSD>
0.714

$$$$
1eht cryst
 OpenBabel11021811383D
libRbt.so/2013.1/901 2013/11/27
 13 14  0  0  0  0  0  0  0  0999 V2000
   -4.7841   -7.8833   10.5637 C   0  0  0  0  0  0  0  0  0  0  0  0
   -5.2519   -7.0154   11.5463 N   0  0  0  0  0  0  0  0  0  0  0  0
   -5.6309   -7.5471   12.7518 C   0  0  0  0  0  0  0  0  0  0  0  0
   -5.5309   -8.7701   12.8684 O   0  0  0  0  0  0  0  0  0  0  0  0
   -6.1100   -6.8168   13.8098 N   0  0  0  0  0  0  0  0  0  0  0  0
   -6.4857   -7.3768   15.0199 C   0  0  0  0  0  0  0  0  0  0  0  0
   -6.1799   -5.4804   13.5481 C   0  0  0  0  0  0  0  0  0  0  0  0
   -5.8010   -4.9618   12.3439 C   0  0  0  0  0  0  0  0  0  0  0  0
   -5.3067   -5.6925   11.2482 C   0  0  0  0  0  0  0  0  0  0  0  0
   -4.9522   -5.2745   10.1469 O   0  0  0  0  0  0  0  0  0  0  0  0
   -6.0068   -3.5924   12.4421 N   0  0  0  0  0  0  0  0  0  0  0  0
   -6.4926   -3.3775   13.6877 C   0  0  0  0  0  0  0  0  0  0  0  0
   -6.6163   -4.4669   14.3942 N   0  0  0  0  0  0  0  0  0  0  0  0
  1  2  1  0  0  0  0
  2  9  1  0  0  0  0
  2  3  1  0  0  0  0
  3  5  1  0  0  0  0
  3  4  2  0  0  0  0
  5  6  1  0  0  0  0
  5  7  1  0  0  0  0
  7  8  2  0  0  0  0
  7 13  1  0  0  0  0
  8  9  1  0  0  0  0
  8 11  1  0  0  0  0
  9 10  2  0  0  0  0
 11 12  1  0  0  0  0
 12 13  2  0  0  0  0
M  END
>  <CHROM.1>
-5.76578520,-6.06175516,12.61733928,-0.76038795,1.20040952,-0.32280623

>  <Name>
1eht cryst

>  <RI>
0

>  <Rbt.Current_Directory>
/home/itssahil/PROJECTS/Mol_Feturizer/New_Systems/rnas/1eht

>  <Rbt.Executable>
rbdock ($Id: //depot/dev/client3/rdock/2013.1/src/exe/rbdock.cxx#4 $)

>  <Rbt.Library>
libRbt.so (2013.1, Build901 2013/11/27)

>  <Rbt.Parameter_File>
/export/apps/rDock/src/rDock_2013.1_src/data/scripts/dock_solv.prm

>  <Rbt.Receptor>
prm/blind_docking_100.prm

>  <SCORE>
-39.1838

>  <SCORE.INTER>
-39.1838

>  <SCORE.INTER.CONST>
1

>  <SCORE.INTER.POLAR>
-1.9439

>  <SCORE.INTER.ROT>
0

>  <SCORE.INTER.SOLV>
9.79337

>  <SCORE.INTER.VDW>
-26.5073

>  <SCORE.INTER.norm>
-3.01414

>  <SCORE.INTRA>
0

>  <SCORE.INTRA.DIHEDRAL>
0

>  <SCORE.INTRA.DIHEDRAL.0>
0

>  <SCORE.INTRA.POLAR>
0

>  <SCORE.INTRA.POLAR.0>
0

>  <SCORE.INTRA.REPUL>
0

>  <SCORE.INTRA.REPUL.0>
0

>  <SCORE.INTRA.SOLV>
0

>  <SCORE.INTRA.SOLV.lig_0>
-12.9768

>  <SCORE.INTRA.VDW>
0

>  <SCORE.INTRA.VDW.0>
0

>  <SCORE.INTRA.norm>
0

>  <SCORE.RESTR>
0

>  <SCORE.RESTR.CAVITY>
0

>  <SCORE.RESTR.norm>
0

>  <SCORE.SYSTEM>
0

>  <SCORE.SYSTEM.CONST>
0

>  <SCORE.SYSTEM.DIHEDRAL>
0

>  <SCORE.SYSTEM.SOLV>
0

>  <SCORE.SYSTEM.norm>
0

>  <SCORE.heavy>
13

>  <SCORE.norm>
-3.01414

>  <RMSD>
0.714

$$$$
1eht cryst
 OpenBabel11021811383D
libRbt.so/2013.1/901 2013/11/27
 13 14  0  0  0  0  0  0  0  0999 V2000
   -4.7829   -7.8850   10.5648 C   0  0  0  0  0  0  0  0  0  0  0  0
   -5.2490   -7.0165   11.5476 N   0  0  0  0  0  0  0  0  0  0  0  0
   -5.6243   -7.5473   12.7547 C   0  0  0  0  0  0  0  0  0  0  0  0
   -5.5227   -8.7700   12.8724 O   0  0  0  0  0  0  0  0  0  0  0  0
   -6.1014   -6.8164   13.8132 N   0  0  0  0  0  0  0  0  0  0  0  0
   -6.4733   -7.3754   15.0249 C   0  0  0  0  0  0  0  0  0  0  0  0
   -6.1734   -5.4802   13.5503 C   0  0  0  0  0  0  0  0  0  0  0  0
   -5.7982   -4.9626   12.3445 C   0  0  0  0  0  0  0  0  0  0  0  0
   -5.3059   -5.6939   11.2483 C   0  0  0  0  0  0  0  0  0  0  0  0
   -4.9548   -5.2768   10.1456 O   0  0  0  0  0  0  0  0  0  0  0  0
   -6.0051   -3.5933   12.4418 N   0  0  0  0  0  0  0  0  0  0  0  0
   -6.4879   -3.3776   13.6884 C   0  0  0  0  0  0  0  0  0  0  0  0
   -6.6087   -4.4664   14.3964 N   0  0  0  0  0  0  0  0  0  0  0  0
  1  2  1  0  0  0  0
  2  9  1  0  0  0  0
  2  3  1  0  0  0  0
  3  5  1  0  0  0  0
  3  4  2  0  0  0  0
  5  6  1  0  0  0  0
  5  7  1  0  0  0  0
  7  8  2  0  0  0  0
  7 13  1  0  0  0  0
  8  9  1  0  0  0  0
  8 11  1  0  0  0  0
  9 10  2  0  0  0  0
 11 12  1  0  0  0  0
 12 13  2  0  0  0  0
M  END
>  <CHROM.1>
-5.76109105,-6.06220484,12.61902201,-0.75531728,1.20255726,-0.32860665

>  <Name>
1eht cryst

>  <RI>
0

>  <Rbt.Current_Directory>
/home/itssahil/PROJECTS/Mol_Feturizer/New_Systems/rnas/1eht

>  <Rbt.Executable>
rbdock ($Id: //depot/dev/client3/rdock/2013.1/src/exe/rbdock.cxx#4 $)

>  <Rbt.Library>
libRbt.so (2013.1, Build901 2013/11/27)

>  <Rbt.Parameter_File>
/export/apps/rDock/src/rDock_2013.1_src/data/scripts/dock_solv.prm

>  <Rbt.Receptor>
prm/blind_docking_20.prm

>  <SCORE>
-39.1901

>  <SCORE.INTER>
-39.1901

>  <SCORE.INTER.CONST>
1

>  <SCORE.INTER.POLAR>
-1.94072

>  <SCORE.INTER.ROT>
0

>  <SCORE.INTER.SOLV>
9.78869

>  <SCORE.INTER.VDW>
-26.5206

>  <SCORE.INTER.norm>
-3.01463

>  <SCORE.INTRA>
0

>  <SCORE.INTRA.DIHEDRAL>
0

>  <SCORE.INTRA.DIHEDRAL.0>
0

>  <SCORE.INTRA.POLAR>
0

>  <SCORE.INTRA.POLAR.0>
0

>  <SCORE.INTRA.REPUL>
0

>  <SCORE.INTRA.REPUL.0>
0

>  <SCORE.INTRA.SOLV>
0

>  <SCORE.INTRA.SOLV.lig_0>
-12.9768

>  <SCORE.INTRA.VDW>
0

>  <SCORE.INTRA.VDW.0>
0

>  <SCORE.INTRA.norm>
0

>  <SCORE.RESTR>
0

>  <SCORE.RESTR.CAVITY>
0

>  <SCORE.RESTR.norm>
0

>  <SCORE.SYSTEM>
0

>  <SCORE.SYSTEM.CONST>
0

>  <SCORE.SYSTEM.DIHEDRAL>
0

>  <SCORE.SYSTEM.SOLV>
0

>  <SCORE.SYSTEM.norm>
0

>  <SCORE.heavy>
13

>  <SCORE.norm>
-3.01463

>  <RMSD>
0.714

$$$$
1eht cryst
 OpenBabel11021811383D
libRbt.so/2013.1/901 2013/11/27
 13 14  0  0  0  0  0  0  0  0999 V2000
   -4.7672   -7.8726   10.5840 C   0  0  0  0  0  0  0  0  0  0  0  0
   -5.2323   -7.0187   11.5800 N   0  0  0  0  0  0  0  0  0  0  0  0
   -5.6209   -7.5688   12.7742 C   0  0  0  0  0  0  0  0  0  0  0  0
   -5.5312   -8.7944   12.8693 O   0  0  0  0  0  0  0  0  0  0  0  0
   -6.0988   -6.8538   13.8431 N   0  0  0  0  0  0  0  0  0  0  0  0
   -6.4842   -7.4322   15.0413 C   0  0  0  0  0  0  0  0  0  0  0  0
   -6.1568   -5.5123   13.6052 C   0  0  0  0  0  0  0  0  0  0  0  0
   -5.7685   -4.9753   12.4120 C   0  0  0  0  0  0  0  0  0  0  0  0
   -5.2752   -5.6902   11.3056 C   0  0  0  0  0  0  0  0  0  0  0  0
   -4.9126   -5.2555   10.2134 O   0  0  0  0  0  0  0  0  0  0  0  0
   -5.9637   -3.6063   12.5340 N   0  0  0  0  0  0  0  0  0  0  0  0
   -6.4533   -3.4098   13.7811 C   0  0  0  0  0  0  0  0  0  0  0  0
   -6.5888   -4.5107   14.4674 N   0  0  0  0  0  0  0  0  0  0  0  0
  1  2  1  0  0  0  0
  2  9  1  0  0  0  0
  2  3  1  0  0  0  0
  3  5  1  0  0  0  0
  3  4  2  0  0  0  0
  5  6  1  0  0  0  0
  5  7  1  0  0  0  0
  7  8  2  0  0  0  0
  7 13  1  0  0  0  0
  8  9  1  0  0  0  0
  8 11  1  0  0  0  0
  9 10  2  0  0  0  0
 11 12  1  0  0  0  0
 12 13  2  0  0  0  0
M  END
>  <CHROM.1>
-5.74326783,-6.08025340,12.66583136,-0.78508764,1.19868216,-0.28185195

>  <Name>
1eht cryst

>  <RI>
0

>  <Rbt.Current_Directory>
/home/itssahil/PROJECTS/Mol_Feturizer/New_Systems/rnas/1eht

>  <Rbt.Executable>
rbdock ($Id: //depot/dev/client3/rdock/2013.1/src/exe/rbdock.cxx#4 $)

>  <Rbt.Library>
libRbt.so (2013.1, Build901 2013/11/27)

>  <Rbt.Parameter_File>
/export/apps/rDock/src/rDock_2013.1_src/data/scripts/dock_solv.prm

>  <Rbt.Receptor>
prm/blind_docking_40.prm

>  <SCORE>
-39.2636

>  <SCORE.INTER>
-39.2636

>  <SCORE.INTER.CONST>
1

>  <SCORE.INTER.POLAR>
-1.92927

>  <SCORE.INTER.ROT>
0

>  <SCORE.INTER.SOLV>
9.78982

>  <SCORE.INTER.VDW>
-26.6081

>  <SCORE.INTER.norm>
-3.02028

>  <SCORE.INTRA>
0

>  <SCORE.INTRA.DIHEDRAL>
0

>  <SCORE.INTRA.DIHEDRAL.0>
0

>  <SCORE.INTRA.POLAR>
0

>  <SCORE.INTRA.POLAR.0>
0

>  <SCORE.INTRA.REPUL>
0

>  <SCORE.INTRA.REPUL.0>
0

>  <SCORE.INTRA.SOLV>
0

>  <SCORE.INTRA.SOLV.lig_0>
-12.9768

>  <SCORE.INTRA.VDW>
0

>  <SCORE.INTRA.VDW.0>
0

>  <SCORE.INTRA.norm>
0

>  <SCORE.RESTR>
0

>  <SCORE.RESTR.CAVITY>
0

>  <SCORE.RESTR.norm>
0

>  <SCORE.SYSTEM>
0

>  <SCORE.SYSTEM.CONST>
0

>  <SCORE.SYSTEM.DIHEDRAL>
0

>  <SCORE.SYSTEM.SOLV>
0

>  <SCORE.SYSTEM.norm>
0

>  <SCORE.heavy>
13

>  <SCORE.norm>
-3.02028

>  <RMSD>
0.714

$$$$
1eht cryst
 OpenBabel11021811383D
libRbt.so/2013.1/901 2013/11/27
 13 14  0  0  0  0  0  0  0  0999 V2000
   -4.8032   -7.8829   10.5626 C   0  0  0  0  0  0  0  0  0  0  0  0
   -5.2638   -7.0147   11.5484 N   0  0  0  0  0  0  0  0  0  0  0  0
   -5.6412   -7.5470   12.7542 C   0  0  0  0  0  0  0  0  0  0  0  0
   -5.5463   -8.7706   12.8682 O   0  0  0  0  0  0  0  0  0  0  0  0
   -6.1134   -6.8166   13.8152 N   0  0  0  0  0  0  0  0  0  0  0  0
   -6.4875   -7.3771   15.0255 C   0  0  0  0  0  0  0  0  0  0  0  0
   -6.1780   -5.4793   13.5563 C   0  0  0  0  0  0  0  0  0  0  0  0
   -5.8008   -4.9601   12.3518 C   0  0  0  0  0  0  0  0  0  0  0  0
   -5.3134   -5.6910   11.2531 C   0  0  0  0  0  0  0  0  0  0  0  0
   -4.9608   -5.2725   10.1514 O   0  0  0  0  0  0  0  0  0  0  0  0
   -6.0000   -3.5900   12.4533 N   0  0  0  0  0  0  0  0  0  0  0  0
   -6.4806   -3.3753   13.7010 C   0  0  0  0  0  0  0  0  0  0  0  0
   -6.6070   -4.4655   14.4057 N   0  0  0  0  0  0  0  0  0  0  0  0
  1  2  1  0  0  0  0
  2  9  1  0  0  0  0
  2  3  1  0  0  0  0
  3  5  1  0  0  0  0
  3  4  2  0  0  0  0
  5  6  1  0  0  0  0
  5  7  1  0  0  0  0
  7  8  2  0  0  0  0
  7 13  1  0  0  0  0
  8  9  1  0  0  0  0
  8 11  1  0  0  0  0
  9 10  2  0  0  0  0
 11 12  1  0  0  0  0
 12 13  2  0  0  0  0
M  END
>  <CHROM.1>
-5.76967573,-6.06079593,12.62300914,-0.76955369,1.20502177,-0.31233597

>  <Name>
1eht cryst

>  <RI>
0

>  <Rbt.Current_Directory>
/home/itssahil/PROJECTS/Mol_Feturizer/New_Systems/rnas/1eht

>  <Rbt.Executable>
rbdock ($Id: //depot/dev/client3/rdock/2013.1/src/exe/rbdock.cxx#4 $)

>  <Rbt.Library>
libRbt.so (2013.1, Build901 2013/11/27)

>  <Rbt.Parameter_File>
/export/apps/rDock/src/rDock_2013.1_src/data/scripts/dock_solv.prm

>  <Rbt.Receptor>
prm/blind_docking_40.prm

>  <SCORE>
-39.1761

>  <SCORE.INTER>
-39.1761

>  <SCORE.INTER.CONST>
1

>  <SCORE.INTER.POLAR>
-1.93698

>  <SCORE.INTER.ROT>
0

>  <SCORE.INTER.SOLV>
9.7974

>  <SCORE.INTER.VDW>
-26.5266

>  <SCORE.INTER.norm>
-3.01354

>  <SCORE.INTRA>
0

>  <SCORE.INTRA.DIHEDRAL>
0

>  <SCORE.INTRA.DIHEDRAL.0>
0

>  <SCORE.INTRA.POLAR>
0

>  <SCORE.INTRA.POLAR.0>
0

>  <SCORE.INTRA.REPUL>
0

>  <SCORE.INTRA.REPUL.0>
0

>  <SCORE.INTRA.SOLV>
0

>  <SCORE.INTRA.SOLV.lig_0>
-12.9768

>  <SCORE.INTRA.VDW>
0

>  <SCORE.INTRA.VDW.0>
0

>  <SCORE.INTRA.norm>
0

>  <SCORE.RESTR>
0

>  <SCORE.RESTR.CAVITY>
0

>  <SCORE.RESTR.norm>
0

>  <SCORE.SYSTEM>
0

>  <SCORE.SYSTEM.CONST>
0

>  <SCORE.SYSTEM.DIHEDRAL>
0

>  <SCORE.SYSTEM.SOLV>
0

>  <SCORE.SYSTEM.norm>
0

>  <SCORE.heavy>
13

>  <SCORE.norm>
-3.01354

>  <RMSD>
0.714

$$$$
1eht cryst
 OpenBabel11021811383D
libRbt.so/2013.1/901 2013/11/27
 13 14  0  0  0  0  0  0  0  0999 V2000
   -4.7186   -7.6404   10.6158 C   0  0  0  0  0  0  0  0  0  0  0  0
   -5.2257   -6.8354   11.6318 N   0  0  0  0  0  0  0  0  0  0  0  0
   -5.6091   -7.4366   12.8028 C   0  0  0  0  0  0  0  0  0  0  0  0
   -5.4773   -8.6607   12.8605 O   0  0  0  0  0  0  0  0  0  0  0  0
   -6.1250   -6.7731   13.8873 N   0  0  0  0  0  0  0  0  0  0  0  0
   -6.5043   -7.4026   15.0615 C   0  0  0  0  0  0  0  0  0  0  0  0
   -6.2275   -5.4276   13.6908 C   0  0  0  0  0  0  0  0  0  0  0  0
   -5.8438   -4.8396   12.5205 C   0  0  0  0  0  0  0  0  0  0  0  0
   -5.3122   -5.5012   11.3987 C   0  0  0  0  0  0  0  0  0  0  0  0
   -4.9519   -5.0194   10.3257 O   0  0  0  0  0  0  0  0  0  0  0  0
   -6.0888   -3.4828   12.6828 N   0  0  0  0  0  0  0  0  0  0  0  0
   -6.6002   -3.3434   13.9289 C   0  0  0  0  0  0  0  0  0  0  0  0
   -6.7051   -4.4697   14.5783 N   0  0  0  0  0  0  0  0  0  0  0  0
  1  2  1  0  0  0  0
  2  9  1  0  0  0  0
  2  3  1  0  0  0  0
  3  5  1  0  0  0  0
  3  4  2  0  0  0  0
  5  6  1  0  0  0  0
  5  7  1  0  0  0  0
  7  8  2  0  0  0  0
  7 13  1  0  0  0  0
  8  9  1  0  0  0  0
  8 11  1  0  0  0  0
  9 10  2  0  0  0  0
 11 12  1  0  0  0  0
 12 13  2  0  0  0  0
M  END
>  <CHROM.1>
-5.78270514,-5.95049539,12.73971559,-0.70557139,1.17600350,-0.32392533

>  <Name>
1eht cryst

>  <RI>
0

>  <Rbt.Current_Directory>
/home/itssahil/PROJECTS/Mol_Feturizer/New_Systems/rnas/1eht

>  <Rbt.Executable>
rbdock ($Id: //depot/dev/client3/rdock/2013.1/src/exe/rbdock.cxx#4 $)

>  <Rbt.Library>
libRbt.so (2013.1, Build901 2013/11/27)

>  <Rbt.Parameter_File>
/export/apps/rDock/src/rDock_2013.1_src/data/scripts/dock_solv.prm

>  <Rbt.Receptor>
prm/blind_docking_80.prm

>  <SCORE>
-38.6809

>  <SCORE.INTER>
-38.6888

>  <SCORE.INTER.CONST>
1

>  <SCORE.INTER.POLAR>
-1.75557

>  <SCORE.INTER.ROT>
0

>  <SCORE.INTER.SOLV>
10.0619

>  <SCORE.INTER.VDW>
-26.8946

>  <SCORE.INTER.norm>
-2.97606

>  <SCORE.INTRA>
0

>  <SCORE.INTRA.DIHEDRAL>
0

>  <SCORE.INTRA.DIHEDRAL.0>
0

>  <SCORE.INTRA.POLAR>
0

>  <SCORE.INTRA.POLAR.0>
0

>  <SCORE.INTRA.REPUL>
0

>  <SCORE.INTRA.REPUL.0>
0

>  <SCORE.INTRA.SOLV>
0

>  <SCORE.INTRA.SOLV.lig_0>
-12.9768

>  <SCORE.INTRA.VDW>
0

>  <SCORE.INTRA.VDW.0>
0

>  <SCORE.INTRA.norm>
0

>  <SCORE.RESTR>
0.00787472

>  <SCORE.RESTR.CAVITY>
0.00787472

>  <SCORE.RESTR.norm>
0.000605748

>  <SCORE.SYSTEM>
0

>  <SCORE.SYSTEM.CONST>
0

>  <SCORE.SYSTEM.DIHEDRAL>
0

>  <SCORE.SYSTEM.SOLV>
0

>  <SCORE.SYSTEM.norm>
0

>  <SCORE.heavy>
13

>  <SCORE.norm>
-2.97546

>  <RMSD>
0.714

$$$$
1eht cryst
 OpenBabel11021811383D
libRbt.so/2013.1/901 2013/11/27
 13 14  0  0  0  0  0  0  0  0999 V2000
   -4.7697   -7.8799   10.5813 C   0  0  0  0  0  0  0  0  0  0  0  0
   -5.2368   -7.0226   11.5734 N   0  0  0  0  0  0  0  0  0  0  0  0
   -5.6208   -7.5679   12.7713 C   0  0  0  0  0  0  0  0  0  0  0  0
   -5.5256   -8.7926   12.8728 O   0  0  0  0  0  0  0  0  0  0  0  0
   -6.0998   -6.8492   13.8372 N   0  0  0  0  0  0  0  0  0  0  0  0
   -6.4806   -7.4228   15.0392 C   0  0  0  0  0  0  0  0  0  0  0  0
   -6.1640   -5.5093   13.5921 C   0  0  0  0  0  0  0  0  0  0  0  0
   -5.7802   -4.9771   12.3954 C   0  0  0  0  0  0  0  0  0  0  0  0
   -5.2858   -5.6959   11.2919 C   0  0  0  0  0  0  0  0  0  0  0  0
   -4.9271   -5.2655   10.1968 O   0  0  0  0  0  0  0  0  0  0  0  0
   -5.9811   -3.6082   12.5103 N   0  0  0  0  0  0  0  0  0  0  0  0
   -6.4692   -3.4072   13.7573 C   0  0  0  0  0  0  0  0  0  0  0  0
   -6.5988   -4.5049   14.4497 N   0  0  0  0  0  0  0  0  0  0  0  0
  1  2  1  0  0  0  0
  2  9  1  0  0  0  0
  2  3  1  0  0  0  0
  3  5  1  0  0  0  0
  3  4  2  0  0  0  0
  5  6  1  0  0  0  0
  5  7  1  0  0  0  0
  7  8  2  0  0  0  0
  7 13  1  0  0  0  0
  8  9  1  0  0  0  0
  8 11  1  0  0  0  0
  9 10  2  0  0  0  0
 11 12  1  0  0  0  0
 12 13  2  0  0  0  0
M  END
>  <CHROM.1>
-5.74975950,-6.08052639,12.65511894,-0.77230658,1.19918773,-0.29916052

>  <Name>
1eht cryst

>  <RI>
0

>  <Rbt.Current_Directory>
/home/itssahil/PROJECTS/Mol_Feturizer/New_Systems/rnas/1eht

>  <Rbt.Executable>
rbdock ($Id: //depot/dev/client3/rdock/2013.1/src/exe/rbdock.cxx#4 $)

>  <Rbt.Library>
libRbt.so (2013.1, Build901 2013/11/27)

>  <Rbt.Parameter_File>
/export/apps/rDock/src/rDock_2013.1_src/data/scripts/dock_solv.prm

>  <Rbt.Receptor>
prm/pocket_docking_2.prm

>  <SCORE>
-39.1683

>  <SCORE.INTER>
-39.1683

>  <SCORE.INTER.CONST>
1

>  <SCORE.INTER.POLAR>
-1.93604

>  <SCORE.INTER.ROT>
0

>  <SCORE.INTER.SOLV>
9.77406

>  <SCORE.INTER.VDW>
-26.5167

>  <SCORE.INTER.norm>
-3.01294

>  <SCORE.INTRA>
0

>  <SCORE.INTRA.DIHEDRAL>
0

>  <SCORE.INTRA.DIHEDRAL.0>
0

>  <SCORE.INTRA.POLAR>
0

>  <SCORE.INTRA.POLAR.0>
0

>  <SCORE.INTRA.REPUL>
0

>  <SCORE.INTRA.REPUL.0>
0

>  <SCORE.INTRA.SOLV>
0

>  <SCORE.INTRA.SOLV.lig_0>
-12.9768

>  <SCORE.INTRA.VDW>
0

>  <SCORE.INTRA.VDW.0>
0

>  <SCORE.INTRA.norm>
0

>  <SCORE.RESTR>
0

>  <SCORE.RESTR.CAVITY>
0

>  <SCORE.RESTR.norm>
0

>  <SCORE.SYSTEM>
0

>  <SCORE.SYSTEM.CONST>
0

>  <SCORE.SYSTEM.DIHEDRAL>
0

>  <SCORE.SYSTEM.SOLV>
0

>  <SCORE.SYSTEM.norm>
0

>  <SCORE.heavy>
13

>  <SCORE.norm>
-3.01294

>  <RMSD>
0.714

$$$$
1eht cryst
 OpenBabel11021811383D
libRbt.so/2013.1/901 2013/11/27
 13 14  0  0  0  0  0  0  0  0999 V2000
   -4.7657   -7.8665   10.5858 C   0  0  0  0  0  0  0  0  0  0  0  0
   -5.2310   -7.0130   11.5821 N   0  0  0  0  0  0  0  0  0  0  0  0
   -5.6188   -7.5636   12.7763 C   0  0  0  0  0  0  0  0  0  0  0  0
   -5.5284   -8.7892   12.8711 O   0  0  0  0  0  0  0  0  0  0  0  0
   -6.0967   -6.8491   13.8456 N   0  0  0  0  0  0  0  0  0  0  0  0
   -6.4814   -7.4280   15.0438 C   0  0  0  0  0  0  0  0  0  0  0  0
   -6.1555   -5.5076   13.6079 C   0  0  0  0  0  0  0  0  0  0  0  0
   -5.7679   -4.9701   12.4148 C   0  0  0  0  0  0  0  0  0  0  0  0
   -5.2746   -5.6845   11.3080 C   0  0  0  0  0  0  0  0  0  0  0  0
   -4.9127   -5.2493   10.2158 O   0  0  0  0  0  0  0  0  0  0  0  0
   -5.9639   -3.6012   12.5371 N   0  0  0  0  0  0  0  0  0  0  0  0
   -6.4530   -3.4053   13.7845 C   0  0  0  0  0  0  0  0  0  0  0  0
   -6.5878   -4.5064   14.4706 N   0  0  0  0  0  0  0  0  0  0  0  0
  1  2  1  0  0  0  0
  2  9  1  0  0  0  0
  2  3  1  0  0  0  0
  3  5  1  0  0  0  0
  3  4  2  0  0  0  0
  5  6  1  0  0  0  0
  5  7  1  0  0  0  0
  7  8  2  0  0  0  0
  7 13  1  0  0  0  0
  8  9  1  0  0  0  0
  8 11  1  0  0  0  0
  9 10  2  0  0  0  0
 11 12  1  0  0  0  0
 12 13  2  0  0  0  0
M  END
>  <CHROM.1>
-5.74203493,-6.07510637,12.66834967,-0.78342268,1.19886877,-0.28316971

>  <Name>
1eht cryst

>  <RI>
0

>  <Rbt.Current_Directory>
/home/itssahil/PROJECTS/Mol_Feturizer/New_Systems/rnas/1eht

>  <Rbt.Executable>
rbdock ($Id: //depot/dev/client3/rdock/2013.1/src/exe/rbdock.cxx#4 $)

>  <Rbt.Library>
libRbt.so (2013.1, Build901 2013/11/27)

>  <Rbt.Parameter_File>
/export/apps/rDock/src/rDock_2013.1_src/data/scripts/dock_solv.prm

>  <Rbt.Receptor>
prm/pocket_docking_3.prm

>  <SCORE>
-39.2287

>  <SCORE.INTER>
-39.2287

>  <SCORE.INTER.CONST>
1

>  <SCORE.INTER.POLAR>
-1.92624

>  <SCORE.INTER.ROT>
0

>  <SCORE.INTER.SOLV>
9.79985

>  <SCORE.INTER.VDW>
-26.5983

>  <SCORE.INTER.norm>
-3.0176

>  <SCORE.INTRA>
0

>  <SCORE.INTRA.DIHEDRAL>
0

>  <SCORE.INTRA.DIHEDRAL.0>
0

>  <SCORE.INTRA.POLAR>
0

>  <SCORE.INTRA.POLAR.0>
0

>  <SCORE.INTRA.REPUL>
0

>  <SCORE.INTRA.REPUL.0>
0

>  <SCORE.INTRA.SOLV>
0

>  <SCORE.INTRA.SOLV.lig_0>
-12.9768

>  <SCORE.INTRA.VDW>
0

>  <SCORE.INTRA.VDW.0>
0

>  <SCORE.INTRA.norm>
0

>  <SCORE.RESTR>
0

>  <SCORE.RESTR.CAVITY>
0

>  <SCORE.RESTR.norm>
0

>  <SCORE.SYSTEM>
0

>  <SCORE.SYSTEM.CONST>
0

>  <SCORE.SYSTEM.DIHEDRAL>
0

>  <SCORE.SYSTEM.SOLV>
0

>  <SCORE.SYSTEM.norm>
0

>  <SCORE.heavy>
13

>  <SCORE.norm>
-3.0176

>  <RMSD>
0.714

$$$$
1eht cryst
 OpenBabel11021811383D
libRbt.so/2013.1/901 2013/11/27
 13 14  0  0  0  0  0  0  0  0999 V2000
   -4.7852   -7.8846   10.5643 C   0  0  0  0  0  0  0  0  0  0  0  0
   -5.2518   -7.0163   11.5471 N   0  0  0  0  0  0  0  0  0  0  0  0
   -5.6298   -7.5477   12.7531 C   0  0  0  0  0  0  0  0  0  0  0  0
   -5.5298   -8.7706   12.8700 O   0  0  0  0  0  0  0  0  0  0  0  0
   -6.1077   -6.8170   13.8114 N   0  0  0  0  0  0  0  0  0  0  0  0
   -6.4823   -7.3766   15.0220 C   0  0  0  0  0  0  0  0  0  0  0  0
   -6.1776   -5.4806   13.5495 C   0  0  0  0  0  0  0  0  0  0  0  0
   -5.7998   -4.9624   12.3447 C   0  0  0  0  0  0  0  0  0  0  0  0
   -5.3066   -5.6935   11.2488 C   0  0  0  0  0  0  0  0  0  0  0  0
   -4.9532   -5.2759   10.1470 O   0  0  0  0  0  0  0  0  0  0  0  0
   -6.0052   -3.5929   12.4428 N   0  0  0  0  0  0  0  0  0  0  0  0
   -6.4898   -3.3777   13.6888 C   0  0  0  0  0  0  0  0  0  0  0  0
   -6.6130   -4.4669   14.3957 N   0  0  0  0  0  0  0  0  0  0  0  0
  1  2  1  0  0  0  0
  2  9  1  0  0  0  0
  2  3  1  0  0  0  0
  3  5  1  0  0  0  0
  3  4  2  0  0  0  0
  5  6  1  0  0  0  0
  5  7  1  0  0  0  0
  7  8  2  0  0  0  0
  7 13  1  0  0  0  0
  8  9  1  0  0  0  0
  8 11  1  0  0  0  0
  9 10  2  0  0  0  0
 11 12  1  0  0  0  0
 12 13  2  0  0  0  0
M  END
>  <CHROM.1>
-5.76449773,-6.06232502,12.61839476,-0.75999657,1.20139758,-0.32342499

>  <Name>
1eht cryst

>  <RI>
0

>  <Rbt.Current_Directory>
/home/itssahil/PROJECTS/Mol_Feturizer/New_Systems/rnas/1eht

>  <Rbt.Executable>
rbdock ($Id: //depot/dev/client3/rdock/2013.1/src/exe/rbdock.cxx#4 $)

>  <Rbt.Library>
libRbt.so (2013.1, Build901 2013/11/27)

>  <Rbt.Parameter_File>
/export/apps/rDock/src/rDock_2013.1_src/data/scripts/dock_solv.prm

>  <Rbt.Receptor>
prm/pocket_docking_4.prm

>  <SCORE>
-39.1866

>  <SCORE.INTER>
-39.1866

>  <SCORE.INTER.CONST>
1

>  <SCORE.INTER.POLAR>
-1.94253

>  <SCORE.INTER.ROT>
0

>  <SCORE.INTER.SOLV>
9.79147

>  <SCORE.INTER.VDW>
-26.5131

>  <SCORE.INTER.norm>
-3.01435

>  <SCORE.INTRA>
0

>  <SCORE.INTRA.DIHEDRAL>
0

>  <SCORE.INTRA.DIHEDRAL.0>
0

>  <SCORE.INTRA.POLAR>
0

>  <SCORE.INTRA.POLAR.0>
0

>  <SCORE.INTRA.REPUL>
0

>  <SCORE.INTRA.REPUL.0>
0

>  <SCORE.INTRA.SOLV>
0

>  <SCORE.INTRA.SOLV.lig_0>
-12.9768

>  <SCORE.INTRA.VDW>
0

>  <SCORE.INTRA.VDW.0>
0

>  <SCORE.INTRA.norm>
0

>  <SCORE.RESTR>
0

>  <SCORE.RESTR.CAVITY>
0

>  <SCORE.RESTR.norm>
0

>  <SCORE.SYSTEM>
0

>  <SCORE.SYSTEM.CONST>
0

>  <SCORE.SYSTEM.DIHEDRAL>
0

>  <SCORE.SYSTEM.SOLV>
0

>  <SCORE.SYSTEM.norm>
0

>  <SCORE.heavy>
13

>  <SCORE.norm>
-3.01435

>  <RMSD>
0.714

$$$$
1eht cryst
 OpenBabel11021811383D
libRbt.so/2013.1/901 2013/11/27
 13 14  0  0  0  0  0  0  0  0999 V2000
   -4.7846   -7.8849   10.5642 C   0  0  0  0  0  0  0  0  0  0  0  0
   -5.2506   -7.0164   11.5471 N   0  0  0  0  0  0  0  0  0  0  0  0
   -5.6265   -7.5474   12.7540 C   0  0  0  0  0  0  0  0  0  0  0  0
   -5.5255   -8.7702   12.8714 O   0  0  0  0  0  0  0  0  0  0  0  0
   -6.1035   -6.8165   13.8126 N   0  0  0  0  0  0  0  0  0  0  0  0
   -6.4760   -7.3757   15.0239 C   0  0  0  0  0  0  0  0  0  0  0  0
   -6.1747   -5.4803   13.5499 C   0  0  0  0  0  0  0  0  0  0  0  0
   -5.7989   -4.9625   12.3444 C   0  0  0  0  0  0  0  0  0  0  0  0
   -5.3067   -5.6938   11.2482 C   0  0  0  0  0  0  0  0  0  0  0  0
   -4.9551   -5.2765   10.1457 O   0  0  0  0  0  0  0  0  0  0  0  0
   -6.0053   -3.5931   12.4420 N   0  0  0  0  0  0  0  0  0  0  0  0
   -6.4882   -3.3775   13.6885 C   0  0  0  0  0  0  0  0  0  0  0  0
   -6.6097   -4.4664   14.3962 N   0  0  0  0  0  0  0  0  0  0  0  0
  1  2  1  0  0  0  0
  2  9  1  0  0  0  0
  2  3  1  0  0  0  0
  3  5  1  0  0  0  0
  3  4  2  0  0  0  0
  5  6  1  0  0  0  0
  5  7  1  0  0  0  0
  7  8  2  0  0  0  0
  7 13  1  0  0  0  0
  8  9  1  0  0  0  0
  8 11  1  0  0  0  0
  9 10  2  0  0  0  0
 11 12  1  0  0  0  0
 12 13  2  0  0  0  0
M  END
>  <CHROM.1>
-5.76245964,-6.06218848,12.61862758,-0.75685264,1.20245192,-0.32691298

>  <Name>
1eht cryst

>  <RI>
0

>  <Rbt.Current_Directory>
/home/itssahil/PROJECTS/Mol_Feturizer/New_Systems/rnas/1eht

>  <Rbt.Executable>
rbdock ($Id: //depot/dev/client3/rdock/2013.1/src/exe/rbdock.cxx#4 $)

>  <Rbt.Library>
libRbt.so (2013.1, Build901 2013/11/27)

>  <Rbt.Parameter_File>
/export/apps/rDock/src/rDock_2013.1_src/data/scripts/dock_solv.prm

>  <Rbt.Receptor>
prm/pocket_docking_5.prm

>  <SCORE>
-39.1887

>  <SCORE.INTER>
-39.1887

>  <SCORE.INTER.CONST>
1

>  <SCORE.INTER.POLAR>
-1.94114

>  <SCORE.INTER.ROT>
0

>  <SCORE.INTER.SOLV>
9.78947

>  <SCORE.INTER.VDW>
-26.5185

>  <SCORE.INTER.norm>
-3.01452

>  <SCORE.INTRA>
0

>  <SCORE.INTRA.DIHEDRAL>
0

>  <SCORE.INTRA.DIHEDRAL.0>
0

>  <SCORE.INTRA.POLAR>
0

>  <SCORE.INTRA.POLAR.0>
0

>  <SCORE.INTRA.REPUL>
0

>  <SCORE.INTRA.REPUL.0>
0

>  <SCORE.INTRA.SOLV>
0

>  <SCORE.INTRA.SOLV.lig_0>
-12.9768

>  <SCORE.INTRA.VDW>
0

>  <SCORE.INTRA.VDW.0>
0

>  <SCORE.INTRA.norm>
0

>  <SCORE.RESTR>
0

>  <SCORE.RESTR.CAVITY>
0

>  <SCORE.RESTR.norm>
0

>  <SCORE.SYSTEM>
0

>  <SCORE.SYSTEM.CONST>
0

>  <SCORE.SYSTEM.DIHEDRAL>
0

>  <SCORE.SYSTEM.SOLV>
0

>  <SCORE.SYSTEM.norm>
0

>  <SCORE.heavy>
13

>  <SCORE.norm>
-3.01452

>  <RMSD>
0.714

$$$$
1eht cryst
 OpenBabel11021811383D
libRbt.so/2013.1/901 2013/11/27
 13 14  0  0  0  0  0  0  0  0999 V2000
   -4.7656   -7.8694   10.5847 C   0  0  0  0  0  0  0  0  0  0  0  0
   -5.2316   -7.0161   11.5808 N   0  0  0  0  0  0  0  0  0  0  0  0
   -5.6199   -7.5670   12.7747 C   0  0  0  0  0  0  0  0  0  0  0  0
   -5.5292   -8.7926   12.8694 O   0  0  0  0  0  0  0  0  0  0  0  0
   -6.0986   -6.8527   13.8439 N   0  0  0  0  0  0  0  0  0  0  0  0
   -6.4837   -7.4319   15.0418 C   0  0  0  0  0  0  0  0  0  0  0  0
   -6.1577   -5.5112   13.6063 C   0  0  0  0  0  0  0  0  0  0  0  0
   -5.7696   -4.9735   12.4134 C   0  0  0  0  0  0  0  0  0  0  0  0
   -5.2755   -5.6877   11.3068 C   0  0  0  0  0  0  0  0  0  0  0  0
   -4.9131   -5.2522   10.2149 O   0  0  0  0  0  0  0  0  0  0  0  0
   -5.9660   -3.6047   12.5358 N   0  0  0  0  0  0  0  0  0  0  0  0
   -6.4559   -3.4091   13.7830 C   0  0  0  0  0  0  0  0  0  0  0  0
   -6.5907   -4.5103   14.4688 N   0  0  0  0  0  0  0  0  0  0  0  0
  1  2  1  0  0  0  0
  2  9  1  0  0  0  0
  2  3  1  0  0  0  0
  3  5  1  0  0  0  0
  3  4  2  0  0  0  0
  5  6  1  0  0  0  0
  5  7  1  0  0  0  0
  7  8  2  0  0  0  0
  7 13  1  0  0  0  0
  8  9  1  0  0  0  0
  8 11  1  0  0  0  0
  9 10  2  0  0  0  0
 11 12  1  0  0  0  0
 12 13  2  0  0  0  0
M  END
>  <CHROM.1>
-5.74349999,-6.07851457,12.66688586,-0.78301337,1.19828025,-0.28344334

>  <Name>
1eht cryst

>  <RI>
224

>  <Rbt.Current_Directory>
/home/itssahil/PROJECTS/Mol_Feturizer/New_Systems/rnas/1eht

>  <Rbt.Executable>
rbdock ($Id: //depot/dev/client3/rdock/2013.1/src/exe/rbdock.cxx#4 $)

>  <Rbt.Library>
libRbt.so (2013.1, Build901 2013/11/27)

>  <Rbt.Parameter_File>
/export/apps/rDock/src/rDock_2013.1_src/data/scripts/dock_solv.prm

>  <Rbt.Receptor>
prm/pocket_docking_7.prm

>  <SCORE>
-39.2677

>  <SCORE.INTER>
-39.2677

>  <SCORE.INTER.CONST>
1

>  <SCORE.INTER.POLAR>
-1.92926

>  <SCORE.INTER.ROT>
0

>  <SCORE.INTER.SOLV>
9.79245

>  <SCORE.INTER.VDW>
-26.6117

>  <SCORE.INTER.norm>
-3.02059

>  <SCORE.INTRA>
0

>  <SCORE.INTRA.DIHEDRAL>
0

>  <SCORE.INTRA.DIHEDRAL.0>
0

>  <SCORE.INTRA.POLAR>
0

>  <SCORE.INTRA.POLAR.0>
0

>  <SCORE.INTRA.REPUL>
0

>  <SCORE.INTRA.REPUL.0>
0

>  <SCORE.INTRA.SOLV>
0

>  <SCORE.INTRA.SOLV.lig_0>
-12.9768

>  <SCORE.INTRA.VDW>
0

>  <SCORE.INTRA.VDW.0>
0

>  <SCORE.INTRA.norm>
0

>  <SCORE.RESTR>
0

>  <SCORE.RESTR.CAVITY>
0

>  <SCORE.RESTR.norm>
0

>  <SCORE.SYSTEM>
0

>  <SCORE.SYSTEM.CONST>
0

>  <SCORE.SYSTEM.DIHEDRAL>
0

>  <SCORE.SYSTEM.SOLV>
0

>  <SCORE.SYSTEM.norm>
0

>  <SCORE.heavy>
13

>  <SCORE.norm>
-3.02059

>  <RMSD>
0.714

$$$$
1eht cryst
 OpenBabel11021811383D
libRbt.so/2013.1/901 2013/11/27
 13 14  0  0  0  0  0  0  0  0999 V2000
   -4.7823   -7.8853   10.5660 C   0  0  0  0  0  0  0  0  0  0  0  0
   -5.2482   -7.0165   11.5487 N   0  0  0  0  0  0  0  0  0  0  0  0
   -5.6225   -7.5469   12.7563 C   0  0  0  0  0  0  0  0  0  0  0  0
   -5.5202   -8.7695   12.8746 O   0  0  0  0  0  0  0  0  0  0  0  0
   -6.0992   -6.8157   13.8148 N   0  0  0  0  0  0  0  0  0  0  0  0
   -6.4701   -7.3743   15.0269 C   0  0  0  0  0  0  0  0  0  0  0  0
   -6.1720   -5.4797   13.5512 C   0  0  0  0  0  0  0  0  0  0  0  0
   -5.7978   -4.9625   12.3449 C   0  0  0  0  0  0  0  0  0  0  0  0
   -5.3059   -5.6942   11.2488 C   0  0  0  0  0  0  0  0  0  0  0  0
   -4.9558   -5.2774   10.1457 O   0  0  0  0  0  0  0  0  0  0  0  0
   -6.0053   -3.5932   12.4417 N   0  0  0  0  0  0  0  0  0  0  0  0
   -6.4873   -3.3772   13.6885 C   0  0  0  0  0  0  0  0  0  0  0  0
   -6.6071   -4.4656   14.3971 N   0  0  0  0  0  0  0  0  0  0  0  0
  1  2  1  0  0  0  0
  2  9  1  0  0  0  0
  2  3  1  0  0  0  0
  3  5  1  0  0  0  0
  3  4  2  0  0  0  0
  5  6  1  0  0  0  0
  5  7  1  0  0  0  0
  7  8  2  0  0  0  0
  7 13  1  0  0  0  0
  8  9  1  0  0  0  0
  8 11  1  0  0  0  0
  9 10  2  0  0  0  0
 11 12  1  0  0  0  0
 12 13  2  0  0  0  0
M  END
>  <CHROM.1>
-5.76001560,-6.06197030,12.61996274,-0.75351339,1.20303343,-0.33079129

>  <Name>
1eht cryst

>  <RI>
0

>  <Rbt.Current_Directory>
/home/itssahil/PROJECTS/Mol_Feturizer/New_Systems/rnas/1eht

>  <Rbt.Executable>
rbdock ($Id: //depot/dev/client3/rdock/2013.1/src/exe/rbdock.cxx#4 $)

>  <Rbt.Library>
libRbt.so (2013.1, Build901 2013/11/27)

>  <Rbt.Parameter_File>
/export/apps/rDock/src/rDock_2013.1_src/data/scripts/dock_solv.prm

>  <Rbt.Receptor>
prm/blind_docking_20.prm

>  <SCORE>
-39.1891

>  <SCORE.INTER>
-39.1891

>  <SCORE.INTER.CONST>
1

>  <SCORE.INTER.POLAR>
-1.93958

>  <SCORE.INTER.ROT>
0

>  <SCORE.INTER.SOLV>
9.78755

>  <SCORE.INTER.VDW>
-26.5233

>  <SCORE.INTER.norm>
-3.01455

>  <SCORE.INTRA>
0

>  <SCORE.INTRA.DIHEDRAL>
0

>  <SCORE.INTRA.DIHEDRAL.0>
0

>  <SCORE.INTRA.POLAR>
0

>  <SCORE.INTRA.POLAR.0>
0

>  <SCORE.INTRA.REPUL>
0

>  <SCORE.INTRA.REPUL.0>
0

>  <SCORE.INTRA.SOLV>
0

>  <SCORE.INTRA.SOLV.lig_0>
-12.9768

>  <SCORE.INTRA.VDW>
0

>  <SCORE.INTRA.VDW.0>
0

>  <SCORE.INTRA.norm>
0

>  <SCORE.RESTR>
0

>  <SCORE.RESTR.CAVITY>
0

>  <SCORE.RESTR.norm>
0

>  <SCORE.SYSTEM>
0

>  <SCORE.SYSTEM.CONST>
0

>  <SCORE.SYSTEM.DIHEDRAL>
0

>  <SCORE.SYSTEM.SOLV>
0

>  <SCORE.SYSTEM.norm>
0

>  <SCORE.heavy>
13

>  <SCORE.norm>
-3.01455

>  <RMSD>
0.715

$$$$
1eht cryst
 OpenBabel11021811383D
libRbt.so/2013.1/901 2013/11/27
 13 14  0  0  0  0  0  0  0  0999 V2000
   -4.8211   -7.8721   10.5560 C   0  0  0  0  0  0  0  0  0  0  0  0
   -5.2728   -7.0002   11.5426 N   0  0  0  0  0  0  0  0  0  0  0  0
   -5.6438   -7.5284   12.7521 C   0  0  0  0  0  0  0  0  0  0  0  0
   -5.5516   -8.7519   12.8686 O   0  0  0  0  0  0  0  0  0  0  0  0
   -6.1070   -6.7940   13.8144 N   0  0  0  0  0  0  0  0  0  0  0  0
   -6.4748   -7.3504   15.0285 C   0  0  0  0  0  0  0  0  0  0  0  0
   -6.1697   -5.4572   13.5525 C   0  0  0  0  0  0  0  0  0  0  0  0
   -5.7989   -4.9421   12.3442 C   0  0  0  0  0  0  0  0  0  0  0  0
   -5.3208   -5.6771   11.2442 C   0  0  0  0  0  0  0  0  0  0  0  0
   -4.9742   -5.2624   10.1392 O   0  0  0  0  0  0  0  0  0  0  0  0
   -5.9937   -3.5712   12.4436 N   0  0  0  0  0  0  0  0  0  0  0  0
   -6.4655   -3.3520   13.6938 C   0  0  0  0  0  0  0  0  0  0  0  0
   -6.5903   -4.4401   14.4021 N   0  0  0  0  0  0  0  0  0  0  0  0
  1  2  1  0  0  0  0
  2  9  1  0  0  0  0
  2  3  1  0  0  0  0
  3  5  1  0  0  0  0
  3  4  2  0  0  0  0
  5  6  1  0  0  0  0
  5  7  1  0  0  0  0
  7  8  2  0  0  0  0
  7 13  1  0  0  0  0
  8  9  1  0  0  0  0
  8 11  1  0  0  0  0
  9 10  2  0  0  0  0
 11 12  1  0  0  0  0
 12 13  2  0  0  0  0
M  END
>  <CHROM.1>
-5.76907646,-6.04214872,12.61803841,-0.77125869,1.21209675,-0.31327822

>  <Name>
1eht cryst

>  <RI>
0

>  <Rbt.Current_Directory>
/home/itssahil/PROJECTS/Mol_Feturizer/New_Systems/rnas/1eht

>  <Rbt.Executable>
rbdock ($Id: //depot/dev/client3/rdock/2013.1/src/exe/rbdock.cxx#4 $)

>  <Rbt.Library>
libRbt.so (2013.1, Build901 2013/11/27)

>  <Rbt.Parameter_File>
/export/apps/rDock/src/rDock_2013.1_src/data/scripts/dock_solv.prm

>  <Rbt.Receptor>
prm/blind_docking_20.prm

>  <SCORE>
-39.1994

>  <SCORE.INTER>
-39.1994

>  <SCORE.INTER.CONST>
1

>  <SCORE.INTER.POLAR>
-1.92278

>  <SCORE.INTER.ROT>
0

>  <SCORE.INTER.SOLV>
9.82955

>  <SCORE.INTER.VDW>
-26.6002

>  <SCORE.INTER.norm>
-3.01534

>  <SCORE.INTRA>
0

>  <SCORE.INTRA.DIHEDRAL>
0

>  <SCORE.INTRA.DIHEDRAL.0>
0

>  <SCORE.INTRA.POLAR>
0

>  <SCORE.INTRA.POLAR.0>
0

>  <SCORE.INTRA.REPUL>
0

>  <SCORE.INTRA.REPUL.0>
0

>  <SCORE.INTRA.SOLV>
0

>  <SCORE.INTRA.SOLV.lig_0>
-12.9768

>  <SCORE.INTRA.VDW>
0

>  <SCORE.INTRA.VDW.0>
0

>  <SCORE.INTRA.norm>
0

>  <SCORE.RESTR>
0

>  <SCORE.RESTR.CAVITY>
0

>  <SCORE.RESTR.norm>
0

>  <SCORE.SYSTEM>
0

>  <SCORE.SYSTEM.CONST>
0

>  <SCORE.SYSTEM.DIHEDRAL>
0

>  <SCORE.SYSTEM.SOLV>
0

>  <SCORE.SYSTEM.norm>
0

>  <SCORE.heavy>
13

>  <SCORE.norm>
-3.01534

>  <RMSD>
0.715

$$$$
1eht cryst
 OpenBabel11021811383D
libRbt.so/2013.1/901 2013/11/27
 13 14  0  0  0  0  0  0  0  0999 V2000
   -4.7656   -7.8718   10.5857 C   0  0  0  0  0  0  0  0  0  0  0  0
   -5.2312   -7.0179   11.5814 N   0  0  0  0  0  0  0  0  0  0  0  0
   -5.6191   -7.5680   12.7759 C   0  0  0  0  0  0  0  0  0  0  0  0
   -5.5284   -8.7935   12.8714 O   0  0  0  0  0  0  0  0  0  0  0  0
   -6.0973   -6.8529   13.8447 N   0  0  0  0  0  0  0  0  0  0  0  0
   -6.4820   -7.4313   15.0432 C   0  0  0  0  0  0  0  0  0  0  0  0
   -6.1564   -5.5116   13.6063 C   0  0  0  0  0  0  0  0  0  0  0  0
   -5.7687   -4.9747   12.4129 C   0  0  0  0  0  0  0  0  0  0  0  0
   -5.2752   -5.6896   11.3066 C   0  0  0  0  0  0  0  0  0  0  0  0
   -4.9131   -5.2549   10.2142 O   0  0  0  0  0  0  0  0  0  0  0  0
   -5.9650   -3.6057   12.5344 N   0  0  0  0  0  0  0  0  0  0  0  0
   -6.4544   -3.4093   13.7816 C   0  0  0  0  0  0  0  0  0  0  0  0
   -6.5890   -4.5100   14.4683 N   0  0  0  0  0  0  0  0  0  0  0  0
  1  2  1  0  0  0  0
  2  9  1  0  0  0  0
  2  3  1  0  0  0  0
  3  5  1  0  0  0  0
  3  4  2  0  0  0  0
  5  6  1  0  0  0  0
  5  7  1  0  0  0  0
  7  8  2  0  0  0  0
  7 13  1  0  0  0  0
  8  9  1  0  0  0  0
  8 11  1  0  0  0  0
  9 10  2  0  0  0  0
 11 12  1  0  0  0  0
 12 13  2  0  0  0  0
M  END
>  <CHROM.1>
-5.74263286,-6.07951490,12.66706809,-0.78289834,1.19867170,-0.28422449

>  <Name>
1eht cryst

>  <RI>
0

>  <Rbt.Current_Directory>
/home/itssahil/PROJECTS/Mol_Feturizer/New_Systems/rnas/1eht

>  <Rbt.Executable>
rbdock ($Id: //depot/dev/client3/rdock/2013.1/src/exe/rbdock.cxx#4 $)

>  <Rbt.Library>
libRbt.so (2013.1, Build901 2013/11/27)

>  <Rbt.Parameter_File>
/export/apps/rDock/src/rDock_2013.1_src/data/scripts/dock_solv.prm

>  <Rbt.Receptor>
prm/blind_docking_20.prm

>  <SCORE>
-39.2621

>  <SCORE.INTER>
-39.2621

>  <SCORE.INTER.CONST>
1

>  <SCORE.INTER.POLAR>
-1.92823

>  <SCORE.INTER.ROT>
0

>  <SCORE.INTER.SOLV>
9.79002

>  <SCORE.INTER.VDW>
-26.6106

>  <SCORE.INTER.norm>
-3.02016

>  <SCORE.INTRA>
0

>  <SCORE.INTRA.DIHEDRAL>
0

>  <SCORE.INTRA.DIHEDRAL.0>
0

>  <SCORE.INTRA.POLAR>
0

>  <SCORE.INTRA.POLAR.0>
0

>  <SCORE.INTRA.REPUL>
0

>  <SCORE.INTRA.REPUL.0>
0

>  <SCORE.INTRA.SOLV>
0

>  <SCORE.INTRA.SOLV.lig_0>
-12.9768

>  <SCORE.INTRA.VDW>
0

>  <SCORE.INTRA.VDW.0>
0

>  <SCORE.INTRA.norm>
0

>  <SCORE.RESTR>
0

>  <SCORE.RESTR.CAVITY>
0

>  <SCORE.RESTR.norm>
0

>  <SCORE.SYSTEM>
0

>  <SCORE.SYSTEM.CONST>
0

>  <SCORE.SYSTEM.DIHEDRAL>
0

>  <SCORE.SYSTEM.SOLV>
0

>  <SCORE.SYSTEM.norm>
0

>  <SCORE.heavy>
13

>  <SCORE.norm>
-3.02016

>  <RMSD>
0.715

$$$$
1eht cryst
 OpenBabel11021811383D
libRbt.so/2013.1/901 2013/11/27
 13 14  0  0  0  0  0  0  0  0999 V2000
   -4.8091   -7.8819   10.5619 C   0  0  0  0  0  0  0  0  0  0  0  0
   -5.2680   -7.0136   11.5483 N   0  0  0  0  0  0  0  0  0  0  0  0
   -5.6457   -7.5461   12.7539 C   0  0  0  0  0  0  0  0  0  0  0  0
   -5.5524   -8.7699   12.8672 O   0  0  0  0  0  0  0  0  0  0  0  0
   -6.1165   -6.8157   13.8156 N   0  0  0  0  0  0  0  0  0  0  0  0
   -6.4909   -7.3764   15.0256 C   0  0  0  0  0  0  0  0  0  0  0  0
   -6.1794   -5.4782   13.5575 C   0  0  0  0  0  0  0  0  0  0  0  0
   -5.8019   -4.9588   12.3531 C   0  0  0  0  0  0  0  0  0  0  0  0
   -5.3160   -5.6897   11.2538 C   0  0  0  0  0  0  0  0  0  0  0  0
   -4.9633   -5.2711   10.1522 O   0  0  0  0  0  0  0  0  0  0  0  0
   -5.9992   -3.5885   12.4555 N   0  0  0  0  0  0  0  0  0  0  0  0
   -6.4791   -3.3739   13.7034 C   0  0  0  0  0  0  0  0  0  0  0  0
   -6.6066   -4.4643   14.4076 N   0  0  0  0  0  0  0  0  0  0  0  0
  1  2  1  0  0  0  0
  2  9  1  0  0  0  0
  2  3  1  0  0  0  0
  3  5  1  0  0  0  0
  3  4  2  0  0  0  0
  5  6  1  0  0  0  0
  5  7  1  0  0  0  0
  7  8  2  0  0  0  0
  7 13  1  0  0  0  0
  8  9  1  0  0  0  0
  8 11  1  0  0  0  0
  9 10  2  0  0  0  0
 11 12  1  0  0  0  0
 12 13  2  0  0  0  0
M  END
>  <CHROM.1>
-5.77221136,-6.05966741,12.62366608,-0.77281416,1.20581655,-0.30871538

>  <Name>
1eht cryst

>  <RI>
0

>  <Rbt.Current_Directory>
/home/itssahil/PROJECTS/Mol_Feturizer/New_Systems/rnas/1eht

>  <Rbt.Executable>
rbdock ($Id: //depot/dev/client3/rdock/2013.1/src/exe/rbdock.cxx#4 $)

>  <Rbt.Library>
libRbt.so (2013.1, Build901 2013/11/27)

>  <Rbt.Parameter_File>
/export/apps/rDock/src/rDock_2013.1_src/data/scripts/dock_solv.prm

>  <Rbt.Receptor>
prm/blind_docking_40.prm

>  <SCORE>
-39.169

>  <SCORE.INTER>
-39.169

>  <SCORE.INTER.CONST>
1

>  <SCORE.INTER.POLAR>
-1.93579

>  <SCORE.INTER.ROT>
0

>  <SCORE.INTER.SOLV>
9.80048

>  <SCORE.INTER.VDW>
-26.5269

>  <SCORE.INTER.norm>
-3.013

>  <SCORE.INTRA>
0

>  <SCORE.INTRA.DIHEDRAL>
0

>  <SCORE.INTRA.DIHEDRAL.0>
0

>  <SCORE.INTRA.POLAR>
0

>  <SCORE.INTRA.POLAR.0>
0

>  <SCORE.INTRA.REPUL>
0

>  <SCORE.INTRA.REPUL.0>
0

>  <SCORE.INTRA.SOLV>
0

>  <SCORE.INTRA.SOLV.lig_0>
-12.9768

>  <SCORE.INTRA.VDW>
0

>  <SCORE.INTRA.VDW.0>
0

>  <SCORE.INTRA.norm>
0

>  <SCORE.RESTR>
0

>  <SCORE.RESTR.CAVITY>
0

>  <SCORE.RESTR.norm>
0

>  <SCORE.SYSTEM>
0

>  <SCORE.SYSTEM.CONST>
0

>  <SCORE.SYSTEM.DIHEDRAL>
0

>  <SCORE.SYSTEM.SOLV>
0

>  <SCORE.SYSTEM.norm>
0

>  <SCORE.heavy>
13

>  <SCORE.norm>
-3.013

>  <RMSD>
0.715

$$$$
1eht cryst
 OpenBabel11021811383D
libRbt.so/2013.1/901 2013/11/27
 13 14  0  0  0  0  0  0  0  0999 V2000
   -4.7643   -7.8690   10.5864 C   0  0  0  0  0  0  0  0  0  0  0  0
   -5.2310   -7.0156   11.5822 N   0  0  0  0  0  0  0  0  0  0  0  0
   -5.6200   -7.5663   12.7759 C   0  0  0  0  0  0  0  0  0  0  0  0
   -5.5293   -8.7918   12.8709 O   0  0  0  0  0  0  0  0  0  0  0  0
   -6.0993   -6.8519   13.8447 N   0  0  0  0  0  0  0  0  0  0  0  0
   -6.4852   -7.4309   15.0425 C   0  0  0  0  0  0  0  0  0  0  0  0
   -6.1583   -5.5104   13.6069 C   0  0  0  0  0  0  0  0  0  0  0  0
   -5.7695   -4.9728   12.4142 C   0  0  0  0  0  0  0  0  0  0  0  0
   -5.2747   -5.6872   11.3080 C   0  0  0  0  0  0  0  0  0  0  0  0
   -4.9116   -5.2519   10.2162 O   0  0  0  0  0  0  0  0  0  0  0  0
   -5.9660   -3.6040   12.5362 N   0  0  0  0  0  0  0  0  0  0  0  0
   -6.4566   -3.4082   13.7831 C   0  0  0  0  0  0  0  0  0  0  0  0
   -6.5918   -4.5093   14.4690 N   0  0  0  0  0  0  0  0  0  0  0  0
  1  2  1  0  0  0  0
  2  9  1  0  0  0  0
  2  3  1  0  0  0  0
  3  5  1  0  0  0  0
  3  4  2  0  0  0  0
  5  6  1  0  0  0  0
  5  7  1  0  0  0  0
  7  8  2  0  0  0  0
  7 13  1  0  0  0  0
  8  9  1  0  0  0  0
  8 11  1  0  0  0  0
  9 10  2  0  0  0  0
 11 12  1  0  0  0  0
 12 13  2  0  0  0  0
M  END
>  <CHROM.1>
-5.74352671,-6.07781697,12.66781064,-0.78346047,1.19769167,-0.28317222

>  <Name>
1eht cryst

>  <RI>
0

>  <Rbt.Current_Directory>
/home/itssahil/PROJECTS/Mol_Feturizer/New_Systems/rnas/1eht

>  <Rbt.Executable>
rbdock ($Id: //depot/dev/client3/rdock/2013.1/src/exe/rbdock.cxx#4 $)

>  <Rbt.Library>
libRbt.so (2013.1, Build901 2013/11/27)

>  <Rbt.Parameter_File>
/export/apps/rDock/src/rDock_2013.1_src/data/scripts/dock_solv.prm

>  <Rbt.Receptor>
prm/pocket_docking_2.prm

>  <SCORE>
-39.2673

>  <SCORE.INTER>
-39.2673

>  <SCORE.INTER.CONST>
1

>  <SCORE.INTER.POLAR>
-1.92922

>  <SCORE.INTER.ROT>
0

>  <SCORE.INTER.SOLV>
9.79454

>  <SCORE.INTER.VDW>
-26.6123

>  <SCORE.INTER.norm>
-3.02056

>  <SCORE.INTRA>
0

>  <SCORE.INTRA.DIHEDRAL>
0

>  <SCORE.INTRA.DIHEDRAL.0>
0

>  <SCORE.INTRA.POLAR>
0

>  <SCORE.INTRA.POLAR.0>
0

>  <SCORE.INTRA.REPUL>
0

>  <SCORE.INTRA.REPUL.0>
0

>  <SCORE.INTRA.SOLV>
0

>  <SCORE.INTRA.SOLV.lig_0>
-12.9768

>  <SCORE.INTRA.VDW>
0

>  <SCORE.INTRA.VDW.0>
0

>  <SCORE.INTRA.norm>
0

>  <SCORE.RESTR>
0

>  <SCORE.RESTR.CAVITY>
0

>  <SCORE.RESTR.norm>
0

>  <SCORE.SYSTEM>
0

>  <SCORE.SYSTEM.CONST>
0

>  <SCORE.SYSTEM.DIHEDRAL>
0

>  <SCORE.SYSTEM.SOLV>
0

>  <SCORE.SYSTEM.norm>
0

>  <SCORE.heavy>
13

>  <SCORE.norm>
-3.02056

>  <RMSD>
0.715

$$$$
1eht cryst
 OpenBabel11021811383D
libRbt.so/2013.1/901 2013/11/27
 13 14  0  0  0  0  0  0  0  0999 V2000
   -4.7714   -7.8699   10.5864 C   0  0  0  0  0  0  0  0  0  0  0  0
   -5.2348   -7.0158   11.5831 N   0  0  0  0  0  0  0  0  0  0  0  0
   -5.6209   -7.5657   12.7781 C   0  0  0  0  0  0  0  0  0  0  0  0
   -5.5307   -8.7912   12.8734 O   0  0  0  0  0  0  0  0  0  0  0  0
   -6.0968   -6.8504   13.8478 N   0  0  0  0  0  0  0  0  0  0  0  0
   -6.4798   -7.4286   15.0469 C   0  0  0  0  0  0  0  0  0  0  0  0
   -6.1556   -5.5090   13.6096 C   0  0  0  0  0  0  0  0  0  0  0  0
   -5.7698   -4.9723   12.4155 C   0  0  0  0  0  0  0  0  0  0  0  0
   -5.2785   -5.6874   11.3083 C   0  0  0  0  0  0  0  0  0  0  0  0
   -4.9181   -5.2529   10.2154 O   0  0  0  0  0  0  0  0  0  0  0  0
   -5.9651   -3.6032   12.5375 N   0  0  0  0  0  0  0  0  0  0  0  0
   -6.4522   -3.4066   13.7856 C   0  0  0  0  0  0  0  0  0  0  0  0
   -6.5862   -4.5073   14.4724 N   0  0  0  0  0  0  0  0  0  0  0  0
  1  2  1  0  0  0  0
  2  9  1  0  0  0  0
  2  3  1  0  0  0  0
  3  5  1  0  0  0  0
  3  4  2  0  0  0  0
  5  6  1  0  0  0  0
  5  7  1  0  0  0  0
  7  8  2  0  0  0  0
  7 13  1  0  0  0  0
  8  9  1  0  0  0  0
  8 11  1  0  0  0  0
  9 10  2  0  0  0  0
 11 12  1  0  0  0  0
 12 13  2  0  0  0  0
M  END
>  <CHROM.1>
-5.74381357,-6.07715693,12.66962343,-0.78299329,1.20050411,-0.28408809

>  <Name>
1eht cryst

>  <RI>
0

>  <Rbt.Current_Directory>
/home/itssahil/PROJECTS/Mol_Feturizer/New_Systems/rnas/1eht

>  <Rbt.Executable>
rbdock ($Id: //depot/dev/client3/rdock/2013.1/src/exe/rbdock.cxx#4 $)

>  <Rbt.Library>
libRbt.so (2013.1, Build901 2013/11/27)

>  <Rbt.Parameter_File>
/export/apps/rDock/src/rDock_2013.1_src/data/scripts/dock_solv.prm

>  <Rbt.Receptor>
prm/pocket_docking_2.prm

>  <SCORE>
-39.2557

>  <SCORE.INTER>
-39.2557

>  <SCORE.INTER.CONST>
1

>  <SCORE.INTER.POLAR>
-1.92544

>  <SCORE.INTER.ROT>
0

>  <SCORE.INTER.SOLV>
9.79348

>  <SCORE.INTER.VDW>
-26.6169

>  <SCORE.INTER.norm>
-3.01967

>  <SCORE.INTRA>
0

>  <SCORE.INTRA.DIHEDRAL>
0

>  <SCORE.INTRA.DIHEDRAL.0>
0

>  <SCORE.INTRA.POLAR>
0

>  <SCORE.INTRA.POLAR.0>
0

>  <SCORE.INTRA.REPUL>
0

>  <SCORE.INTRA.REPUL.0>
0

>  <SCORE.INTRA.SOLV>
0

>  <SCORE.INTRA.SOLV.lig_0>
-12.9768

>  <SCORE.INTRA.VDW>
0

>  <SCORE.INTRA.VDW.0>
0

>  <SCORE.INTRA.norm>
0

>  <SCORE.RESTR>
0

>  <SCORE.RESTR.CAVITY>
0

>  <SCORE.RESTR.norm>
0

>  <SCORE.SYSTEM>
0

>  <SCORE.SYSTEM.CONST>
0

>  <SCORE.SYSTEM.DIHEDRAL>
0

>  <SCORE.SYSTEM.SOLV>
0

>  <SCORE.SYSTEM.norm>
0

>  <SCORE.heavy>
13

>  <SCORE.norm>
-3.01967

>  <RMSD>
0.715

$$$$
1eht cryst
 OpenBabel11021811383D
libRbt.so/2013.1/901 2013/11/27
 13 14  0  0  0  0  0  0  0  0999 V2000
   -4.7933   -7.8859   10.5645 C   0  0  0  0  0  0  0  0  0  0  0  0
   -5.2547   -7.0166   11.5488 N   0  0  0  0  0  0  0  0  0  0  0  0
   -5.6279   -7.5469   12.7568 C   0  0  0  0  0  0  0  0  0  0  0  0
   -5.5287   -8.7699   12.8739 O   0  0  0  0  0  0  0  0  0  0  0  0
   -6.1004   -6.8152   13.8169 N   0  0  0  0  0  0  0  0  0  0  0  0
   -6.4702   -7.3738   15.0293 C   0  0  0  0  0  0  0  0  0  0  0  0
   -6.1701   -5.4789   13.5545 C   0  0  0  0  0  0  0  0  0  0  0  0
   -5.7970   -4.9617   12.3478 C   0  0  0  0  0  0  0  0  0  0  0  0
   -5.3095   -5.6939   11.2501 C   0  0  0  0  0  0  0  0  0  0  0  0
   -4.9605   -5.2772   10.1465 O   0  0  0  0  0  0  0  0  0  0  0  0
   -6.0007   -3.5920   12.4461 N   0  0  0  0  0  0  0  0  0  0  0  0
   -6.4795   -3.3756   13.6941 C   0  0  0  0  0  0  0  0  0  0  0  0
   -6.6007   -4.4643   14.4021 N   0  0  0  0  0  0  0  0  0  0  0  0
  1  2  1  0  0  0  0
  2  9  1  0  0  0  0
  2  3  1  0  0  0  0
  3  5  1  0  0  0  0
  3  4  2  0  0  0  0
  5  6  1  0  0  0  0
  5  7  1  0  0  0  0
  7  8  2  0  0  0  0
  7 13  1  0  0  0  0
  8  9  1  0  0  0  0
  8 11  1  0  0  0  0
  9 10  2  0  0  0  0
 11 12  1  0  0  0  0
 12 13  2  0  0  0  0
M  END
>  <CHROM.1>
-5.76168828,-6.06151074,12.62192256,-0.75881079,1.20589608,-0.32505277

>  <Name>
1eht cryst

>  <RI>
0

>  <Rbt.Current_Directory>
/home/itssahil/PROJECTS/Mol_Feturizer/New_Systems/rnas/1eht

>  <Rbt.Executable>
rbdock ($Id: //depot/dev/client3/rdock/2013.1/src/exe/rbdock.cxx#4 $)

>  <Rbt.Library>
libRbt.so (2013.1, Build901 2013/11/27)

>  <Rbt.Parameter_File>
/export/apps/rDock/src/rDock_2013.1_src/data/scripts/dock_solv.prm

>  <Rbt.Receptor>
prm/pocket_docking_2.prm

>  <SCORE>
-39.1816

>  <SCORE.INTER>
-39.1816

>  <SCORE.INTER.CONST>
1

>  <SCORE.INTER.POLAR>
-1.93564

>  <SCORE.INTER.ROT>
0

>  <SCORE.INTER.SOLV>
9.78973

>  <SCORE.INTER.VDW>
-26.5322

>  <SCORE.INTER.norm>
-3.01397

>  <SCORE.INTRA>
0

>  <SCORE.INTRA.DIHEDRAL>
0

>  <SCORE.INTRA.DIHEDRAL.0>
0

>  <SCORE.INTRA.POLAR>
0

>  <SCORE.INTRA.POLAR.0>
0

>  <SCORE.INTRA.REPUL>
0

>  <SCORE.INTRA.REPUL.0>
0

>  <SCORE.INTRA.SOLV>
0

>  <SCORE.INTRA.SOLV.lig_0>
-12.9768

>  <SCORE.INTRA.VDW>
0

>  <SCORE.INTRA.VDW.0>
0

>  <SCORE.INTRA.norm>
0

>  <SCORE.RESTR>
0

>  <SCORE.RESTR.CAVITY>
0

>  <SCORE.RESTR.norm>
0

>  <SCORE.SYSTEM>
0

>  <SCORE.SYSTEM.CONST>
0

>  <SCORE.SYSTEM.DIHEDRAL>
0

>  <SCORE.SYSTEM.SOLV>
0

>  <SCORE.SYSTEM.norm>
0

>  <SCORE.heavy>
13

>  <SCORE.norm>
-3.01397

>  <RMSD>
0.715

$$$$
1eht cryst
 OpenBabel11021811383D
libRbt.so/2013.1/901 2013/11/27
 13 14  0  0  0  0  0  0  0  0999 V2000
   -4.7683   -7.8696   10.5864 C   0  0  0  0  0  0  0  0  0  0  0  0
   -5.2346   -7.0161   11.5822 N   0  0  0  0  0  0  0  0  0  0  0  0
   -5.6247   -7.5669   12.7756 C   0  0  0  0  0  0  0  0  0  0  0  0
   -5.5352   -8.7925   12.8702 O   0  0  0  0  0  0  0  0  0  0  0  0
   -6.1039   -6.8524   13.8444 N   0  0  0  0  0  0  0  0  0  0  0  0
   -6.4909   -7.4315   15.0418 C   0  0  0  0  0  0  0  0  0  0  0  0
   -6.1615   -5.5108   13.6070 C   0  0  0  0  0  0  0  0  0  0  0  0
   -5.7716   -4.9731   12.4147 C   0  0  0  0  0  0  0  0  0  0  0  0
   -5.2770   -5.6875   11.3084 C   0  0  0  0  0  0  0  0  0  0  0  0
   -4.9130   -5.2522   10.2170 O   0  0  0  0  0  0  0  0  0  0  0  0
   -5.9670   -3.6042   12.5371 N   0  0  0  0  0  0  0  0  0  0  0  0
   -6.4580   -3.4084   13.7838 C   0  0  0  0  0  0  0  0  0  0  0  0
   -6.5945   -4.5096   14.4693 N   0  0  0  0  0  0  0  0  0  0  0  0
  1  2  1  0  0  0  0
  2  9  1  0  0  0  0
  2  3  1  0  0  0  0
  3  5  1  0  0  0  0
  3  4  2  0  0  0  0
  5  6  1  0  0  0  0
  5  7  1  0  0  0  0
  7  8  2  0  0  0  0
  7 13  1  0  0  0  0
  8  9  1  0  0  0  0
  8 11  1  0  0  0  0
  9 10  2  0  0  0  0
 11 12  1  0  0  0  0
 12 13  2  0  0  0  0
M  END
>  <CHROM.1>
-5.74684170,-6.07823967,12.66793009,-0.78623929,1.19750007,-0.28023643

>  <Name>
1eht cryst

>  <RI>
0

>  <Rbt.Current_Directory>
/home/itssahil/PROJECTS/Mol_Feturizer/New_Systems/rnas/1eht

>  <Rbt.Executable>
rbdock ($Id: //depot/dev/client3/rdock/2013.1/src/exe/rbdock.cxx#4 $)

>  <Rbt.Library>
libRbt.so (2013.1, Build901 2013/11/27)

>  <Rbt.Parameter_File>
/export/apps/rDock/src/rDock_2013.1_src/data/scripts/dock_solv.prm

>  <Rbt.Receptor>
prm/pocket_docking_3.prm

>  <SCORE>
-39.2686

>  <SCORE.INTER>
-39.2686

>  <SCORE.INTER.CONST>
1

>  <SCORE.INTER.POLAR>
-1.93014

>  <SCORE.INTER.ROT>
0

>  <SCORE.INTER.SOLV>
9.79462

>  <SCORE.INTER.VDW>
-26.6101

>  <SCORE.INTER.norm>
-3.02066

>  <SCORE.INTRA>
0

>  <SCORE.INTRA.DIHEDRAL>
0

>  <SCORE.INTRA.DIHEDRAL.0>
0

>  <SCORE.INTRA.POLAR>
0

>  <SCORE.INTRA.POLAR.0>
0

>  <SCORE.INTRA.REPUL>
0

>  <SCORE.INTRA.REPUL.0>
0

>  <SCORE.INTRA.SOLV>
0

>  <SCORE.INTRA.SOLV.lig_0>
-12.9768

>  <SCORE.INTRA.VDW>
0

>  <SCORE.INTRA.VDW.0>
0

>  <SCORE.INTRA.norm>
0

>  <SCORE.RESTR>
0

>  <SCORE.RESTR.CAVITY>
0

>  <SCORE.RESTR.norm>
0

>  <SCORE.SYSTEM>
0

>  <SCORE.SYSTEM.CONST>
0

>  <SCORE.SYSTEM.DIHEDRAL>
0

>  <SCORE.SYSTEM.SOLV>
0

>  <SCORE.SYSTEM.norm>
0

>  <SCORE.heavy>
13

>  <SCORE.norm>
-3.02066

>  <RMSD>
0.715

$$$$
1eht cryst
 OpenBabel11021811383D
libRbt.so/2013.1/901 2013/11/27
 13 14  0  0  0  0  0  0  0  0999 V2000
   -4.7645   -7.8698   10.5874 C   0  0  0  0  0  0  0  0  0  0  0  0
   -5.2320   -7.0164   11.5828 N   0  0  0  0  0  0  0  0  0  0  0  0
   -5.6229   -7.5673   12.7759 C   0  0  0  0  0  0  0  0  0  0  0  0
   -5.5330   -8.7929   12.8706 O   0  0  0  0  0  0  0  0  0  0  0  0
   -6.1033   -6.8529   13.8441 N   0  0  0  0  0  0  0  0  0  0  0  0
   -6.4911   -7.4321   15.0413 C   0  0  0  0  0  0  0  0  0  0  0  0
   -6.1613   -5.5113   13.6067 C   0  0  0  0  0  0  0  0  0  0  0  0
   -5.7706   -4.9736   12.4146 C   0  0  0  0  0  0  0  0  0  0  0  0
   -5.2748   -5.6879   11.3089 C   0  0  0  0  0  0  0  0  0  0  0  0
   -4.9100   -5.2525   10.2177 O   0  0  0  0  0  0  0  0  0  0  0  0
   -5.9666   -3.6047   12.5368 N   0  0  0  0  0  0  0  0  0  0  0  0
   -6.4588   -3.4091   13.7831 C   0  0  0  0  0  0  0  0  0  0  0  0
   -6.5955   -4.5103   14.4685 N   0  0  0  0  0  0  0  0  0  0  0  0
  1  2  1  0  0  0  0
  2  9  1  0  0  0  0
  2  3  1  0  0  0  0
  3  5  1  0  0  0  0
  3  4  2  0  0  0  0
  5  6  1  0  0  0  0
  5  7  1  0  0  0  0
  7  8  2  0  0  0  0
  7 13  1  0  0  0  0
  8  9  1  0  0  0  0
  8 11  1  0  0  0  0
  9 10  2  0  0  0  0
 11 12  1  0  0  0  0
 12 13  2  0  0  0  0
M  END
>  <CHROM.1>
-5.74556577,-6.07870055,12.66797611,-0.78580695,1.19656364,-0.28070730

>  <Name>
1eht cryst

>  <RI>
0

>  <Rbt.Current_Directory>
/home/itssahil/PROJECTS/Mol_Feturizer/New_Systems/rnas/1eht

>  <Rbt.Executable>
rbdock ($Id: //depot/dev/client3/rdock/2013.1/src/exe/rbdock.cxx#4 $)

>  <Rbt.Library>
libRbt.so (2013.1, Build901 2013/11/27)

>  <Rbt.Parameter_File>
/export/apps/rDock/src/rDock_2013.1_src/data/scripts/dock_solv.prm

>  <Rbt.Receptor>
prm/pocket_docking_3.prm

>  <SCORE>
-39.2686

>  <SCORE.INTER>
-39.2686

>  <SCORE.INTER.CONST>
1

>  <SCORE.INTER.POLAR>
-1.93051

>  <SCORE.INTER.ROT>
0

>  <SCORE.INTER.SOLV>
9.79449

>  <SCORE.INTER.VDW>
-26.6088

>  <SCORE.INTER.norm>
-3.02066

>  <SCORE.INTRA>
0

>  <SCORE.INTRA.DIHEDRAL>
0

>  <SCORE.INTRA.DIHEDRAL.0>
0

>  <SCORE.INTRA.POLAR>
0

>  <SCORE.INTRA.POLAR.0>
0

>  <SCORE.INTRA.REPUL>
0

>  <SCORE.INTRA.REPUL.0>
0

>  <SCORE.INTRA.SOLV>
0

>  <SCORE.INTRA.SOLV.lig_0>
-12.9768

>  <SCORE.INTRA.VDW>
0

>  <SCORE.INTRA.VDW.0>
0

>  <SCORE.INTRA.norm>
0

>  <SCORE.RESTR>
0

>  <SCORE.RESTR.CAVITY>
0

>  <SCORE.RESTR.norm>
0

>  <SCORE.SYSTEM>
0

>  <SCORE.SYSTEM.CONST>
0

>  <SCORE.SYSTEM.DIHEDRAL>
0

>  <SCORE.SYSTEM.SOLV>
0

>  <SCORE.SYSTEM.norm>
0

>  <SCORE.heavy>
13

>  <SCORE.norm>
-3.02066

>  <RMSD>
0.715

$$$$
1eht cryst
 OpenBabel11021811383D
libRbt.so/2013.1/901 2013/11/27
 13 14  0  0  0  0  0  0  0  0999 V2000
   -4.7952   -7.8852   10.5644 C   0  0  0  0  0  0  0  0  0  0  0  0
   -5.2583   -7.0165   11.5484 N   0  0  0  0  0  0  0  0  0  0  0  0
   -5.6355   -7.5476   12.7548 C   0  0  0  0  0  0  0  0  0  0  0  0
   -5.5381   -8.7708   12.8708 O   0  0  0  0  0  0  0  0  0  0  0  0
   -6.1101   -6.8165   13.8143 N   0  0  0  0  0  0  0  0  0  0  0  0
   -6.4840   -7.3759   15.0251 C   0  0  0  0  0  0  0  0  0  0  0  0
   -6.1774   -5.4798   13.5531 C   0  0  0  0  0  0  0  0  0  0  0  0
   -5.8004   -4.9618   12.3481 C   0  0  0  0  0  0  0  0  0  0  0  0
   -5.3106   -5.6933   11.2509 C   0  0  0  0  0  0  0  0  0  0  0  0
   -4.9581   -5.2759   10.1488 O   0  0  0  0  0  0  0  0  0  0  0  0
   -6.0026   -3.5919   12.4472 N   0  0  0  0  0  0  0  0  0  0  0  0
   -6.4847   -3.3762   13.6941 C   0  0  0  0  0  0  0  0  0  0  0  0
   -6.6092   -4.4655   14.4006 N   0  0  0  0  0  0  0  0  0  0  0  0
  1  2  1  0  0  0  0
  2  9  1  0  0  0  0
  2  3  1  0  0  0  0
  3  5  1  0  0  0  0
  3  4  2  0  0  0  0
  5  6  1  0  0  0  0
  5  7  1  0  0  0  0
  7  8  2  0  0  0  0
  7 13  1  0  0  0  0
  8  9  1  0  0  0  0
  8 11  1  0  0  0  0
  9 10  2  0  0  0  0
 11 12  1  0  0  0  0
 12 13  2  0  0  0  0
M  END
>  <CHROM.1>
-5.76711724,-6.06189633,12.62110251,-0.76446932,1.20362853,-0.31870848

>  <Name>
1eht cryst

>  <RI>
0

>  <Rbt.Current_Directory>
/home/itssahil/PROJECTS/Mol_Feturizer/New_Systems/rnas/1eht

>  <Rbt.Executable>
rbdock ($Id: //depot/dev/client3/rdock/2013.1/src/exe/rbdock.cxx#4 $)

>  <Rbt.Library>
libRbt.so (2013.1, Build901 2013/11/27)

>  <Rbt.Parameter_File>
/export/apps/rDock/src/rDock_2013.1_src/data/scripts/dock_solv.prm

>  <Rbt.Receptor>
prm/pocket_docking_4.prm

>  <SCORE>
-39.1808

>  <SCORE.INTER>
-39.1808

>  <SCORE.INTER.CONST>
1

>  <SCORE.INTER.POLAR>
-1.93928

>  <SCORE.INTER.ROT>
0

>  <SCORE.INTER.SOLV>
9.79266

>  <SCORE.INTER.VDW>
-26.5205

>  <SCORE.INTER.norm>
-3.01391

>  <SCORE.INTRA>
0

>  <SCORE.INTRA.DIHEDRAL>
0

>  <SCORE.INTRA.DIHEDRAL.0>
0

>  <SCORE.INTRA.POLAR>
0

>  <SCORE.INTRA.POLAR.0>
0

>  <SCORE.INTRA.REPUL>
0

>  <SCORE.INTRA.REPUL.0>
0

>  <SCORE.INTRA.SOLV>
0

>  <SCORE.INTRA.SOLV.lig_0>
-12.9768

>  <SCORE.INTRA.VDW>
0

>  <SCORE.INTRA.VDW.0>
0

>  <SCORE.INTRA.norm>
0

>  <SCORE.RESTR>
0

>  <SCORE.RESTR.CAVITY>
0

>  <SCORE.RESTR.norm>
0

>  <SCORE.SYSTEM>
0

>  <SCORE.SYSTEM.CONST>
0

>  <SCORE.SYSTEM.DIHEDRAL>
0

>  <SCORE.SYSTEM.SOLV>
0

>  <SCORE.SYSTEM.norm>
0

>  <SCORE.heavy>
13

>  <SCORE.norm>
-3.01391

>  <RMSD>
0.715

$$$$
1eht cryst
 OpenBabel11021811383D
libRbt.so/2013.1/901 2013/11/27
 13 14  0  0  0  0  0  0  0  0999 V2000
   -4.7870   -7.8840   10.5650 C   0  0  0  0  0  0  0  0  0  0  0  0
   -5.2547   -7.0162   11.5476 N   0  0  0  0  0  0  0  0  0  0  0  0
   -5.6348   -7.5482   12.7527 C   0  0  0  0  0  0  0  0  0  0  0  0
   -5.5357   -8.7713   12.8689 O   0  0  0  0  0  0  0  0  0  0  0  0
   -6.1140   -6.8181   13.8108 N   0  0  0  0  0  0  0  0  0  0  0  0
   -6.4908   -7.3783   15.0204 C   0  0  0  0  0  0  0  0  0  0  0  0
   -6.1828   -5.4814   13.5496 C   0  0  0  0  0  0  0  0  0  0  0  0
   -5.8028   -4.9626   12.3459 C   0  0  0  0  0  0  0  0  0  0  0  0
   -5.3084   -5.6931   11.2502 C   0  0  0  0  0  0  0  0  0  0  0  0
   -4.9530   -5.2749   10.1492 O   0  0  0  0  0  0  0  0  0  0  0  0
   -6.0077   -3.5930   12.4446 N   0  0  0  0  0  0  0  0  0  0  0  0
   -6.4941   -3.3784   13.6900 C   0  0  0  0  0  0  0  0  0  0  0  0
   -6.6190   -4.4681   14.3959 N   0  0  0  0  0  0  0  0  0  0  0  0
  1  2  1  0  0  0  0
  2  9  1  0  0  0  0
  2  3  1  0  0  0  0
  3  5  1  0  0  0  0
  3  4  2  0  0  0  0
  5  6  1  0  0  0  0
  5  7  1  0  0  0  0
  7  8  2  0  0  0  0
  7 13  1  0  0  0  0
  8  9  1  0  0  0  0
  8 11  1  0  0  0  0
  9 10  2  0  0  0  0
 11 12  1  0  0  0  0
 12 13  2  0  0  0  0
M  END
>  <CHROM.1>
-5.76856564,-6.06268677,12.61883149,-0.76273404,1.20007564,-0.32017023

>  <Name>
1eht cryst

>  <RI>
0

>  <Rbt.Current_Directory>
/home/itssahil/PROJECTS/Mol_Feturizer/New_Systems/rnas/1eht

>  <Rbt.Executable>
rbdock ($Id: //depot/dev/client3/rdock/2013.1/src/exe/rbdock.cxx#4 $)

>  <Rbt.Library>
libRbt.so (2013.1, Build901 2013/11/27)

>  <Rbt.Parameter_File>
/export/apps/rDock/src/rDock_2013.1_src/data/scripts/dock_solv.prm

>  <Rbt.Receptor>
prm/pocket_docking_4.prm

>  <SCORE>
-39.1788

>  <SCORE.INTER>
-39.1788

>  <SCORE.INTER.CONST>
1

>  <SCORE.INTER.POLAR>
-1.94414

>  <SCORE.INTER.ROT>
0

>  <SCORE.INTER.SOLV>
9.79212

>  <SCORE.INTER.VDW>
-26.5027

>  <SCORE.INTER.norm>
-3.01375

>  <SCORE.INTRA>
0

>  <SCORE.INTRA.DIHEDRAL>
0

>  <SCORE.INTRA.DIHEDRAL.0>
0

>  <SCORE.INTRA.POLAR>
0

>  <SCORE.INTRA.POLAR.0>
0

>  <SCORE.INTRA.REPUL>
0

>  <SCORE.INTRA.REPUL.0>
0

>  <SCORE.INTRA.SOLV>
0

>  <SCORE.INTRA.SOLV.lig_0>
-12.9768

>  <SCORE.INTRA.VDW>
0

>  <SCORE.INTRA.VDW.0>
0

>  <SCORE.INTRA.norm>
0

>  <SCORE.RESTR>
0

>  <SCORE.RESTR.CAVITY>
0

>  <SCORE.RESTR.norm>
0

>  <SCORE.SYSTEM>
0

>  <SCORE.SYSTEM.CONST>
0

>  <SCORE.SYSTEM.DIHEDRAL>
0

>  <SCORE.SYSTEM.SOLV>
0

>  <SCORE.SYSTEM.norm>
0

>  <SCORE.heavy>
13

>  <SCORE.norm>
-3.01375

>  <RMSD>
0.715

$$$$
1eht cryst
 OpenBabel11021811383D
libRbt.so/2013.1/901 2013/11/27
 13 14  0  0  0  0  0  0  0  0999 V2000
   -4.8264   -7.8754   10.5546 C   0  0  0  0  0  0  0  0  0  0  0  0
   -5.2784   -7.0033   11.5409 N   0  0  0  0  0  0  0  0  0  0  0  0
   -5.6512   -7.5314   12.7499 C   0  0  0  0  0  0  0  0  0  0  0  0
   -5.5603   -8.7551   12.8662 O   0  0  0  0  0  0  0  0  0  0  0  0
   -6.1150   -6.7968   13.8118 N   0  0  0  0  0  0  0  0  0  0  0  0
   -6.4846   -7.3532   15.0253 C   0  0  0  0  0  0  0  0  0  0  0  0
   -6.1760   -5.4599   13.5501 C   0  0  0  0  0  0  0  0  0  0  0  0
   -5.8034   -4.9449   12.3424 C   0  0  0  0  0  0  0  0  0  0  0  0
   -5.3247   -5.6801   11.2428 C   0  0  0  0  0  0  0  0  0  0  0  0
   -4.9765   -5.2654   10.1382 O   0  0  0  0  0  0  0  0  0  0  0  0
   -5.9970   -3.5738   12.4418 N   0  0  0  0  0  0  0  0  0  0  0  0
   -6.4700   -3.3545   13.6916 C   0  0  0  0  0  0  0  0  0  0  0  0
   -6.5966   -4.4426   14.3995 N   0  0  0  0  0  0  0  0  0  0  0  0
  1  2  1  0  0  0  0
  2  9  1  0  0  0  0
  2  3  1  0  0  0  0
  3  5  1  0  0  0  0
  3  4  2  0  0  0  0
  5  6  1  0  0  0  0
  5  7  1  0  0  0  0
  7  8  2  0  0  0  0
  7 13  1  0  0  0  0
  8  9  1  0  0  0  0
  8 11  1  0  0  0  0
  9 10  2  0  0  0  0
 11 12  1  0  0  0  0
 12 13  2  0  0  0  0
M  END
>  <CHROM.1>
-5.77491790,-6.04501696,12.61598418,-0.77485140,1.21130690,-0.30967972

>  <Name>
1eht cryst

>  <RI>
0

>  <Rbt.Current_Directory>
/home/itssahil/PROJECTS/Mol_Feturizer/New_Systems/rnas/1eht

>  <Rbt.Executable>
rbdock ($Id: //depot/dev/client3/rdock/2013.1/src/exe/rbdock.cxx#4 $)

>  <Rbt.Library>
libRbt.so (2013.1, Build901 2013/11/27)

>  <Rbt.Parameter_File>
/export/apps/rDock/src/rDock_2013.1_src/data/scripts/dock_solv.prm

>  <Rbt.Receptor>
prm/pocket_docking_4.prm

>  <SCORE>
-39.199

>  <SCORE.INTER>
-39.199

>  <SCORE.INTER.CONST>
1

>  <SCORE.INTER.POLAR>
-1.92654

>  <SCORE.INTER.ROT>
0

>  <SCORE.INTER.SOLV>
9.82403

>  <SCORE.INTER.VDW>
-26.5856

>  <SCORE.INTER.norm>
-3.01531

>  <SCORE.INTRA>
0

>  <SCORE.INTRA.DIHEDRAL>
0

>  <SCORE.INTRA.DIHEDRAL.0>
0

>  <SCORE.INTRA.POLAR>
0

>  <SCORE.INTRA.POLAR.0>
0

>  <SCORE.INTRA.REPUL>
0

>  <SCORE.INTRA.REPUL.0>
0

>  <SCORE.INTRA.SOLV>
0

>  <SCORE.INTRA.SOLV.lig_0>
-12.9768

>  <SCORE.INTRA.VDW>
0

>  <SCORE.INTRA.VDW.0>
0

>  <SCORE.INTRA.norm>
0

>  <SCORE.RESTR>
0

>  <SCORE.RESTR.CAVITY>
0

>  <SCORE.RESTR.norm>
0

>  <SCORE.SYSTEM>
0

>  <SCORE.SYSTEM.CONST>
0

>  <SCORE.SYSTEM.DIHEDRAL>
0

>  <SCORE.SYSTEM.SOLV>
0

>  <SCORE.SYSTEM.norm>
0

>  <SCORE.heavy>
13

>  <SCORE.norm>
-3.01531

>  <RMSD>
0.715

$$$$
1eht cryst
 OpenBabel11021811383D
libRbt.so/2013.1/901 2013/11/27
 13 14  0  0  0  0  0  0  0  0999 V2000
   -4.7750   -7.8757   10.5836 C   0  0  0  0  0  0  0  0  0  0  0  0
   -5.2368   -7.0202   11.5798 N   0  0  0  0  0  0  0  0  0  0  0  0
   -5.6242   -7.5688   12.7751 C   0  0  0  0  0  0  0  0  0  0  0  0
   -5.5364   -8.7945   12.8709 O   0  0  0  0  0  0  0  0  0  0  0  0
   -6.0988   -6.8521   13.8444 N   0  0  0  0  0  0  0  0  0  0  0  0
   -6.4830   -7.4290   15.0437 C   0  0  0  0  0  0  0  0  0  0  0  0
   -6.1549   -5.5107   13.6055 C   0  0  0  0  0  0  0  0  0  0  0  0
   -5.7678   -4.9753   12.4112 C   0  0  0  0  0  0  0  0  0  0  0  0
   -5.2778   -5.6919   11.3044 C   0  0  0  0  0  0  0  0  0  0  0  0
   -4.9165   -5.2586   10.2113 O   0  0  0  0  0  0  0  0  0  0  0  0
   -5.9604   -3.6058   12.5325 N   0  0  0  0  0  0  0  0  0  0  0  0
   -6.4473   -3.4076   13.7804 C   0  0  0  0  0  0  0  0  0  0  0  0
   -6.5836   -4.5077   14.4677 N   0  0  0  0  0  0  0  0  0  0  0  0
  1  2  1  0  0  0  0
  2  9  1  0  0  0  0
  2  3  1  0  0  0  0
  3  5  1  0  0  0  0
  3  4  2  0  0  0  0
  5  6  1  0  0  0  0
  5  7  1  0  0  0  0
  7  8  2  0  0  0  0
  7 13  1  0  0  0  0
  8  9  1  0  0  0  0
  8 11  1  0  0  0  0
  9 10  2  0  0  0  0
 11 12  1  0  0  0  0
 12 13  2  0  0  0  0
M  END
>  <CHROM.1>
-5.74409471,-6.08008078,12.66583153,-0.78836041,1.20093703,-0.27955754

>  <Name>
1eht cryst

>  <RI>
0

>  <Rbt.Current_Directory>
/home/itssahil/PROJECTS/Mol_Feturizer/New_Systems/rnas/1eht

>  <Rbt.Executable>
rbdock ($Id: //depot/dev/client3/rdock/2013.1/src/exe/rbdock.cxx#4 $)

>  <Rbt.Library>
libRbt.so (2013.1, Build901 2013/11/27)

>  <Rbt.Parameter_File>
/export/apps/rDock/src/rDock_2013.1_src/data/scripts/dock_solv.prm

>  <Rbt.Receptor>
prm/pocket_docking_6.prm

>  <SCORE>
-39.2482

>  <SCORE.INTER>
-39.2482

>  <SCORE.INTER.CONST>
1

>  <SCORE.INTER.POLAR>
-1.92623

>  <SCORE.INTER.ROT>
0

>  <SCORE.INTER.SOLV>
9.79

>  <SCORE.INTER.VDW>
-26.608

>  <SCORE.INTER.norm>
-3.01909

>  <SCORE.INTRA>
0

>  <SCORE.INTRA.DIHEDRAL>
0

>  <SCORE.INTRA.DIHEDRAL.0>
0

>  <SCORE.INTRA.POLAR>
0

>  <SCORE.INTRA.POLAR.0>
0

>  <SCORE.INTRA.REPUL>
0

>  <SCORE.INTRA.REPUL.0>
0

>  <SCORE.INTRA.SOLV>
0

>  <SCORE.INTRA.SOLV.lig_0>
-12.9768

>  <SCORE.INTRA.VDW>
0

>  <SCORE.INTRA.VDW.0>
0

>  <SCORE.INTRA.norm>
0

>  <SCORE.RESTR>
0

>  <SCORE.RESTR.CAVITY>
0

>  <SCORE.RESTR.norm>
0

>  <SCORE.SYSTEM>
0

>  <SCORE.SYSTEM.CONST>
0

>  <SCORE.SYSTEM.DIHEDRAL>
0

>  <SCORE.SYSTEM.SOLV>
0

>  <SCORE.SYSTEM.norm>
0

>  <SCORE.heavy>
13

>  <SCORE.norm>
-3.01909

>  <RMSD>
0.715

$$$$
1eht cryst
 OpenBabel11021811383D
libRbt.so/2013.1/901 2013/11/27
 13 14  0  0  0  0  0  0  0  0999 V2000
   -4.7802   -7.8876   10.5680 C   0  0  0  0  0  0  0  0  0  0  0  0
   -5.2486   -7.0184   11.5491 N   0  0  0  0  0  0  0  0  0  0  0  0
   -5.6257   -7.5483   12.7560 C   0  0  0  0  0  0  0  0  0  0  0  0
   -5.5236   -8.7708   12.8751 O   0  0  0  0  0  0  0  0  0  0  0  0
   -6.1051   -6.8166   13.8130 N   0  0  0  0  0  0  0  0  0  0  0  0
   -6.4789   -7.3746   15.0245 C   0  0  0  0  0  0  0  0  0  0  0  0
   -6.1773   -5.4808   13.5486 C   0  0  0  0  0  0  0  0  0  0  0  0
   -5.8003   -4.9640   12.3430 C   0  0  0  0  0  0  0  0  0  0  0  0
   -5.3057   -5.6962   11.2484 C   0  0  0  0  0  0  0  0  0  0  0  0
   -4.9528   -5.2799   10.1460 O   0  0  0  0  0  0  0  0  0  0  0  0
   -6.0082   -3.5948   12.4386 N   0  0  0  0  0  0  0  0  0  0  0  0
   -6.4933   -3.3781   13.6842 C   0  0  0  0  0  0  0  0  0  0  0  0
   -6.6147   -4.4663   14.3929 N   0  0  0  0  0  0  0  0  0  0  0  0
  1  2  1  0  0  0  0
  2  9  1  0  0  0  0
  2  3  1  0  0  0  0
  3  5  1  0  0  0  0
  3  4  2  0  0  0  0
  5  6  1  0  0  0  0
  5  7  1  0  0  0  0
  7  8  2  0  0  0  0
  7 13  1  0  0  0  0
  8  9  1  0  0  0  0
  8 11  1  0  0  0  0
  9 10  2  0  0  0  0
 11 12  1  0  0  0  0
 12 13  2  0  0  0  0
M  END
>  <CHROM.1>
-5.76307604,-6.06339097,12.61865960,-0.75545262,1.20068816,-0.32944832

>  <Name>
1eht cryst

>  <RI>
0

>  <Rbt.Current_Directory>
/home/itssahil/PROJECTS/Mol_Feturizer/New_Systems/rnas/1eht

>  <Rbt.Executable>
rbdock ($Id: //depot/dev/client3/rdock/2013.1/src/exe/rbdock.cxx#4 $)

>  <Rbt.Library>
libRbt.so (2013.1, Build901 2013/11/27)

>  <Rbt.Parameter_File>
/export/apps/rDock/src/rDock_2013.1_src/data/scripts/dock_solv.prm

>  <Rbt.Receptor>
prm/blind_docking_100.prm

>  <SCORE>
-39.1885

>  <SCORE.INTER>
-39.1885

>  <SCORE.INTER.CONST>
1

>  <SCORE.INTER.POLAR>
-1.94365

>  <SCORE.INTER.ROT>
0

>  <SCORE.INTER.SOLV>
9.7856

>  <SCORE.INTER.VDW>
-26.5087

>  <SCORE.INTER.norm>
-3.0145

>  <SCORE.INTRA>
0

>  <SCORE.INTRA.DIHEDRAL>
0

>  <SCORE.INTRA.DIHEDRAL.0>
0

>  <SCORE.INTRA.POLAR>
0

>  <SCORE.INTRA.POLAR.0>
0

>  <SCORE.INTRA.REPUL>
0

>  <SCORE.INTRA.REPUL.0>
0

>  <SCORE.INTRA.SOLV>
0

>  <SCORE.INTRA.SOLV.lig_0>
-12.9768

>  <SCORE.INTRA.VDW>
0

>  <SCORE.INTRA.VDW.0>
0

>  <SCORE.INTRA.norm>
0

>  <SCORE.RESTR>
0

>  <SCORE.RESTR.CAVITY>
0

>  <SCORE.RESTR.norm>
0

>  <SCORE.SYSTEM>
0

>  <SCORE.SYSTEM.CONST>
0

>  <SCORE.SYSTEM.DIHEDRAL>
0

>  <SCORE.SYSTEM.SOLV>
0

>  <SCORE.SYSTEM.norm>
0

>  <SCORE.heavy>
13

>  <SCORE.norm>
-3.0145

>  <RMSD>
0.716

$$$$
1eht cryst
 OpenBabel11021811383D
libRbt.so/2013.1/901 2013/11/27
 13 14  0  0  0  0  0  0  0  0999 V2000
   -4.7842   -7.8861   10.5673 C   0  0  0  0  0  0  0  0  0  0  0  0
   -5.2515   -7.0171   11.5491 N   0  0  0  0  0  0  0  0  0  0  0  0
   -5.6294   -7.5475   12.7556 C   0  0  0  0  0  0  0  0  0  0  0  0
   -5.5289   -8.7702   12.8737 O   0  0  0  0  0  0  0  0  0  0  0  0
   -6.1080   -6.8160   13.8131 N   0  0  0  0  0  0  0  0  0  0  0  0
   -6.4825   -7.3746   15.0242 C   0  0  0  0  0  0  0  0  0  0  0  0
   -6.1785   -5.4799   13.5498 C   0  0  0  0  0  0  0  0  0  0  0  0
   -5.8007   -4.9627   12.3447 C   0  0  0  0  0  0  0  0  0  0  0  0
   -5.3070   -5.6946   11.2495 C   0  0  0  0  0  0  0  0  0  0  0  0
   -4.9535   -5.2778   10.1474 O   0  0  0  0  0  0  0  0  0  0  0  0
   -6.0069   -3.5932   12.4414 N   0  0  0  0  0  0  0  0  0  0  0  0
   -6.4919   -3.3770   13.6871 C   0  0  0  0  0  0  0  0  0  0  0  0
   -6.6147   -4.4656   14.3950 N   0  0  0  0  0  0  0  0  0  0  0  0
  1  2  1  0  0  0  0
  2  9  1  0  0  0  0
  2  3  1  0  0  0  0
  3  5  1  0  0  0  0
  3  4  2  0  0  0  0
  5  6  1  0  0  0  0
  5  7  1  0  0  0  0
  7  8  2  0  0  0  0
  7 13  1  0  0  0  0
  8  9  1  0  0  0  0
  8 11  1  0  0  0  0
  9 10  2  0  0  0  0
 11 12  1  0  0  0  0
 12 13  2  0  0  0  0
M  END
>  <CHROM.1>
-5.76491090,-6.06231843,12.61944278,-0.75877303,1.20102006,-0.32553980

>  <Name>
1eht cryst

>  <RI>
0

>  <Rbt.Current_Directory>
/home/itssahil/PROJECTS/Mol_Feturizer/New_Systems/rnas/1eht

>  <Rbt.Executable>
rbdock ($Id: //depot/dev/client3/rdock/2013.1/src/exe/rbdock.cxx#4 $)

>  <Rbt.Library>
libRbt.so (2013.1, Build901 2013/11/27)

>  <Rbt.Parameter_File>
/export/apps/rDock/src/rDock_2013.1_src/data/scripts/dock_solv.prm

>  <Rbt.Receptor>
prm/blind_docking_100.prm

>  <SCORE>
-39.1857

>  <SCORE.INTER>
-39.1857

>  <SCORE.INTER.CONST>
1

>  <SCORE.INTER.POLAR>
-1.94276

>  <SCORE.INTER.ROT>
0

>  <SCORE.INTER.SOLV>
9.78951

>  <SCORE.INTER.VDW>
-26.5111

>  <SCORE.INTER.norm>
-3.01429

>  <SCORE.INTRA>
0

>  <SCORE.INTRA.DIHEDRAL>
0

>  <SCORE.INTRA.DIHEDRAL.0>
0

>  <SCORE.INTRA.POLAR>
0

>  <SCORE.INTRA.POLAR.0>
0

>  <SCORE.INTRA.REPUL>
0

>  <SCORE.INTRA.REPUL.0>
0

>  <SCORE.INTRA.SOLV>
0

>  <SCORE.INTRA.SOLV.lig_0>
-12.9768

>  <SCORE.INTRA.VDW>
0

>  <SCORE.INTRA.VDW.0>
0

>  <SCORE.INTRA.norm>
0

>  <SCORE.RESTR>
0

>  <SCORE.RESTR.CAVITY>
0

>  <SCORE.RESTR.norm>
0

>  <SCORE.SYSTEM>
0

>  <SCORE.SYSTEM.CONST>
0

>  <SCORE.SYSTEM.DIHEDRAL>
0

>  <SCORE.SYSTEM.SOLV>
0

>  <SCORE.SYSTEM.norm>
0

>  <SCORE.heavy>
13

>  <SCORE.norm>
-3.01429

>  <RMSD>
0.716

$$$$
1eht cryst
 OpenBabel11021811383D
libRbt.so/2013.1/901 2013/11/27
 13 14  0  0  0  0  0  0  0  0999 V2000
   -4.8259   -7.8770   10.5548 C   0  0  0  0  0  0  0  0  0  0  0  0
   -5.2795   -7.0050   11.5403 N   0  0  0  0  0  0  0  0  0  0  0  0
   -5.6541   -7.5332   12.7488 C   0  0  0  0  0  0  0  0  0  0  0  0
   -5.5631   -8.7569   12.8652 O   0  0  0  0  0  0  0  0  0  0  0  0
   -6.1195   -6.7987   13.8100 N   0  0  0  0  0  0  0  0  0  0  0  0
   -6.4909   -7.3552   15.0230 C   0  0  0  0  0  0  0  0  0  0  0  0
   -6.1804   -5.4618   13.5484 C   0  0  0  0  0  0  0  0  0  0  0  0
   -5.8061   -4.9467   12.3412 C   0  0  0  0  0  0  0  0  0  0  0  0
   -5.3257   -5.6817   11.2423 C   0  0  0  0  0  0  0  0  0  0  0  0
   -4.9759   -5.2670   10.1382 O   0  0  0  0  0  0  0  0  0  0  0  0
   -6.0001   -3.5756   12.4404 N   0  0  0  0  0  0  0  0  0  0  0  0
   -6.4750   -3.3565   13.6895 C   0  0  0  0  0  0  0  0  0  0  0  0
   -6.6025   -4.4446   14.3972 N   0  0  0  0  0  0  0  0  0  0  0  0
  1  2  1  0  0  0  0
  2  9  1  0  0  0  0
  2  3  1  0  0  0  0
  3  5  1  0  0  0  0
  3  4  2  0  0  0  0
  5  6  1  0  0  0  0
  5  7  1  0  0  0  0
  7  8  2  0  0  0  0
  7 13  1  0  0  0  0
  8  9  1  0  0  0  0
  8 11  1  0  0  0  0
  9 10  2  0  0  0  0
 11 12  1  0  0  0  0
 12 13  2  0  0  0  0
M  END
>  <CHROM.1>
-5.77783556,-6.04684369,12.61477795,-0.77565528,1.20984088,-0.30887904

>  <Name>
1eht cryst

>  <RI>
0

>  <Rbt.Current_Directory>
/home/itssahil/PROJECTS/Mol_Feturizer/New_Systems/rnas/1eht

>  <Rbt.Executable>
rbdock ($Id: //depot/dev/client3/rdock/2013.1/src/exe/rbdock.cxx#4 $)

>  <Rbt.Library>
libRbt.so (2013.1, Build901 2013/11/27)

>  <Rbt.Parameter_File>
/export/apps/rDock/src/rDock_2013.1_src/data/scripts/dock_solv.prm

>  <Rbt.Receptor>
prm/blind_docking_40.prm

>  <SCORE>
-39.1996

>  <SCORE.INTER>
-39.1996

>  <SCORE.INTER.CONST>
1

>  <SCORE.INTER.POLAR>
-1.92989

>  <SCORE.INTER.ROT>
0

>  <SCORE.INTER.SOLV>
9.82058

>  <SCORE.INTER.VDW>
-26.5736

>  <SCORE.INTER.norm>
-3.01535

>  <SCORE.INTRA>
0

>  <SCORE.INTRA.DIHEDRAL>
0

>  <SCORE.INTRA.DIHEDRAL.0>
0

>  <SCORE.INTRA.POLAR>
0

>  <SCORE.INTRA.POLAR.0>
0

>  <SCORE.INTRA.REPUL>
0

>  <SCORE.INTRA.REPUL.0>
0

>  <SCORE.INTRA.SOLV>
0

>  <SCORE.INTRA.SOLV.lig_0>
-12.9768

>  <SCORE.INTRA.VDW>
0

>  <SCORE.INTRA.VDW.0>
0

>  <SCORE.INTRA.norm>
0

>  <SCORE.RESTR>
0

>  <SCORE.RESTR.CAVITY>
0

>  <SCORE.RESTR.norm>
0

>  <SCORE.SYSTEM>
0

>  <SCORE.SYSTEM.CONST>
0

>  <SCORE.SYSTEM.DIHEDRAL>
0

>  <SCORE.SYSTEM.SOLV>
0

>  <SCORE.SYSTEM.norm>
0

>  <SCORE.heavy>
13

>  <SCORE.norm>
-3.01535

>  <RMSD>
0.716

$$$$
1eht cryst
 OpenBabel11021811383D
libRbt.so/2013.1/901 2013/11/27
 13 14  0  0  0  0  0  0  0  0999 V2000
   -4.7812   -7.8866   10.5673 C   0  0  0  0  0  0  0  0  0  0  0  0
   -5.2483   -7.0175   11.5492 N   0  0  0  0  0  0  0  0  0  0  0  0
   -5.6247   -7.5477   12.7562 C   0  0  0  0  0  0  0  0  0  0  0  0
   -5.5231   -8.7703   12.8747 O   0  0  0  0  0  0  0  0  0  0  0  0
   -6.1029   -6.8162   13.8139 N   0  0  0  0  0  0  0  0  0  0  0  0
   -6.4759   -7.3746   15.0254 C   0  0  0  0  0  0  0  0  0  0  0  0
   -6.1747   -5.4803   13.5501 C   0  0  0  0  0  0  0  0  0  0  0  0
   -5.7984   -4.9632   12.3444 C   0  0  0  0  0  0  0  0  0  0  0  0
   -5.3051   -5.6952   11.2491 C   0  0  0  0  0  0  0  0  0  0  0  0
   -4.9530   -5.2786   10.1465 O   0  0  0  0  0  0  0  0  0  0  0  0
   -6.0056   -3.5939   12.4407 N   0  0  0  0  0  0  0  0  0  0  0  0
   -6.4895   -3.3776   13.6868 C   0  0  0  0  0  0  0  0  0  0  0  0
   -6.6109   -4.4659   14.3952 N   0  0  0  0  0  0  0  0  0  0  0  0
  1  2  1  0  0  0  0
  2  9  1  0  0  0  0
  2  3  1  0  0  0  0
  3  5  1  0  0  0  0
  3  4  2  0  0  0  0
  5  6  1  0  0  0  0
  5  7  1  0  0  0  0
  7  8  2  0  0  0  0
  7 13  1  0  0  0  0
  8  9  1  0  0  0  0
  8 11  1  0  0  0  0
  9 10  2  0  0  0  0
 11 12  1  0  0  0  0
 12 13  2  0  0  0  0
M  END
>  <CHROM.1>
-5.76148961,-6.06271989,12.61953732,-0.75594836,1.20164028,-0.32857532

>  <Name>
1eht cryst

>  <RI>
0

>  <Rbt.Current_Directory>
/home/itssahil/PROJECTS/Mol_Feturizer/New_Systems/rnas/1eht

>  <Rbt.Executable>
rbdock ($Id: //depot/dev/client3/rdock/2013.1/src/exe/rbdock.cxx#4 $)

>  <Rbt.Library>
libRbt.so (2013.1, Build901 2013/11/27)

>  <Rbt.Parameter_File>
/export/apps/rDock/src/rDock_2013.1_src/data/scripts/dock_solv.prm

>  <Rbt.Receptor>
prm/blind_docking_60.prm

>  <SCORE>
-39.1894

>  <SCORE.INTER>
-39.1894

>  <SCORE.INTER.CONST>
1

>  <SCORE.INTER.POLAR>
-1.94161

>  <SCORE.INTER.ROT>
0

>  <SCORE.INTER.SOLV>
9.78761

>  <SCORE.INTER.VDW>
-26.5168

>  <SCORE.INTER.norm>
-3.01457

>  <SCORE.INTRA>
0

>  <SCORE.INTRA.DIHEDRAL>
0

>  <SCORE.INTRA.DIHEDRAL.0>
0

>  <SCORE.INTRA.POLAR>
0

>  <SCORE.INTRA.POLAR.0>
0

>  <SCORE.INTRA.REPUL>
0

>  <SCORE.INTRA.REPUL.0>
0

>  <SCORE.INTRA.SOLV>
0

>  <SCORE.INTRA.SOLV.lig_0>
-12.9768

>  <SCORE.INTRA.VDW>
0

>  <SCORE.INTRA.VDW.0>
0

>  <SCORE.INTRA.norm>
0

>  <SCORE.RESTR>
0

>  <SCORE.RESTR.CAVITY>
0

>  <SCORE.RESTR.norm>
0

>  <SCORE.SYSTEM>
0

>  <SCORE.SYSTEM.CONST>
0

>  <SCORE.SYSTEM.DIHEDRAL>
0

>  <SCORE.SYSTEM.SOLV>
0

>  <SCORE.SYSTEM.norm>
0

>  <SCORE.heavy>
13

>  <SCORE.norm>
-3.01457

>  <RMSD>
0.716

$$$$
1eht cryst
 OpenBabel11021811383D
libRbt.so/2013.1/901 2013/11/27
 13 14  0  0  0  0  0  0  0  0999 V2000
   -4.7631   -7.8691   10.5895 C   0  0  0  0  0  0  0  0  0  0  0  0
   -5.2306   -7.0155   11.5847 N   0  0  0  0  0  0  0  0  0  0  0  0
   -5.6205   -7.5660   12.7783 C   0  0  0  0  0  0  0  0  0  0  0  0
   -5.5297   -8.7915   12.8736 O   0  0  0  0  0  0  0  0  0  0  0  0
   -6.1007   -6.8514   13.8464 N   0  0  0  0  0  0  0  0  0  0  0  0
   -6.4875   -7.4302   15.0441 C   0  0  0  0  0  0  0  0  0  0  0  0
   -6.1597   -5.5100   13.6083 C   0  0  0  0  0  0  0  0  0  0  0  0
   -5.7701   -4.9727   12.4158 C   0  0  0  0  0  0  0  0  0  0  0  0
   -5.2744   -5.6872   11.3101 C   0  0  0  0  0  0  0  0  0  0  0  0
   -4.9105   -5.2521   10.2185 O   0  0  0  0  0  0  0  0  0  0  0  0
   -5.9669   -3.6038   12.5374 N   0  0  0  0  0  0  0  0  0  0  0  0
   -6.4585   -3.4078   13.7838 C   0  0  0  0  0  0  0  0  0  0  0  0
   -6.5941   -4.5088   14.4698 N   0  0  0  0  0  0  0  0  0  0  0  0
  1  2  1  0  0  0  0
  2  9  1  0  0  0  0
  2  3  1  0  0  0  0
  3  5  1  0  0  0  0
  3  4  2  0  0  0  0
  5  6  1  0  0  0  0
  5  7  1  0  0  0  0
  7  8  2  0  0  0  0
  7 13  1  0  0  0  0
  8  9  1  0  0  0  0
  8 11  1  0  0  0  0
  9 10  2  0  0  0  0
 11 12  1  0  0  0  0
 12 13  2  0  0  0  0
M  END
>  <CHROM.1>
-5.74416564,-6.07758608,12.66967545,-0.78368838,1.19691910,-0.28319824

>  <Name>
1eht cryst

>  <RI>
0

>  <Rbt.Current_Directory>
/home/itssahil/PROJECTS/Mol_Feturizer/New_Systems/rnas/1eht

>  <Rbt.Executable>
rbdock ($Id: //depot/dev/client3/rdock/2013.1/src/exe/rbdock.cxx#4 $)

>  <Rbt.Library>
libRbt.so (2013.1, Build901 2013/11/27)

>  <Rbt.Parameter_File>
/export/apps/rDock/src/rDock_2013.1_src/data/scripts/dock_solv.prm

>  <Rbt.Receptor>
prm/blind_docking_60.prm

>  <SCORE>
-39.2693

>  <SCORE.INTER>
-39.2693

>  <SCORE.INTER.CONST>
1

>  <SCORE.INTER.POLAR>
-1.92948

>  <SCORE.INTER.ROT>
0

>  <SCORE.INTER.SOLV>
9.79548

>  <SCORE.INTER.VDW>
-26.6131

>  <SCORE.INTER.norm>
-3.02071

>  <SCORE.INTRA>
0

>  <SCORE.INTRA.DIHEDRAL>
0

>  <SCORE.INTRA.DIHEDRAL.0>
0

>  <SCORE.INTRA.POLAR>
0

>  <SCORE.INTRA.POLAR.0>
0

>  <SCORE.INTRA.REPUL>
0

>  <SCORE.INTRA.REPUL.0>
0

>  <SCORE.INTRA.SOLV>
0

>  <SCORE.INTRA.SOLV.lig_0>
-12.9768

>  <SCORE.INTRA.VDW>
0

>  <SCORE.INTRA.VDW.0>
0

>  <SCORE.INTRA.norm>
0

>  <SCORE.RESTR>
0

>  <SCORE.RESTR.CAVITY>
0

>  <SCORE.RESTR.norm>
0

>  <SCORE.SYSTEM>
0

>  <SCORE.SYSTEM.CONST>
0

>  <SCORE.SYSTEM.DIHEDRAL>
0

>  <SCORE.SYSTEM.SOLV>
0

>  <SCORE.SYSTEM.norm>
0

>  <SCORE.heavy>
13

>  <SCORE.norm>
-3.02071

>  <RMSD>
0.716

$$$$
1eht cryst
 OpenBabel11021811383D
libRbt.so/2013.1/901 2013/11/27
 13 14  0  0  0  0  0  0  0  0999 V2000
   -4.7889   -7.8864   10.5663 C   0  0  0  0  0  0  0  0  0  0  0  0
   -5.2535   -7.0172   11.5492 N   0  0  0  0  0  0  0  0  0  0  0  0
   -5.6298   -7.5476   12.7563 C   0  0  0  0  0  0  0  0  0  0  0  0
   -5.5302   -8.7705   12.8738 O   0  0  0  0  0  0  0  0  0  0  0  0
   -6.1056   -6.8160   13.8149 N   0  0  0  0  0  0  0  0  0  0  0  0
   -6.4784   -7.3746   15.0264 C   0  0  0  0  0  0  0  0  0  0  0  0
   -6.1752   -5.4797   13.5521 C   0  0  0  0  0  0  0  0  0  0  0  0
   -5.7992   -4.9625   12.3464 C   0  0  0  0  0  0  0  0  0  0  0  0
   -5.3082   -5.6946   11.2501 C   0  0  0  0  0  0  0  0  0  0  0  0
   -4.9564   -5.2779   10.1475 O   0  0  0  0  0  0  0  0  0  0  0  0
   -6.0038   -3.5929   12.4439 N   0  0  0  0  0  0  0  0  0  0  0  0
   -6.4862   -3.3765   13.6906 C   0  0  0  0  0  0  0  0  0  0  0  0
   -6.6088   -4.4652   14.3983 N   0  0  0  0  0  0  0  0  0  0  0  0
  1  2  1  0  0  0  0
  2  9  1  0  0  0  0
  2  3  1  0  0  0  0
  3  5  1  0  0  0  0
  3  4  2  0  0  0  0
  5  6  1  0  0  0  0
  5  7  1  0  0  0  0
  7  8  2  0  0  0  0
  7 13  1  0  0  0  0
  8  9  1  0  0  0  0
  8 11  1  0  0  0  0
  9 10  2  0  0  0  0
 11 12  1  0  0  0  0
 12 13  2  0  0  0  0
M  END
>  <CHROM.1>
-5.76396435,-6.06225592,12.62077347,-0.75981883,1.20311243,-0.32426950

>  <Name>
1eht cryst

>  <RI>
0

>  <Rbt.Current_Directory>
/home/itssahil/PROJECTS/Mol_Feturizer/New_Systems/rnas/1eht

>  <Rbt.Executable>
rbdock ($Id: //depot/dev/client3/rdock/2013.1/src/exe/rbdock.cxx#4 $)

>  <Rbt.Library>
libRbt.so (2013.1, Build901 2013/11/27)

>  <Rbt.Parameter_File>
/export/apps/rDock/src/rDock_2013.1_src/data/scripts/dock_solv.prm

>  <Rbt.Receptor>
prm/pocket_docking_2.prm

>  <SCORE>
-39.185

>  <SCORE.INTER>
-39.185

>  <SCORE.INTER.CONST>
1

>  <SCORE.INTER.POLAR>
-1.9397

>  <SCORE.INTER.ROT>
0

>  <SCORE.INTER.SOLV>
9.78952

>  <SCORE.INTER.VDW>
-26.5209

>  <SCORE.INTER.norm>
-3.01423

>  <SCORE.INTRA>
0

>  <SCORE.INTRA.DIHEDRAL>
0

>  <SCORE.INTRA.DIHEDRAL.0>
0

>  <SCORE.INTRA.POLAR>
0

>  <SCORE.INTRA.POLAR.0>
0

>  <SCORE.INTRA.REPUL>
0

>  <SCORE.INTRA.REPUL.0>
0

>  <SCORE.INTRA.SOLV>
0

>  <SCORE.INTRA.SOLV.lig_0>
-12.9768

>  <SCORE.INTRA.VDW>
0

>  <SCORE.INTRA.VDW.0>
0

>  <SCORE.INTRA.norm>
0

>  <SCORE.RESTR>
0

>  <SCORE.RESTR.CAVITY>
0

>  <SCORE.RESTR.norm>
0

>  <SCORE.SYSTEM>
0

>  <SCORE.SYSTEM.CONST>
0

>  <SCORE.SYSTEM.DIHEDRAL>
0

>  <SCORE.SYSTEM.SOLV>
0

>  <SCORE.SYSTEM.norm>
0

>  <SCORE.heavy>
13

>  <SCORE.norm>
-3.01423

>  <RMSD>
0.716

$$$$
1eht cryst
 OpenBabel11021811383D
libRbt.so/2013.1/901 2013/11/27
 13 14  0  0  0  0  0  0  0  0999 V2000
   -4.7685   -7.8733   10.5873 C   0  0  0  0  0  0  0  0  0  0  0  0
   -5.2344   -7.0188   11.5824 N   0  0  0  0  0  0  0  0  0  0  0  0
   -5.6249   -7.5684   12.7762 C   0  0  0  0  0  0  0  0  0  0  0  0
   -5.5361   -8.7941   12.8717 O   0  0  0  0  0  0  0  0  0  0  0  0
   -6.1036   -6.8528   13.8444 N   0  0  0  0  0  0  0  0  0  0  0  0
   -6.4910   -7.4307   15.0422 C   0  0  0  0  0  0  0  0  0  0  0  0
   -6.1603   -5.5113   13.6060 C   0  0  0  0  0  0  0  0  0  0  0  0
   -5.7701   -4.9749   12.4133 C   0  0  0  0  0  0  0  0  0  0  0  0
   -5.2759   -5.6904   11.3076 C   0  0  0  0  0  0  0  0  0  0  0  0
   -4.9116   -5.2562   10.2159 O   0  0  0  0  0  0  0  0  0  0  0  0
   -5.9645   -3.6057   12.5347 N   0  0  0  0  0  0  0  0  0  0  0  0
   -6.4555   -3.4086   13.7812 C   0  0  0  0  0  0  0  0  0  0  0  0
   -6.5928   -4.5092   14.4675 N   0  0  0  0  0  0  0  0  0  0  0  0
  1  2  1  0  0  0  0
  2  9  1  0  0  0  0
  2  3  1  0  0  0  0
  3  5  1  0  0  0  0
  3  4  2  0  0  0  0
  5  6  1  0  0  0  0
  5  7  1  0  0  0  0
  7  8  2  0  0  0  0
  7 13  1  0  0  0  0
  8  9  1  0  0  0  0
  8 11  1  0  0  0  0
  9 10  2  0  0  0  0
 11 12  1  0  0  0  0
 12 13  2  0  0  0  0
M  END
>  <CHROM.1>
-5.74600916,-6.07978194,12.66738335,-0.78797463,1.19763867,-0.27939347

>  <Name>
1eht cryst

>  <RI>
0

>  <Rbt.Current_Directory>
/home/itssahil/PROJECTS/Mol_Feturizer/New_Systems/rnas/1eht

>  <Rbt.Executable>
rbdock ($Id: //depot/dev/client3/rdock/2013.1/src/exe/rbdock.cxx#4 $)

>  <Rbt.Library>
libRbt.so (2013.1, Build901 2013/11/27)

>  <Rbt.Parameter_File>
/export/apps/rDock/src/rDock_2013.1_src/data/scripts/dock_solv.prm

>  <Rbt.Receptor>
prm/pocket_docking_2.prm

>  <SCORE>
-39.2639

>  <SCORE.INTER>
-39.2639

>  <SCORE.INTER.CONST>
1

>  <SCORE.INTER.POLAR>
-1.92998

>  <SCORE.INTER.ROT>
0

>  <SCORE.INTER.SOLV>
9.79236

>  <SCORE.INTER.VDW>
-26.6068

>  <SCORE.INTER.norm>
-3.0203

>  <SCORE.INTRA>
0

>  <SCORE.INTRA.DIHEDRAL>
0

>  <SCORE.INTRA.DIHEDRAL.0>
0

>  <SCORE.INTRA.POLAR>
0

>  <SCORE.INTRA.POLAR.0>
0

>  <SCORE.INTRA.REPUL>
0

>  <SCORE.INTRA.REPUL.0>
0

>  <SCORE.INTRA.SOLV>
0

>  <SCORE.INTRA.SOLV.lig_0>
-12.9768

>  <SCORE.INTRA.VDW>
0

>  <SCORE.INTRA.VDW.0>
0

>  <SCORE.INTRA.norm>
0

>  <SCORE.RESTR>
0

>  <SCORE.RESTR.CAVITY>
0

>  <SCORE.RESTR.norm>
0

>  <SCORE.SYSTEM>
0

>  <SCORE.SYSTEM.CONST>
0

>  <SCORE.SYSTEM.DIHEDRAL>
0

>  <SCORE.SYSTEM.SOLV>
0

>  <SCORE.SYSTEM.norm>
0

>  <SCORE.heavy>
13

>  <SCORE.norm>
-3.0203

>  <RMSD>
0.716

$$$$
1eht cryst
 OpenBabel11021811383D
libRbt.so/2013.1/901 2013/11/27
 13 14  0  0  0  0  0  0  0  0999 V2000
   -4.7668   -7.8706   10.5876 C   0  0  0  0  0  0  0  0  0  0  0  0
   -5.2318   -7.0165   11.5836 N   0  0  0  0  0  0  0  0  0  0  0  0
   -5.6184   -7.5663   12.7785 C   0  0  0  0  0  0  0  0  0  0  0  0
   -5.5271   -8.7918   12.8744 O   0  0  0  0  0  0  0  0  0  0  0  0
   -6.0958   -6.8511   13.8476 N   0  0  0  0  0  0  0  0  0  0  0  0
   -6.4792   -7.4292   15.0466 C   0  0  0  0  0  0  0  0  0  0  0  0
   -6.1556   -5.5099   13.6088 C   0  0  0  0  0  0  0  0  0  0  0  0
   -5.7693   -4.9732   12.4148 C   0  0  0  0  0  0  0  0  0  0  0  0
   -5.2765   -5.6883   11.3083 C   0  0  0  0  0  0  0  0  0  0  0  0
   -4.9157   -5.2539   10.2154 O   0  0  0  0  0  0  0  0  0  0  0  0
   -5.9660   -3.6043   12.5361 N   0  0  0  0  0  0  0  0  0  0  0  0
   -6.4543   -3.4076   13.7837 C   0  0  0  0  0  0  0  0  0  0  0  0
   -6.5878   -4.5082   14.4708 N   0  0  0  0  0  0  0  0  0  0  0  0
  1  2  1  0  0  0  0
  2  9  1  0  0  0  0
  2  3  1  0  0  0  0
  3  5  1  0  0  0  0
  3  4  2  0  0  0  0
  5  6  1  0  0  0  0
  5  7  1  0  0  0  0
  7  8  2  0  0  0  0
  7 13  1  0  0  0  0
  8  9  1  0  0  0  0
  8 11  1  0  0  0  0
  9 10  2  0  0  0  0
 11 12  1  0  0  0  0
 12 13  2  0  0  0  0
M  END
>  <CHROM.1>
-5.74254802,-6.07796135,12.66935971,-0.78118971,1.19946867,-0.28614661

>  <Name>
1eht cryst

>  <RI>
0

>  <Rbt.Current_Directory>
/home/itssahil/PROJECTS/Mol_Feturizer/New_Systems/rnas/1eht

>  <Rbt.Executable>
rbdock ($Id: //depot/dev/client3/rdock/2013.1/src/exe/rbdock.cxx#4 $)

>  <Rbt.Library>
libRbt.so (2013.1, Build901 2013/11/27)

>  <Rbt.Parameter_File>
/export/apps/rDock/src/rDock_2013.1_src/data/scripts/dock_solv.prm

>  <Rbt.Receptor>
prm/pocket_docking_3.prm

>  <SCORE>
-39.2588

>  <SCORE.INTER>
-39.2588

>  <SCORE.INTER.CONST>
1

>  <SCORE.INTER.POLAR>
-1.92637

>  <SCORE.INTER.ROT>
0

>  <SCORE.INTER.SOLV>
9.79155

>  <SCORE.INTER.VDW>
-26.6152

>  <SCORE.INTER.norm>
-3.01991

>  <SCORE.INTRA>
0

>  <SCORE.INTRA.DIHEDRAL>
0

>  <SCORE.INTRA.DIHEDRAL.0>
0

>  <SCORE.INTRA.POLAR>
0

>  <SCORE.INTRA.POLAR.0>
0

>  <SCORE.INTRA.REPUL>
0

>  <SCORE.INTRA.REPUL.0>
0

>  <SCORE.INTRA.SOLV>
0

>  <SCORE.INTRA.SOLV.lig_0>
-12.9768

>  <SCORE.INTRA.VDW>
0

>  <SCORE.INTRA.VDW.0>
0

>  <SCORE.INTRA.norm>
0

>  <SCORE.RESTR>
0

>  <SCORE.RESTR.CAVITY>
0

>  <SCORE.RESTR.norm>
0

>  <SCORE.SYSTEM>
0

>  <SCORE.SYSTEM.CONST>
0

>  <SCORE.SYSTEM.DIHEDRAL>
0

>  <SCORE.SYSTEM.SOLV>
0

>  <SCORE.SYSTEM.norm>
0

>  <SCORE.heavy>
13

>  <SCORE.norm>
-3.01991

>  <RMSD>
0.716

$$$$
1eht cryst
 OpenBabel11021811383D
libRbt.so/2013.1/901 2013/11/27
 13 14  0  0  0  0  0  0  0  0999 V2000
   -4.7836   -7.8860   10.5667 C   0  0  0  0  0  0  0  0  0  0  0  0
   -5.2490   -7.0170   11.5494 N   0  0  0  0  0  0  0  0  0  0  0  0
   -5.6234   -7.5472   12.7570 C   0  0  0  0  0  0  0  0  0  0  0  0
   -5.5217   -8.7698   12.8753 O   0  0  0  0  0  0  0  0  0  0  0  0
   -6.0997   -6.8157   13.8155 N   0  0  0  0  0  0  0  0  0  0  0  0
   -6.4707   -7.3740   15.0277 C   0  0  0  0  0  0  0  0  0  0  0  0
   -6.1718   -5.4797   13.5519 C   0  0  0  0  0  0  0  0  0  0  0  0
   -5.7975   -4.9627   12.3455 C   0  0  0  0  0  0  0  0  0  0  0  0
   -5.3061   -5.6946   11.2494 C   0  0  0  0  0  0  0  0  0  0  0  0
   -4.9557   -5.2781   10.1462 O   0  0  0  0  0  0  0  0  0  0  0  0
   -6.0044   -3.5933   12.4423 N   0  0  0  0  0  0  0  0  0  0  0  0
   -6.4862   -3.3770   13.6891 C   0  0  0  0  0  0  0  0  0  0  0  0
   -6.6065   -4.4653   14.3977 N   0  0  0  0  0  0  0  0  0  0  0  0
  1  2  1  0  0  0  0
  2  9  1  0  0  0  0
  2  3  1  0  0  0  0
  3  5  1  0  0  0  0
  3  4  2  0  0  0  0
  5  6  1  0  0  0  0
  5  7  1  0  0  0  0
  7  8  2  0  0  0  0
  7 13  1  0  0  0  0
  8  9  1  0  0  0  0
  8 11  1  0  0  0  0
  9 10  2  0  0  0  0
 11 12  1  0  0  0  0
 12 13  2  0  0  0  0
M  END
>  <CHROM.1>
-5.76022970,-6.06215341,12.62062991,-0.75472417,1.20324623,-0.32969136

>  <Name>
1eht cryst

>  <RI>
0

>  <Rbt.Current_Directory>
/home/itssahil/PROJECTS/Mol_Feturizer/New_Systems/rnas/1eht

>  <Rbt.Executable>
rbdock ($Id: //depot/dev/client3/rdock/2013.1/src/exe/rbdock.cxx#4 $)

>  <Rbt.Library>
libRbt.so (2013.1, Build901 2013/11/27)

>  <Rbt.Parameter_File>
/export/apps/rDock/src/rDock_2013.1_src/data/scripts/dock_solv.prm

>  <Rbt.Receptor>
prm/pocket_docking_4.prm

>  <SCORE>
-39.1887

>  <SCORE.INTER>
-39.1887

>  <SCORE.INTER.CONST>
1

>  <SCORE.INTER.POLAR>
-1.93921

>  <SCORE.INTER.ROT>
0

>  <SCORE.INTER.SOLV>
9.78751

>  <SCORE.INTER.VDW>
-26.5243

>  <SCORE.INTER.norm>
-3.01452

>  <SCORE.INTRA>
0

>  <SCORE.INTRA.DIHEDRAL>
0

>  <SCORE.INTRA.DIHEDRAL.0>
0

>  <SCORE.INTRA.POLAR>
0

>  <SCORE.INTRA.POLAR.0>
0

>  <SCORE.INTRA.REPUL>
0

>  <SCORE.INTRA.REPUL.0>
0

>  <SCORE.INTRA.SOLV>
0

>  <SCORE.INTRA.SOLV.lig_0>
-12.9768

>  <SCORE.INTRA.VDW>
0

>  <SCORE.INTRA.VDW.0>
0

>  <SCORE.INTRA.norm>
0

>  <SCORE.RESTR>
0

>  <SCORE.RESTR.CAVITY>
0

>  <SCORE.RESTR.norm>
0

>  <SCORE.SYSTEM>
0

>  <SCORE.SYSTEM.CONST>
0

>  <SCORE.SYSTEM.DIHEDRAL>
0

>  <SCORE.SYSTEM.SOLV>
0

>  <SCORE.SYSTEM.norm>
0

>  <SCORE.heavy>
13

>  <SCORE.norm>
-3.01452

>  <RMSD>
0.716

$$$$
1eht cryst
 OpenBabel11021811383D
libRbt.so/2013.1/901 2013/11/27
 13 14  0  0  0  0  0  0  0  0999 V2000
   -4.7711   -7.8703   10.5875 C   0  0  0  0  0  0  0  0  0  0  0  0
   -5.2360   -7.0163   11.5834 N   0  0  0  0  0  0  0  0  0  0  0  0
   -5.6246   -7.5663   12.7776 C   0  0  0  0  0  0  0  0  0  0  0  0
   -5.5351   -8.7920   12.8727 O   0  0  0  0  0  0  0  0  0  0  0  0
   -6.1023   -6.8512   13.8466 N   0  0  0  0  0  0  0  0  0  0  0  0
   -6.4878   -7.4296   15.0448 C   0  0  0  0  0  0  0  0  0  0  0  0
   -6.1600   -5.5097   13.6087 C   0  0  0  0  0  0  0  0  0  0  0  0
   -5.7717   -4.9728   12.4155 C   0  0  0  0  0  0  0  0  0  0  0  0
   -5.2786   -5.6878   11.3090 C   0  0  0  0  0  0  0  0  0  0  0  0
   -4.9160   -5.2531   10.2169 O   0  0  0  0  0  0  0  0  0  0  0  0
   -5.9666   -3.6037   12.5375 N   0  0  0  0  0  0  0  0  0  0  0  0
   -6.4560   -3.4072   13.7847 C   0  0  0  0  0  0  0  0  0  0  0  0
   -6.5918   -4.5080   14.4709 N   0  0  0  0  0  0  0  0  0  0  0  0
  1  2  1  0  0  0  0
  2  9  1  0  0  0  0
  2  3  1  0  0  0  0
  3  5  1  0  0  0  0
  3  4  2  0  0  0  0
  5  6  1  0  0  0  0
  5  7  1  0  0  0  0
  7  8  2  0  0  0  0
  7 13  1  0  0  0  0
  8  9  1  0  0  0  0
  8 11  1  0  0  0  0
  9 10  2  0  0  0  0
 11 12  1  0  0  0  0
 12 13  2  0  0  0  0
M  END
>  <CHROM.1>
-5.74667772,-6.07773553,12.66932067,-0.78560138,1.19880361,-0.28136434

>  <Name>
1eht cryst

>  <RI>
0

>  <Rbt.Current_Directory>
/home/itssahil/PROJECTS/Mol_Feturizer/New_Systems/rnas/1eht

>  <Rbt.Executable>
rbdock ($Id: //depot/dev/client3/rdock/2013.1/src/exe/rbdock.cxx#4 $)

>  <Rbt.Library>
libRbt.so (2013.1, Build901 2013/11/27)

>  <Rbt.Parameter_File>
/export/apps/rDock/src/rDock_2013.1_src/data/scripts/dock_solv.prm

>  <Rbt.Receptor>
prm/pocket_docking_6.prm

>  <SCORE>
-39.2637

>  <SCORE.INTER>
-39.2637

>  <SCORE.INTER.CONST>
1

>  <SCORE.INTER.POLAR>
-1.92806

>  <SCORE.INTER.ROT>
0

>  <SCORE.INTER.SOLV>
9.79423

>  <SCORE.INTER.VDW>
-26.6137

>  <SCORE.INTER.norm>
-3.02029

>  <SCORE.INTRA>
0

>  <SCORE.INTRA.DIHEDRAL>
0

>  <SCORE.INTRA.DIHEDRAL.0>
0

>  <SCORE.INTRA.POLAR>
0

>  <SCORE.INTRA.POLAR.0>
0

>  <SCORE.INTRA.REPUL>
0

>  <SCORE.INTRA.REPUL.0>
0

>  <SCORE.INTRA.SOLV>
0

>  <SCORE.INTRA.SOLV.lig_0>
-12.9768

>  <SCORE.INTRA.VDW>
0

>  <SCORE.INTRA.VDW.0>
0

>  <SCORE.INTRA.norm>
0

>  <SCORE.RESTR>
0

>  <SCORE.RESTR.CAVITY>
0

>  <SCORE.RESTR.norm>
0

>  <SCORE.SYSTEM>
0

>  <SCORE.SYSTEM.CONST>
0

>  <SCORE.SYSTEM.DIHEDRAL>
0

>  <SCORE.SYSTEM.SOLV>
0

>  <SCORE.SYSTEM.norm>
0

>  <SCORE.heavy>
13

>  <SCORE.norm>
-3.02029

>  <RMSD>
0.716

$$$$
1eht cryst
 OpenBabel11021811383D
libRbt.so/2013.1/901 2013/11/27
 13 14  0  0  0  0  0  0  0  0999 V2000
   -4.8287   -7.8783   10.5551 C   0  0  0  0  0  0  0  0  0  0  0  0
   -5.2802   -7.0057   11.5410 N   0  0  0  0  0  0  0  0  0  0  0  0
   -5.6525   -7.5331   12.7505 C   0  0  0  0  0  0  0  0  0  0  0  0
   -5.5616   -8.7568   12.8674 O   0  0  0  0  0  0  0  0  0  0  0  0
   -6.1157   -6.7980   13.8123 N   0  0  0  0  0  0  0  0  0  0  0  0
   -6.4849   -7.3537   15.0263 C   0  0  0  0  0  0  0  0  0  0  0  0
   -6.1769   -5.4612   13.5499 C   0  0  0  0  0  0  0  0  0  0  0  0
   -5.8048   -4.9468   12.3417 C   0  0  0  0  0  0  0  0  0  0  0  0
   -5.3267   -5.6826   11.2423 C   0  0  0  0  0  0  0  0  0  0  0  0
   -4.9790   -5.2686   10.1374 O   0  0  0  0  0  0  0  0  0  0  0  0
   -5.9983   -3.5757   12.4406 N   0  0  0  0  0  0  0  0  0  0  0  0
   -6.4708   -3.3557   13.6904 C   0  0  0  0  0  0  0  0  0  0  0  0
   -6.5971   -4.4434   14.3990 N   0  0  0  0  0  0  0  0  0  0  0  0
  1  2  1  0  0  0  0
  2  9  1  0  0  0  0
  2  3  1  0  0  0  0
  3  5  1  0  0  0  0
  3  4  2  0  0  0  0
  5  6  1  0  0  0  0
  5  7  1  0  0  0  0
  7  8  2  0  0  0  0
  7 13  1  0  0  0  0
  8  9  1  0  0  0  0
  8 11  1  0  0  0  0
  9 10  2  0  0  0  0
 11 12  1  0  0  0  0
 12 13  2  0  0  0  0
M  END
>  <CHROM.1>
-5.77622756,-6.04683953,12.61590957,-0.77451306,1.21176421,-0.31052137

>  <Name>
1eht cryst

>  <RI>
0

>  <Rbt.Current_Directory>
/home/itssahil/PROJECTS/Mol_Feturizer/New_Systems/rnas/1eht

>  <Rbt.Executable>
rbdock ($Id: //depot/dev/client3/rdock/2013.1/src/exe/rbdock.cxx#4 $)

>  <Rbt.Library>
libRbt.so (2013.1, Build901 2013/11/27)

>  <Rbt.Parameter_File>
/export/apps/rDock/src/rDock_2013.1_src/data/scripts/dock_solv.prm

>  <Rbt.Receptor>
prm/pocket_docking_6.prm

>  <SCORE>
-39.1985

>  <SCORE.INTER>
-39.1985

>  <SCORE.INTER.CONST>
1

>  <SCORE.INTER.POLAR>
-1.92718

>  <SCORE.INTER.ROT>
0

>  <SCORE.INTER.SOLV>
9.81854

>  <SCORE.INTER.VDW>
-26.5813

>  <SCORE.INTER.norm>
-3.01527

>  <SCORE.INTRA>
0

>  <SCORE.INTRA.DIHEDRAL>
0

>  <SCORE.INTRA.DIHEDRAL.0>
0

>  <SCORE.INTRA.POLAR>
0

>  <SCORE.INTRA.POLAR.0>
0

>  <SCORE.INTRA.REPUL>
0

>  <SCORE.INTRA.REPUL.0>
0

>  <SCORE.INTRA.SOLV>
0

>  <SCORE.INTRA.SOLV.lig_0>
-12.9768

>  <SCORE.INTRA.VDW>
0

>  <SCORE.INTRA.VDW.0>
0

>  <SCORE.INTRA.norm>
0

>  <SCORE.RESTR>
0

>  <SCORE.RESTR.CAVITY>
0

>  <SCORE.RESTR.norm>
0

>  <SCORE.SYSTEM>
0

>  <SCORE.SYSTEM.CONST>
0

>  <SCORE.SYSTEM.DIHEDRAL>
0

>  <SCORE.SYSTEM.SOLV>
0

>  <SCORE.SYSTEM.norm>
0

>  <SCORE.heavy>
13

>  <SCORE.norm>
-3.01527

>  <RMSD>
0.716

$$$$
1eht cryst
 OpenBabel11021811383D
libRbt.so/2013.1/901 2013/11/27
 13 14  0  0  0  0  0  0  0  0999 V2000
   -4.7821   -7.8867   10.5665 C   0  0  0  0  0  0  0  0  0  0  0  0
   -5.2488   -7.0177   11.5485 N   0  0  0  0  0  0  0  0  0  0  0  0
   -5.6247   -7.5478   12.7557 C   0  0  0  0  0  0  0  0  0  0  0  0
   -5.5230   -8.7704   12.8742 O   0  0  0  0  0  0  0  0  0  0  0  0
   -6.1024   -6.8163   13.8136 N   0  0  0  0  0  0  0  0  0  0  0  0
   -6.4749   -7.3747   15.0253 C   0  0  0  0  0  0  0  0  0  0  0  0
   -6.1743   -5.4804   13.5498 C   0  0  0  0  0  0  0  0  0  0  0  0
   -5.7985   -4.9633   12.3439 C   0  0  0  0  0  0  0  0  0  0  0  0
   -5.3057   -5.6953   11.2484 C   0  0  0  0  0  0  0  0  0  0  0  0
   -4.9540   -5.2788   10.1457 O   0  0  0  0  0  0  0  0  0  0  0  0
   -6.0057   -3.5940   12.4403 N   0  0  0  0  0  0  0  0  0  0  0  0
   -6.4891   -3.3776   13.6865 C   0  0  0  0  0  0  0  0  0  0  0  0
   -6.6101   -4.4660   14.3950 N   0  0  0  0  0  0  0  0  0  0  0  0
  1  2  1  0  0  0  0
  2  9  1  0  0  0  0
  2  3  1  0  0  0  0
  3  5  1  0  0  0  0
  3  4  2  0  0  0  0
  5  6  1  0  0  0  0
  5  7  1  0  0  0  0
  7  8  2  0  0  0  0
  7 13  1  0  0  0  0
  8  9  1  0  0  0  0
  8 11  1  0  0  0  0
  9 10  2  0  0  0  0
 11 12  1  0  0  0  0
 12 13  2  0  0  0  0
M  END
>  <CHROM.1>
-5.76150150,-6.06282692,12.61908354,-0.75557921,1.20202847,-0.32894811

>  <Name>
1eht cryst

>  <RI>
0

>  <Rbt.Current_Directory>
/home/itssahil/PROJECTS/Mol_Feturizer/New_Systems/rnas/1eht

>  <Rbt.Executable>
rbdock ($Id: //depot/dev/client3/rdock/2013.1/src/exe/rbdock.cxx#4 $)

>  <Rbt.Library>
libRbt.so (2013.1, Build901 2013/11/27)

>  <Rbt.Parameter_File>
/export/apps/rDock/src/rDock_2013.1_src/data/scripts/dock_solv.prm

>  <Rbt.Receptor>
prm/pocket_docking_6.prm

>  <SCORE>
-39.1889

>  <SCORE.INTER>
-39.1889

>  <SCORE.INTER.CONST>
1

>  <SCORE.INTER.POLAR>
-1.94145

>  <SCORE.INTER.ROT>
0

>  <SCORE.INTER.SOLV>
9.78698

>  <SCORE.INTER.VDW>
-26.5168

>  <SCORE.INTER.norm>
-3.01453

>  <SCORE.INTRA>
0

>  <SCORE.INTRA.DIHEDRAL>
0

>  <SCORE.INTRA.DIHEDRAL.0>
0

>  <SCORE.INTRA.POLAR>
0

>  <SCORE.INTRA.POLAR.0>
0

>  <SCORE.INTRA.REPUL>
0

>  <SCORE.INTRA.REPUL.0>
0

>  <SCORE.INTRA.SOLV>
0

>  <SCORE.INTRA.SOLV.lig_0>
-12.9768

>  <SCORE.INTRA.VDW>
0

>  <SCORE.INTRA.VDW.0>
0

>  <SCORE.INTRA.norm>
0

>  <SCORE.RESTR>
0

>  <SCORE.RESTR.CAVITY>
0

>  <SCORE.RESTR.norm>
0

>  <SCORE.SYSTEM>
0

>  <SCORE.SYSTEM.CONST>
0

>  <SCORE.SYSTEM.DIHEDRAL>
0

>  <SCORE.SYSTEM.SOLV>
0

>  <SCORE.SYSTEM.norm>
0

>  <SCORE.heavy>
13

>  <SCORE.norm>
-3.01453

>  <RMSD>
0.716

$$$$
1eht cryst
 OpenBabel11021811383D
libRbt.so/2013.1/901 2013/11/27
 13 14  0  0  0  0  0  0  0  0999 V2000
   -4.7642   -7.8703   10.5891 C   0  0  0  0  0  0  0  0  0  0  0  0
   -5.2315   -7.0166   11.5842 N   0  0  0  0  0  0  0  0  0  0  0  0
   -5.6220   -7.5669   12.7776 C   0  0  0  0  0  0  0  0  0  0  0  0
   -5.5319   -8.7925   12.8728 O   0  0  0  0  0  0  0  0  0  0  0  0
   -6.1022   -6.8521   13.8457 N   0  0  0  0  0  0  0  0  0  0  0  0
   -6.4896   -7.4308   15.0432 C   0  0  0  0  0  0  0  0  0  0  0  0
   -6.1603   -5.5107   13.6077 C   0  0  0  0  0  0  0  0  0  0  0  0
   -5.7700   -4.9735   12.4153 C   0  0  0  0  0  0  0  0  0  0  0  0
   -5.2744   -5.6882   11.3097 C   0  0  0  0  0  0  0  0  0  0  0  0
   -4.9099   -5.2532   10.2182 O   0  0  0  0  0  0  0  0  0  0  0  0
   -5.9660   -3.6045   12.5369 N   0  0  0  0  0  0  0  0  0  0  0  0
   -6.4579   -3.4083   13.7832 C   0  0  0  0  0  0  0  0  0  0  0  0
   -6.5943   -4.5092   14.4691 N   0  0  0  0  0  0  0  0  0  0  0  0
  1  2  1  0  0  0  0
  2  9  1  0  0  0  0
  2  3  1  0  0  0  0
  3  5  1  0  0  0  0
  3  4  2  0  0  0  0
  5  6  1  0  0  0  0
  5  7  1  0  0  0  0
  7  8  2  0  0  0  0
  7 13  1  0  0  0  0
  8  9  1  0  0  0  0
  8 11  1  0  0  0  0
  9 10  2  0  0  0  0
 11 12  1  0  0  0  0
 12 13  2  0  0  0  0
M  END
>  <CHROM.1>
-5.74478899,-6.07841463,12.66909262,-0.78541569,1.19679819,-0.28151776

>  <Name>
1eht cryst

>  <RI>
224

>  <Rbt.Current_Directory>
/home/itssahil/PROJECTS/Mol_Feturizer/New_Systems/rnas/1eht

>  <Rbt.Executable>
rbdock ($Id: //depot/dev/client3/rdock/2013.1/src/exe/rbdock.cxx#4 $)

>  <Rbt.Library>
libRbt.so (2013.1, Build901 2013/11/27)

>  <Rbt.Parameter_File>
/export/apps/rDock/src/rDock_2013.1_src/data/scripts/dock_solv.prm

>  <Rbt.Receptor>
prm/pocket_docking_7.prm

>  <SCORE>
-39.2683

>  <SCORE.INTER>
-39.2683

>  <SCORE.INTER.CONST>
1

>  <SCORE.INTER.POLAR>
-1.92993

>  <SCORE.INTER.ROT>
0

>  <SCORE.INTER.SOLV>
9.7948

>  <SCORE.INTER.VDW>
-26.6107

>  <SCORE.INTER.norm>
-3.02064

>  <SCORE.INTRA>
0

>  <SCORE.INTRA.DIHEDRAL>
0

>  <SCORE.INTRA.DIHEDRAL.0>
0

>  <SCORE.INTRA.POLAR>
0

>  <SCORE.INTRA.POLAR.0>
0

>  <SCORE.INTRA.REPUL>
0

>  <SCORE.INTRA.REPUL.0>
0

>  <SCORE.INTRA.SOLV>
0

>  <SCORE.INTRA.SOLV.lig_0>
-12.9768

>  <SCORE.INTRA.VDW>
0

>  <SCORE.INTRA.VDW.0>
0

>  <SCORE.INTRA.norm>
0

>  <SCORE.RESTR>
0

>  <SCORE.RESTR.CAVITY>
0

>  <SCORE.RESTR.norm>
0

>  <SCORE.SYSTEM>
0

>  <SCORE.SYSTEM.CONST>
0

>  <SCORE.SYSTEM.DIHEDRAL>
0

>  <SCORE.SYSTEM.SOLV>
0

>  <SCORE.SYSTEM.norm>
0

>  <SCORE.heavy>
13

>  <SCORE.norm>
-3.02064

>  <RMSD>
0.716

$$$$
1eht cryst
 OpenBabel11021811383D
libRbt.so/2013.1/901 2013/11/27
 13 14  0  0  0  0  0  0  0  0999 V2000
   -4.7925   -7.8856   10.5665 C   0  0  0  0  0  0  0  0  0  0  0  0
   -5.2557   -7.0165   11.5502 N   0  0  0  0  0  0  0  0  0  0  0  0
   -5.6312   -7.5471   12.7573 C   0  0  0  0  0  0  0  0  0  0  0  0
   -5.5324   -8.7701   12.8743 O   0  0  0  0  0  0  0  0  0  0  0  0
   -6.1057   -6.8156   13.8167 N   0  0  0  0  0  0  0  0  0  0  0  0
   -6.4778   -7.3744   15.0283 C   0  0  0  0  0  0  0  0  0  0  0  0
   -6.1747   -5.4792   13.5545 C   0  0  0  0  0  0  0  0  0  0  0  0
   -5.7993   -4.9618   12.3486 C   0  0  0  0  0  0  0  0  0  0  0  0
   -5.3098   -5.6937   11.2517 C   0  0  0  0  0  0  0  0  0  0  0  0
   -4.9587   -5.2768   10.1489 O   0  0  0  0  0  0  0  0  0  0  0  0
   -6.0030   -3.5920   12.4469 N   0  0  0  0  0  0  0  0  0  0  0  0
   -6.4842   -3.3759   13.6941 C   0  0  0  0  0  0  0  0  0  0  0  0
   -6.6069   -4.4648   14.4015 N   0  0  0  0  0  0  0  0  0  0  0  0
  1  2  1  0  0  0  0
  2  9  1  0  0  0  0
  2  3  1  0  0  0  0
  3  5  1  0  0  0  0
  3  4  2  0  0  0  0
  5  6  1  0  0  0  0
  5  7  1  0  0  0  0
  7  8  2  0  0  0  0
  7 13  1  0  0  0  0
  8  9  1  0  0  0  0
  8 11  1  0  0  0  0
  9 10  2  0  0  0  0
 11 12  1  0  0  0  0
 12 13  2  0  0  0  0
M  END
>  <CHROM.1>
-5.76461156,-6.06163905,12.62256996,-0.76072711,1.20413445,-0.32302378

>  <Name>
1eht cryst

>  <RI>
224

>  <Rbt.Current_Directory>
/home/itssahil/PROJECTS/Mol_Feturizer/New_Systems/rnas/1eht

>  <Rbt.Executable>
rbdock ($Id: //depot/dev/client3/rdock/2013.1/src/exe/rbdock.cxx#4 $)

>  <Rbt.Library>
libRbt.so (2013.1, Build901 2013/11/27)

>  <Rbt.Parameter_File>
/export/apps/rDock/src/rDock_2013.1_src/data/scripts/dock_solv.prm

>  <Rbt.Receptor>
prm/pocket_docking_7.prm

>  <SCORE>
-39.1844

>  <SCORE.INTER>
-39.1844

>  <SCORE.INTER.CONST>
1

>  <SCORE.INTER.POLAR>
-1.93795

>  <SCORE.INTER.ROT>
0

>  <SCORE.INTER.SOLV>
9.7906

>  <SCORE.INTER.VDW>
-26.5267

>  <SCORE.INTER.norm>
-3.01419

>  <SCORE.INTRA>
0

>  <SCORE.INTRA.DIHEDRAL>
0

>  <SCORE.INTRA.DIHEDRAL.0>
0

>  <SCORE.INTRA.POLAR>
0

>  <SCORE.INTRA.POLAR.0>
0

>  <SCORE.INTRA.REPUL>
0

>  <SCORE.INTRA.REPUL.0>
0

>  <SCORE.INTRA.SOLV>
0

>  <SCORE.INTRA.SOLV.lig_0>
-12.9768

>  <SCORE.INTRA.VDW>
0

>  <SCORE.INTRA.VDW.0>
0

>  <SCORE.INTRA.norm>
0

>  <SCORE.RESTR>
0

>  <SCORE.RESTR.CAVITY>
0

>  <SCORE.RESTR.norm>
0

>  <SCORE.SYSTEM>
0

>  <SCORE.SYSTEM.CONST>
0

>  <SCORE.SYSTEM.DIHEDRAL>
0

>  <SCORE.SYSTEM.SOLV>
0

>  <SCORE.SYSTEM.norm>
0

>  <SCORE.heavy>
13

>  <SCORE.norm>
-3.01419

>  <RMSD>
0.716

$$$$
1eht cryst
 OpenBabel11021811383D
libRbt.so/2013.1/901 2013/11/27
 13 14  0  0  0  0  0  0  0  0999 V2000
   -4.7898   -7.8899   10.5658 C   0  0  0  0  0  0  0  0  0  0  0  0
   -5.2567   -7.0201   11.5471 N   0  0  0  0  0  0  0  0  0  0  0  0
   -5.6348   -7.5496   12.7539 C   0  0  0  0  0  0  0  0  0  0  0  0
   -5.5348   -8.7723   12.8727 O   0  0  0  0  0  0  0  0  0  0  0  0
   -6.1129   -6.8173   13.8111 N   0  0  0  0  0  0  0  0  0  0  0  0
   -6.4876   -7.3750   15.0225 C   0  0  0  0  0  0  0  0  0  0  0  0
   -6.1828   -5.4813   13.5470 C   0  0  0  0  0  0  0  0  0  0  0  0
   -5.8048   -4.9649   12.3415 C   0  0  0  0  0  0  0  0  0  0  0  0
   -5.3115   -5.6977   11.2468 C   0  0  0  0  0  0  0  0  0  0  0  0
   -4.9580   -5.2818   10.1444 O   0  0  0  0  0  0  0  0  0  0  0  0
   -6.0104   -3.5953   12.4374 N   0  0  0  0  0  0  0  0  0  0  0  0
   -6.4951   -3.3782   13.6831 C   0  0  0  0  0  0  0  0  0  0  0  0
   -6.6184   -4.4663   14.3916 N   0  0  0  0  0  0  0  0  0  0  0  0
  1  2  1  0  0  0  0
  2  9  1  0  0  0  0
  2  3  1  0  0  0  0
  3  5  1  0  0  0  0
  3  4  2  0  0  0  0
  5  6  1  0  0  0  0
  5  7  1  0  0  0  0
  7  8  2  0  0  0  0
  7 13  1  0  0  0  0
  8  9  1  0  0  0  0
  8 11  1  0  0  0  0
  9 10  2  0  0  0  0
 11 12  1  0  0  0  0
 12 13  2  0  0  0  0
M  END
>  <CHROM.1>
-5.76953066,-6.06443650,12.61690293,-0.75998032,1.20125905,-0.32499336

>  <Name>
1eht cryst

>  <RI>
0

>  <Rbt.Current_Directory>
/home/itssahil/PROJECTS/Mol_Feturizer/New_Systems/rnas/1eht

>  <Rbt.Executable>
rbdock ($Id: //depot/dev/client3/rdock/2013.1/src/exe/rbdock.cxx#4 $)

>  <Rbt.Library>
libRbt.so (2013.1, Build901 2013/11/27)

>  <Rbt.Parameter_File>
/export/apps/rDock/src/rDock_2013.1_src/data/scripts/dock_solv.prm

>  <Rbt.Receptor>
prm/blind_docking_100.prm

>  <SCORE>
-39.1762

>  <SCORE.INTER>
-39.1762

>  <SCORE.INTER.CONST>
1

>  <SCORE.INTER.POLAR>
-1.94522

>  <SCORE.INTER.ROT>
0

>  <SCORE.INTER.SOLV>
9.78367

>  <SCORE.INTER.VDW>
-26.4946

>  <SCORE.INTER.norm>
-3.01355

>  <SCORE.INTRA>
0

>  <SCORE.INTRA.DIHEDRAL>
0

>  <SCORE.INTRA.DIHEDRAL.0>
0

>  <SCORE.INTRA.POLAR>
0

>  <SCORE.INTRA.POLAR.0>
0

>  <SCORE.INTRA.REPUL>
0

>  <SCORE.INTRA.REPUL.0>
0

>  <SCORE.INTRA.SOLV>
0

>  <SCORE.INTRA.SOLV.lig_0>
-12.9768

>  <SCORE.INTRA.VDW>
0

>  <SCORE.INTRA.VDW.0>
0

>  <SCORE.INTRA.norm>
0

>  <SCORE.RESTR>
0

>  <SCORE.RESTR.CAVITY>
0

>  <SCORE.RESTR.norm>
0

>  <SCORE.SYSTEM>
0

>  <SCORE.SYSTEM.CONST>
0

>  <SCORE.SYSTEM.DIHEDRAL>
0

>  <SCORE.SYSTEM.SOLV>
0

>  <SCORE.SYSTEM.norm>
0

>  <SCORE.heavy>
13

>  <SCORE.norm>
-3.01355

>  <RMSD>
0.717

$$$$
1eht cryst
 OpenBabel11021811383D
libRbt.so/2013.1/901 2013/11/27
 13 14  0  0  0  0  0  0  0  0999 V2000
   -4.7648   -7.8673   10.5899 C   0  0  0  0  0  0  0  0  0  0  0  0
   -5.2317   -7.0144   11.5859 N   0  0  0  0  0  0  0  0  0  0  0  0
   -5.6226   -7.5657   12.7788 C   0  0  0  0  0  0  0  0  0  0  0  0
   -5.5331   -8.7914   12.8728 O   0  0  0  0  0  0  0  0  0  0  0  0
   -6.1024   -6.8517   13.8476 N   0  0  0  0  0  0  0  0  0  0  0  0
   -6.4901   -7.4314   15.0445 C   0  0  0  0  0  0  0  0  0  0  0  0
   -6.1599   -5.5100   13.6109 C   0  0  0  0  0  0  0  0  0  0  0  0
   -5.7693   -4.9718   12.4191 C   0  0  0  0  0  0  0  0  0  0  0  0
   -5.2740   -5.6856   11.3128 C   0  0  0  0  0  0  0  0  0  0  0  0
   -4.9093   -5.2498   10.2218 O   0  0  0  0  0  0  0  0  0  0  0  0
   -5.9647   -3.6029   12.5421 N   0  0  0  0  0  0  0  0  0  0  0  0
   -6.4565   -3.4077   13.7885 C   0  0  0  0  0  0  0  0  0  0  0  0
   -6.5934   -4.5093   14.4734 N   0  0  0  0  0  0  0  0  0  0  0  0
  1  2  1  0  0  0  0
  2  9  1  0  0  0  0
  2  3  1  0  0  0  0
  3  5  1  0  0  0  0
  3  4  2  0  0  0  0
  5  6  1  0  0  0  0
  5  7  1  0  0  0  0
  7  8  2  0  0  0  0
  7 13  1  0  0  0  0
  8  9  1  0  0  0  0
  8 11  1  0  0  0  0
  9 10  2  0  0  0  0
 11 12  1  0  0  0  0
 12 13  2  0  0  0  0
M  END
>  <CHROM.1>
-5.74462216,-6.07703632,12.67176844,-0.78669443,1.19690214,-0.27931549

>  <Name>
1eht cryst

>  <RI>
0

>  <Rbt.Current_Directory>
/home/itssahil/PROJECTS/Mol_Feturizer/New_Systems/rnas/1eht

>  <Rbt.Executable>
rbdock ($Id: //depot/dev/client3/rdock/2013.1/src/exe/rbdock.cxx#4 $)

>  <Rbt.Library>
libRbt.so (2013.1, Build901 2013/11/27)

>  <Rbt.Parameter_File>
/export/apps/rDock/src/rDock_2013.1_src/data/scripts/dock_solv.prm

>  <Rbt.Receptor>
prm/blind_docking_20.prm

>  <SCORE>
-39.2381

>  <SCORE.INTER>
-39.2381

>  <SCORE.INTER.CONST>
1

>  <SCORE.INTER.POLAR>
-1.92833

>  <SCORE.INTER.ROT>
0

>  <SCORE.INTER.SOLV>
9.79943

>  <SCORE.INTER.VDW>
-26.5975

>  <SCORE.INTER.norm>
-3.01832

>  <SCORE.INTRA>
0

>  <SCORE.INTRA.DIHEDRAL>
0

>  <SCORE.INTRA.DIHEDRAL.0>
0

>  <SCORE.INTRA.POLAR>
0

>  <SCORE.INTRA.POLAR.0>
0

>  <SCORE.INTRA.REPUL>
0

>  <SCORE.INTRA.REPUL.0>
0

>  <SCORE.INTRA.SOLV>
0

>  <SCORE.INTRA.SOLV.lig_0>
-12.9768

>  <SCORE.INTRA.VDW>
0

>  <SCORE.INTRA.VDW.0>
0

>  <SCORE.INTRA.norm>
0

>  <SCORE.RESTR>
0

>  <SCORE.RESTR.CAVITY>
0

>  <SCORE.RESTR.norm>
0

>  <SCORE.SYSTEM>
0

>  <SCORE.SYSTEM.CONST>
0

>  <SCORE.SYSTEM.DIHEDRAL>
0

>  <SCORE.SYSTEM.SOLV>
0

>  <SCORE.SYSTEM.norm>
0

>  <SCORE.heavy>
13

>  <SCORE.norm>
-3.01832

>  <RMSD>
0.717

$$$$
1eht cryst
 OpenBabel11021811383D
libRbt.so/2013.1/901 2013/11/27
 13 14  0  0  0  0  0  0  0  0999 V2000
   -4.7622   -7.8696   10.5898 C   0  0  0  0  0  0  0  0  0  0  0  0
   -5.2296   -7.0159   11.5849 N   0  0  0  0  0  0  0  0  0  0  0  0
   -5.6190   -7.5661   12.7787 C   0  0  0  0  0  0  0  0  0  0  0  0
   -5.5279   -8.7916   12.8744 O   0  0  0  0  0  0  0  0  0  0  0  0
   -6.0990   -6.8512   13.8468 N   0  0  0  0  0  0  0  0  0  0  0  0
   -6.4853   -7.4298   15.0448 C   0  0  0  0  0  0  0  0  0  0  0  0
   -6.1584   -5.5099   13.6083 C   0  0  0  0  0  0  0  0  0  0  0  0
   -5.7692   -4.9729   12.4155 C   0  0  0  0  0  0  0  0  0  0  0  0
   -5.2737   -5.6876   11.3099 C   0  0  0  0  0  0  0  0  0  0  0  0
   -4.9103   -5.2528   10.2181 O   0  0  0  0  0  0  0  0  0  0  0  0
   -5.9663   -3.6040   12.5367 N   0  0  0  0  0  0  0  0  0  0  0  0
   -6.4576   -3.4078   13.7832 C   0  0  0  0  0  0  0  0  0  0  0  0
   -6.5927   -4.5085   14.4697 N   0  0  0  0  0  0  0  0  0  0  0  0
  1  2  1  0  0  0  0
  2  9  1  0  0  0  0
  2  3  1  0  0  0  0
  3  5  1  0  0  0  0
  3  4  2  0  0  0  0
  5  6  1  0  0  0  0
  5  7  1  0  0  0  0
  7  8  2  0  0  0  0
  7 13  1  0  0  0  0
  8  9  1  0  0  0  0
  8 11  1  0  0  0  0
  9 10  2  0  0  0  0
 11 12  1  0  0  0  0
 12 13  2  0  0  0  0
M  END
>  <CHROM.1>
-5.74298846,-6.07771354,12.66972562,-0.78286840,1.19714933,-0.28427059

>  <Name>
1eht cryst

>  <RI>
0

>  <Rbt.Current_Directory>
/home/itssahil/PROJECTS/Mol_Feturizer/New_Systems/rnas/1eht

>  <Rbt.Executable>
rbdock ($Id: //depot/dev/client3/rdock/2013.1/src/exe/rbdock.cxx#4 $)

>  <Rbt.Library>
libRbt.so (2013.1, Build901 2013/11/27)

>  <Rbt.Parameter_File>
/export/apps/rDock/src/rDock_2013.1_src/data/scripts/dock_solv.prm

>  <Rbt.Receptor>
prm/pocket_docking_2.prm

>  <SCORE>
-39.2676

>  <SCORE.INTER>
-39.2676

>  <SCORE.INTER.CONST>
1

>  <SCORE.INTER.POLAR>
-1.92898

>  <SCORE.INTER.ROT>
0

>  <SCORE.INTER.SOLV>
9.79479

>  <SCORE.INTER.VDW>
-26.6134

>  <SCORE.INTER.norm>
-3.02059

>  <SCORE.INTRA>
0

>  <SCORE.INTRA.DIHEDRAL>
0

>  <SCORE.INTRA.DIHEDRAL.0>
0

>  <SCORE.INTRA.POLAR>
0

>  <SCORE.INTRA.POLAR.0>
0

>  <SCORE.INTRA.REPUL>
0

>  <SCORE.INTRA.REPUL.0>
0

>  <SCORE.INTRA.SOLV>
0

>  <SCORE.INTRA.SOLV.lig_0>
-12.9768

>  <SCORE.INTRA.VDW>
0

>  <SCORE.INTRA.VDW.0>
0

>  <SCORE.INTRA.norm>
0

>  <SCORE.RESTR>
0

>  <SCORE.RESTR.CAVITY>
0

>  <SCORE.RESTR.norm>
0

>  <SCORE.SYSTEM>
0

>  <SCORE.SYSTEM.CONST>
0

>  <SCORE.SYSTEM.DIHEDRAL>
0

>  <SCORE.SYSTEM.SOLV>
0

>  <SCORE.SYSTEM.norm>
0

>  <SCORE.heavy>
13

>  <SCORE.norm>
-3.02059

>  <RMSD>
0.717

$$$$
1eht cryst
 OpenBabel11021811383D
libRbt.so/2013.1/901 2013/11/27
 13 14  0  0  0  0  0  0  0  0999 V2000
   -4.7816   -7.8815   10.5831 C   0  0  0  0  0  0  0  0  0  0  0  0
   -5.2460   -7.0233   11.5758 N   0  0  0  0  0  0  0  0  0  0  0  0
   -5.6314   -7.5682   12.7734 C   0  0  0  0  0  0  0  0  0  0  0  0
   -5.5397   -8.7932   12.8743 O   0  0  0  0  0  0  0  0  0  0  0  0
   -6.1081   -6.8486   13.8398 N   0  0  0  0  0  0  0  0  0  0  0  0
   -6.4904   -7.4218   15.0416 C   0  0  0  0  0  0  0  0  0  0  0  0
   -6.1685   -5.5084   13.5955 C   0  0  0  0  0  0  0  0  0  0  0  0
   -5.7833   -4.9767   12.3990 C   0  0  0  0  0  0  0  0  0  0  0  0
   -5.2912   -5.6963   11.2950 C   0  0  0  0  0  0  0  0  0  0  0  0
   -4.9314   -5.2663   10.2000 O   0  0  0  0  0  0  0  0  0  0  0  0
   -5.9803   -3.6073   12.5146 N   0  0  0  0  0  0  0  0  0  0  0  0
   -6.4676   -3.4055   13.7618 C   0  0  0  0  0  0  0  0  0  0  0  0
   -6.6002   -4.5032   14.4537 N   0  0  0  0  0  0  0  0  0  0  0  0
  1  2  1  0  0  0  0
  2  9  1  0  0  0  0
  2  3  1  0  0  0  0
  3  5  1  0  0  0  0
  3  4  2  0  0  0  0
  5  6  1  0  0  0  0
  5  7  1  0  0  0  0
  7  8  2  0  0  0  0
  7 13  1  0  0  0  0
  8  9  1  0  0  0  0
  8 11  1  0  0  0  0
  9 10  2  0  0  0  0
 11 12  1  0  0  0  0
 12 13  2  0  0  0  0
M  END
>  <CHROM.1>
-5.75606113,-6.08032452,12.65808811,-0.77983745,1.20019742,-0.29161386

>  <Name>
1eht cryst

>  <RI>
0

>  <Rbt.Current_Directory>
/home/itssahil/PROJECTS/Mol_Feturizer/New_Systems/rnas/1eht

>  <Rbt.Executable>
rbdock ($Id: //depot/dev/client3/rdock/2013.1/src/exe/rbdock.cxx#4 $)

>  <Rbt.Library>
libRbt.so (2013.1, Build901 2013/11/27)

>  <Rbt.Parameter_File>
/export/apps/rDock/src/rDock_2013.1_src/data/scripts/dock_solv.prm

>  <Rbt.Receptor>
prm/pocket_docking_3.prm

>  <SCORE>
-39.1594

>  <SCORE.INTER>
-39.1594

>  <SCORE.INTER.CONST>
1

>  <SCORE.INTER.POLAR>
-1.93448

>  <SCORE.INTER.ROT>
0

>  <SCORE.INTER.SOLV>
9.77584

>  <SCORE.INTER.VDW>
-26.5166

>  <SCORE.INTER.norm>
-3.01226

>  <SCORE.INTRA>
0

>  <SCORE.INTRA.DIHEDRAL>
0

>  <SCORE.INTRA.DIHEDRAL.0>
0

>  <SCORE.INTRA.POLAR>
0

>  <SCORE.INTRA.POLAR.0>
0

>  <SCORE.INTRA.REPUL>
0

>  <SCORE.INTRA.REPUL.0>
0

>  <SCORE.INTRA.SOLV>
0

>  <SCORE.INTRA.SOLV.lig_0>
-12.9768

>  <SCORE.INTRA.VDW>
0

>  <SCORE.INTRA.VDW.0>
0

>  <SCORE.INTRA.norm>
0

>  <SCORE.RESTR>
0

>  <SCORE.RESTR.CAVITY>
0

>  <SCORE.RESTR.norm>
0

>  <SCORE.SYSTEM>
0

>  <SCORE.SYSTEM.CONST>
0

>  <SCORE.SYSTEM.DIHEDRAL>
0

>  <SCORE.SYSTEM.SOLV>
0

>  <SCORE.SYSTEM.norm>
0

>  <SCORE.heavy>
13

>  <SCORE.norm>
-3.01226

>  <RMSD>
0.717

$$$$
1eht cryst
 OpenBabel11021811383D
libRbt.so/2013.1/901 2013/11/27
 13 14  0  0  0  0  0  0  0  0999 V2000
   -4.7727   -7.8717   10.5876 C   0  0  0  0  0  0  0  0  0  0  0  0
   -5.2375   -7.0171   11.5831 N   0  0  0  0  0  0  0  0  0  0  0  0
   -5.6278   -7.5666   12.7770 C   0  0  0  0  0  0  0  0  0  0  0  0
   -5.5398   -8.7924   12.8722 O   0  0  0  0  0  0  0  0  0  0  0  0
   -6.1057   -6.8509   13.8455 N   0  0  0  0  0  0  0  0  0  0  0  0
   -6.4929   -7.4289   15.0434 C   0  0  0  0  0  0  0  0  0  0  0  0
   -6.1617   -5.5094   13.6074 C   0  0  0  0  0  0  0  0  0  0  0  0
   -5.7717   -4.9730   12.4146 C   0  0  0  0  0  0  0  0  0  0  0  0
   -5.2784   -5.6886   11.3086 C   0  0  0  0  0  0  0  0  0  0  0  0
   -4.9143   -5.2543   10.2167 O   0  0  0  0  0  0  0  0  0  0  0  0
   -5.9653   -3.6036   12.5363 N   0  0  0  0  0  0  0  0  0  0  0  0
   -6.4556   -3.4066   13.7831 C   0  0  0  0  0  0  0  0  0  0  0  0
   -6.5932   -4.5072   14.4692 N   0  0  0  0  0  0  0  0  0  0  0  0
  1  2  1  0  0  0  0
  2  9  1  0  0  0  0
  2  3  1  0  0  0  0
  3  5  1  0  0  0  0
  3  4  2  0  0  0  0
  5  6  1  0  0  0  0
  5  7  1  0  0  0  0
  7  8  2  0  0  0  0
  7 13  1  0  0  0  0
  8  9  1  0  0  0  0
  8 11  1  0  0  0  0
  9 10  2  0  0  0  0
 11 12  1  0  0  0  0
 12 13  2  0  0  0  0
M  END
>  <CHROM.1>
-5.74814307,-6.07792574,12.66846121,-0.78918224,1.19822926,-0.27807542

>  <Name>
1eht cryst

>  <RI>
0

>  <Rbt.Current_Directory>
/home/itssahil/PROJECTS/Mol_Feturizer/New_Systems/rnas/1eht

>  <Rbt.Executable>
rbdock ($Id: //depot/dev/client3/rdock/2013.1/src/exe/rbdock.cxx#4 $)

>  <Rbt.Library>
libRbt.so (2013.1, Build901 2013/11/27)

>  <Rbt.Parameter_File>
/export/apps/rDock/src/rDock_2013.1_src/data/scripts/dock_solv.prm

>  <Rbt.Receptor>
prm/pocket_docking_4.prm

>  <SCORE>
-39.2602

>  <SCORE.INTER>
-39.2602

>  <SCORE.INTER.CONST>
1

>  <SCORE.INTER.POLAR>
-1.92877

>  <SCORE.INTER.ROT>
0

>  <SCORE.INTER.SOLV>
9.79591

>  <SCORE.INTER.VDW>
-26.6096

>  <SCORE.INTER.norm>
-3.02002

>  <SCORE.INTRA>
0

>  <SCORE.INTRA.DIHEDRAL>
0

>  <SCORE.INTRA.DIHEDRAL.0>
0

>  <SCORE.INTRA.POLAR>
0

>  <SCORE.INTRA.POLAR.0>
0

>  <SCORE.INTRA.REPUL>
0

>  <SCORE.INTRA.REPUL.0>
0

>  <SCORE.INTRA.SOLV>
0

>  <SCORE.INTRA.SOLV.lig_0>
-12.9768

>  <SCORE.INTRA.VDW>
0

>  <SCORE.INTRA.VDW.0>
0

>  <SCORE.INTRA.norm>
0

>  <SCORE.RESTR>
0

>  <SCORE.RESTR.CAVITY>
0

>  <SCORE.RESTR.norm>
0

>  <SCORE.SYSTEM>
0

>  <SCORE.SYSTEM.CONST>
0

>  <SCORE.SYSTEM.DIHEDRAL>
0

>  <SCORE.SYSTEM.SOLV>
0

>  <SCORE.SYSTEM.norm>
0

>  <SCORE.heavy>
13

>  <SCORE.norm>
-3.02002

>  <RMSD>
0.717

$$$$
1eht cryst
 OpenBabel11021811383D
libRbt.so/2013.1/901 2013/11/27
 13 14  0  0  0  0  0  0  0  0999 V2000
   -4.7803   -7.8879   10.5683 C   0  0  0  0  0  0  0  0  0  0  0  0
   -5.2480   -7.0184   11.5496 N   0  0  0  0  0  0  0  0  0  0  0  0
   -5.6243   -7.5480   12.7569 C   0  0  0  0  0  0  0  0  0  0  0  0
   -5.5220   -8.7705   12.8762 O   0  0  0  0  0  0  0  0  0  0  0  0
   -6.1030   -6.8161   13.8140 N   0  0  0  0  0  0  0  0  0  0  0  0
   -6.4759   -7.3739   15.0259 C   0  0  0  0  0  0  0  0  0  0  0  0
   -6.1756   -5.4804   13.5493 C   0  0  0  0  0  0  0  0  0  0  0  0
   -5.7994   -4.9639   12.3433 C   0  0  0  0  0  0  0  0  0  0  0  0
   -5.3055   -5.6963   11.2486 C   0  0  0  0  0  0  0  0  0  0  0  0
   -4.9535   -5.2803   10.1458 O   0  0  0  0  0  0  0  0  0  0  0  0
   -6.0073   -3.5946   12.4387 N   0  0  0  0  0  0  0  0  0  0  0  0
   -6.4916   -3.3777   13.6846 C   0  0  0  0  0  0  0  0  0  0  0  0
   -6.6124   -4.4657   14.3937 N   0  0  0  0  0  0  0  0  0  0  0  0
  1  2  1  0  0  0  0
  2  9  1  0  0  0  0
  2  3  1  0  0  0  0
  3  5  1  0  0  0  0
  3  4  2  0  0  0  0
  5  6  1  0  0  0  0
  5  7  1  0  0  0  0
  7  8  2  0  0  0  0
  7 13  1  0  0  0  0
  8  9  1  0  0  0  0
  8 11  1  0  0  0  0
  9 10  2  0  0  0  0
 11 12  1  0  0  0  0
 12 13  2  0  0  0  0
M  END
>  <CHROM.1>
-5.76188316,-6.06319808,12.61924288,-0.75457991,1.20132384,-0.33052569

>  <Name>
1eht cryst

>  <RI>
0

>  <Rbt.Current_Directory>
/home/itssahil/PROJECTS/Mol_Feturizer/New_Systems/rnas/1eht

>  <Rbt.Executable>
rbdock ($Id: //depot/dev/client3/rdock/2013.1/src/exe/rbdock.cxx#4 $)

>  <Rbt.Library>
libRbt.so (2013.1, Build901 2013/11/27)

>  <Rbt.Parameter_File>
/export/apps/rDock/src/rDock_2013.1_src/data/scripts/dock_solv.prm

>  <Rbt.Receptor>
prm/pocket_docking_5.prm

>  <SCORE>
-39.1889

>  <SCORE.INTER>
-39.1889

>  <SCORE.INTER.CONST>
1

>  <SCORE.INTER.POLAR>
-1.94246

>  <SCORE.INTER.ROT>
0

>  <SCORE.INTER.SOLV>
9.78511

>  <SCORE.INTER.VDW>
-26.5127

>  <SCORE.INTER.norm>
-3.01453

>  <SCORE.INTRA>
0

>  <SCORE.INTRA.DIHEDRAL>
0

>  <SCORE.INTRA.DIHEDRAL.0>
0

>  <SCORE.INTRA.POLAR>
0

>  <SCORE.INTRA.POLAR.0>
0

>  <SCORE.INTRA.REPUL>
0

>  <SCORE.INTRA.REPUL.0>
0

>  <SCORE.INTRA.SOLV>
0

>  <SCORE.INTRA.SOLV.lig_0>
-12.9768

>  <SCORE.INTRA.VDW>
0

>  <SCORE.INTRA.VDW.0>
0

>  <SCORE.INTRA.norm>
0

>  <SCORE.RESTR>
0

>  <SCORE.RESTR.CAVITY>
0

>  <SCORE.RESTR.norm>
0

>  <SCORE.SYSTEM>
0

>  <SCORE.SYSTEM.CONST>
0

>  <SCORE.SYSTEM.DIHEDRAL>
0

>  <SCORE.SYSTEM.SOLV>
0

>  <SCORE.SYSTEM.norm>
0

>  <SCORE.heavy>
13

>  <SCORE.norm>
-3.01453

>  <RMSD>
0.717

$$$$
1eht cryst
 OpenBabel11021811383D
libRbt.so/2013.1/901 2013/11/27
 13 14  0  0  0  0  0  0  0  0999 V2000
   -4.7624   -7.8698   10.5906 C   0  0  0  0  0  0  0  0  0  0  0  0
   -5.2303   -7.0160   11.5854 N   0  0  0  0  0  0  0  0  0  0  0  0
   -5.6207   -7.5661   12.7789 C   0  0  0  0  0  0  0  0  0  0  0  0
   -5.5300   -8.7916   12.8746 O   0  0  0  0  0  0  0  0  0  0  0  0
   -6.1013   -6.8512   13.8468 N   0  0  0  0  0  0  0  0  0  0  0  0
   -6.4886   -7.4297   15.0444 C   0  0  0  0  0  0  0  0  0  0  0  0
   -6.1601   -5.5099   13.6083 C   0  0  0  0  0  0  0  0  0  0  0  0
   -5.7699   -4.9729   12.4158 C   0  0  0  0  0  0  0  0  0  0  0  0
   -5.2738   -5.6877   11.3105 C   0  0  0  0  0  0  0  0  0  0  0  0
   -4.9094   -5.2529   10.2190 O   0  0  0  0  0  0  0  0  0  0  0  0
   -5.9667   -3.6039   12.5370 N   0  0  0  0  0  0  0  0  0  0  0  0
   -6.4588   -3.4077   13.7831 C   0  0  0  0  0  0  0  0  0  0  0  0
   -6.5947   -4.5084   14.4694 N   0  0  0  0  0  0  0  0  0  0  0  0
  1  2  1  0  0  0  0
  2  9  1  0  0  0  0
  2  3  1  0  0  0  0
  3  5  1  0  0  0  0
  3  4  2  0  0  0  0
  5  6  1  0  0  0  0
  5  7  1  0  0  0  0
  7  8  2  0  0  0  0
  7 13  1  0  0  0  0
  8  9  1  0  0  0  0
  8 11  1  0  0  0  0
  9 10  2  0  0  0  0
 11 12  1  0  0  0  0
 12 13  2  0  0  0  0
M  END
>  <CHROM.1>
-5.74418180,-6.07771080,12.66995238,-0.78417872,1.19653037,-0.28297673

>  <Name>
1eht cryst

>  <RI>
224

>  <Rbt.Current_Directory>
/home/itssahil/PROJECTS/Mol_Feturizer/New_Systems/rnas/1eht

>  <Rbt.Executable>
rbdock ($Id: //depot/dev/client3/rdock/2013.1/src/exe/rbdock.cxx#4 $)

>  <Rbt.Library>
libRbt.so (2013.1, Build901 2013/11/27)

>  <Rbt.Parameter_File>
/export/apps/rDock/src/rDock_2013.1_src/data/scripts/dock_solv.prm

>  <Rbt.Receptor>
prm/pocket_docking_7.prm

>  <SCORE>
-39.2691

>  <SCORE.INTER>
-39.2691

>  <SCORE.INTER.CONST>
1

>  <SCORE.INTER.POLAR>
-1.92971

>  <SCORE.INTER.ROT>
0

>  <SCORE.INTER.SOLV>
9.79569

>  <SCORE.INTER.VDW>
-26.6122

>  <SCORE.INTER.norm>
-3.0207

>  <SCORE.INTRA>
0

>  <SCORE.INTRA.DIHEDRAL>
0

>  <SCORE.INTRA.DIHEDRAL.0>
0

>  <SCORE.INTRA.POLAR>
0

>  <SCORE.INTRA.POLAR.0>
0

>  <SCORE.INTRA.REPUL>
0

>  <SCORE.INTRA.REPUL.0>
0

>  <SCORE.INTRA.SOLV>
0

>  <SCORE.INTRA.SOLV.lig_0>
-12.9768

>  <SCORE.INTRA.VDW>
0

>  <SCORE.INTRA.VDW.0>
0

>  <SCORE.INTRA.norm>
0

>  <SCORE.RESTR>
0

>  <SCORE.RESTR.CAVITY>
0

>  <SCORE.RESTR.norm>
0

>  <SCORE.SYSTEM>
0

>  <SCORE.SYSTEM.CONST>
0

>  <SCORE.SYSTEM.DIHEDRAL>
0

>  <SCORE.SYSTEM.SOLV>
0

>  <SCORE.SYSTEM.norm>
0

>  <SCORE.heavy>
13

>  <SCORE.norm>
-3.0207

>  <RMSD>
0.717

$$$$
1eht cryst
 OpenBabel11021811383D
libRbt.so/2013.1/901 2013/11/27
 13 14  0  0  0  0  0  0  0  0999 V2000
   -4.7619   -7.8700   10.5897 C   0  0  0  0  0  0  0  0  0  0  0  0
   -5.2297   -7.0163   11.5846 N   0  0  0  0  0  0  0  0  0  0  0  0
   -5.6197   -7.5666   12.7782 C   0  0  0  0  0  0  0  0  0  0  0  0
   -5.5288   -8.7920   12.8739 O   0  0  0  0  0  0  0  0  0  0  0  0
   -6.1002   -6.8517   13.8462 N   0  0  0  0  0  0  0  0  0  0  0  0
   -6.4870   -7.4303   15.0439 C   0  0  0  0  0  0  0  0  0  0  0  0
   -6.1593   -5.5104   13.6077 C   0  0  0  0  0  0  0  0  0  0  0  0
   -5.7695   -4.9733   12.4151 C   0  0  0  0  0  0  0  0  0  0  0  0
   -5.2736   -5.6880   11.3097 C   0  0  0  0  0  0  0  0  0  0  0  0
   -4.9096   -5.2532   10.2181 O   0  0  0  0  0  0  0  0  0  0  0  0
   -5.9665   -3.6045   12.5363 N   0  0  0  0  0  0  0  0  0  0  0  0
   -6.4584   -3.4082   13.7826 C   0  0  0  0  0  0  0  0  0  0  0  0
   -6.5939   -4.5090   14.4689 N   0  0  0  0  0  0  0  0  0  0  0  0
  1  2  1  0  0  0  0
  2  9  1  0  0  0  0
  2  3  1  0  0  0  0
  3  5  1  0  0  0  0
  3  4  2  0  0  0  0
  5  6  1  0  0  0  0
  5  7  1  0  0  0  0
  7  8  2  0  0  0  0
  7 13  1  0  0  0  0
  8  9  1  0  0  0  0
  8 11  1  0  0  0  0
  9 10  2  0  0  0  0
 11 12  1  0  0  0  0
 12 13  2  0  0  0  0
M  END
>  <CHROM.1>
-5.74354656,-6.07816963,12.66928047,-0.78345655,1.19673177,-0.28365267

>  <Name>
1eht cryst

>  <RI>
224

>  <Rbt.Current_Directory>
/home/itssahil/PROJECTS/Mol_Feturizer/New_Systems/rnas/1eht

>  <Rbt.Executable>
rbdock ($Id: //depot/dev/client3/rdock/2013.1/src/exe/rbdock.cxx#4 $)

>  <Rbt.Library>
libRbt.so (2013.1, Build901 2013/11/27)

>  <Rbt.Parameter_File>
/export/apps/rDock/src/rDock_2013.1_src/data/scripts/dock_solv.prm

>  <Rbt.Receptor>
prm/pocket_docking_7.prm

>  <SCORE>
-39.2688

>  <SCORE.INTER>
-39.2688

>  <SCORE.INTER.CONST>
1

>  <SCORE.INTER.POLAR>
-1.92967

>  <SCORE.INTER.ROT>
0

>  <SCORE.INTER.SOLV>
9.79431

>  <SCORE.INTER.VDW>
-26.6118

>  <SCORE.INTER.norm>
-3.02068

>  <SCORE.INTRA>
0

>  <SCORE.INTRA.DIHEDRAL>
0

>  <SCORE.INTRA.DIHEDRAL.0>
0

>  <SCORE.INTRA.POLAR>
0

>  <SCORE.INTRA.POLAR.0>
0

>  <SCORE.INTRA.REPUL>
0

>  <SCORE.INTRA.REPUL.0>
0

>  <SCORE.INTRA.SOLV>
0

>  <SCORE.INTRA.SOLV.lig_0>
-12.9768

>  <SCORE.INTRA.VDW>
0

>  <SCORE.INTRA.VDW.0>
0

>  <SCORE.INTRA.norm>
0

>  <SCORE.RESTR>
0

>  <SCORE.RESTR.CAVITY>
0

>  <SCORE.RESTR.norm>
0

>  <SCORE.SYSTEM>
0

>  <SCORE.SYSTEM.CONST>
0

>  <SCORE.SYSTEM.DIHEDRAL>
0

>  <SCORE.SYSTEM.SOLV>
0

>  <SCORE.SYSTEM.norm>
0

>  <SCORE.heavy>
13

>  <SCORE.norm>
-3.02068

>  <RMSD>
0.717

$$$$
1eht cryst
 OpenBabel11021811383D
libRbt.so/2013.1/901 2013/11/27
 13 14  0  0  0  0  0  0  0  0999 V2000
   -4.7742   -7.9051   10.5731 C   0  0  0  0  0  0  0  0  0  0  0  0
   -5.2466   -7.0366   11.5530 N   0  0  0  0  0  0  0  0  0  0  0  0
   -5.6234   -7.5667   12.7599 C   0  0  0  0  0  0  0  0  0  0  0  0
   -5.5174   -8.7888   12.8801 O   0  0  0  0  0  0  0  0  0  0  0  0
   -6.1064   -6.8358   13.8157 N   0  0  0  0  0  0  0  0  0  0  0  0
   -6.4797   -7.3941   15.0273 C   0  0  0  0  0  0  0  0  0  0  0  0
   -6.1827   -5.5004   13.5502 C   0  0  0  0  0  0  0  0  0  0  0  0
   -5.8060   -4.9834   12.3445 C   0  0  0  0  0  0  0  0  0  0  0  0
   -5.3077   -5.7149   11.2512 C   0  0  0  0  0  0  0  0  0  0  0  0
   -4.9550   -5.2983   10.1487 O   0  0  0  0  0  0  0  0  0  0  0  0
   -6.0185   -3.6148   12.4388 N   0  0  0  0  0  0  0  0  0  0  0  0
   -6.5057   -3.3988   13.6836 C   0  0  0  0  0  0  0  0  0  0  0  0
   -6.6244   -4.4867   14.3931 N   0  0  0  0  0  0  0  0  0  0  0  0
  1  2  1  0  0  0  0
  2  9  1  0  0  0  0
  2  3  1  0  0  0  0
  3  5  1  0  0  0  0
  3  4  2  0  0  0  0
  5  6  1  0  0  0  0
  5  7  1  0  0  0  0
  7  8  2  0  0  0  0
  7 13  1  0  0  0  0
  8  9  1  0  0  0  0
  8 11  1  0  0  0  0
  9 10  2  0  0  0  0
 11 12  1  0  0  0  0
 12 13  2  0  0  0  0
M  END
>  <CHROM.1>
-5.76546035,-6.08245088,12.62116049,-0.74788005,1.19852561,-0.33733352

>  <Name>
1eht cryst

>  <RI>
0

>  <Rbt.Current_Directory>
/home/itssahil/PROJECTS/Mol_Feturizer/New_Systems/rnas/1eht

>  <Rbt.Executable>
rbdock ($Id: //depot/dev/client3/rdock/2013.1/src/exe/rbdock.cxx#4 $)

>  <Rbt.Library>
libRbt.so (2013.1, Build901 2013/11/27)

>  <Rbt.Parameter_File>
/export/apps/rDock/src/rDock_2013.1_src/data/scripts/dock_solv.prm

>  <Rbt.Receptor>
prm/blind_docking_100.prm

>  <SCORE>
-39.1633

>  <SCORE.INTER>
-39.1633

>  <SCORE.INTER.CONST>
1

>  <SCORE.INTER.POLAR>
-1.95477

>  <SCORE.INTER.ROT>
0

>  <SCORE.INTER.SOLV>
9.7411

>  <SCORE.INTER.VDW>
-26.44

>  <SCORE.INTER.norm>
-3.01256

>  <SCORE.INTRA>
0

>  <SCORE.INTRA.DIHEDRAL>
0

>  <SCORE.INTRA.DIHEDRAL.0>
0

>  <SCORE.INTRA.POLAR>
0

>  <SCORE.INTRA.POLAR.0>
0

>  <SCORE.INTRA.REPUL>
0

>  <SCORE.INTRA.REPUL.0>
0

>  <SCORE.INTRA.SOLV>
0

>  <SCORE.INTRA.SOLV.lig_0>
-12.9768

>  <SCORE.INTRA.VDW>
0

>  <SCORE.INTRA.VDW.0>
0

>  <SCORE.INTRA.norm>
0

>  <SCORE.RESTR>
0

>  <SCORE.RESTR.CAVITY>
0

>  <SCORE.RESTR.norm>
0

>  <SCORE.SYSTEM>
0

>  <SCORE.SYSTEM.CONST>
0

>  <SCORE.SYSTEM.DIHEDRAL>
0

>  <SCORE.SYSTEM.SOLV>
0

>  <SCORE.SYSTEM.norm>
0

>  <SCORE.heavy>
13

>  <SCORE.norm>
-3.01256

>  <RMSD>
0.718

$$$$
1eht cryst
 OpenBabel11021811383D
libRbt.so/2013.1/901 2013/11/27
 13 14  0  0  0  0  0  0  0  0999 V2000
   -4.7812   -7.8877   10.5707 C   0  0  0  0  0  0  0  0  0  0  0  0
   -5.2482   -7.0179   11.5520 N   0  0  0  0  0  0  0  0  0  0  0  0
   -5.6233   -7.5471   12.7599 C   0  0  0  0  0  0  0  0  0  0  0  0
   -5.5207   -8.7695   12.8797 O   0  0  0  0  0  0  0  0  0  0  0  0
   -6.1012   -6.8148   13.8172 N   0  0  0  0  0  0  0  0  0  0  0  0
   -6.4728   -7.3721   15.0297 C   0  0  0  0  0  0  0  0  0  0  0  0
   -6.1742   -5.4792   13.5520 C   0  0  0  0  0  0  0  0  0  0  0  0
   -5.7992   -4.9632   12.3454 C   0  0  0  0  0  0  0  0  0  0  0  0
   -5.3062   -5.6959   11.2506 C   0  0  0  0  0  0  0  0  0  0  0  0
   -4.9552   -5.2803   10.1473 O   0  0  0  0  0  0  0  0  0  0  0  0
   -6.0073   -3.5939   12.4405 N   0  0  0  0  0  0  0  0  0  0  0  0
   -6.4904   -3.3765   13.6867 C   0  0  0  0  0  0  0  0  0  0  0  0
   -6.6104   -4.4642   14.3964 N   0  0  0  0  0  0  0  0  0  0  0  0
  1  2  1  0  0  0  0
  2  9  1  0  0  0  0
  2  3  1  0  0  0  0
  3  5  1  0  0  0  0
  3  4  2  0  0  0  0
  5  6  1  0  0  0  0
  5  7  1  0  0  0  0
  7  8  2  0  0  0  0
  7 13  1  0  0  0  0
  8  9  1  0  0  0  0
  8 11  1  0  0  0  0
  9 10  2  0  0  0  0
 11 12  1  0  0  0  0
 12 13  2  0  0  0  0
M  END
>  <CHROM.1>
-5.76126323,-6.06232369,12.62178845,-0.75332034,1.20213645,-0.33211166

>  <Name>
1eht cryst

>  <RI>
0

>  <Rbt.Current_Directory>
/home/itssahil/PROJECTS/Mol_Feturizer/New_Systems/rnas/1eht

>  <Rbt.Executable>
rbdock ($Id: //depot/dev/client3/rdock/2013.1/src/exe/rbdock.cxx#4 $)

>  <Rbt.Library>
libRbt.so (2013.1, Build901 2013/11/27)

>  <Rbt.Parameter_File>
/export/apps/rDock/src/rDock_2013.1_src/data/scripts/dock_solv.prm

>  <Rbt.Receptor>
prm/blind_docking_100.prm

>  <SCORE>
-39.1876

>  <SCORE.INTER>
-39.1876

>  <SCORE.INTER.CONST>
1

>  <SCORE.INTER.POLAR>
-1.94022

>  <SCORE.INTER.ROT>
0

>  <SCORE.INTER.SOLV>
9.78507

>  <SCORE.INTER.VDW>
-26.5194

>  <SCORE.INTER.norm>
-3.01443

>  <SCORE.INTRA>
0

>  <SCORE.INTRA.DIHEDRAL>
0

>  <SCORE.INTRA.DIHEDRAL.0>
0

>  <SCORE.INTRA.POLAR>
0

>  <SCORE.INTRA.POLAR.0>
0

>  <SCORE.INTRA.REPUL>
0

>  <SCORE.INTRA.REPUL.0>
0

>  <SCORE.INTRA.SOLV>
0

>  <SCORE.INTRA.SOLV.lig_0>
-12.9768

>  <SCORE.INTRA.VDW>
0

>  <SCORE.INTRA.VDW.0>
0

>  <SCORE.INTRA.norm>
0

>  <SCORE.RESTR>
0

>  <SCORE.RESTR.CAVITY>
0

>  <SCORE.RESTR.norm>
0

>  <SCORE.SYSTEM>
0

>  <SCORE.SYSTEM.CONST>
0

>  <SCORE.SYSTEM.DIHEDRAL>
0

>  <SCORE.SYSTEM.SOLV>
0

>  <SCORE.SYSTEM.norm>
0

>  <SCORE.heavy>
13

>  <SCORE.norm>
-3.01443

>  <RMSD>
0.718

$$$$
1eht cryst
 OpenBabel11021811383D
libRbt.so/2013.1/901 2013/11/27
 13 14  0  0  0  0  0  0  0  0999 V2000
   -4.7875   -7.8963   10.5660 C   0  0  0  0  0  0  0  0  0  0  0  0
   -5.2569   -7.0243   11.5442 N   0  0  0  0  0  0  0  0  0  0  0  0
   -5.6290   -7.5500   12.7546 C   0  0  0  0  0  0  0  0  0  0  0  0
   -5.5218   -8.7715   12.8791 O   0  0  0  0  0  0  0  0  0  0  0  0
   -6.1087   -6.8153   13.8093 N   0  0  0  0  0  0  0  0  0  0  0  0
   -6.4773   -7.3691   15.0243 C   0  0  0  0  0  0  0  0  0  0  0  0
   -6.1869   -5.4810   13.5388 C   0  0  0  0  0  0  0  0  0  0  0  0
   -5.8148   -4.9684   12.3298 C   0  0  0  0  0  0  0  0  0  0  0  0
   -5.3200   -5.7038   11.2375 C   0  0  0  0  0  0  0  0  0  0  0  0
   -4.9715   -5.2913   10.1322 O   0  0  0  0  0  0  0  0  0  0  0  0
   -6.0279   -3.5996   12.4195 N   0  0  0  0  0  0  0  0  0  0  0  0
   -6.5108   -3.3790   13.6653 C   0  0  0  0  0  0  0  0  0  0  0  0
   -6.6262   -4.4643   14.3794 N   0  0  0  0  0  0  0  0  0  0  0  0
  1  2  1  0  0  0  0
  2  9  1  0  0  0  0
  2  3  1  0  0  0  0
  3  5  1  0  0  0  0
  3  4  2  0  0  0  0
  5  6  1  0  0  0  0
  5  7  1  0  0  0  0
  7  8  2  0  0  0  0
  7 13  1  0  0  0  0
  8  9  1  0  0  0  0
  8 11  1  0  0  0  0
  9 10  2  0  0  0  0
 11 12  1  0  0  0  0
 12 13  2  0  0  0  0
M  END
>  <CHROM.1>
-5.77258339,-6.06634574,12.61056515,-0.74285503,1.20170241,-0.34589009

>  <Name>
1eht cryst

>  <RI>
0

>  <Rbt.Current_Directory>
/home/itssahil/PROJECTS/Mol_Feturizer/New_Systems/rnas/1eht

>  <Rbt.Executable>
rbdock ($Id: //depot/dev/client3/rdock/2013.1/src/exe/rbdock.cxx#4 $)

>  <Rbt.Library>
libRbt.so (2013.1, Build901 2013/11/27)

>  <Rbt.Parameter_File>
/export/apps/rDock/src/rDock_2013.1_src/data/scripts/dock_solv.prm

>  <Rbt.Receptor>
prm/blind_docking_60.prm

>  <SCORE>
-39.2123

>  <SCORE.INTER>
-39.2123

>  <SCORE.INTER.CONST>
1

>  <SCORE.INTER.POLAR>
-1.94519

>  <SCORE.INTER.ROT>
0

>  <SCORE.INTER.SOLV>
9.76539

>  <SCORE.INTER.VDW>
-26.5127

>  <SCORE.INTER.norm>
-3.01633

>  <SCORE.INTRA>
0

>  <SCORE.INTRA.DIHEDRAL>
0

>  <SCORE.INTRA.DIHEDRAL.0>
0

>  <SCORE.INTRA.POLAR>
0

>  <SCORE.INTRA.POLAR.0>
0

>  <SCORE.INTRA.REPUL>
0

>  <SCORE.INTRA.REPUL.0>
0

>  <SCORE.INTRA.SOLV>
0

>  <SCORE.INTRA.SOLV.lig_0>
-12.9768

>  <SCORE.INTRA.VDW>
0

>  <SCORE.INTRA.VDW.0>
0

>  <SCORE.INTRA.norm>
0

>  <SCORE.RESTR>
0

>  <SCORE.RESTR.CAVITY>
0

>  <SCORE.RESTR.norm>
0

>  <SCORE.SYSTEM>
0

>  <SCORE.SYSTEM.CONST>
0

>  <SCORE.SYSTEM.DIHEDRAL>
0

>  <SCORE.SYSTEM.SOLV>
0

>  <SCORE.SYSTEM.norm>
0

>  <SCORE.heavy>
13

>  <SCORE.norm>
-3.01633

>  <RMSD>
0.718

$$$$
1eht cryst
 OpenBabel11021811383D
libRbt.so/2013.1/901 2013/11/27
 13 14  0  0  0  0  0  0  0  0999 V2000
   -4.8093   -7.8886   10.5648 C   0  0  0  0  0  0  0  0  0  0  0  0
   -5.2686   -7.0183   11.5492 N   0  0  0  0  0  0  0  0  0  0  0  0
   -5.6456   -7.5480   12.7562 C   0  0  0  0  0  0  0  0  0  0  0  0
   -5.5515   -8.7715   12.8724 O   0  0  0  0  0  0  0  0  0  0  0  0
   -6.1167   -6.8153   13.8162 N   0  0  0  0  0  0  0  0  0  0  0  0
   -6.4904   -7.3733   15.0277 C   0  0  0  0  0  0  0  0  0  0  0  0
   -6.1806   -5.4785   13.5547 C   0  0  0  0  0  0  0  0  0  0  0  0
   -5.8038   -4.9619   12.3490 C   0  0  0  0  0  0  0  0  0  0  0  0
   -5.3177   -5.6951   11.2514 C   0  0  0  0  0  0  0  0  0  0  0  0
   -4.9655   -5.2789   10.1486 O   0  0  0  0  0  0  0  0  0  0  0  0
   -6.0021   -3.5914   12.4481 N   0  0  0  0  0  0  0  0  0  0  0  0
   -6.4817   -3.3741   13.6956 C   0  0  0  0  0  0  0  0  0  0  0  0
   -6.6084   -4.4628   14.4025 N   0  0  0  0  0  0  0  0  0  0  0  0
  1  2  1  0  0  0  0
  2  9  1  0  0  0  0
  2  3  1  0  0  0  0
  3  5  1  0  0  0  0
  3  4  2  0  0  0  0
  5  6  1  0  0  0  0
  5  7  1  0  0  0  0
  7  8  2  0  0  0  0
  7 13  1  0  0  0  0
  8  9  1  0  0  0  0
  8 11  1  0  0  0  0
  9 10  2  0  0  0  0
 11 12  1  0  0  0  0
 12 13  2  0  0  0  0
M  END
>  <CHROM.1>
-5.77324063,-6.06200660,12.62228805,-0.77069810,1.20583464,-0.31316323

>  <Name>
1eht cryst

>  <RI>
0

>  <Rbt.Current_Directory>
/home/itssahil/PROJECTS/Mol_Feturizer/New_Systems/rnas/1eht

>  <Rbt.Executable>
rbdock ($Id: //depot/dev/client3/rdock/2013.1/src/exe/rbdock.cxx#4 $)

>  <Rbt.Library>
libRbt.so (2013.1, Build901 2013/11/27)

>  <Rbt.Parameter_File>
/export/apps/rDock/src/rDock_2013.1_src/data/scripts/dock_solv.prm

>  <Rbt.Receptor>
prm/blind_docking_60.prm

>  <SCORE>
-39.1644

>  <SCORE.INTER>
-39.1644

>  <SCORE.INTER.CONST>
1

>  <SCORE.INTER.POLAR>
-1.93734

>  <SCORE.INTER.ROT>
0

>  <SCORE.INTER.SOLV>
9.79137

>  <SCORE.INTER.VDW>
-26.5156

>  <SCORE.INTER.norm>
-3.01264

>  <SCORE.INTRA>
0

>  <SCORE.INTRA.DIHEDRAL>
0

>  <SCORE.INTRA.DIHEDRAL.0>
0

>  <SCORE.INTRA.POLAR>
0

>  <SCORE.INTRA.POLAR.0>
0

>  <SCORE.INTRA.REPUL>
0

>  <SCORE.INTRA.REPUL.0>
0

>  <SCORE.INTRA.SOLV>
0

>  <SCORE.INTRA.SOLV.lig_0>
-12.9768

>  <SCORE.INTRA.VDW>
0

>  <SCORE.INTRA.VDW.0>
0

>  <SCORE.INTRA.norm>
0

>  <SCORE.RESTR>
0

>  <SCORE.RESTR.CAVITY>
0

>  <SCORE.RESTR.norm>
0

>  <SCORE.SYSTEM>
0

>  <SCORE.SYSTEM.CONST>
0

>  <SCORE.SYSTEM.DIHEDRAL>
0

>  <SCORE.SYSTEM.SOLV>
0

>  <SCORE.SYSTEM.norm>
0

>  <SCORE.heavy>
13

>  <SCORE.norm>
-3.01264

>  <RMSD>
0.718

$$$$
1eht cryst
 OpenBabel11021811383D
libRbt.so/2013.1/901 2013/11/27
 13 14  0  0  0  0  0  0  0  0999 V2000
   -4.7632   -7.8652   10.5895 C   0  0  0  0  0  0  0  0  0  0  0  0
   -5.2318   -7.0099   11.5826 N   0  0  0  0  0  0  0  0  0  0  0  0
   -5.6236   -7.5582   12.7765 C   0  0  0  0  0  0  0  0  0  0  0  0
   -5.5334   -8.7836   12.8740 O   0  0  0  0  0  0  0  0  0  0  0  0
   -6.1050   -6.8416   13.8429 N   0  0  0  0  0  0  0  0  0  0  0  0
   -6.4937   -7.4182   15.0409 C   0  0  0  0  0  0  0  0  0  0  0  0
   -6.1631   -5.5006   13.6024 C   0  0  0  0  0  0  0  0  0  0  0  0
   -5.7715   -4.9654   12.4095 C   0  0  0  0  0  0  0  0  0  0  0  0
   -5.2746   -5.6819   11.3058 C   0  0  0  0  0  0  0  0  0  0  0  0
   -4.9090   -5.2488   10.2140 O   0  0  0  0  0  0  0  0  0  0  0  0
   -5.9679   -3.5962   12.5286 N   0  0  0  0  0  0  0  0  0  0  0  0
   -6.4612   -3.3980   13.7740 C   0  0  0  0  0  0  0  0  0  0  0  0
   -6.5982   -4.4977   14.4617 N   0  0  0  0  0  0  0  0  0  0  0  0
  1  2  1  0  0  0  0
  2  9  1  0  0  0  0
  2  3  1  0  0  0  0
  3  5  1  0  0  0  0
  3  4  2  0  0  0  0
  5  6  1  0  0  0  0
  5  7  1  0  0  0  0
  7  8  2  0  0  0  0
  7 13  1  0  0  0  0
  8  9  1  0  0  0  0
  8 11  1  0  0  0  0
  9 10  2  0  0  0  0
 11 12  1  0  0  0  0
 12 13  2  0  0  0  0
M  END
>  <CHROM.1>
-5.74645687,-6.06987764,12.66531124,-0.78585546,1.19568439,-0.28284608

>  <Name>
1eht cryst

>  <RI>
0

>  <Rbt.Current_Directory>
/home/itssahil/PROJECTS/Mol_Feturizer/New_Systems/rnas/1eht

>  <Rbt.Executable>
rbdock ($Id: //depot/dev/client3/rdock/2013.1/src/exe/rbdock.cxx#4 $)

>  <Rbt.Library>
libRbt.so (2013.1, Build901 2013/11/27)

>  <Rbt.Parameter_File>
/export/apps/rDock/src/rDock_2013.1_src/data/scripts/dock_solv.prm

>  <Rbt.Receptor>
prm/blind_docking_60.prm

>  <SCORE>
-39.1814

>  <SCORE.INTER>
-39.1814

>  <SCORE.INTER.CONST>
1

>  <SCORE.INTER.POLAR>
-1.92921

>  <SCORE.INTER.ROT>
0

>  <SCORE.INTER.SOLV>
9.81042

>  <SCORE.INTER.VDW>
-26.5604

>  <SCORE.INTER.norm>
-3.01395

>  <SCORE.INTRA>
0

>  <SCORE.INTRA.DIHEDRAL>
0

>  <SCORE.INTRA.DIHEDRAL.0>
0

>  <SCORE.INTRA.POLAR>
0

>  <SCORE.INTRA.POLAR.0>
0

>  <SCORE.INTRA.REPUL>
0

>  <SCORE.INTRA.REPUL.0>
0

>  <SCORE.INTRA.SOLV>
0

>  <SCORE.INTRA.SOLV.lig_0>
-12.9768

>  <SCORE.INTRA.VDW>
0

>  <SCORE.INTRA.VDW.0>
0

>  <SCORE.INTRA.norm>
0

>  <SCORE.RESTR>
0

>  <SCORE.RESTR.CAVITY>
0

>  <SCORE.RESTR.norm>
0

>  <SCORE.SYSTEM>
0

>  <SCORE.SYSTEM.CONST>
0

>  <SCORE.SYSTEM.DIHEDRAL>
0

>  <SCORE.SYSTEM.SOLV>
0

>  <SCORE.SYSTEM.norm>
0

>  <SCORE.heavy>
13

>  <SCORE.norm>
-3.01395

>  <RMSD>
0.718

$$$$
1eht cryst
 OpenBabel11021811383D
libRbt.so/2013.1/901 2013/11/27
 13 14  0  0  0  0  0  0  0  0999 V2000
   -4.7789   -7.8940   10.5680 C   0  0  0  0  0  0  0  0  0  0  0  0
   -5.2506   -7.0228   11.5457 N   0  0  0  0  0  0  0  0  0  0  0  0
   -5.6231   -7.5490   12.7557 C   0  0  0  0  0  0  0  0  0  0  0  0
   -5.5140   -8.7704   12.8803 O   0  0  0  0  0  0  0  0  0  0  0  0
   -6.1050   -6.8150   13.8099 N   0  0  0  0  0  0  0  0  0  0  0  0
   -6.4738   -7.3694   15.0246 C   0  0  0  0  0  0  0  0  0  0  0  0
   -6.1850   -5.4809   13.5394 C   0  0  0  0  0  0  0  0  0  0  0  0
   -5.8125   -4.9678   12.3308 C   0  0  0  0  0  0  0  0  0  0  0  0
   -5.3155   -5.7023   11.2389 C   0  0  0  0  0  0  0  0  0  0  0  0
   -4.9666   -5.2893   10.1340 O   0  0  0  0  0  0  0  0  0  0  0  0
   -6.0279   -3.5992   12.4203 N   0  0  0  0  0  0  0  0  0  0  0  0
   -6.5123   -3.3794   13.6655 C   0  0  0  0  0  0  0  0  0  0  0  0
   -6.6267   -4.4649   14.3796 N   0  0  0  0  0  0  0  0  0  0  0  0
  1  2  1  0  0  0  0
  2  9  1  0  0  0  0
  2  3  1  0  0  0  0
  3  5  1  0  0  0  0
  3  4  2  0  0  0  0
  5  6  1  0  0  0  0
  5  7  1  0  0  0  0
  7  8  2  0  0  0  0
  7 13  1  0  0  0  0
  8  9  1  0  0  0  0
  8 11  1  0  0  0  0
  9 10  2  0  0  0  0
 11 12  1  0  0  0  0
 12 13  2  0  0  0  0
M  END
>  <CHROM.1>
-5.76883347,-6.06558951,12.61155158,-0.73968250,1.20024844,-0.34885038

>  <Name>
1eht cryst

>  <RI>
0

>  <Rbt.Current_Directory>
/home/itssahil/PROJECTS/Mol_Feturizer/New_Systems/rnas/1eht

>  <Rbt.Executable>
rbdock ($Id: //depot/dev/client3/rdock/2013.1/src/exe/rbdock.cxx#4 $)

>  <Rbt.Library>
libRbt.so (2013.1, Build901 2013/11/27)

>  <Rbt.Parameter_File>
/export/apps/rDock/src/rDock_2013.1_src/data/scripts/dock_solv.prm

>  <Rbt.Receptor>
prm/pocket_docking_2.prm

>  <SCORE>
-39.2182

>  <SCORE.INTER>
-39.2182

>  <SCORE.INTER.CONST>
1

>  <SCORE.INTER.POLAR>
-1.94499

>  <SCORE.INTER.ROT>
0

>  <SCORE.INTER.SOLV>
9.76751

>  <SCORE.INTER.VDW>
-26.518

>  <SCORE.INTER.norm>
-3.01678

>  <SCORE.INTRA>
0

>  <SCORE.INTRA.DIHEDRAL>
0

>  <SCORE.INTRA.DIHEDRAL.0>
0

>  <SCORE.INTRA.POLAR>
0

>  <SCORE.INTRA.POLAR.0>
0

>  <SCORE.INTRA.REPUL>
0

>  <SCORE.INTRA.REPUL.0>
0

>  <SCORE.INTRA.SOLV>
0

>  <SCORE.INTRA.SOLV.lig_0>
-12.9768

>  <SCORE.INTRA.VDW>
0

>  <SCORE.INTRA.VDW.0>
0

>  <SCORE.INTRA.norm>
0

>  <SCORE.RESTR>
0

>  <SCORE.RESTR.CAVITY>
0

>  <SCORE.RESTR.norm>
0

>  <SCORE.SYSTEM>
0

>  <SCORE.SYSTEM.CONST>
0

>  <SCORE.SYSTEM.DIHEDRAL>
0

>  <SCORE.SYSTEM.SOLV>
0

>  <SCORE.SYSTEM.norm>
0

>  <SCORE.heavy>
13

>  <SCORE.norm>
-3.01678

>  <RMSD>
0.718

$$$$
1eht cryst
 OpenBabel11021811383D
libRbt.so/2013.1/901 2013/11/27
 13 14  0  0  0  0  0  0  0  0999 V2000
   -4.7949   -7.8975   10.5646 C   0  0  0  0  0  0  0  0  0  0  0  0
   -5.2612   -7.0246   11.5435 N   0  0  0  0  0  0  0  0  0  0  0  0
   -5.6305   -7.5493   12.7551 C   0  0  0  0  0  0  0  0  0  0  0  0
   -5.5238   -8.7708   12.8801 O   0  0  0  0  0  0  0  0  0  0  0  0
   -6.1069   -6.8136   13.8106 N   0  0  0  0  0  0  0  0  0  0  0  0
   -6.4727   -7.3664   15.0269 C   0  0  0  0  0  0  0  0  0  0  0  0
   -6.1849   -5.4794   13.5395 C   0  0  0  0  0  0  0  0  0  0  0  0
   -5.8156   -4.9679   12.3293 C   0  0  0  0  0  0  0  0  0  0  0  0
   -5.3241   -5.7042   11.2361 C   0  0  0  0  0  0  0  0  0  0  0  0
   -4.9782   -5.2926   10.1297 O   0  0  0  0  0  0  0  0  0  0  0  0
   -6.0275   -3.5988   12.4187 N   0  0  0  0  0  0  0  0  0  0  0  0
   -6.5070   -3.3772   13.6655 C   0  0  0  0  0  0  0  0  0  0  0  0
   -6.6213   -4.4619   14.3807 N   0  0  0  0  0  0  0  0  0  0  0  0
  1  2  1  0  0  0  0
  2  9  1  0  0  0  0
  2  3  1  0  0  0  0
  3  5  1  0  0  0  0
  3  4  2  0  0  0  0
  5  6  1  0  0  0  0
  5  7  1  0  0  0  0
  7  8  2  0  0  0  0
  7 13  1  0  0  0  0
  8  9  1  0  0  0  0
  8 11  1  0  0  0  0
  9 10  2  0  0  0  0
 11 12  1  0  0  0  0
 12 13  2  0  0  0  0
M  END
>  <CHROM.1>
-5.77339765,-6.06562924,12.61056151,-0.74222320,1.20437226,-0.34708798

>  <Name>
1eht cryst

>  <RI>
0

>  <Rbt.Current_Directory>
/home/itssahil/PROJECTS/Mol_Feturizer/New_Systems/rnas/1eht

>  <Rbt.Executable>
rbdock ($Id: //depot/dev/client3/rdock/2013.1/src/exe/rbdock.cxx#4 $)

>  <Rbt.Library>
libRbt.so (2013.1, Build901 2013/11/27)

>  <Rbt.Parameter_File>
/export/apps/rDock/src/rDock_2013.1_src/data/scripts/dock_solv.prm

>  <Rbt.Receptor>
prm/pocket_docking_3.prm

>  <SCORE>
-39.2062

>  <SCORE.INTER>
-39.2062

>  <SCORE.INTER.CONST>
1

>  <SCORE.INTER.POLAR>
-1.94212

>  <SCORE.INTER.ROT>
0

>  <SCORE.INTER.SOLV>
9.76371

>  <SCORE.INTER.VDW>
-26.5183

>  <SCORE.INTER.norm>
-3.01586

>  <SCORE.INTRA>
0

>  <SCORE.INTRA.DIHEDRAL>
0

>  <SCORE.INTRA.DIHEDRAL.0>
0

>  <SCORE.INTRA.POLAR>
0

>  <SCORE.INTRA.POLAR.0>
0

>  <SCORE.INTRA.REPUL>
0

>  <SCORE.INTRA.REPUL.0>
0

>  <SCORE.INTRA.SOLV>
0

>  <SCORE.INTRA.SOLV.lig_0>
-12.9768

>  <SCORE.INTRA.VDW>
0

>  <SCORE.INTRA.VDW.0>
0

>  <SCORE.INTRA.norm>
0

>  <SCORE.RESTR>
0

>  <SCORE.RESTR.CAVITY>
0

>  <SCORE.RESTR.norm>
0

>  <SCORE.SYSTEM>
0

>  <SCORE.SYSTEM.CONST>
0

>  <SCORE.SYSTEM.DIHEDRAL>
0

>  <SCORE.SYSTEM.SOLV>
0

>  <SCORE.SYSTEM.norm>
0

>  <SCORE.heavy>
13

>  <SCORE.norm>
-3.01586

>  <RMSD>
0.718

$$$$
1eht cryst
 OpenBabel11021811383D
libRbt.so/2013.1/901 2013/11/27
 13 14  0  0  0  0  0  0  0  0999 V2000
   -4.7895   -7.8967   10.5652 C   0  0  0  0  0  0  0  0  0  0  0  0
   -5.2579   -7.0246   11.5437 N   0  0  0  0  0  0  0  0  0  0  0  0
   -5.6291   -7.5501   12.7544 C   0  0  0  0  0  0  0  0  0  0  0  0
   -5.5219   -8.7717   12.8789 O   0  0  0  0  0  0  0  0  0  0  0  0
   -6.1078   -6.8153   13.8094 N   0  0  0  0  0  0  0  0  0  0  0  0
   -6.4754   -7.3690   15.0248 C   0  0  0  0  0  0  0  0  0  0  0  0
   -6.1860   -5.4810   13.5389 C   0  0  0  0  0  0  0  0  0  0  0  0
   -5.8149   -4.9686   12.3296 C   0  0  0  0  0  0  0  0  0  0  0  0
   -5.3211   -5.7041   11.2369 C   0  0  0  0  0  0  0  0  0  0  0  0
   -4.9735   -5.2917   10.1313 O   0  0  0  0  0  0  0  0  0  0  0  0
   -6.0277   -3.5997   12.4194 N   0  0  0  0  0  0  0  0  0  0  0  0
   -6.5095   -3.3790   13.6655 C   0  0  0  0  0  0  0  0  0  0  0  0
   -6.6245   -4.4642   14.3799 N   0  0  0  0  0  0  0  0  0  0  0  0
  1  2  1  0  0  0  0
  2  9  1  0  0  0  0
  2  3  1  0  0  0  0
  3  5  1  0  0  0  0
  3  4  2  0  0  0  0
  5  6  1  0  0  0  0
  5  7  1  0  0  0  0
  7  8  2  0  0  0  0
  7 13  1  0  0  0  0
  8  9  1  0  0  0  0
  8 11  1  0  0  0  0
  9 10  2  0  0  0  0
 11 12  1  0  0  0  0
 12 13  2  0  0  0  0
M  END
>  <CHROM.1>
-5.77255741,-6.06648368,12.61040855,-0.74243247,1.20253435,-0.34635635

>  <Name>
1eht cryst

>  <RI>
0

>  <Rbt.Current_Directory>
/home/itssahil/PROJECTS/Mol_Feturizer/New_Systems/rnas/1eht

>  <Rbt.Executable>
rbdock ($Id: //depot/dev/client3/rdock/2013.1/src/exe/rbdock.cxx#4 $)

>  <Rbt.Library>
libRbt.so (2013.1, Build901 2013/11/27)

>  <Rbt.Parameter_File>
/export/apps/rDock/src/rDock_2013.1_src/data/scripts/dock_solv.prm

>  <Rbt.Receptor>
prm/pocket_docking_5.prm

>  <SCORE>
-39.212

>  <SCORE.INTER>
-39.212

>  <SCORE.INTER.CONST>
1

>  <SCORE.INTER.POLAR>
-1.94444

>  <SCORE.INTER.ROT>
0

>  <SCORE.INTER.SOLV>
9.76424

>  <SCORE.INTER.VDW>
-26.5146

>  <SCORE.INTER.norm>
-3.01631

>  <SCORE.INTRA>
0

>  <SCORE.INTRA.DIHEDRAL>
0

>  <SCORE.INTRA.DIHEDRAL.0>
0

>  <SCORE.INTRA.POLAR>
0

>  <SCORE.INTRA.POLAR.0>
0

>  <SCORE.INTRA.REPUL>
0

>  <SCORE.INTRA.REPUL.0>
0

>  <SCORE.INTRA.SOLV>
0

>  <SCORE.INTRA.SOLV.lig_0>
-12.9768

>  <SCORE.INTRA.VDW>
0

>  <SCORE.INTRA.VDW.0>
0

>  <SCORE.INTRA.norm>
0

>  <SCORE.RESTR>
0

>  <SCORE.RESTR.CAVITY>
0

>  <SCORE.RESTR.norm>
0

>  <SCORE.SYSTEM>
0

>  <SCORE.SYSTEM.CONST>
0

>  <SCORE.SYSTEM.DIHEDRAL>
0

>  <SCORE.SYSTEM.SOLV>
0

>  <SCORE.SYSTEM.norm>
0

>  <SCORE.heavy>
13

>  <SCORE.norm>
-3.01631

>  <RMSD>
0.718

$$$$
1eht cryst
 OpenBabel11021811383D
libRbt.so/2013.1/901 2013/11/27
 13 14  0  0  0  0  0  0  0  0999 V2000
   -4.7688   -7.8697   10.5904 C   0  0  0  0  0  0  0  0  0  0  0  0
   -5.2364   -7.0159   11.5853 N   0  0  0  0  0  0  0  0  0  0  0  0
   -5.6296   -7.5665   12.7778 C   0  0  0  0  0  0  0  0  0  0  0  0
   -5.5414   -8.7923   12.8724 O   0  0  0  0  0  0  0  0  0  0  0  0
   -6.1103   -6.8517   13.8456 N   0  0  0  0  0  0  0  0  0  0  0  0
   -6.5004   -7.4306   15.0421 C   0  0  0  0  0  0  0  0  0  0  0  0
   -6.1662   -5.5100   13.6083 C   0  0  0  0  0  0  0  0  0  0  0  0
   -5.7733   -4.9726   12.4169 C   0  0  0  0  0  0  0  0  0  0  0  0
   -5.2770   -5.6873   11.3116 C   0  0  0  0  0  0  0  0  0  0  0  0
   -4.9103   -5.2522   10.2210 O   0  0  0  0  0  0  0  0  0  0  0  0
   -5.9676   -3.6034   12.5391 N   0  0  0  0  0  0  0  0  0  0  0  0
   -6.4611   -3.4074   13.7848 C   0  0  0  0  0  0  0  0  0  0  0  0
   -6.6001   -4.5085   14.4698 N   0  0  0  0  0  0  0  0  0  0  0  0
  1  2  1  0  0  0  0
  2  9  1  0  0  0  0
  2  3  1  0  0  0  0
  3  5  1  0  0  0  0
  3  4  2  0  0  0  0
  5  6  1  0  0  0  0
  5  7  1  0  0  0  0
  7  8  2  0  0  0  0
  7 13  1  0  0  0  0
  8  9  1  0  0  0  0
  8 11  1  0  0  0  0
  9 10  2  0  0  0  0
 11 12  1  0  0  0  0
 12 13  2  0  0  0  0
M  END
>  <CHROM.1>
-5.75007640,-6.07773337,12.67004666,-0.79027422,1.19571626,-0.27635209

>  <Name>
1eht cryst

>  <RI>
0

>  <Rbt.Current_Directory>
/home/itssahil/PROJECTS/Mol_Feturizer/New_Systems/rnas/1eht

>  <Rbt.Executable>
rbdock ($Id: //depot/dev/client3/rdock/2013.1/src/exe/rbdock.cxx#4 $)

>  <Rbt.Library>
libRbt.so (2013.1, Build901 2013/11/27)

>  <Rbt.Parameter_File>
/export/apps/rDock/src/rDock_2013.1_src/data/scripts/dock_solv.prm

>  <Rbt.Receptor>
prm/pocket_docking_5.prm

>  <SCORE>
-39.24

>  <SCORE.INTER>
-39.24

>  <SCORE.INTER.CONST>
1

>  <SCORE.INTER.POLAR>
-1.93143

>  <SCORE.INTER.ROT>
0

>  <SCORE.INTER.SOLV>
9.79856

>  <SCORE.INTER.VDW>
-26.5881

>  <SCORE.INTER.norm>
-3.01846

>  <SCORE.INTRA>
0

>  <SCORE.INTRA.DIHEDRAL>
0

>  <SCORE.INTRA.DIHEDRAL.0>
0

>  <SCORE.INTRA.POLAR>
0

>  <SCORE.INTRA.POLAR.0>
0

>  <SCORE.INTRA.REPUL>
0

>  <SCORE.INTRA.REPUL.0>
0

>  <SCORE.INTRA.SOLV>
0

>  <SCORE.INTRA.SOLV.lig_0>
-12.9768

>  <SCORE.INTRA.VDW>
0

>  <SCORE.INTRA.VDW.0>
0

>  <SCORE.INTRA.norm>
0

>  <SCORE.RESTR>
0

>  <SCORE.RESTR.CAVITY>
0

>  <SCORE.RESTR.norm>
0

>  <SCORE.SYSTEM>
0

>  <SCORE.SYSTEM.CONST>
0

>  <SCORE.SYSTEM.DIHEDRAL>
0

>  <SCORE.SYSTEM.SOLV>
0

>  <SCORE.SYSTEM.norm>
0

>  <SCORE.heavy>
13

>  <SCORE.norm>
-3.01846

>  <RMSD>
0.718

$$$$
1eht cryst
 OpenBabel11021811383D
libRbt.so/2013.1/901 2013/11/27
 13 14  0  0  0  0  0  0  0  0999 V2000
   -4.7799   -7.8947   10.5677 C   0  0  0  0  0  0  0  0  0  0  0  0
   -5.2509   -7.0233   11.5455 N   0  0  0  0  0  0  0  0  0  0  0  0
   -5.6227   -7.5492   12.7559 C   0  0  0  0  0  0  0  0  0  0  0  0
   -5.5137   -8.7706   12.8807 O   0  0  0  0  0  0  0  0  0  0  0  0
   -6.1037   -6.8150   13.8103 N   0  0  0  0  0  0  0  0  0  0  0  0
   -6.4719   -7.3691   15.0253 C   0  0  0  0  0  0  0  0  0  0  0  0
   -6.1837   -5.4809   13.5395 C   0  0  0  0  0  0  0  0  0  0  0  0
   -5.8120   -4.9680   12.3306 C   0  0  0  0  0  0  0  0  0  0  0  0
   -5.3158   -5.7029   11.2386 C   0  0  0  0  0  0  0  0  0  0  0  0
   -4.9675   -5.2901   10.1333 O   0  0  0  0  0  0  0  0  0  0  0  0
   -6.0271   -3.5994   12.4200 N   0  0  0  0  0  0  0  0  0  0  0  0
   -6.5107   -3.3794   13.6655 C   0  0  0  0  0  0  0  0  0  0  0  0
   -6.6248   -4.4647   14.3798 N   0  0  0  0  0  0  0  0  0  0  0  0
  1  2  1  0  0  0  0
  2  9  1  0  0  0  0
  2  3  1  0  0  0  0
  3  5  1  0  0  0  0
  3  4  2  0  0  0  0
  5  6  1  0  0  0  0
  5  7  1  0  0  0  0
  7  8  2  0  0  0  0
  7 13  1  0  0  0  0
  8  9  1  0  0  0  0
  8 11  1  0  0  0  0
  9 10  2  0  0  0  0
 11 12  1  0  0  0  0
 12 13  2  0  0  0  0
M  END
>  <CHROM.1>
-5.76829002,-6.06582324,12.61153214,-0.73945009,1.20090525,-0.34925722

>  <Name>
1eht cryst

>  <RI>
0

>  <Rbt.Current_Directory>
/home/itssahil/PROJECTS/Mol_Feturizer/New_Systems/rnas/1eht

>  <Rbt.Executable>
rbdock ($Id: //depot/dev/client3/rdock/2013.1/src/exe/rbdock.cxx#4 $)

>  <Rbt.Library>
libRbt.so (2013.1, Build901 2013/11/27)

>  <Rbt.Parameter_File>
/export/apps/rDock/src/rDock_2013.1_src/data/scripts/dock_solv.prm

>  <Rbt.Receptor>
prm/pocket_docking_6.prm

>  <SCORE>
-39.2204

>  <SCORE.INTER>
-39.2204

>  <SCORE.INTER.CONST>
1

>  <SCORE.INTER.POLAR>
-1.9447

>  <SCORE.INTER.ROT>
0

>  <SCORE.INTER.SOLV>
9.76641

>  <SCORE.INTER.VDW>
-26.5201

>  <SCORE.INTER.norm>
-3.01695

>  <SCORE.INTRA>
0

>  <SCORE.INTRA.DIHEDRAL>
0

>  <SCORE.INTRA.DIHEDRAL.0>
0

>  <SCORE.INTRA.POLAR>
0

>  <SCORE.INTRA.POLAR.0>
0

>  <SCORE.INTRA.REPUL>
0

>  <SCORE.INTRA.REPUL.0>
0

>  <SCORE.INTRA.SOLV>
0

>  <SCORE.INTRA.SOLV.lig_0>
-12.9768

>  <SCORE.INTRA.VDW>
0

>  <SCORE.INTRA.VDW.0>
0

>  <SCORE.INTRA.norm>
0

>  <SCORE.RESTR>
0

>  <SCORE.RESTR.CAVITY>
0

>  <SCORE.RESTR.norm>
0

>  <SCORE.SYSTEM>
0

>  <SCORE.SYSTEM.CONST>
0

>  <SCORE.SYSTEM.DIHEDRAL>
0

>  <SCORE.SYSTEM.SOLV>
0

>  <SCORE.SYSTEM.norm>
0

>  <SCORE.heavy>
13

>  <SCORE.norm>
-3.01695

>  <RMSD>
0.718

$$$$
1eht cryst
 OpenBabel11021811383D
libRbt.so/2013.1/901 2013/11/27
 13 14  0  0  0  0  0  0  0  0999 V2000
   -4.7786   -7.8941   10.5684 C   0  0  0  0  0  0  0  0  0  0  0  0
   -5.2506   -7.0229   11.5461 N   0  0  0  0  0  0  0  0  0  0  0  0
   -5.6232   -7.5491   12.7560 C   0  0  0  0  0  0  0  0  0  0  0  0
   -5.5141   -8.7704   12.8808 O   0  0  0  0  0  0  0  0  0  0  0  0
   -6.1053   -6.8150   13.8101 N   0  0  0  0  0  0  0  0  0  0  0  0
   -6.4743   -7.3694   15.0247 C   0  0  0  0  0  0  0  0  0  0  0  0
   -6.1853   -5.4809   13.5394 C   0  0  0  0  0  0  0  0  0  0  0  0
   -5.8127   -4.9679   12.3309 C   0  0  0  0  0  0  0  0  0  0  0  0
   -5.3154   -5.7025   11.2392 C   0  0  0  0  0  0  0  0  0  0  0  0
   -4.9664   -5.2895   10.1342 O   0  0  0  0  0  0  0  0  0  0  0  0
   -6.0281   -3.5993   12.4202 N   0  0  0  0  0  0  0  0  0  0  0  0
   -6.5128   -3.3795   13.6654 C   0  0  0  0  0  0  0  0  0  0  0  0
   -6.6272   -4.4649   14.3795 N   0  0  0  0  0  0  0  0  0  0  0  0
  1  2  1  0  0  0  0
  2  9  1  0  0  0  0
  2  3  1  0  0  0  0
  3  5  1  0  0  0  0
  3  4  2  0  0  0  0
  5  6  1  0  0  0  0
  5  7  1  0  0  0  0
  7  8  2  0  0  0  0
  7 13  1  0  0  0  0
  8  9  1  0  0  0  0
  8 11  1  0  0  0  0
  9 10  2  0  0  0  0
 11 12  1  0  0  0  0
 12 13  2  0  0  0  0
M  END
>  <CHROM.1>
-5.76900488,-6.06567194,12.61172411,-0.73971646,1.20006473,-0.34888893

>  <Name>
1eht cryst

>  <RI>
224

>  <Rbt.Current_Directory>
/home/itssahil/PROJECTS/Mol_Feturizer/New_Systems/rnas/1eht

>  <Rbt.Executable>
rbdock ($Id: //depot/dev/client3/rdock/2013.1/src/exe/rbdock.cxx#4 $)

>  <Rbt.Library>
libRbt.so (2013.1, Build901 2013/11/27)

>  <Rbt.Parameter_File>
/export/apps/rDock/src/rDock_2013.1_src/data/scripts/dock_solv.prm

>  <Rbt.Receptor>
prm/pocket_docking_7.prm

>  <SCORE>
-39.2177

>  <SCORE.INTER>
-39.2177

>  <SCORE.INTER.CONST>
1

>  <SCORE.INTER.POLAR>
-1.94516

>  <SCORE.INTER.ROT>
0

>  <SCORE.INTER.SOLV>
9.76732

>  <SCORE.INTER.VDW>
-26.517

>  <SCORE.INTER.norm>
-3.01675

>  <SCORE.INTRA>
0

>  <SCORE.INTRA.DIHEDRAL>
0

>  <SCORE.INTRA.DIHEDRAL.0>
0

>  <SCORE.INTRA.POLAR>
0

>  <SCORE.INTRA.POLAR.0>
0

>  <SCORE.INTRA.REPUL>
0

>  <SCORE.INTRA.REPUL.0>
0

>  <SCORE.INTRA.SOLV>
0

>  <SCORE.INTRA.SOLV.lig_0>
-12.9768

>  <SCORE.INTRA.VDW>
0

>  <SCORE.INTRA.VDW.0>
0

>  <SCORE.INTRA.norm>
0

>  <SCORE.RESTR>
0

>  <SCORE.RESTR.CAVITY>
0

>  <SCORE.RESTR.norm>
0

>  <SCORE.SYSTEM>
0

>  <SCORE.SYSTEM.CONST>
0

>  <SCORE.SYSTEM.DIHEDRAL>
0

>  <SCORE.SYSTEM.SOLV>
0

>  <SCORE.SYSTEM.norm>
0

>  <SCORE.heavy>
13

>  <SCORE.norm>
-3.01675

>  <RMSD>
0.718

$$$$
1eht cryst
 OpenBabel11021811383D
libRbt.so/2013.1/901 2013/11/27
 13 14  0  0  0  0  0  0  0  0999 V2000
   -4.7815   -7.8953   10.5677 C   0  0  0  0  0  0  0  0  0  0  0  0
   -5.2520   -7.0236   11.5456 N   0  0  0  0  0  0  0  0  0  0  0  0
   -5.6238   -7.5495   12.7560 C   0  0  0  0  0  0  0  0  0  0  0  0
   -5.5152   -8.7709   12.8808 O   0  0  0  0  0  0  0  0  0  0  0  0
   -6.1044   -6.8151   13.8105 N   0  0  0  0  0  0  0  0  0  0  0  0
   -6.4726   -7.3691   15.0256 C   0  0  0  0  0  0  0  0  0  0  0  0
   -6.1840   -5.4809   13.5397 C   0  0  0  0  0  0  0  0  0  0  0  0
   -5.8124   -4.9682   12.3307 C   0  0  0  0  0  0  0  0  0  0  0  0
   -5.3166   -5.7032   11.2386 C   0  0  0  0  0  0  0  0  0  0  0  0
   -4.9684   -5.2906   10.1333 O   0  0  0  0  0  0  0  0  0  0  0  0
   -6.0270   -3.5996   12.4201 N   0  0  0  0  0  0  0  0  0  0  0  0
   -6.5103   -3.3793   13.6657 C   0  0  0  0  0  0  0  0  0  0  0  0
   -6.6246   -4.4646   14.3801 N   0  0  0  0  0  0  0  0  0  0  0  0
  1  2  1  0  0  0  0
  2  9  1  0  0  0  0
  2  3  1  0  0  0  0
  3  5  1  0  0  0  0
  3  4  2  0  0  0  0
  5  6  1  0  0  0  0
  5  7  1  0  0  0  0
  7  8  2  0  0  0  0
  7 13  1  0  0  0  0
  8  9  1  0  0  0  0
  8 11  1  0  0  0  0
  9 10  2  0  0  0  0
 11 12  1  0  0  0  0
 12 13  2  0  0  0  0
M  END
>  <CHROM.1>
-5.76894728,-6.06602065,12.61167662,-0.74010476,1.20117423,-0.34865513

>  <Name>
1eht cryst

>  <RI>
0

>  <Rbt.Current_Directory>
/home/itssahil/PROJECTS/Mol_Feturizer/New_Systems/rnas/1eht

>  <Rbt.Executable>
rbdock ($Id: //depot/dev/client3/rdock/2013.1/src/exe/rbdock.cxx#4 $)

>  <Rbt.Library>
libRbt.so (2013.1, Build901 2013/11/27)

>  <Rbt.Parameter_File>
/export/apps/rDock/src/rDock_2013.1_src/data/scripts/dock_solv.prm

>  <Rbt.Receptor>
prm/pocket_docking_8.prm

>  <SCORE>
-39.2199

>  <SCORE.INTER>
-39.2199

>  <SCORE.INTER.CONST>
1

>  <SCORE.INTER.POLAR>
-1.94465

>  <SCORE.INTER.ROT>
0

>  <SCORE.INTER.SOLV>
9.7659

>  <SCORE.INTER.VDW>
-26.5197

>  <SCORE.INTER.norm>
-3.01691

>  <SCORE.INTRA>
0

>  <SCORE.INTRA.DIHEDRAL>
0

>  <SCORE.INTRA.DIHEDRAL.0>
0

>  <SCORE.INTRA.POLAR>
0

>  <SCORE.INTRA.POLAR.0>
0

>  <SCORE.INTRA.REPUL>
0

>  <SCORE.INTRA.REPUL.0>
0

>  <SCORE.INTRA.SOLV>
0

>  <SCORE.INTRA.SOLV.lig_0>
-12.9768

>  <SCORE.INTRA.VDW>
0

>  <SCORE.INTRA.VDW.0>
0

>  <SCORE.INTRA.norm>
0

>  <SCORE.RESTR>
0

>  <SCORE.RESTR.CAVITY>
0

>  <SCORE.RESTR.norm>
0

>  <SCORE.SYSTEM>
0

>  <SCORE.SYSTEM.CONST>
0

>  <SCORE.SYSTEM.DIHEDRAL>
0

>  <SCORE.SYSTEM.SOLV>
0

>  <SCORE.SYSTEM.norm>
0

>  <SCORE.heavy>
13

>  <SCORE.norm>
-3.01691

>  <RMSD>
0.718

$$$$
1eht cryst
 OpenBabel11021811383D
libRbt.so/2013.1/901 2013/11/27
 13 14  0  0  0  0  0  0  0  0999 V2000
   -4.7877   -7.8891   10.5713 C   0  0  0  0  0  0  0  0  0  0  0  0
   -5.2553   -7.0192   11.5521 N   0  0  0  0  0  0  0  0  0  0  0  0
   -5.6344   -7.5485   12.7587 C   0  0  0  0  0  0  0  0  0  0  0  0
   -5.5346   -8.7712   12.8777 O   0  0  0  0  0  0  0  0  0  0  0  0
   -6.1132   -6.8161   13.8154 N   0  0  0  0  0  0  0  0  0  0  0  0
   -6.4889   -7.3736   15.0265 C   0  0  0  0  0  0  0  0  0  0  0  0
   -6.1828   -5.4801   13.5511 C   0  0  0  0  0  0  0  0  0  0  0  0
   -5.8039   -4.9639   12.3459 C   0  0  0  0  0  0  0  0  0  0  0  0
   -5.3098   -5.6968   11.2516 C   0  0  0  0  0  0  0  0  0  0  0  0
   -4.9553   -5.2810   10.1495 O   0  0  0  0  0  0  0  0  0  0  0  0
   -6.0094   -3.5943   12.4415 N   0  0  0  0  0  0  0  0  0  0  0  0
   -6.4950   -3.3769   13.6867 C   0  0  0  0  0  0  0  0  0  0  0  0
   -6.6190   -4.4649   14.3952 N   0  0  0  0  0  0  0  0  0  0  0  0
  1  2  1  0  0  0  0
  2  9  1  0  0  0  0
  2  3  1  0  0  0  0
  3  5  1  0  0  0  0
  3  4  2  0  0  0  0
  5  6  1  0  0  0  0
  5  7  1  0  0  0  0
  7  8  2  0  0  0  0
  7 13  1  0  0  0  0
  8  9  1  0  0  0  0
  8 11  1  0  0  0  0
  9 10  2  0  0  0  0
 11 12  1  0  0  0  0
 12 13  2  0  0  0  0
M  END
>  <CHROM.1>
-5.76888612,-6.06335527,12.62141621,-0.76090873,1.20052750,-0.32423627

>  <Name>
1eht cryst

>  <RI>
0

>  <Rbt.Current_Directory>
/home/itssahil/PROJECTS/Mol_Feturizer/New_Systems/rnas/1eht

>  <Rbt.Executable>
rbdock ($Id: //depot/dev/client3/rdock/2013.1/src/exe/rbdock.cxx#4 $)

>  <Rbt.Library>
libRbt.so (2013.1, Build901 2013/11/27)

>  <Rbt.Parameter_File>
/export/apps/rDock/src/rDock_2013.1_src/data/scripts/dock_solv.prm

>  <Rbt.Receptor>
prm/blind_docking_100.prm

>  <SCORE>
-39.1797

>  <SCORE.INTER>
-39.1797

>  <SCORE.INTER.CONST>
1

>  <SCORE.INTER.POLAR>
-1.9437

>  <SCORE.INTER.ROT>
0

>  <SCORE.INTER.SOLV>
9.78605

>  <SCORE.INTER.VDW>
-26.5028

>  <SCORE.INTER.norm>
-3.01382

>  <SCORE.INTRA>
0

>  <SCORE.INTRA.DIHEDRAL>
0

>  <SCORE.INTRA.DIHEDRAL.0>
0

>  <SCORE.INTRA.POLAR>
0

>  <SCORE.INTRA.POLAR.0>
0

>  <SCORE.INTRA.REPUL>
0

>  <SCORE.INTRA.REPUL.0>
0

>  <SCORE.INTRA.SOLV>
0

>  <SCORE.INTRA.SOLV.lig_0>
-12.9768

>  <SCORE.INTRA.VDW>
0

>  <SCORE.INTRA.VDW.0>
0

>  <SCORE.INTRA.norm>
0

>  <SCORE.RESTR>
0

>  <SCORE.RESTR.CAVITY>
0

>  <SCORE.RESTR.norm>
0

>  <SCORE.SYSTEM>
0

>  <SCORE.SYSTEM.CONST>
0

>  <SCORE.SYSTEM.DIHEDRAL>
0

>  <SCORE.SYSTEM.SOLV>
0

>  <SCORE.SYSTEM.norm>
0

>  <SCORE.heavy>
13

>  <SCORE.norm>
-3.01382

>  <RMSD>
0.719

$$$$
1eht cryst
 OpenBabel11021811383D
libRbt.so/2013.1/901 2013/11/27
 13 14  0  0  0  0  0  0  0  0999 V2000
   -4.7672   -7.8699   10.5919 C   0  0  0  0  0  0  0  0  0  0  0  0
   -5.2356   -7.0156   11.5860 N   0  0  0  0  0  0  0  0  0  0  0  0
   -5.6286   -7.5655   12.7789 C   0  0  0  0  0  0  0  0  0  0  0  0
   -5.5396   -8.7911   12.8745 O   0  0  0  0  0  0  0  0  0  0  0  0
   -6.1101   -6.8501   13.8460 N   0  0  0  0  0  0  0  0  0  0  0  0
   -6.5000   -7.4283   15.0429 C   0  0  0  0  0  0  0  0  0  0  0  0
   -6.1668   -5.5087   13.6077 C   0  0  0  0  0  0  0  0  0  0  0  0
   -5.7740   -4.9720   12.4158 C   0  0  0  0  0  0  0  0  0  0  0  0
   -5.2770   -5.6872   11.3112 C   0  0  0  0  0  0  0  0  0  0  0  0
   -4.9104   -5.2527   10.2203 O   0  0  0  0  0  0  0  0  0  0  0  0
   -5.9693   -3.6028   12.5369 N   0  0  0  0  0  0  0  0  0  0  0  0
   -6.4632   -3.4061   13.7823 C   0  0  0  0  0  0  0  0  0  0  0  0
   -6.6016   -4.5068   14.4682 N   0  0  0  0  0  0  0  0  0  0  0  0
  1  2  1  0  0  0  0
  2  9  1  0  0  0  0
  2  3  1  0  0  0  0
  3  5  1  0  0  0  0
  3  4  2  0  0  0  0
  5  6  1  0  0  0  0
  5  7  1  0  0  0  0
  7  8  2  0  0  0  0
  7 13  1  0  0  0  0
  8  9  1  0  0  0  0
  8 11  1  0  0  0  0
  9 10  2  0  0  0  0
 11 12  1  0  0  0  0
 12 13  2  0  0  0  0
M  END
>  <CHROM.1>
-5.75010242,-6.07687548,12.66990103,-0.78863993,1.19533687,-0.27869509

>  <Name>
1eht cryst

>  <RI>
0

>  <Rbt.Current_Directory>
/home/itssahil/PROJECTS/Mol_Feturizer/New_Systems/rnas/1eht

>  <Rbt.Executable>
rbdock ($Id: //depot/dev/client3/rdock/2013.1/src/exe/rbdock.cxx#4 $)

>  <Rbt.Library>
libRbt.so (2013.1, Build901 2013/11/27)

>  <Rbt.Parameter_File>
/export/apps/rDock/src/rDock_2013.1_src/data/scripts/dock_solv.prm

>  <Rbt.Receptor>
prm/blind_docking_40.prm

>  <SCORE>
-39.2313

>  <SCORE.INTER>
-39.2313

>  <SCORE.INTER.CONST>
1

>  <SCORE.INTER.POLAR>
-1.93168

>  <SCORE.INTER.ROT>
0

>  <SCORE.INTER.SOLV>
9.79882

>  <SCORE.INTER.VDW>
-26.5815

>  <SCORE.INTER.norm>
-3.01779

>  <SCORE.INTRA>
0

>  <SCORE.INTRA.DIHEDRAL>
0

>  <SCORE.INTRA.DIHEDRAL.0>
0

>  <SCORE.INTRA.POLAR>
0

>  <SCORE.INTRA.POLAR.0>
0

>  <SCORE.INTRA.REPUL>
0

>  <SCORE.INTRA.REPUL.0>
0

>  <SCORE.INTRA.SOLV>
0

>  <SCORE.INTRA.SOLV.lig_0>
-12.9768

>  <SCORE.INTRA.VDW>
0

>  <SCORE.INTRA.VDW.0>
0

>  <SCORE.INTRA.norm>
0

>  <SCORE.RESTR>
0

>  <SCORE.RESTR.CAVITY>
0

>  <SCORE.RESTR.norm>
0

>  <SCORE.SYSTEM>
0

>  <SCORE.SYSTEM.CONST>
0

>  <SCORE.SYSTEM.DIHEDRAL>
0

>  <SCORE.SYSTEM.SOLV>
0

>  <SCORE.SYSTEM.norm>
0

>  <SCORE.heavy>
13

>  <SCORE.norm>
-3.01779

>  <RMSD>
0.719

$$$$
1eht cryst
 OpenBabel11021811383D
libRbt.so/2013.1/901 2013/11/27
 13 14  0  0  0  0  0  0  0  0999 V2000
   -4.7857   -7.8953   10.5687 C   0  0  0  0  0  0  0  0  0  0  0  0
   -5.2553   -7.0233   11.5467 N   0  0  0  0  0  0  0  0  0  0  0  0
   -5.6268   -7.5488   12.7573 C   0  0  0  0  0  0  0  0  0  0  0  0
   -5.5189   -8.7702   12.8822 O   0  0  0  0  0  0  0  0  0  0  0  0
   -6.1067   -6.8140   13.8119 N   0  0  0  0  0  0  0  0  0  0  0  0
   -6.4746   -7.3676   15.0272 C   0  0  0  0  0  0  0  0  0  0  0  0
   -6.1856   -5.4798   13.5410 C   0  0  0  0  0  0  0  0  0  0  0  0
   -5.8141   -4.9674   12.3318 C   0  0  0  0  0  0  0  0  0  0  0  0
   -5.3192   -5.7029   11.2396 C   0  0  0  0  0  0  0  0  0  0  0  0
   -4.9712   -5.2905   10.1341 O   0  0  0  0  0  0  0  0  0  0  0  0
   -6.0279   -3.5986   12.4212 N   0  0  0  0  0  0  0  0  0  0  0  0
   -6.5106   -3.3780   13.6670 C   0  0  0  0  0  0  0  0  0  0  0  0
   -6.6252   -4.4631   14.3815 N   0  0  0  0  0  0  0  0  0  0  0  0
  1  2  1  0  0  0  0
  2  9  1  0  0  0  0
  2  3  1  0  0  0  0
  3  5  1  0  0  0  0
  3  4  2  0  0  0  0
  5  6  1  0  0  0  0
  5  7  1  0  0  0  0
  7  8  2  0  0  0  0
  7 13  1  0  0  0  0
  8  9  1  0  0  0  0
  8 11  1  0  0  0  0
  9 10  2  0  0  0  0
 11 12  1  0  0  0  0
 12 13  2  0  0  0  0
M  END
>  <CHROM.1>
-5.77121226,-6.06523168,12.61288680,-0.74125946,1.20174283,-0.34768193

>  <Name>
1eht cryst

>  <RI>
0

>  <Rbt.Current_Directory>
/home/itssahil/PROJECTS/Mol_Feturizer/New_Systems/rnas/1eht

>  <Rbt.Executable>
rbdock ($Id: //depot/dev/client3/rdock/2013.1/src/exe/rbdock.cxx#4 $)

>  <Rbt.Library>
libRbt.so (2013.1, Build901 2013/11/27)

>  <Rbt.Parameter_File>
/export/apps/rDock/src/rDock_2013.1_src/data/scripts/dock_solv.prm

>  <Rbt.Receptor>
prm/blind_docking_40.prm

>  <SCORE>
-39.2119

>  <SCORE.INTER>
-39.2119

>  <SCORE.INTER.CONST>
1

>  <SCORE.INTER.POLAR>
-1.94299

>  <SCORE.INTER.ROT>
0

>  <SCORE.INTER.SOLV>
9.76672

>  <SCORE.INTER.VDW>
-26.5202

>  <SCORE.INTER.norm>
-3.0163

>  <SCORE.INTRA>
0

>  <SCORE.INTRA.DIHEDRAL>
0

>  <SCORE.INTRA.DIHEDRAL.0>
0

>  <SCORE.INTRA.POLAR>
0

>  <SCORE.INTRA.POLAR.0>
0

>  <SCORE.INTRA.REPUL>
0

>  <SCORE.INTRA.REPUL.0>
0

>  <SCORE.INTRA.SOLV>
0

>  <SCORE.INTRA.SOLV.lig_0>
-12.9768

>  <SCORE.INTRA.VDW>
0

>  <SCORE.INTRA.VDW.0>
0

>  <SCORE.INTRA.norm>
0

>  <SCORE.RESTR>
0

>  <SCORE.RESTR.CAVITY>
0

>  <SCORE.RESTR.norm>
0

>  <SCORE.SYSTEM>
0

>  <SCORE.SYSTEM.CONST>
0

>  <SCORE.SYSTEM.DIHEDRAL>
0

>  <SCORE.SYSTEM.SOLV>
0

>  <SCORE.SYSTEM.norm>
0

>  <SCORE.heavy>
13

>  <SCORE.norm>
-3.0163

>  <RMSD>
0.719

$$$$
1eht cryst
 OpenBabel11021811383D
libRbt.so/2013.1/901 2013/11/27
 13 14  0  0  0  0  0  0  0  0999 V2000
   -4.7939   -7.8885   10.5693 C   0  0  0  0  0  0  0  0  0  0  0  0
   -5.2583   -7.0184   11.5516 N   0  0  0  0  0  0  0  0  0  0  0  0
   -5.6357   -7.5479   12.7586 C   0  0  0  0  0  0  0  0  0  0  0  0
   -5.5373   -8.7708   12.8768 O   0  0  0  0  0  0  0  0  0  0  0  0
   -6.1114   -6.8154   13.8167 N   0  0  0  0  0  0  0  0  0  0  0  0
   -6.4854   -7.3730   15.0283 C   0  0  0  0  0  0  0  0  0  0  0  0
   -6.1797   -5.4792   13.5533 C   0  0  0  0  0  0  0  0  0  0  0  0
   -5.8025   -4.9628   12.3475 C   0  0  0  0  0  0  0  0  0  0  0  0
   -5.3116   -5.6959   11.2519 C   0  0  0  0  0  0  0  0  0  0  0  0
   -4.9588   -5.2800   10.1492 O   0  0  0  0  0  0  0  0  0  0  0  0
   -6.0059   -3.5930   12.4443 N   0  0  0  0  0  0  0  0  0  0  0  0
   -6.4888   -3.3756   13.6906 C   0  0  0  0  0  0  0  0  0  0  0  0
   -6.6128   -4.4638   14.3988 N   0  0  0  0  0  0  0  0  0  0  0  0
  1  2  1  0  0  0  0
  2  9  1  0  0  0  0
  2  3  1  0  0  0  0
  3  5  1  0  0  0  0
  3  4  2  0  0  0  0
  5  6  1  0  0  0  0
  5  7  1  0  0  0  0
  7  8  2  0  0  0  0
  7 13  1  0  0  0  0
  8  9  1  0  0  0  0
  8 11  1  0  0  0  0
  9 10  2  0  0  0  0
 11 12  1  0  0  0  0
 12 13  2  0  0  0  0
M  END
>  <CHROM.1>
-5.76846830,-6.06249025,12.62240732,-0.76271624,1.20288337,-0.32202067

>  <Name>
1eht cryst

>  <RI>
0

>  <Rbt.Current_Directory>
/home/itssahil/PROJECTS/Mol_Feturizer/New_Systems/rnas/1eht

>  <Rbt.Executable>
rbdock ($Id: //depot/dev/client3/rdock/2013.1/src/exe/rbdock.cxx#4 $)

>  <Rbt.Library>
libRbt.so (2013.1, Build901 2013/11/27)

>  <Rbt.Parameter_File>
/export/apps/rDock/src/rDock_2013.1_src/data/scripts/dock_solv.prm

>  <Rbt.Receptor>
prm/blind_docking_60.prm

>  <SCORE>
-39.1789

>  <SCORE.INTER>
-39.1789

>  <SCORE.INTER.CONST>
1

>  <SCORE.INTER.POLAR>
-1.9403

>  <SCORE.INTER.ROT>
0

>  <SCORE.INTER.SOLV>
9.78811

>  <SCORE.INTER.VDW>
-26.5143

>  <SCORE.INTER.norm>
-3.01376

>  <SCORE.INTRA>
0

>  <SCORE.INTRA.DIHEDRAL>
0

>  <SCORE.INTRA.DIHEDRAL.0>
0

>  <SCORE.INTRA.POLAR>
0

>  <SCORE.INTRA.POLAR.0>
0

>  <SCORE.INTRA.REPUL>
0

>  <SCORE.INTRA.REPUL.0>
0

>  <SCORE.INTRA.SOLV>
0

>  <SCORE.INTRA.SOLV.lig_0>
-12.9768

>  <SCORE.INTRA.VDW>
0

>  <SCORE.INTRA.VDW.0>
0

>  <SCORE.INTRA.norm>
0

>  <SCORE.RESTR>
0

>  <SCORE.RESTR.CAVITY>
0

>  <SCORE.RESTR.norm>
0

>  <SCORE.SYSTEM>
0

>  <SCORE.SYSTEM.CONST>
0

>  <SCORE.SYSTEM.DIHEDRAL>
0

>  <SCORE.SYSTEM.SOLV>
0

>  <SCORE.SYSTEM.norm>
0

>  <SCORE.heavy>
13

>  <SCORE.norm>
-3.01376

>  <RMSD>
0.719

$$$$
1eht cryst
 OpenBabel11021811383D
libRbt.so/2013.1/901 2013/11/27
 13 14  0  0  0  0  0  0  0  0999 V2000
   -4.7808   -7.8779   10.5872 C   0  0  0  0  0  0  0  0  0  0  0  0
   -5.2417   -7.0211   11.5827 N   0  0  0  0  0  0  0  0  0  0  0  0
   -5.6300   -7.5685   12.7782 C   0  0  0  0  0  0  0  0  0  0  0  0
   -5.5438   -8.7942   12.8749 O   0  0  0  0  0  0  0  0  0  0  0  0
   -6.1040   -6.8505   13.8470 N   0  0  0  0  0  0  0  0  0  0  0  0
   -6.4892   -7.4261   15.0466 C   0  0  0  0  0  0  0  0  0  0  0  0
   -6.1584   -5.5092   13.6072 C   0  0  0  0  0  0  0  0  0  0  0  0
   -5.7704   -4.9750   12.4127 C   0  0  0  0  0  0  0  0  0  0  0  0
   -5.2810   -5.6930   11.3065 C   0  0  0  0  0  0  0  0  0  0  0  0
   -4.9189   -5.2608   10.2131 O   0  0  0  0  0  0  0  0  0  0  0  0
   -5.9613   -3.6052   12.5331 N   0  0  0  0  0  0  0  0  0  0  0  0
   -6.4482   -3.4056   13.7808 C   0  0  0  0  0  0  0  0  0  0  0  0
   -6.5860   -4.5051   14.4687 N   0  0  0  0  0  0  0  0  0  0  0  0
  1  2  1  0  0  0  0
  2  9  1  0  0  0  0
  2  3  1  0  0  0  0
  3  5  1  0  0  0  0
  3  4  2  0  0  0  0
  5  6  1  0  0  0  0
  5  7  1  0  0  0  0
  7  8  2  0  0  0  0
  7 13  1  0  0  0  0
  8  9  1  0  0  0  0
  8 11  1  0  0  0  0
  9 10  2  0  0  0  0
 11 12  1  0  0  0  0
 12 13  2  0  0  0  0
M  END
>  <CHROM.1>
-5.74808162,-6.07968836,12.66802424,-0.79183781,1.20106098,-0.27695179

>  <Name>
1eht cryst

>  <RI>
0

>  <Rbt.Current_Directory>
/home/itssahil/PROJECTS/Mol_Feturizer/New_Systems/rnas/1eht

>  <Rbt.Executable>
rbdock ($Id: //depot/dev/client3/rdock/2013.1/src/exe/rbdock.cxx#4 $)

>  <Rbt.Library>
libRbt.so (2013.1, Build901 2013/11/27)

>  <Rbt.Parameter_File>
/export/apps/rDock/src/rDock_2013.1_src/data/scripts/dock_solv.prm

>  <Rbt.Receptor>
prm/pocket_docking_2.prm

>  <SCORE>
-39.2449

>  <SCORE.INTER>
-39.2449

>  <SCORE.INTER.CONST>
1

>  <SCORE.INTER.POLAR>
-1.92572

>  <SCORE.INTER.ROT>
0

>  <SCORE.INTER.SOLV>
9.79125

>  <SCORE.INTER.VDW>
-26.6079

>  <SCORE.INTER.norm>
-3.01884

>  <SCORE.INTRA>
0

>  <SCORE.INTRA.DIHEDRAL>
0

>  <SCORE.INTRA.DIHEDRAL.0>
0

>  <SCORE.INTRA.POLAR>
0

>  <SCORE.INTRA.POLAR.0>
0

>  <SCORE.INTRA.REPUL>
0

>  <SCORE.INTRA.REPUL.0>
0

>  <SCORE.INTRA.SOLV>
0

>  <SCORE.INTRA.SOLV.lig_0>
-12.9768

>  <SCORE.INTRA.VDW>
0

>  <SCORE.INTRA.VDW.0>
0

>  <SCORE.INTRA.norm>
0

>  <SCORE.RESTR>
0

>  <SCORE.RESTR.CAVITY>
0

>  <SCORE.RESTR.norm>
0

>  <SCORE.SYSTEM>
0

>  <SCORE.SYSTEM.CONST>
0

>  <SCORE.SYSTEM.DIHEDRAL>
0

>  <SCORE.SYSTEM.SOLV>
0

>  <SCORE.SYSTEM.norm>
0

>  <SCORE.heavy>
13

>  <SCORE.norm>
-3.01884

>  <RMSD>
0.719

$$$$
1eht cryst
 OpenBabel11021811383D
libRbt.so/2013.1/901 2013/11/27
 13 14  0  0  0  0  0  0  0  0999 V2000
   -4.7872   -7.8739   10.5890 C   0  0  0  0  0  0  0  0  0  0  0  0
   -5.2466   -7.0176   11.5855 N   0  0  0  0  0  0  0  0  0  0  0  0
   -5.6328   -7.5654   12.7815 C   0  0  0  0  0  0  0  0  0  0  0  0
   -5.5462   -8.7911   12.8777 O   0  0  0  0  0  0  0  0  0  0  0  0
   -6.1051   -6.8478   13.8513 N   0  0  0  0  0  0  0  0  0  0  0  0
   -6.4882   -7.4239   15.0514 C   0  0  0  0  0  0  0  0  0  0  0  0
   -6.1601   -5.5064   13.6121 C   0  0  0  0  0  0  0  0  0  0  0  0
   -5.7742   -4.9718   12.4171 C   0  0  0  0  0  0  0  0  0  0  0  0
   -5.2866   -5.6894   11.3098 C   0  0  0  0  0  0  0  0  0  0  0  0
   -4.9264   -5.2568   10.2160 O   0  0  0  0  0  0  0  0  0  0  0  0
   -5.9651   -3.6021   12.5382 N   0  0  0  0  0  0  0  0  0  0  0  0
   -6.4500   -3.4030   13.7868 C   0  0  0  0  0  0  0  0  0  0  0  0
   -6.5864   -4.5027   14.4746 N   0  0  0  0  0  0  0  0  0  0  0  0
  1  2  1  0  0  0  0
  2  9  1  0  0  0  0
  2  3  1  0  0  0  0
  3  5  1  0  0  0  0
  3  4  2  0  0  0  0
  5  6  1  0  0  0  0
  5  7  1  0  0  0  0
  7  8  2  0  0  0  0
  7 13  1  0  0  0  0
  8  9  1  0  0  0  0
  8 11  1  0  0  0  0
  9 10  2  0  0  0  0
 11 12  1  0  0  0  0
 12 13  2  0  0  0  0
M  END
>  <CHROM.1>
-5.75125977,-6.07656279,12.67200468,-0.79012057,1.20263742,-0.27824008

>  <Name>
1eht cryst

>  <RI>
0

>  <Rbt.Current_Directory>
/home/itssahil/PROJECTS/Mol_Feturizer/New_Systems/rnas/1eht

>  <Rbt.Executable>
rbdock ($Id: //depot/dev/client3/rdock/2013.1/src/exe/rbdock.cxx#4 $)

>  <Rbt.Library>
libRbt.so (2013.1, Build901 2013/11/27)

>  <Rbt.Parameter_File>
/export/apps/rDock/src/rDock_2013.1_src/data/scripts/dock_solv.prm

>  <Rbt.Receptor>
prm/pocket_docking_2.prm

>  <SCORE>
-39.243

>  <SCORE.INTER>
-39.243

>  <SCORE.INTER.CONST>
1

>  <SCORE.INTER.POLAR>
-1.923

>  <SCORE.INTER.ROT>
0

>  <SCORE.INTER.SOLV>
9.79467

>  <SCORE.INTER.VDW>
-26.6169

>  <SCORE.INTER.norm>
-3.01869

>  <SCORE.INTRA>
0

>  <SCORE.INTRA.DIHEDRAL>
0

>  <SCORE.INTRA.DIHEDRAL.0>
0

>  <SCORE.INTRA.POLAR>
0

>  <SCORE.INTRA.POLAR.0>
0

>  <SCORE.INTRA.REPUL>
0

>  <SCORE.INTRA.REPUL.0>
0

>  <SCORE.INTRA.SOLV>
0

>  <SCORE.INTRA.SOLV.lig_0>
-12.9768

>  <SCORE.INTRA.VDW>
0

>  <SCORE.INTRA.VDW.0>
0

>  <SCORE.INTRA.norm>
0

>  <SCORE.RESTR>
0

>  <SCORE.RESTR.CAVITY>
0

>  <SCORE.RESTR.norm>
0

>  <SCORE.SYSTEM>
0

>  <SCORE.SYSTEM.CONST>
0

>  <SCORE.SYSTEM.DIHEDRAL>
0

>  <SCORE.SYSTEM.SOLV>
0

>  <SCORE.SYSTEM.norm>
0

>  <SCORE.heavy>
13

>  <SCORE.norm>
-3.01869

>  <RMSD>
0.719

$$$$
1eht cryst
 OpenBabel11021811383D
libRbt.so/2013.1/901 2013/11/27
 13 14  0  0  0  0  0  0  0  0999 V2000
   -4.7787   -7.8938   10.5688 C   0  0  0  0  0  0  0  0  0  0  0  0
   -5.2503   -7.0225   11.5465 N   0  0  0  0  0  0  0  0  0  0  0  0
   -5.6223   -7.5486   12.7567 C   0  0  0  0  0  0  0  0  0  0  0  0
   -5.5130   -8.7699   12.8815 O   0  0  0  0  0  0  0  0  0  0  0  0
   -6.1041   -6.8145   13.8109 N   0  0  0  0  0  0  0  0  0  0  0  0
   -6.4725   -7.3687   15.0258 C   0  0  0  0  0  0  0  0  0  0  0  0
   -6.1844   -5.4804   13.5401 C   0  0  0  0  0  0  0  0  0  0  0  0
   -5.8124   -4.9674   12.3313 C   0  0  0  0  0  0  0  0  0  0  0  0
   -5.3155   -5.7021   11.2395 C   0  0  0  0  0  0  0  0  0  0  0  0
   -4.9670   -5.2892   10.1343 O   0  0  0  0  0  0  0  0  0  0  0  0
   -6.0280   -3.5989   12.4206 N   0  0  0  0  0  0  0  0  0  0  0  0
   -6.5122   -3.3790   13.6659 C   0  0  0  0  0  0  0  0  0  0  0  0
   -6.6261   -4.4643   14.3802 N   0  0  0  0  0  0  0  0  0  0  0  0
  1  2  1  0  0  0  0
  2  9  1  0  0  0  0
  2  3  1  0  0  0  0
  3  5  1  0  0  0  0
  3  4  2  0  0  0  0
  5  6  1  0  0  0  0
  5  7  1  0  0  0  0
  7  8  2  0  0  0  0
  7 13  1  0  0  0  0
  8  9  1  0  0  0  0
  8 11  1  0  0  0  0
  9 10  2  0  0  0  0
 11 12  1  0  0  0  0
 12 13  2  0  0  0  0
M  END
>  <CHROM.1>
-5.76843899,-6.06520532,12.61227091,-0.73890309,1.20042615,-0.34977630

>  <Name>
1eht cryst

>  <RI>
0

>  <Rbt.Current_Directory>
/home/itssahil/PROJECTS/Mol_Feturizer/New_Systems/rnas/1eht

>  <Rbt.Executable>
rbdock ($Id: //depot/dev/client3/rdock/2013.1/src/exe/rbdock.cxx#4 $)

>  <Rbt.Library>
libRbt.so (2013.1, Build901 2013/11/27)

>  <Rbt.Parameter_File>
/export/apps/rDock/src/rDock_2013.1_src/data/scripts/dock_solv.prm

>  <Rbt.Receptor>
prm/pocket_docking_2.prm

>  <SCORE>
-39.2171

>  <SCORE.INTER>
-39.2171

>  <SCORE.INTER.CONST>
1

>  <SCORE.INTER.POLAR>
-1.94407

>  <SCORE.INTER.ROT>
0

>  <SCORE.INTER.SOLV>
9.76761

>  <SCORE.INTER.VDW>
-26.5203

>  <SCORE.INTER.norm>
-3.0167

>  <SCORE.INTRA>
0

>  <SCORE.INTRA.DIHEDRAL>
0

>  <SCORE.INTRA.DIHEDRAL.0>
0

>  <SCORE.INTRA.POLAR>
0

>  <SCORE.INTRA.POLAR.0>
0

>  <SCORE.INTRA.REPUL>
0

>  <SCORE.INTRA.REPUL.0>
0

>  <SCORE.INTRA.SOLV>
0

>  <SCORE.INTRA.SOLV.lig_0>
-12.9768

>  <SCORE.INTRA.VDW>
0

>  <SCORE.INTRA.VDW.0>
0

>  <SCORE.INTRA.norm>
0

>  <SCORE.RESTR>
0

>  <SCORE.RESTR.CAVITY>
0

>  <SCORE.RESTR.norm>
0

>  <SCORE.SYSTEM>
0

>  <SCORE.SYSTEM.CONST>
0

>  <SCORE.SYSTEM.DIHEDRAL>
0

>  <SCORE.SYSTEM.SOLV>
0

>  <SCORE.SYSTEM.norm>
0

>  <SCORE.heavy>
13

>  <SCORE.norm>
-3.0167

>  <RMSD>
0.719

$$$$
1eht cryst
 OpenBabel11021811383D
libRbt.so/2013.1/901 2013/11/27
 13 14  0  0  0  0  0  0  0  0999 V2000
   -4.7744   -7.8921   10.5696 C   0  0  0  0  0  0  0  0  0  0  0  0
   -5.2490   -7.0214   11.5464 N   0  0  0  0  0  0  0  0  0  0  0  0
   -5.6311   -7.5491   12.7527 C   0  0  0  0  0  0  0  0  0  0  0  0
   -5.5274   -8.7711   12.8752 O   0  0  0  0  0  0  0  0  0  0  0  0
   -6.1169   -6.8157   13.8056 N   0  0  0  0  0  0  0  0  0  0  0  0
   -6.4955   -7.3716   15.0166 C   0  0  0  0  0  0  0  0  0  0  0  0
   -6.1901   -5.4807   13.5377 C   0  0  0  0  0  0  0  0  0  0  0  0
   -5.8081   -4.9661   12.3327 C   0  0  0  0  0  0  0  0  0  0  0  0
   -5.3069   -5.7000   11.2423 C   0  0  0  0  0  0  0  0  0  0  0  0
   -4.9495   -5.2857   10.1406 O   0  0  0  0  0  0  0  0  0  0  0  0
   -6.0188   -3.5970   12.4240 N   0  0  0  0  0  0  0  0  0  0  0  0
   -6.5103   -3.3783   13.6667 C   0  0  0  0  0  0  0  0  0  0  0  0
   -6.6333   -4.4649   14.3775 N   0  0  0  0  0  0  0  0  0  0  0  0
  1  2  1  0  0  0  0
  2  9  1  0  0  0  0
  2  3  1  0  0  0  0
  3  5  1  0  0  0  0
  3  4  2  0  0  0  0
  5  6  1  0  0  0  0
  5  7  1  0  0  0  0
  7  8  2  0  0  0  0
  7 13  1  0  0  0  0
  8  9  1  0  0  0  0
  8 11  1  0  0  0  0
  9 10  2  0  0  0  0
 11 12  1  0  0  0  0
 12 13  2  0  0  0  0
M  END
>  <CHROM.1>
-5.77032520,-6.06476163,12.61115627,-0.75526457,1.19554120,-0.33199842

>  <Name>
1eht cryst

>  <RI>
0

>  <Rbt.Current_Directory>
/home/itssahil/PROJECTS/Mol_Feturizer/New_Systems/rnas/1eht

>  <Rbt.Executable>
rbdock ($Id: //depot/dev/client3/rdock/2013.1/src/exe/rbdock.cxx#4 $)

>  <Rbt.Library>
libRbt.so (2013.1, Build901 2013/11/27)

>  <Rbt.Parameter_File>
/export/apps/rDock/src/rDock_2013.1_src/data/scripts/dock_solv.prm

>  <Rbt.Receptor>
prm/pocket_docking_2.prm

>  <SCORE>
-39.2053

>  <SCORE.INTER>
-39.2053

>  <SCORE.INTER.CONST>
1

>  <SCORE.INTER.POLAR>
-1.95366

>  <SCORE.INTER.ROT>
0

>  <SCORE.INTER.SOLV>
9.78238

>  <SCORE.INTER.VDW>
-26.4855

>  <SCORE.INTER.norm>
-3.0158

>  <SCORE.INTRA>
0

>  <SCORE.INTRA.DIHEDRAL>
0

>  <SCORE.INTRA.DIHEDRAL.0>
0

>  <SCORE.INTRA.POLAR>
0

>  <SCORE.INTRA.POLAR.0>
0

>  <SCORE.INTRA.REPUL>
0

>  <SCORE.INTRA.REPUL.0>
0

>  <SCORE.INTRA.SOLV>
0

>  <SCORE.INTRA.SOLV.lig_0>
-12.9768

>  <SCORE.INTRA.VDW>
0

>  <SCORE.INTRA.VDW.0>
0

>  <SCORE.INTRA.norm>
0

>  <SCORE.RESTR>
0

>  <SCORE.RESTR.CAVITY>
0

>  <SCORE.RESTR.norm>
0

>  <SCORE.SYSTEM>
0

>  <SCORE.SYSTEM.CONST>
0

>  <SCORE.SYSTEM.DIHEDRAL>
0

>  <SCORE.SYSTEM.SOLV>
0

>  <SCORE.SYSTEM.norm>
0

>  <SCORE.heavy>
13

>  <SCORE.norm>
-3.0158

>  <RMSD>
0.719

$$$$
1eht cryst
 OpenBabel11021811383D
libRbt.so/2013.1/901 2013/11/27
 13 14  0  0  0  0  0  0  0  0999 V2000
   -4.7774   -7.8930   10.5694 C   0  0  0  0  0  0  0  0  0  0  0  0
   -5.2500   -7.0217   11.5467 N   0  0  0  0  0  0  0  0  0  0  0  0
   -5.6285   -7.5485   12.7545 C   0  0  0  0  0  0  0  0  0  0  0  0
   -5.5238   -8.7704   12.8779 O   0  0  0  0  0  0  0  0  0  0  0  0
   -6.1119   -6.8145   13.8081 N   0  0  0  0  0  0  0  0  0  0  0  0
   -6.4870   -7.3695   15.0206 C   0  0  0  0  0  0  0  0  0  0  0  0
   -6.1868   -5.4798   13.5392 C   0  0  0  0  0  0  0  0  0  0  0  0
   -5.8083   -4.9661   12.3327 C   0  0  0  0  0  0  0  0  0  0  0  0
   -5.3096   -5.7007   11.2416 C   0  0  0  0  0  0  0  0  0  0  0  0
   -4.9554   -5.2871   10.1385 O   0  0  0  0  0  0  0  0  0  0  0  0
   -6.0197   -3.5970   12.4233 N   0  0  0  0  0  0  0  0  0  0  0  0
   -6.5080   -3.3775   13.6671 C   0  0  0  0  0  0  0  0  0  0  0  0
   -6.6284   -4.4636   14.3792 N   0  0  0  0  0  0  0  0  0  0  0  0
  1  2  1  0  0  0  0
  2  9  1  0  0  0  0
  2  3  1  0  0  0  0
  3  5  1  0  0  0  0
  3  4  2  0  0  0  0
  5  6  1  0  0  0  0
  5  7  1  0  0  0  0
  7  8  2  0  0  0  0
  7 13  1  0  0  0  0
  8  9  1  0  0  0  0
  8 11  1  0  0  0  0
  9 10  2  0  0  0  0
 11 12  1  0  0  0  0
 12 13  2  0  0  0  0
M  END
>  <CHROM.1>
-5.76910885,-6.06444276,12.61201310,-0.75118711,1.19786357,-0.33670316

>  <Name>
1eht cryst

>  <RI>
0

>  <Rbt.Current_Directory>
/home/itssahil/PROJECTS/Mol_Feturizer/New_Systems/rnas/1eht

>  <Rbt.Executable>
rbdock ($Id: //depot/dev/client3/rdock/2013.1/src/exe/rbdock.cxx#4 $)

>  <Rbt.Library>
libRbt.so (2013.1, Build901 2013/11/27)

>  <Rbt.Parameter_File>
/export/apps/rDock/src/rDock_2013.1_src/data/scripts/dock_solv.prm

>  <Rbt.Receptor>
prm/pocket_docking_5.prm

>  <SCORE>
-39.2092

>  <SCORE.INTER>
-39.2092

>  <SCORE.INTER.CONST>
1

>  <SCORE.INTER.POLAR>
-1.95024

>  <SCORE.INTER.ROT>
0

>  <SCORE.INTER.SOLV>
9.77874

>  <SCORE.INTER.VDW>
-26.4983

>  <SCORE.INTER.norm>
-3.01609

>  <SCORE.INTRA>
0

>  <SCORE.INTRA.DIHEDRAL>
0

>  <SCORE.INTRA.DIHEDRAL.0>
0

>  <SCORE.INTRA.POLAR>
0

>  <SCORE.INTRA.POLAR.0>
0

>  <SCORE.INTRA.REPUL>
0

>  <SCORE.INTRA.REPUL.0>
0

>  <SCORE.INTRA.SOLV>
0

>  <SCORE.INTRA.SOLV.lig_0>
-12.9768

>  <SCORE.INTRA.VDW>
0

>  <SCORE.INTRA.VDW.0>
0

>  <SCORE.INTRA.norm>
0

>  <SCORE.RESTR>
0

>  <SCORE.RESTR.CAVITY>
0

>  <SCORE.RESTR.norm>
0

>  <SCORE.SYSTEM>
0

>  <SCORE.SYSTEM.CONST>
0

>  <SCORE.SYSTEM.DIHEDRAL>
0

>  <SCORE.SYSTEM.SOLV>
0

>  <SCORE.SYSTEM.norm>
0

>  <SCORE.heavy>
13

>  <SCORE.norm>
-3.01609

>  <RMSD>
0.719

$$$$
1eht cryst
 OpenBabel11021811383D
libRbt.so/2013.1/901 2013/11/27
 13 14  0  0  0  0  0  0  0  0999 V2000
   -4.7693   -7.8696   10.5917 C   0  0  0  0  0  0  0  0  0  0  0  0
   -5.2366   -7.0157   11.5867 N   0  0  0  0  0  0  0  0  0  0  0  0
   -5.6299   -7.5661   12.7792 C   0  0  0  0  0  0  0  0  0  0  0  0
   -5.5422   -8.7919   12.8738 O   0  0  0  0  0  0  0  0  0  0  0  0
   -6.1103   -6.8511   13.8470 N   0  0  0  0  0  0  0  0  0  0  0  0
   -6.5005   -7.4299   15.0436 C   0  0  0  0  0  0  0  0  0  0  0  0
   -6.1656   -5.5094   13.6098 C   0  0  0  0  0  0  0  0  0  0  0  0
   -5.7726   -4.9721   12.4183 C   0  0  0  0  0  0  0  0  0  0  0  0
   -5.2766   -5.6870   11.3130 C   0  0  0  0  0  0  0  0  0  0  0  0
   -4.9098   -5.2520   10.2224 O   0  0  0  0  0  0  0  0  0  0  0  0
   -5.9663   -3.6029   12.5405 N   0  0  0  0  0  0  0  0  0  0  0  0
   -6.4597   -3.4067   13.7862 C   0  0  0  0  0  0  0  0  0  0  0  0
   -6.5991   -4.5078   14.4713 N   0  0  0  0  0  0  0  0  0  0  0  0
  1  2  1  0  0  0  0
  2  9  1  0  0  0  0
  2  3  1  0  0  0  0
  3  5  1  0  0  0  0
  3  4  2  0  0  0  0
  5  6  1  0  0  0  0
  5  7  1  0  0  0  0
  7  8  2  0  0  0  0
  7 13  1  0  0  0  0
  8  9  1  0  0  0  0
  8 11  1  0  0  0  0
  9 10  2  0  0  0  0
 11 12  1  0  0  0  0
 12 13  2  0  0  0  0
M  END
>  <CHROM.1>
-5.74976274,-6.07729969,12.67146001,-0.79130250,1.19587822,-0.27538744

>  <Name>
1eht cryst

>  <RI>
0

>  <Rbt.Current_Directory>
/home/itssahil/PROJECTS/Mol_Feturizer/New_Systems/rnas/1eht

>  <Rbt.Executable>
rbdock ($Id: //depot/dev/client3/rdock/2013.1/src/exe/rbdock.cxx#4 $)

>  <Rbt.Library>
libRbt.so (2013.1, Build901 2013/11/27)

>  <Rbt.Parameter_File>
/export/apps/rDock/src/rDock_2013.1_src/data/scripts/dock_solv.prm

>  <Rbt.Receptor>
prm/pocket_docking_5.prm

>  <SCORE>
-39.2368

>  <SCORE.INTER>
-39.2368

>  <SCORE.INTER.CONST>
1

>  <SCORE.INTER.POLAR>
-1.93031

>  <SCORE.INTER.ROT>
0

>  <SCORE.INTER.SOLV>
9.80032

>  <SCORE.INTER.VDW>
-26.5903

>  <SCORE.INTER.norm>
-3.01822

>  <SCORE.INTRA>
0

>  <SCORE.INTRA.DIHEDRAL>
0

>  <SCORE.INTRA.DIHEDRAL.0>
0

>  <SCORE.INTRA.POLAR>
0

>  <SCORE.INTRA.POLAR.0>
0

>  <SCORE.INTRA.REPUL>
0

>  <SCORE.INTRA.REPUL.0>
0

>  <SCORE.INTRA.SOLV>
0

>  <SCORE.INTRA.SOLV.lig_0>
-12.9768

>  <SCORE.INTRA.VDW>
0

>  <SCORE.INTRA.VDW.0>
0

>  <SCORE.INTRA.norm>
0

>  <SCORE.RESTR>
0

>  <SCORE.RESTR.CAVITY>
0

>  <SCORE.RESTR.norm>
0

>  <SCORE.SYSTEM>
0

>  <SCORE.SYSTEM.CONST>
0

>  <SCORE.SYSTEM.DIHEDRAL>
0

>  <SCORE.SYSTEM.SOLV>
0

>  <SCORE.SYSTEM.norm>
0

>  <SCORE.heavy>
13

>  <SCORE.norm>
-3.01822

>  <RMSD>
0.719

$$$$
1eht cryst
 OpenBabel11021811383D
libRbt.so/2013.1/901 2013/11/27
 13 14  0  0  0  0  0  0  0  0999 V2000
   -4.7771   -7.8928   10.5694 C   0  0  0  0  0  0  0  0  0  0  0  0
   -5.2493   -7.0215   11.5468 N   0  0  0  0  0  0  0  0  0  0  0  0
   -5.6211   -7.5475   12.7571 C   0  0  0  0  0  0  0  0  0  0  0  0
   -5.5112   -8.7687   12.8824 O   0  0  0  0  0  0  0  0  0  0  0  0
   -6.1034   -6.8133   13.8111 N   0  0  0  0  0  0  0  0  0  0  0  0
   -6.4716   -7.3674   15.0261 C   0  0  0  0  0  0  0  0  0  0  0  0
   -6.1844   -5.4794   13.5399 C   0  0  0  0  0  0  0  0  0  0  0  0
   -5.8126   -4.9666   12.3310 C   0  0  0  0  0  0  0  0  0  0  0  0
   -5.3152   -5.7013   11.2394 C   0  0  0  0  0  0  0  0  0  0  0  0
   -4.9668   -5.2885   10.1342 O   0  0  0  0  0  0  0  0  0  0  0  0
   -6.0289   -3.5981   12.4199 N   0  0  0  0  0  0  0  0  0  0  0  0
   -6.5133   -3.3781   13.6651 C   0  0  0  0  0  0  0  0  0  0  0  0
   -6.6267   -4.4633   14.3797 N   0  0  0  0  0  0  0  0  0  0  0  0
  1  2  1  0  0  0  0
  2  9  1  0  0  0  0
  2  3  1  0  0  0  0
  3  5  1  0  0  0  0
  3  4  2  0  0  0  0
  5  6  1  0  0  0  0
  5  7  1  0  0  0  0
  7  8  2  0  0  0  0
  7 13  1  0  0  0  0
  8  9  1  0  0  0  0
  8 11  1  0  0  0  0
  9 10  2  0  0  0  0
 11 12  1  0  0  0  0
 12 13  2  0  0  0  0
M  END
>  <CHROM.1>
-5.76801407,-6.06421556,12.61230404,-0.73758044,1.20015449,-0.35128941

>  <Name>
1eht cryst

>  <RI>
0

>  <Rbt.Current_Directory>
/home/itssahil/PROJECTS/Mol_Feturizer/New_Systems/rnas/1eht

>  <Rbt.Executable>
rbdock ($Id: //depot/dev/client3/rdock/2013.1/src/exe/rbdock.cxx#4 $)

>  <Rbt.Library>
libRbt.so (2013.1, Build901 2013/11/27)

>  <Rbt.Parameter_File>
/export/apps/rDock/src/rDock_2013.1_src/data/scripts/dock_solv.prm

>  <Rbt.Receptor>
prm/pocket_docking_5.prm

>  <SCORE>
-39.2133

>  <SCORE.INTER>
-39.2133

>  <SCORE.INTER.CONST>
1

>  <SCORE.INTER.POLAR>
-1.94334

>  <SCORE.INTER.ROT>
0

>  <SCORE.INTER.SOLV>
9.76902

>  <SCORE.INTER.VDW>
-26.5208

>  <SCORE.INTER.norm>
-3.01641

>  <SCORE.INTRA>
0

>  <SCORE.INTRA.DIHEDRAL>
0

>  <SCORE.INTRA.DIHEDRAL.0>
0

>  <SCORE.INTRA.POLAR>
0

>  <SCORE.INTRA.POLAR.0>
0

>  <SCORE.INTRA.REPUL>
0

>  <SCORE.INTRA.REPUL.0>
0

>  <SCORE.INTRA.SOLV>
0

>  <SCORE.INTRA.SOLV.lig_0>
-12.9768

>  <SCORE.INTRA.VDW>
0

>  <SCORE.INTRA.VDW.0>
0

>  <SCORE.INTRA.norm>
0

>  <SCORE.RESTR>
0

>  <SCORE.RESTR.CAVITY>
0

>  <SCORE.RESTR.norm>
0

>  <SCORE.SYSTEM>
0

>  <SCORE.SYSTEM.CONST>
0

>  <SCORE.SYSTEM.DIHEDRAL>
0

>  <SCORE.SYSTEM.SOLV>
0

>  <SCORE.SYSTEM.norm>
0

>  <SCORE.heavy>
13

>  <SCORE.norm>
-3.01641

>  <RMSD>
0.719

$$$$
1eht cryst
 OpenBabel11021811383D
libRbt.so/2013.1/901 2013/11/27
 13 14  0  0  0  0  0  0  0  0999 V2000
   -4.7944   -7.8972   10.5651 C   0  0  0  0  0  0  0  0  0  0  0  0
   -5.2606   -7.0245   11.5442 N   0  0  0  0  0  0  0  0  0  0  0  0
   -5.6290   -7.5492   12.7561 C   0  0  0  0  0  0  0  0  0  0  0  0
   -5.5215   -8.7707   12.8812 O   0  0  0  0  0  0  0  0  0  0  0  0
   -6.1052   -6.8136   13.8117 N   0  0  0  0  0  0  0  0  0  0  0  0
   -6.4700   -7.3664   15.0283 C   0  0  0  0  0  0  0  0  0  0  0  0
   -6.1841   -5.4795   13.5405 C   0  0  0  0  0  0  0  0  0  0  0  0
   -5.8158   -4.9680   12.3299 C   0  0  0  0  0  0  0  0  0  0  0  0
   -5.3245   -5.7042   11.2366 C   0  0  0  0  0  0  0  0  0  0  0  0
   -4.9795   -5.2926   10.1299 O   0  0  0  0  0  0  0  0  0  0  0  0
   -6.0285   -3.5990   12.4193 N   0  0  0  0  0  0  0  0  0  0  0  0
   -6.5074   -3.3774   13.6663 C   0  0  0  0  0  0  0  0  0  0  0  0
   -6.6206   -4.4621   14.3817 N   0  0  0  0  0  0  0  0  0  0  0  0
  1  2  1  0  0  0  0
  2  9  1  0  0  0  0
  2  3  1  0  0  0  0
  3  5  1  0  0  0  0
  3  4  2  0  0  0  0
  5  6  1  0  0  0  0
  5  7  1  0  0  0  0
  7  8  2  0  0  0  0
  7 13  1  0  0  0  0
  8  9  1  0  0  0  0
  8 11  1  0  0  0  0
  9 10  2  0  0  0  0
 11 12  1  0  0  0  0
 12 13  2  0  0  0  0
M  END
>  <CHROM.1>
-5.77281646,-6.06563564,12.61138140,-0.74015859,1.20470863,-0.34917745

>  <Name>
1eht cryst

>  <RI>
0

>  <Rbt.Current_Directory>
/home/itssahil/PROJECTS/Mol_Feturizer/New_Systems/rnas/1eht

>  <Rbt.Executable>
rbdock ($Id: //depot/dev/client3/rdock/2013.1/src/exe/rbdock.cxx#4 $)

>  <Rbt.Library>
libRbt.so (2013.1, Build901 2013/11/27)

>  <Rbt.Parameter_File>
/export/apps/rDock/src/rDock_2013.1_src/data/scripts/dock_solv.prm

>  <Rbt.Receptor>
prm/pocket_docking_8.prm

>  <SCORE>
-39.2034

>  <SCORE.INTER>
-39.2034

>  <SCORE.INTER.CONST>
1

>  <SCORE.INTER.POLAR>
-1.94072

>  <SCORE.INTER.ROT>
0

>  <SCORE.INTER.SOLV>
9.76235

>  <SCORE.INTER.VDW>
-26.5206

>  <SCORE.INTER.norm>
-3.01564

>  <SCORE.INTRA>
0

>  <SCORE.INTRA.DIHEDRAL>
0

>  <SCORE.INTRA.DIHEDRAL.0>
0

>  <SCORE.INTRA.POLAR>
0

>  <SCORE.INTRA.POLAR.0>
0

>  <SCORE.INTRA.REPUL>
0

>  <SCORE.INTRA.REPUL.0>
0

>  <SCORE.INTRA.SOLV>
0

>  <SCORE.INTRA.SOLV.lig_0>
-12.9768

>  <SCORE.INTRA.VDW>
0

>  <SCORE.INTRA.VDW.0>
0

>  <SCORE.INTRA.norm>
0

>  <SCORE.RESTR>
0

>  <SCORE.RESTR.CAVITY>
0

>  <SCORE.RESTR.norm>
0

>  <SCORE.SYSTEM>
0

>  <SCORE.SYSTEM.CONST>
0

>  <SCORE.SYSTEM.DIHEDRAL>
0

>  <SCORE.SYSTEM.SOLV>
0

>  <SCORE.SYSTEM.norm>
0

>  <SCORE.heavy>
13

>  <SCORE.norm>
-3.01564

>  <RMSD>
0.719

$$$$
1eht cryst
 OpenBabel11021811383D
libRbt.so/2013.1/901 2013/11/27
 13 14  0  0  0  0  0  0  0  0999 V2000
   -4.7832   -7.8925   10.5689 C   0  0  0  0  0  0  0  0  0  0  0  0
   -5.2511   -7.0203   11.5476 N   0  0  0  0  0  0  0  0  0  0  0  0
   -5.6256   -7.5462   12.7571 C   0  0  0  0  0  0  0  0  0  0  0  0
   -5.5218   -8.7681   12.8804 O   0  0  0  0  0  0  0  0  0  0  0  0
   -6.1041   -6.8112   13.8122 N   0  0  0  0  0  0  0  0  0  0  0  0
   -6.4751   -7.3653   15.0263 C   0  0  0  0  0  0  0  0  0  0  0  0
   -6.1784   -5.4765   13.5430 C   0  0  0  0  0  0  0  0  0  0  0  0
   -5.8040   -4.9637   12.3349 C   0  0  0  0  0  0  0  0  0  0  0  0
   -5.3103   -5.6993   11.2422 C   0  0  0  0  0  0  0  0  0  0  0  0
   -4.9598   -5.2865   10.1376 O   0  0  0  0  0  0  0  0  0  0  0  0
   -6.0134   -3.5943   12.4259 N   0  0  0  0  0  0  0  0  0  0  0  0
   -6.4967   -3.3738   13.6715 C   0  0  0  0  0  0  0  0  0  0  0  0
   -6.6156   -4.4595   14.3844 N   0  0  0  0  0  0  0  0  0  0  0  0
  1  2  1  0  0  0  0
  2  9  1  0  0  0  0
  2  3  1  0  0  0  0
  3  5  1  0  0  0  0
  3  4  2  0  0  0  0
  5  6  1  0  0  0  0
  5  7  1  0  0  0  0
  7  8  2  0  0  0  0
  7 13  1  0  0  0  0
  8  9  1  0  0  0  0
  8 11  1  0  0  0  0
  9 10  2  0  0  0  0
 11 12  1  0  0  0  0
 12 13  2  0  0  0  0
M  END
>  <CHROM.1>
-5.76495732,-6.06199726,12.61453171,-0.75073466,1.20186017,-0.33749743

>  <Name>
1eht cryst

>  <RI>
0

>  <Rbt.Current_Directory>
/home/itssahil/PROJECTS/Mol_Feturizer/New_Systems/rnas/1eht

>  <Rbt.Executable>
rbdock ($Id: //depot/dev/client3/rdock/2013.1/src/exe/rbdock.cxx#4 $)

>  <Rbt.Library>
libRbt.so (2013.1, Build901 2013/11/27)

>  <Rbt.Parameter_File>
/export/apps/rDock/src/rDock_2013.1_src/data/scripts/dock_solv.prm

>  <Rbt.Receptor>
prm/blind_docking_100.prm

>  <SCORE>
-39.1756

>  <SCORE.INTER>
-39.1756

>  <SCORE.INTER.CONST>
1

>  <SCORE.INTER.POLAR>
-1.9438

>  <SCORE.INTER.ROT>
0

>  <SCORE.INTER.SOLV>
9.78141

>  <SCORE.INTER.VDW>
-26.4982

>  <SCORE.INTER.norm>
-3.01351

>  <SCORE.INTRA>
0

>  <SCORE.INTRA.DIHEDRAL>
0

>  <SCORE.INTRA.DIHEDRAL.0>
0

>  <SCORE.INTRA.POLAR>
0

>  <SCORE.INTRA.POLAR.0>
0

>  <SCORE.INTRA.REPUL>
0

>  <SCORE.INTRA.REPUL.0>
0

>  <SCORE.INTRA.SOLV>
0

>  <SCORE.INTRA.SOLV.lig_0>
-12.9768

>  <SCORE.INTRA.VDW>
0

>  <SCORE.INTRA.VDW.0>
0

>  <SCORE.INTRA.norm>
0

>  <SCORE.RESTR>
0

>  <SCORE.RESTR.CAVITY>
0

>  <SCORE.RESTR.norm>
0

>  <SCORE.SYSTEM>
0

>  <SCORE.SYSTEM.CONST>
0

>  <SCORE.SYSTEM.DIHEDRAL>
0

>  <SCORE.SYSTEM.SOLV>
0

>  <SCORE.SYSTEM.norm>
0

>  <SCORE.heavy>
13

>  <SCORE.norm>
-3.01351

>  <RMSD>
0.720

$$$$
1eht cryst
 OpenBabel11021811383D
libRbt.so/2013.1/901 2013/11/27
 13 14  0  0  0  0  0  0  0  0999 V2000
   -4.7678   -7.8705   10.5931 C   0  0  0  0  0  0  0  0  0  0  0  0
   -5.2353   -7.0161   11.5876 N   0  0  0  0  0  0  0  0  0  0  0  0
   -5.6277   -7.5659   12.7807 C   0  0  0  0  0  0  0  0  0  0  0  0
   -5.5389   -8.7915   12.8762 O   0  0  0  0  0  0  0  0  0  0  0  0
   -6.1082   -6.8504   13.8482 N   0  0  0  0  0  0  0  0  0  0  0  0
   -6.4974   -7.4286   15.0453 C   0  0  0  0  0  0  0  0  0  0  0  0
   -6.1647   -5.5090   13.6099 C   0  0  0  0  0  0  0  0  0  0  0  0
   -5.7726   -4.9723   12.4178 C   0  0  0  0  0  0  0  0  0  0  0  0
   -5.2766   -5.6877   11.3129 C   0  0  0  0  0  0  0  0  0  0  0  0
   -4.9106   -5.2533   10.2218 O   0  0  0  0  0  0  0  0  0  0  0  0
   -5.9674   -3.6032   12.5391 N   0  0  0  0  0  0  0  0  0  0  0  0
   -6.4605   -3.4063   13.7848 C   0  0  0  0  0  0  0  0  0  0  0  0
   -6.5987   -4.5070   14.4708 N   0  0  0  0  0  0  0  0  0  0  0  0
  1  2  1  0  0  0  0
  2  9  1  0  0  0  0
  2  3  1  0  0  0  0
  3  5  1  0  0  0  0
  3  4  2  0  0  0  0
  5  6  1  0  0  0  0
  5  7  1  0  0  0  0
  7  8  2  0  0  0  0
  7 13  1  0  0  0  0
  8  9  1  0  0  0  0
  8 11  1  0  0  0  0
  9 10  2  0  0  0  0
 11 12  1  0  0  0  0
 12 13  2  0  0  0  0
M  END
>  <CHROM.1>
-5.74882794,-6.07726883,12.67184808,-0.78883886,1.19606582,-0.27847390

>  <Name>
1eht cryst

>  <RI>
224

>  <Rbt.Current_Directory>
/home/itssahil/PROJECTS/Mol_Feturizer/New_Systems/rnas/1eht

>  <Rbt.Executable>
rbdock ($Id: //depot/dev/client3/rdock/2013.1/src/exe/rbdock.cxx#4 $)

>  <Rbt.Library>
libRbt.so (2013.1, Build901 2013/11/27)

>  <Rbt.Parameter_File>
/export/apps/rDock/src/rDock_2013.1_src/data/scripts/dock_solv.prm

>  <Rbt.Receptor>
prm/pocket_docking_7.prm

>  <SCORE>
-39.239

>  <SCORE.INTER>
-39.239

>  <SCORE.INTER.CONST>
1

>  <SCORE.INTER.POLAR>
-1.93

>  <SCORE.INTER.ROT>
0

>  <SCORE.INTER.SOLV>
9.79849

>  <SCORE.INTER.VDW>
-26.5921

>  <SCORE.INTER.norm>
-3.01838

>  <SCORE.INTRA>
0

>  <SCORE.INTRA.DIHEDRAL>
0

>  <SCORE.INTRA.DIHEDRAL.0>
0

>  <SCORE.INTRA.POLAR>
0

>  <SCORE.INTRA.POLAR.0>
0

>  <SCORE.INTRA.REPUL>
0

>  <SCORE.INTRA.REPUL.0>
0

>  <SCORE.INTRA.SOLV>
0

>  <SCORE.INTRA.SOLV.lig_0>
-12.9768

>  <SCORE.INTRA.VDW>
0

>  <SCORE.INTRA.VDW.0>
0

>  <SCORE.INTRA.norm>
0

>  <SCORE.RESTR>
0

>  <SCORE.RESTR.CAVITY>
0

>  <SCORE.RESTR.norm>
0

>  <SCORE.SYSTEM>
0

>  <SCORE.SYSTEM.CONST>
0

>  <SCORE.SYSTEM.DIHEDRAL>
0

>  <SCORE.SYSTEM.SOLV>
0

>  <SCORE.SYSTEM.norm>
0

>  <SCORE.heavy>
13

>  <SCORE.norm>
-3.01838

>  <RMSD>
0.720

$$$$
1eht cryst
 OpenBabel11021811383D
libRbt.so/2013.1/901 2013/11/27
 13 14  0  0  0  0  0  0  0  0999 V2000
   -4.7819   -7.8892   10.5734 C   0  0  0  0  0  0  0  0  0  0  0  0
   -5.2494   -7.0189   11.5539 N   0  0  0  0  0  0  0  0  0  0  0  0
   -5.6257   -7.5473   12.7617 C   0  0  0  0  0  0  0  0  0  0  0  0
   -5.5236   -8.7697   12.8822 O   0  0  0  0  0  0  0  0  0  0  0  0
   -6.1042   -6.8143   13.8182 N   0  0  0  0  0  0  0  0  0  0  0  0
   -6.4770   -7.3710   15.0307 C   0  0  0  0  0  0  0  0  0  0  0  0
   -6.1765   -5.4788   13.5523 C   0  0  0  0  0  0  0  0  0  0  0  0
   -5.8004   -4.9635   12.3458 C   0  0  0  0  0  0  0  0  0  0  0  0
   -5.3067   -5.6970   11.2517 C   0  0  0  0  0  0  0  0  0  0  0  0
   -4.9547   -5.2820   10.1485 O   0  0  0  0  0  0  0  0  0  0  0  0
   -6.0081   -3.5941   12.4400 N   0  0  0  0  0  0  0  0  0  0  0  0
   -6.4922   -3.3760   13.6857 C   0  0  0  0  0  0  0  0  0  0  0  0
   -6.6131   -4.4633   14.3958 N   0  0  0  0  0  0  0  0  0  0  0  0
  1  2  1  0  0  0  0
  2  9  1  0  0  0  0
  2  3  1  0  0  0  0
  3  5  1  0  0  0  0
  3  4  2  0  0  0  0
  5  6  1  0  0  0  0
  5  7  1  0  0  0  0
  7  8  2  0  0  0  0
  7 13  1  0  0  0  0
  8  9  1  0  0  0  0
  8 11  1  0  0  0  0
  9 10  2  0  0  0  0
 11 12  1  0  0  0  0
 12 13  2  0  0  0  0
M  END
>  <CHROM.1>
-5.76303311,-6.06256978,12.62273412,-0.75490060,1.20146869,-0.33113602

>  <Name>
1eht cryst

>  <RI>
0

>  <Rbt.Current_Directory>
/home/itssahil/PROJECTS/Mol_Feturizer/New_Systems/rnas/1eht

>  <Rbt.Executable>
rbdock ($Id: //depot/dev/client3/rdock/2013.1/src/exe/rbdock.cxx#4 $)

>  <Rbt.Library>
libRbt.so (2013.1, Build901 2013/11/27)

>  <Rbt.Parameter_File>
/export/apps/rDock/src/rDock_2013.1_src/data/scripts/dock_solv.prm

>  <Rbt.Receptor>
prm/pocket_docking_8.prm

>  <SCORE>
-39.1866

>  <SCORE.INTER>
-39.1866

>  <SCORE.INTER.CONST>
1

>  <SCORE.INTER.POLAR>
-1.9411

>  <SCORE.INTER.ROT>
0

>  <SCORE.INTER.SOLV>
9.78435

>  <SCORE.INTER.VDW>
-26.5155

>  <SCORE.INTER.norm>
-3.01435

>  <SCORE.INTRA>
0

>  <SCORE.INTRA.DIHEDRAL>
0

>  <SCORE.INTRA.DIHEDRAL.0>
0

>  <SCORE.INTRA.POLAR>
0

>  <SCORE.INTRA.POLAR.0>
0

>  <SCORE.INTRA.REPUL>
0

>  <SCORE.INTRA.REPUL.0>
0

>  <SCORE.INTRA.SOLV>
0

>  <SCORE.INTRA.SOLV.lig_0>
-12.9768

>  <SCORE.INTRA.VDW>
0

>  <SCORE.INTRA.VDW.0>
0

>  <SCORE.INTRA.norm>
0

>  <SCORE.RESTR>
0

>  <SCORE.RESTR.CAVITY>
0

>  <SCORE.RESTR.norm>
0

>  <SCORE.SYSTEM>
0

>  <SCORE.SYSTEM.CONST>
0

>  <SCORE.SYSTEM.DIHEDRAL>
0

>  <SCORE.SYSTEM.SOLV>
0

>  <SCORE.SYSTEM.norm>
0

>  <SCORE.heavy>
13

>  <SCORE.norm>
-3.01435

>  <RMSD>
0.720

$$$$
1eht cryst
 OpenBabel11021811383D
libRbt.so/2013.1/901 2013/11/27
 13 14  0  0  0  0  0  0  0  0999 V2000
   -4.8011   -7.8807   10.5696 C   0  0  0  0  0  0  0  0  0  0  0  0
   -5.2614   -7.0079   11.5514 N   0  0  0  0  0  0  0  0  0  0  0  0
   -5.6356   -7.5343   12.7608 C   0  0  0  0  0  0  0  0  0  0  0  0
   -5.5382   -8.7571   12.8813 O   0  0  0  0  0  0  0  0  0  0  0  0
   -6.1072   -6.7989   13.8186 N   0  0  0  0  0  0  0  0  0  0  0  0
   -6.4781   -7.3535   15.0327 C   0  0  0  0  0  0  0  0  0  0  0  0
   -6.1749   -5.4632   13.5525 C   0  0  0  0  0  0  0  0  0  0  0  0
   -5.8009   -4.9500   12.3444 C   0  0  0  0  0  0  0  0  0  0  0  0
   -5.3142   -5.6860   11.2489 C   0  0  0  0  0  0  0  0  0  0  0  0
   -4.9644   -5.2729   10.1442 O   0  0  0  0  0  0  0  0  0  0  0  0
   -6.0025   -3.5797   12.4387 N   0  0  0  0  0  0  0  0  0  0  0  0
   -6.4812   -3.3591   13.6861 C   0  0  0  0  0  0  0  0  0  0  0  0
   -6.6042   -4.4456   14.3971 N   0  0  0  0  0  0  0  0  0  0  0  0
  1  2  1  0  0  0  0
  2  9  1  0  0  0  0
  2  3  1  0  0  0  0
  3  5  1  0  0  0  0
  3  4  2  0  0  0  0
  5  6  1  0  0  0  0
  5  7  1  0  0  0  0
  7  8  2  0  0  0  0
  7 13  1  0  0  0  0
  8  9  1  0  0  0  0
  8 11  1  0  0  0  0
  9 10  2  0  0  0  0
 11 12  1  0  0  0  0
 12 13  2  0  0  0  0
M  END
>  <CHROM.1>
-5.76718267,-6.04906647,12.62163822,-0.76283952,1.20619001,-0.32412994

>  <Name>
1eht cryst

>  <RI>
0

>  <Rbt.Current_Directory>
/home/itssahil/PROJECTS/Mol_Feturizer/New_Systems/rnas/1eht

>  <Rbt.Executable>
rbdock ($Id: //depot/dev/client3/rdock/2013.1/src/exe/rbdock.cxx#4 $)

>  <Rbt.Library>
libRbt.so (2013.1, Build901 2013/11/27)

>  <Rbt.Parameter_File>
/export/apps/rDock/src/rDock_2013.1_src/data/scripts/dock_solv.prm

>  <Rbt.Receptor>
prm/blind_docking_100.prm

>  <SCORE>
-39.1889

>  <SCORE.INTER>
-39.1889

>  <SCORE.INTER.CONST>
1

>  <SCORE.INTER.POLAR>
-1.93071

>  <SCORE.INTER.ROT>
0

>  <SCORE.INTER.SOLV>
9.81166

>  <SCORE.INTER.VDW>
-26.5608

>  <SCORE.INTER.norm>
-3.01453

>  <SCORE.INTRA>
0

>  <SCORE.INTRA.DIHEDRAL>
0

>  <SCORE.INTRA.DIHEDRAL.0>
0

>  <SCORE.INTRA.POLAR>
0

>  <SCORE.INTRA.POLAR.0>
0

>  <SCORE.INTRA.REPUL>
0

>  <SCORE.INTRA.REPUL.0>
0

>  <SCORE.INTRA.SOLV>
0

>  <SCORE.INTRA.SOLV.lig_0>
-12.9768

>  <SCORE.INTRA.VDW>
0

>  <SCORE.INTRA.VDW.0>
0

>  <SCORE.INTRA.norm>
0

>  <SCORE.RESTR>
0

>  <SCORE.RESTR.CAVITY>
0

>  <SCORE.RESTR.norm>
0

>  <SCORE.SYSTEM>
0

>  <SCORE.SYSTEM.CONST>
0

>  <SCORE.SYSTEM.DIHEDRAL>
0

>  <SCORE.SYSTEM.SOLV>
0

>  <SCORE.SYSTEM.norm>
0

>  <SCORE.heavy>
13

>  <SCORE.norm>
-3.01453

>  <RMSD>
0.721

$$$$
1eht cryst
 OpenBabel11021811383D
libRbt.so/2013.1/901 2013/11/27
 13 14  0  0  0  0  0  0  0  0999 V2000
   -4.7712   -7.8689   10.5949 C   0  0  0  0  0  0  0  0  0  0  0  0
   -5.2395   -7.0148   11.5892 N   0  0  0  0  0  0  0  0  0  0  0  0
   -5.6351   -7.5651   12.7810 C   0  0  0  0  0  0  0  0  0  0  0  0
   -5.5483   -8.7910   12.8755 O   0  0  0  0  0  0  0  0  0  0  0  0
   -6.1168   -6.8500   13.8481 N   0  0  0  0  0  0  0  0  0  0  0  0
   -6.5093   -7.4287   15.0439 C   0  0  0  0  0  0  0  0  0  0  0  0
   -6.1710   -5.5082   13.6110 C   0  0  0  0  0  0  0  0  0  0  0  0
   -5.7757   -4.9711   12.4202 C   0  0  0  0  0  0  0  0  0  0  0  0
   -5.2784   -5.6861   11.3156 C   0  0  0  0  0  0  0  0  0  0  0  0
   -4.9096   -5.2512   10.2256 O   0  0  0  0  0  0  0  0  0  0  0  0
   -5.9689   -3.6017   12.5423 N   0  0  0  0  0  0  0  0  0  0  0  0
   -6.4642   -3.4053   13.7872 C   0  0  0  0  0  0  0  0  0  0  0  0
   -6.6053   -4.5064   14.4718 N   0  0  0  0  0  0  0  0  0  0  0  0
  1  2  1  0  0  0  0
  2  9  1  0  0  0  0
  2  3  1  0  0  0  0
  3  5  1  0  0  0  0
  3  4  2  0  0  0  0
  5  6  1  0  0  0  0
  5  7  1  0  0  0  0
  7  8  2  0  0  0  0
  7 13  1  0  0  0  0
  8  9  1  0  0  0  0
  8 11  1  0  0  0  0
  9 10  2  0  0  0  0
 11 12  1  0  0  0  0
 12 13  2  0  0  0  0
M  END
>  <CHROM.1>
-5.75397489,-6.07625377,12.67323957,-0.79400749,1.19447030,-0.27275044

>  <Name>
1eht cryst

>  <RI>
0

>  <Rbt.Current_Directory>
/home/itssahil/PROJECTS/Mol_Feturizer/New_Systems/rnas/1eht

>  <Rbt.Executable>
rbdock ($Id: //depot/dev/client3/rdock/2013.1/src/exe/rbdock.cxx#4 $)

>  <Rbt.Library>
libRbt.so (2013.1, Build901 2013/11/27)

>  <Rbt.Parameter_File>
/export/apps/rDock/src/rDock_2013.1_src/data/scripts/dock_solv.prm

>  <Rbt.Receptor>
prm/blind_docking_100.prm

>  <SCORE>
-39.2315

>  <SCORE.INTER>
-39.2315

>  <SCORE.INTER.CONST>
1

>  <SCORE.INTER.POLAR>
-1.93095

>  <SCORE.INTER.ROT>
0

>  <SCORE.INTER.SOLV>
9.80367

>  <SCORE.INTER.VDW>
-26.5858

>  <SCORE.INTER.norm>
-3.01781

>  <SCORE.INTRA>
0

>  <SCORE.INTRA.DIHEDRAL>
0

>  <SCORE.INTRA.DIHEDRAL.0>
0

>  <SCORE.INTRA.POLAR>
0

>  <SCORE.INTRA.POLAR.0>
0

>  <SCORE.INTRA.REPUL>
0

>  <SCORE.INTRA.REPUL.0>
0

>  <SCORE.INTRA.SOLV>
0

>  <SCORE.INTRA.SOLV.lig_0>
-12.9768

>  <SCORE.INTRA.VDW>
0

>  <SCORE.INTRA.VDW.0>
0

>  <SCORE.INTRA.norm>
0

>  <SCORE.RESTR>
0

>  <SCORE.RESTR.CAVITY>
0

>  <SCORE.RESTR.norm>
0

>  <SCORE.SYSTEM>
0

>  <SCORE.SYSTEM.CONST>
0

>  <SCORE.SYSTEM.DIHEDRAL>
0

>  <SCORE.SYSTEM.SOLV>
0

>  <SCORE.SYSTEM.norm>
0

>  <SCORE.heavy>
13

>  <SCORE.norm>
-3.01781

>  <RMSD>
0.721

$$$$
1eht cryst
 OpenBabel11021811383D
libRbt.so/2013.1/901 2013/11/27
 13 14  0  0  0  0  0  0  0  0999 V2000
   -4.7779   -7.8895   10.5715 C   0  0  0  0  0  0  0  0  0  0  0  0
   -5.2488   -7.0179   11.5493 N   0  0  0  0  0  0  0  0  0  0  0  0
   -5.6286   -7.5449   12.7567 C   0  0  0  0  0  0  0  0  0  0  0  0
   -5.5264   -8.7671   12.8791 O   0  0  0  0  0  0  0  0  0  0  0  0
   -6.1107   -6.8107   13.8107 N   0  0  0  0  0  0  0  0  0  0  0  0
   -6.4871   -7.3658   15.0227 C   0  0  0  0  0  0  0  0  0  0  0  0
   -6.1827   -5.4755   13.5428 C   0  0  0  0  0  0  0  0  0  0  0  0
   -5.8030   -4.9617   12.3367 C   0  0  0  0  0  0  0  0  0  0  0  0
   -5.3057   -5.6965   11.2452 C   0  0  0  0  0  0  0  0  0  0  0  0
   -4.9504   -5.2829   10.1425 O   0  0  0  0  0  0  0  0  0  0  0  0
   -6.0116   -3.5923   12.4284 N   0  0  0  0  0  0  0  0  0  0  0  0
   -6.4996   -3.3727   13.6723 C   0  0  0  0  0  0  0  0  0  0  0  0
   -6.6224   -4.4591   14.3835 N   0  0  0  0  0  0  0  0  0  0  0  0
  1  2  1  0  0  0  0
  2  9  1  0  0  0  0
  2  3  1  0  0  0  0
  3  5  1  0  0  0  0
  3  4  2  0  0  0  0
  5  6  1  0  0  0  0
  5  7  1  0  0  0  0
  7  8  2  0  0  0  0
  7 13  1  0  0  0  0
  8  9  1  0  0  0  0
  8 11  1  0  0  0  0
  9 10  2  0  0  0  0
 11 12  1  0  0  0  0
 12 13  2  0  0  0  0
M  END
>  <CHROM.1>
-5.76611791,-6.06038641,12.61527047,-0.75672633,1.19838837,-0.33078858

>  <Name>
1eht cryst

>  <RI>
0

>  <Rbt.Current_Directory>
/home/itssahil/PROJECTS/Mol_Feturizer/New_Systems/rnas/1eht

>  <Rbt.Executable>
rbdock ($Id: //depot/dev/client3/rdock/2013.1/src/exe/rbdock.cxx#4 $)

>  <Rbt.Library>
libRbt.so (2013.1, Build901 2013/11/27)

>  <Rbt.Parameter_File>
/export/apps/rDock/src/rDock_2013.1_src/data/scripts/dock_solv.prm

>  <Rbt.Receptor>
prm/blind_docking_20.prm

>  <SCORE>
-39.1732

>  <SCORE.INTER>
-39.1732

>  <SCORE.INTER.CONST>
1

>  <SCORE.INTER.POLAR>
-1.94603

>  <SCORE.INTER.ROT>
0

>  <SCORE.INTER.SOLV>
9.79088

>  <SCORE.INTER.VDW>
-26.4923

>  <SCORE.INTER.norm>
-3.01332

>  <SCORE.INTRA>
0

>  <SCORE.INTRA.DIHEDRAL>
0

>  <SCORE.INTRA.DIHEDRAL.0>
0

>  <SCORE.INTRA.POLAR>
0

>  <SCORE.INTRA.POLAR.0>
0

>  <SCORE.INTRA.REPUL>
0

>  <SCORE.INTRA.REPUL.0>
0

>  <SCORE.INTRA.SOLV>
0

>  <SCORE.INTRA.SOLV.lig_0>
-12.9768

>  <SCORE.INTRA.VDW>
0

>  <SCORE.INTRA.VDW.0>
0

>  <SCORE.INTRA.norm>
0

>  <SCORE.RESTR>
0

>  <SCORE.RESTR.CAVITY>
0

>  <SCORE.RESTR.norm>
0

>  <SCORE.SYSTEM>
0

>  <SCORE.SYSTEM.CONST>
0

>  <SCORE.SYSTEM.DIHEDRAL>
0

>  <SCORE.SYSTEM.SOLV>
0

>  <SCORE.SYSTEM.norm>
0

>  <SCORE.heavy>
13

>  <SCORE.norm>
-3.01332

>  <RMSD>
0.721

$$$$
1eht cryst
 OpenBabel11021811383D
libRbt.so/2013.1/901 2013/11/27
 13 14  0  0  0  0  0  0  0  0999 V2000
   -4.7783   -7.8899   10.5720 C   0  0  0  0  0  0  0  0  0  0  0  0
   -5.2474   -7.0178   11.5503 N   0  0  0  0  0  0  0  0  0  0  0  0
   -5.6235   -7.5440   12.7592 C   0  0  0  0  0  0  0  0  0  0  0  0
   -5.5197   -8.7660   12.8825 O   0  0  0  0  0  0  0  0  0  0  0  0
   -6.1034   -6.8092   13.8138 N   0  0  0  0  0  0  0  0  0  0  0  0
   -6.4760   -7.3636   15.0273 C   0  0  0  0  0  0  0  0  0  0  0  0
   -6.1775   -5.4745   13.5447 C   0  0  0  0  0  0  0  0  0  0  0  0
   -5.8015   -4.9614   12.3372 C   0  0  0  0  0  0  0  0  0  0  0  0
   -5.3064   -5.6968   11.2450 C   0  0  0  0  0  0  0  0  0  0  0  0
   -4.9545   -5.2839   10.1410 O   0  0  0  0  0  0  0  0  0  0  0  0
   -6.0112   -3.5921   12.4281 N   0  0  0  0  0  0  0  0  0  0  0  0
   -6.4961   -3.3718   13.6731 C   0  0  0  0  0  0  0  0  0  0  0  0
   -6.6159   -4.4576   14.3857 N   0  0  0  0  0  0  0  0  0  0  0  0
  1  2  1  0  0  0  0
  2  9  1  0  0  0  0
  2  3  1  0  0  0  0
  3  5  1  0  0  0  0
  3  4  2  0  0  0  0
  5  6  1  0  0  0  0
  5  7  1  0  0  0  0
  7  8  2  0  0  0  0
  7 13  1  0  0  0  0
  8  9  1  0  0  0  0
  8 11  1  0  0  0  0
  9 10  2  0  0  0  0
 11 12  1  0  0  0  0
 12 13  2  0  0  0  0
M  END
>  <CHROM.1>
-5.76278377,-6.05979033,12.61667448,-0.75171750,1.20060157,-0.33641984

>  <Name>
1eht cryst

>  <RI>
0

>  <Rbt.Current_Directory>
/home/itssahil/PROJECTS/Mol_Feturizer/New_Systems/rnas/1eht

>  <Rbt.Executable>
rbdock ($Id: //depot/dev/client3/rdock/2013.1/src/exe/rbdock.cxx#4 $)

>  <Rbt.Library>
libRbt.so (2013.1, Build901 2013/11/27)

>  <Rbt.Parameter_File>
/export/apps/rDock/src/rDock_2013.1_src/data/scripts/dock_solv.prm

>  <Rbt.Receptor>
prm/blind_docking_60.prm

>  <SCORE>
-39.1778

>  <SCORE.INTER>
-39.1778

>  <SCORE.INTER.CONST>
1

>  <SCORE.INTER.POLAR>
-1.94276

>  <SCORE.INTER.ROT>
0

>  <SCORE.INTER.SOLV>
9.78794

>  <SCORE.INTER.VDW>
-26.5053

>  <SCORE.INTER.norm>
-3.01368

>  <SCORE.INTRA>
0

>  <SCORE.INTRA.DIHEDRAL>
0

>  <SCORE.INTRA.DIHEDRAL.0>
0

>  <SCORE.INTRA.POLAR>
0

>  <SCORE.INTRA.POLAR.0>
0

>  <SCORE.INTRA.REPUL>
0

>  <SCORE.INTRA.REPUL.0>
0

>  <SCORE.INTRA.SOLV>
0

>  <SCORE.INTRA.SOLV.lig_0>
-12.9768

>  <SCORE.INTRA.VDW>
0

>  <SCORE.INTRA.VDW.0>
0

>  <SCORE.INTRA.norm>
0

>  <SCORE.RESTR>
0

>  <SCORE.RESTR.CAVITY>
0

>  <SCORE.RESTR.norm>
0

>  <SCORE.SYSTEM>
0

>  <SCORE.SYSTEM.CONST>
0

>  <SCORE.SYSTEM.DIHEDRAL>
0

>  <SCORE.SYSTEM.SOLV>
0

>  <SCORE.SYSTEM.norm>
0

>  <SCORE.heavy>
13

>  <SCORE.norm>
-3.01368

>  <RMSD>
0.721

$$$$
1eht cryst
 OpenBabel11021811383D
libRbt.so/2013.1/901 2013/11/27
 13 14  0  0  0  0  0  0  0  0999 V2000
   -4.7773   -7.9157   10.5758 C   0  0  0  0  0  0  0  0  0  0  0  0
   -5.2436   -7.0446   11.5563 N   0  0  0  0  0  0  0  0  0  0  0  0
   -5.6159   -7.5719   12.7659 C   0  0  0  0  0  0  0  0  0  0  0  0
   -5.5116   -8.7940   12.8878 O   0  0  0  0  0  0  0  0  0  0  0  0
   -6.0927   -6.8382   13.8226 N   0  0  0  0  0  0  0  0  0  0  0  0
   -6.4614   -7.3937   15.0369 C   0  0  0  0  0  0  0  0  0  0  0  0
   -6.1677   -5.5032   13.5551 C   0  0  0  0  0  0  0  0  0  0  0  0
   -5.7955   -4.9890   12.3468 C   0  0  0  0  0  0  0  0  0  0  0  0
   -5.3037   -5.7233   11.2525 C   0  0  0  0  0  0  0  0  0  0  0  0
   -4.9552   -5.3093   10.1477 O   0  0  0  0  0  0  0  0  0  0  0  0
   -6.0051   -3.6198   12.4397 N   0  0  0  0  0  0  0  0  0  0  0  0
   -6.4862   -3.4007   13.6863 C   0  0  0  0  0  0  0  0  0  0  0  0
   -6.6037   -4.4872   14.3983 N   0  0  0  0  0  0  0  0  0  0  0  0
  1  2  1  0  0  0  0
  2  9  1  0  0  0  0
  2  3  1  0  0  0  0
  3  5  1  0  0  0  0
  3  4  2  0  0  0  0
  5  6  1  0  0  0  0
  5  7  1  0  0  0  0
  7  8  2  0  0  0  0
  7 13  1  0  0  0  0
  8  9  1  0  0  0  0
  8 11  1  0  0  0  0
  9 10  2  0  0  0  0
 11 12  1  0  0  0  0
 12 13  2  0  0  0  0
M  END
>  <CHROM.1>
-5.75581461,-6.08759734,12.62520847,-0.74853719,1.20346227,-0.33846968

>  <Name>
1eht cryst

>  <RI>
0

>  <Rbt.Current_Directory>
/home/itssahil/PROJECTS/Mol_Feturizer/New_Systems/rnas/1eht

>  <Rbt.Executable>
rbdock ($Id: //depot/dev/client3/rdock/2013.1/src/exe/rbdock.cxx#4 $)

>  <Rbt.Library>
libRbt.so (2013.1, Build901 2013/11/27)

>  <Rbt.Parameter_File>
/export/apps/rDock/src/rDock_2013.1_src/data/scripts/dock_solv.prm

>  <Rbt.Receptor>
prm/pocket_docking_3.prm

>  <SCORE>
-39.1624

>  <SCORE.INTER>
-39.1624

>  <SCORE.INTER.CONST>
1

>  <SCORE.INTER.POLAR>
-1.94673

>  <SCORE.INTER.ROT>
0

>  <SCORE.INTER.SOLV>
9.7275

>  <SCORE.INTER.VDW>
-26.4617

>  <SCORE.INTER.norm>
-3.0125

>  <SCORE.INTRA>
0

>  <SCORE.INTRA.DIHEDRAL>
0

>  <SCORE.INTRA.DIHEDRAL.0>
0

>  <SCORE.INTRA.POLAR>
0

>  <SCORE.INTRA.POLAR.0>
0

>  <SCORE.INTRA.REPUL>
0

>  <SCORE.INTRA.REPUL.0>
0

>  <SCORE.INTRA.SOLV>
0

>  <SCORE.INTRA.SOLV.lig_0>
-12.9768

>  <SCORE.INTRA.VDW>
0

>  <SCORE.INTRA.VDW.0>
0

>  <SCORE.INTRA.norm>
0

>  <SCORE.RESTR>
0

>  <SCORE.RESTR.CAVITY>
0

>  <SCORE.RESTR.norm>
0

>  <SCORE.SYSTEM>
0

>  <SCORE.SYSTEM.CONST>
0

>  <SCORE.SYSTEM.DIHEDRAL>
0

>  <SCORE.SYSTEM.SOLV>
0

>  <SCORE.SYSTEM.norm>
0

>  <SCORE.heavy>
13

>  <SCORE.norm>
-3.0125

>  <RMSD>
0.721

$$$$
1eht cryst
 OpenBabel11021811383D
libRbt.so/2013.1/901 2013/11/27
 13 14  0  0  0  0  0  0  0  0999 V2000
   -4.7858   -7.8938   10.5702 C   0  0  0  0  0  0  0  0  0  0  0  0
   -5.2527   -7.0211   11.5489 N   0  0  0  0  0  0  0  0  0  0  0  0
   -5.6261   -7.5463   12.7590 C   0  0  0  0  0  0  0  0  0  0  0  0
   -5.5222   -8.7682   12.8830 O   0  0  0  0  0  0  0  0  0  0  0  0
   -6.1036   -6.8108   13.8142 N   0  0  0  0  0  0  0  0  0  0  0  0
   -6.4735   -7.3642   15.0290 C   0  0  0  0  0  0  0  0  0  0  0  0
   -6.1781   -5.4762   13.5444 C   0  0  0  0  0  0  0  0  0  0  0  0
   -5.8048   -4.9640   12.3356 C   0  0  0  0  0  0  0  0  0  0  0  0
   -5.3122   -5.7002   11.2429 C   0  0  0  0  0  0  0  0  0  0  0  0
   -4.9627   -5.2881   10.1378 O   0  0  0  0  0  0  0  0  0  0  0  0
   -6.0141   -3.5946   12.4261 N   0  0  0  0  0  0  0  0  0  0  0  0
   -6.4962   -3.3734   13.6720 C   0  0  0  0  0  0  0  0  0  0  0  0
   -6.6145   -4.4587   14.3856 N   0  0  0  0  0  0  0  0  0  0  0  0
  1  2  1  0  0  0  0
  2  9  1  0  0  0  0
  2  3  1  0  0  0  0
  3  5  1  0  0  0  0
  3  4  2  0  0  0  0
  5  6  1  0  0  0  0
  5  7  1  0  0  0  0
  7  8  2  0  0  0  0
  7 13  1  0  0  0  0
  8  9  1  0  0  0  0
  8 11  1  0  0  0  0
  9 10  2  0  0  0  0
 11 12  1  0  0  0  0
 12 13  2  0  0  0  0
M  END
>  <CHROM.1>
-5.76557626,-6.06218441,12.61581602,-0.74995855,1.20275138,-0.33876521

>  <Name>
1eht cryst

>  <RI>
0

>  <Rbt.Current_Directory>
/home/itssahil/PROJECTS/Mol_Feturizer/New_Systems/rnas/1eht

>  <Rbt.Executable>
rbdock ($Id: //depot/dev/client3/rdock/2013.1/src/exe/rbdock.cxx#4 $)

>  <Rbt.Library>
libRbt.so (2013.1, Build901 2013/11/27)

>  <Rbt.Parameter_File>
/export/apps/rDock/src/rDock_2013.1_src/data/scripts/dock_solv.prm

>  <Rbt.Receptor>
prm/pocket_docking_4.prm

>  <SCORE>
-39.1738

>  <SCORE.INTER>
-39.1738

>  <SCORE.INTER.CONST>
1

>  <SCORE.INTER.POLAR>
-1.94278

>  <SCORE.INTER.ROT>
0

>  <SCORE.INTER.SOLV>
9.77905

>  <SCORE.INTER.VDW>
-26.4996

>  <SCORE.INTER.norm>
-3.01337

>  <SCORE.INTRA>
0

>  <SCORE.INTRA.DIHEDRAL>
0

>  <SCORE.INTRA.DIHEDRAL.0>
0

>  <SCORE.INTRA.POLAR>
0

>  <SCORE.INTRA.POLAR.0>
0

>  <SCORE.INTRA.REPUL>
0

>  <SCORE.INTRA.REPUL.0>
0

>  <SCORE.INTRA.SOLV>
0

>  <SCORE.INTRA.SOLV.lig_0>
-12.9768

>  <SCORE.INTRA.VDW>
0

>  <SCORE.INTRA.VDW.0>
0

>  <SCORE.INTRA.norm>
0

>  <SCORE.RESTR>
0

>  <SCORE.RESTR.CAVITY>
0

>  <SCORE.RESTR.norm>
0

>  <SCORE.SYSTEM>
0

>  <SCORE.SYSTEM.CONST>
0

>  <SCORE.SYSTEM.DIHEDRAL>
0

>  <SCORE.SYSTEM.SOLV>
0

>  <SCORE.SYSTEM.norm>
0

>  <SCORE.heavy>
13

>  <SCORE.norm>
-3.01337

>  <RMSD>
0.721

$$$$
1eht cryst
 OpenBabel11021811383D
libRbt.so/2013.1/901 2013/11/27
 13 14  0  0  0  0  0  0  0  0999 V2000
   -4.7743   -7.8929   10.5720 C   0  0  0  0  0  0  0  0  0  0  0  0
   -5.2482   -7.0217   11.5487 N   0  0  0  0  0  0  0  0  0  0  0  0
   -5.6285   -7.5486   12.7559 C   0  0  0  0  0  0  0  0  0  0  0  0
   -5.5241   -8.7705   12.8792 O   0  0  0  0  0  0  0  0  0  0  0  0
   -6.1134   -6.8147   13.8088 N   0  0  0  0  0  0  0  0  0  0  0  0
   -6.4903   -7.3697   15.0207 C   0  0  0  0  0  0  0  0  0  0  0  0
   -6.1877   -5.4799   13.5399 C   0  0  0  0  0  0  0  0  0  0  0  0
   -5.8074   -4.9661   12.3340 C   0  0  0  0  0  0  0  0  0  0  0  0
   -5.3072   -5.7006   11.2436 C   0  0  0  0  0  0  0  0  0  0  0  0
   -4.9513   -5.2870   10.1411 O   0  0  0  0  0  0  0  0  0  0  0  0
   -6.0188   -3.5970   12.4246 N   0  0  0  0  0  0  0  0  0  0  0  0
   -6.5089   -3.3775   13.6677 C   0  0  0  0  0  0  0  0  0  0  0  0
   -6.6304   -4.4637   14.3794 N   0  0  0  0  0  0  0  0  0  0  0  0
  1  2  1  0  0  0  0
  2  9  1  0  0  0  0
  2  3  1  0  0  0  0
  3  5  1  0  0  0  0
  3  4  2  0  0  0  0
  5  6  1  0  0  0  0
  5  7  1  0  0  0  0
  7  8  2  0  0  0  0
  7 13  1  0  0  0  0
  8  9  1  0  0  0  0
  8 11  1  0  0  0  0
  9 10  2  0  0  0  0
 11 12  1  0  0  0  0
 12 13  2  0  0  0  0
M  END
>  <CHROM.1>
-5.76873689,-6.06447637,12.61332526,-0.75281168,1.19651304,-0.33507561

>  <Name>
1eht cryst

>  <RI>
0

>  <Rbt.Current_Directory>
/home/itssahil/PROJECTS/Mol_Feturizer/New_Systems/rnas/1eht

>  <Rbt.Executable>
rbdock ($Id: //depot/dev/client3/rdock/2013.1/src/exe/rbdock.cxx#4 $)

>  <Rbt.Library>
libRbt.so (2013.1, Build901 2013/11/27)

>  <Rbt.Parameter_File>
/export/apps/rDock/src/rDock_2013.1_src/data/scripts/dock_solv.prm

>  <Rbt.Receptor>
prm/pocket_docking_6.prm

>  <SCORE>
-39.1875

>  <SCORE.INTER>
-39.1875

>  <SCORE.INTER.CONST>
1

>  <SCORE.INTER.POLAR>
-1.9516

>  <SCORE.INTER.ROT>
0

>  <SCORE.INTER.SOLV>
9.78046

>  <SCORE.INTER.VDW>
-26.4798

>  <SCORE.INTER.norm>
-3.01442

>  <SCORE.INTRA>
0

>  <SCORE.INTRA.DIHEDRAL>
0

>  <SCORE.INTRA.DIHEDRAL.0>
0

>  <SCORE.INTRA.POLAR>
0

>  <SCORE.INTRA.POLAR.0>
0

>  <SCORE.INTRA.REPUL>
0

>  <SCORE.INTRA.REPUL.0>
0

>  <SCORE.INTRA.SOLV>
0

>  <SCORE.INTRA.SOLV.lig_0>
-12.9768

>  <SCORE.INTRA.VDW>
0

>  <SCORE.INTRA.VDW.0>
0

>  <SCORE.INTRA.norm>
0

>  <SCORE.RESTR>
0

>  <SCORE.RESTR.CAVITY>
0

>  <SCORE.RESTR.norm>
0

>  <SCORE.SYSTEM>
0

>  <SCORE.SYSTEM.CONST>
0

>  <SCORE.SYSTEM.DIHEDRAL>
0

>  <SCORE.SYSTEM.SOLV>
0

>  <SCORE.SYSTEM.norm>
0

>  <SCORE.heavy>
13

>  <SCORE.norm>
-3.01442

>  <RMSD>
0.721

$$$$
1eht cryst
 OpenBabel11021811383D
libRbt.so/2013.1/901 2013/11/27
 13 14  0  0  0  0  0  0  0  0999 V2000
   -4.7917   -7.8788   10.5705 C   0  0  0  0  0  0  0  0  0  0  0  0
   -5.2572   -7.0074   11.5511 N   0  0  0  0  0  0  0  0  0  0  0  0
   -5.6379   -7.5354   12.7577 C   0  0  0  0  0  0  0  0  0  0  0  0
   -5.5412   -8.7584   12.8771 O   0  0  0  0  0  0  0  0  0  0  0  0
   -6.1151   -6.8015   13.8141 N   0  0  0  0  0  0  0  0  0  0  0  0
   -6.4924   -7.3578   15.0254 C   0  0  0  0  0  0  0  0  0  0  0  0
   -6.1813   -5.4655   13.5495 C   0  0  0  0  0  0  0  0  0  0  0  0
   -5.8008   -4.9506   12.3441 C   0  0  0  0  0  0  0  0  0  0  0  0
   -5.3084   -5.6850   11.2502 C   0  0  0  0  0  0  0  0  0  0  0  0
   -4.9527   -5.2704   10.1480 O   0  0  0  0  0  0  0  0  0  0  0  0
   -6.0029   -3.5804   12.4393 N   0  0  0  0  0  0  0  0  0  0  0  0
   -6.4883   -3.3615   13.6844 C   0  0  0  0  0  0  0  0  0  0  0  0
   -6.6151   -4.4490   14.3932 N   0  0  0  0  0  0  0  0  0  0  0  0
  1  2  1  0  0  0  0
  2  9  1  0  0  0  0
  2  3  1  0  0  0  0
  3  5  1  0  0  0  0
  3  4  2  0  0  0  0
  5  6  1  0  0  0  0
  5  7  1  0  0  0  0
  7  8  2  0  0  0  0
  7 13  1  0  0  0  0
  8  9  1  0  0  0  0
  8 11  1  0  0  0  0
  9 10  2  0  0  0  0
 11 12  1  0  0  0  0
 12 13  2  0  0  0  0
M  END
>  <CHROM.1>
-5.76865150,-6.05002672,12.62000884,-0.76763960,1.20115314,-0.31824413

>  <Name>
1eht cryst

>  <RI>
0

>  <Rbt.Current_Directory>
/home/itssahil/PROJECTS/Mol_Feturizer/New_Systems/rnas/1eht

>  <Rbt.Executable>
rbdock ($Id: //depot/dev/client3/rdock/2013.1/src/exe/rbdock.cxx#4 $)

>  <Rbt.Library>
libRbt.so (2013.1, Build901 2013/11/27)

>  <Rbt.Parameter_File>
/export/apps/rDock/src/rDock_2013.1_src/data/scripts/dock_solv.prm

>  <Rbt.Receptor>
prm/pocket_docking_8.prm

>  <SCORE>
-39.1668

>  <SCORE.INTER>
-39.1668

>  <SCORE.INTER.CONST>
1

>  <SCORE.INTER.POLAR>
-1.93677

>  <SCORE.INTER.ROT>
0

>  <SCORE.INTER.SOLV>
9.81671

>  <SCORE.INTER.VDW>
-26.5275

>  <SCORE.INTER.norm>
-3.01283

>  <SCORE.INTRA>
0

>  <SCORE.INTRA.DIHEDRAL>
0

>  <SCORE.INTRA.DIHEDRAL.0>
0

>  <SCORE.INTRA.POLAR>
0

>  <SCORE.INTRA.POLAR.0>
0

>  <SCORE.INTRA.REPUL>
0

>  <SCORE.INTRA.REPUL.0>
0

>  <SCORE.INTRA.SOLV>
0

>  <SCORE.INTRA.SOLV.lig_0>
-12.9768

>  <SCORE.INTRA.VDW>
0

>  <SCORE.INTRA.VDW.0>
0

>  <SCORE.INTRA.norm>
0

>  <SCORE.RESTR>
0

>  <SCORE.RESTR.CAVITY>
0

>  <SCORE.RESTR.norm>
0

>  <SCORE.SYSTEM>
0

>  <SCORE.SYSTEM.CONST>
0

>  <SCORE.SYSTEM.DIHEDRAL>
0

>  <SCORE.SYSTEM.SOLV>
0

>  <SCORE.SYSTEM.norm>
0

>  <SCORE.heavy>
13

>  <SCORE.norm>
-3.01283

>  <RMSD>
0.721

$$$$
1eht cryst
 OpenBabel11021811383D
libRbt.so/2013.1/901 2013/11/27
 13 14  0  0  0  0  0  0  0  0999 V2000
   -4.7889   -7.9101   10.5760 C   0  0  0  0  0  0  0  0  0  0  0  0
   -5.2564   -7.0403   11.5570 N   0  0  0  0  0  0  0  0  0  0  0  0
   -5.6321   -7.5694   12.7647 C   0  0  0  0  0  0  0  0  0  0  0  0
   -5.5295   -8.7918   12.8846 O   0  0  0  0  0  0  0  0  0  0  0  0
   -6.1105   -6.8371   13.8217 N   0  0  0  0  0  0  0  0  0  0  0  0
   -6.4827   -7.3943   15.0340 C   0  0  0  0  0  0  0  0  0  0  0  0
   -6.1834   -5.5015   13.5564 C   0  0  0  0  0  0  0  0  0  0  0  0
   -5.8078   -4.9855   12.3500 C   0  0  0  0  0  0  0  0  0  0  0  0
   -5.3142   -5.7184   11.2554 C   0  0  0  0  0  0  0  0  0  0  0  0
   -4.9627   -5.3028   10.1522 O   0  0  0  0  0  0  0  0  0  0  0  0
   -6.0160   -3.6162   12.4448 N   0  0  0  0  0  0  0  0  0  0  0  0
   -6.4998   -3.3988   13.6908 C   0  0  0  0  0  0  0  0  0  0  0  0
   -6.6201   -4.4865   14.4005 N   0  0  0  0  0  0  0  0  0  0  0  0
  1  2  1  0  0  0  0
  2  9  1  0  0  0  0
  2  3  1  0  0  0  0
  3  5  1  0  0  0  0
  3  4  2  0  0  0  0
  5  6  1  0  0  0  0
  5  7  1  0  0  0  0
  7  8  2  0  0  0  0
  7 13  1  0  0  0  0
  8  9  1  0  0  0  0
  8 11  1  0  0  0  0
  9 10  2  0  0  0  0
 11 12  1  0  0  0  0
 12 13  2  0  0  0  0
M  END
>  <CHROM.1>
-5.76999218,-6.08466439,12.62641547,-0.75370758,1.20165374,-0.33181531

>  <Name>
1eht cryst

>  <RI>
0

>  <Rbt.Current_Directory>
/home/itssahil/PROJECTS/Mol_Feturizer/New_Systems/rnas/1eht

>  <Rbt.Executable>
rbdock ($Id: //depot/dev/client3/rdock/2013.1/src/exe/rbdock.cxx#4 $)

>  <Rbt.Library>
libRbt.so (2013.1, Build901 2013/11/27)

>  <Rbt.Parameter_File>
/export/apps/rDock/src/rDock_2013.1_src/data/scripts/dock_solv.prm

>  <Rbt.Receptor>
prm/blind_docking_40.prm

>  <SCORE>
-39.1601

>  <SCORE.INTER>
-39.1601

>  <SCORE.INTER.CONST>
1

>  <SCORE.INTER.POLAR>
-1.95112

>  <SCORE.INTER.ROT>
0

>  <SCORE.INTER.SOLV>
9.73451

>  <SCORE.INTER.VDW>
-26.4478

>  <SCORE.INTER.norm>
-3.01232

>  <SCORE.INTRA>
0

>  <SCORE.INTRA.DIHEDRAL>
0

>  <SCORE.INTRA.DIHEDRAL.0>
0

>  <SCORE.INTRA.POLAR>
0

>  <SCORE.INTRA.POLAR.0>
0

>  <SCORE.INTRA.REPUL>
0

>  <SCORE.INTRA.REPUL.0>
0

>  <SCORE.INTRA.SOLV>
0

>  <SCORE.INTRA.SOLV.lig_0>
-12.9768

>  <SCORE.INTRA.VDW>
0

>  <SCORE.INTRA.VDW.0>
0

>  <SCORE.INTRA.norm>
0

>  <SCORE.RESTR>
0

>  <SCORE.RESTR.CAVITY>
0

>  <SCORE.RESTR.norm>
0

>  <SCORE.SYSTEM>
0

>  <SCORE.SYSTEM.CONST>
0

>  <SCORE.SYSTEM.DIHEDRAL>
0

>  <SCORE.SYSTEM.SOLV>
0

>  <SCORE.SYSTEM.norm>
0

>  <SCORE.heavy>
13

>  <SCORE.norm>
-3.01232

>  <RMSD>
0.722

$$$$
1eht cryst
 OpenBabel11021811383D
libRbt.so/2013.1/901 2013/11/27
 13 14  0  0  0  0  0  0  0  0999 V2000
   -4.7621   -7.8657   10.5991 C   0  0  0  0  0  0  0  0  0  0  0  0
   -5.2336   -7.0118   11.5920 N   0  0  0  0  0  0  0  0  0  0  0  0
   -5.6271   -7.5616   12.7847 C   0  0  0  0  0  0  0  0  0  0  0  0
   -5.5357   -8.7870   12.8812 O   0  0  0  0  0  0  0  0  0  0  0  0
   -6.1115   -6.8466   13.8507 N   0  0  0  0  0  0  0  0  0  0  0  0
   -6.5018   -7.4248   15.0475 C   0  0  0  0  0  0  0  0  0  0  0  0
   -6.1707   -5.5054   13.6114 C   0  0  0  0  0  0  0  0  0  0  0  0
   -5.7774   -4.9687   12.4198 C   0  0  0  0  0  0  0  0  0  0  0  0
   -5.2774   -5.6836   11.3163 C   0  0  0  0  0  0  0  0  0  0  0  0
   -4.9102   -5.2491   10.2256 O   0  0  0  0  0  0  0  0  0  0  0  0
   -5.9757   -3.5999   12.5396 N   0  0  0  0  0  0  0  0  0  0  0  0
   -6.4717   -3.4033   13.7842 C   0  0  0  0  0  0  0  0  0  0  0  0
   -6.6087   -4.5039   14.4707 N   0  0  0  0  0  0  0  0  0  0  0  0
  1  2  1  0  0  0  0
  2  9  1  0  0  0  0
  2  3  1  0  0  0  0
  3  5  1  0  0  0  0
  3  4  2  0  0  0  0
  5  6  1  0  0  0  0
  5  7  1  0  0  0  0
  7  8  2  0  0  0  0
  7 13  1  0  0  0  0
  8  9  1  0  0  0  0
  8 11  1  0  0  0  0
  9 10  2  0  0  0  0
 11 12  1  0  0  0  0
 12 13  2  0  0  0  0
M  END
>  <CHROM.1>
-5.75152910,-6.07338378,12.67457310,-0.78426844,1.19345938,-0.28340706

>  <Name>
1eht cryst

>  <RI>
0

>  <Rbt.Current_Directory>
/home/itssahil/PROJECTS/Mol_Feturizer/New_Systems/rnas/1eht

>  <Rbt.Executable>
rbdock ($Id: //depot/dev/client3/rdock/2013.1/src/exe/rbdock.cxx#4 $)

>  <Rbt.Library>
libRbt.so (2013.1, Build901 2013/11/27)

>  <Rbt.Parameter_File>
/export/apps/rDock/src/rDock_2013.1_src/data/scripts/dock_solv.prm

>  <Rbt.Receptor>
prm/pocket_docking_5.prm

>  <SCORE>
-39.2143

>  <SCORE.INTER>
-39.2143

>  <SCORE.INTER.CONST>
1

>  <SCORE.INTER.POLAR>
-1.92704

>  <SCORE.INTER.ROT>
0

>  <SCORE.INTER.SOLV>
9.80413

>  <SCORE.INTER.VDW>
-26.5875

>  <SCORE.INTER.norm>
-3.01649

>  <SCORE.INTRA>
0

>  <SCORE.INTRA.DIHEDRAL>
0

>  <SCORE.INTRA.DIHEDRAL.0>
0

>  <SCORE.INTRA.POLAR>
0

>  <SCORE.INTRA.POLAR.0>
0

>  <SCORE.INTRA.REPUL>
0

>  <SCORE.INTRA.REPUL.0>
0

>  <SCORE.INTRA.SOLV>
0

>  <SCORE.INTRA.SOLV.lig_0>
-12.9768

>  <SCORE.INTRA.VDW>
0

>  <SCORE.INTRA.VDW.0>
0

>  <SCORE.INTRA.norm>
0

>  <SCORE.RESTR>
0

>  <SCORE.RESTR.CAVITY>
0

>  <SCORE.RESTR.norm>
0

>  <SCORE.SYSTEM>
0

>  <SCORE.SYSTEM.CONST>
0

>  <SCORE.SYSTEM.DIHEDRAL>
0

>  <SCORE.SYSTEM.SOLV>
0

>  <SCORE.SYSTEM.norm>
0

>  <SCORE.heavy>
13

>  <SCORE.norm>
-3.01649

>  <RMSD>
0.722

$$$$
1eht cryst
 OpenBabel11021811383D
libRbt.so/2013.1/901 2013/11/27
 13 14  0  0  0  0  0  0  0  0999 V2000
   -4.7717   -7.8777   10.5814 C   0  0  0  0  0  0  0  0  0  0  0  0
   -5.2411   -7.0102   11.5636 N   0  0  0  0  0  0  0  0  0  0  0  0
   -5.6225   -7.5425   12.7681 C   0  0  0  0  0  0  0  0  0  0  0  0
   -5.5229   -8.7656   12.8842 O   0  0  0  0  0  0  0  0  0  0  0  0
   -6.1033   -6.8127   13.8257 N   0  0  0  0  0  0  0  0  0  0  0  0
   -6.4813   -7.3733   15.0347 C   0  0  0  0  0  0  0  0  0  0  0  0
   -6.1724   -5.4761   13.5646 C   0  0  0  0  0  0  0  0  0  0  0  0
   -5.7911   -4.9569   12.3614 C   0  0  0  0  0  0  0  0  0  0  0  0
   -5.2949   -5.6871   11.2662 C   0  0  0  0  0  0  0  0  0  0  0  0
   -4.9384   -5.2686   10.1658 O   0  0  0  0  0  0  0  0  0  0  0  0
   -5.9967   -3.5875   12.4600 N   0  0  0  0  0  0  0  0  0  0  0  0
   -6.4848   -3.3733   13.7049 C   0  0  0  0  0  0  0  0  0  0  0  0
   -6.6101   -4.4630   14.4104 N   0  0  0  0  0  0  0  0  0  0  0  0
  1  2  1  0  0  0  0
  2  9  1  0  0  0  0
  2  3  1  0  0  0  0
  3  5  1  0  0  0  0
  3  4  2  0  0  0  0
  5  6  1  0  0  0  0
  5  7  1  0  0  0  0
  7  8  2  0  0  0  0
  7 13  1  0  0  0  0
  8  9  1  0  0  0  0
  8 11  1  0  0  0  0
  9 10  2  0  0  0  0
 11 12  1  0  0  0  0
 12 13  2  0  0  0  0
M  END
>  <CHROM.1>
-5.75667678,-6.05706992,12.63426019,-0.76264314,1.19874440,-0.32012713

>  <Name>
1eht cryst

>  <RI>
224

>  <Rbt.Current_Directory>
/home/itssahil/PROJECTS/Mol_Feturizer/New_Systems/rnas/1eht

>  <Rbt.Executable>
rbdock ($Id: //depot/dev/client3/rdock/2013.1/src/exe/rbdock.cxx#4 $)

>  <Rbt.Library>
libRbt.so (2013.1, Build901 2013/11/27)

>  <Rbt.Parameter_File>
/export/apps/rDock/src/rDock_2013.1_src/data/scripts/dock_solv.prm

>  <Rbt.Receptor>
prm/pocket_docking_7.prm

>  <SCORE>
-39.1446

>  <SCORE.INTER>
-39.1446

>  <SCORE.INTER.CONST>
1

>  <SCORE.INTER.POLAR>
-1.93554

>  <SCORE.INTER.ROT>
0

>  <SCORE.INTER.SOLV>
9.80715

>  <SCORE.INTER.VDW>
-26.5136

>  <SCORE.INTER.norm>
-3.01112

>  <SCORE.INTRA>
0

>  <SCORE.INTRA.DIHEDRAL>
0

>  <SCORE.INTRA.DIHEDRAL.0>
0

>  <SCORE.INTRA.POLAR>
0

>  <SCORE.INTRA.POLAR.0>
0

>  <SCORE.INTRA.REPUL>
0

>  <SCORE.INTRA.REPUL.0>
0

>  <SCORE.INTRA.SOLV>
0

>  <SCORE.INTRA.SOLV.lig_0>
-12.9768

>  <SCORE.INTRA.VDW>
0

>  <SCORE.INTRA.VDW.0>
0

>  <SCORE.INTRA.norm>
0

>  <SCORE.RESTR>
0

>  <SCORE.RESTR.CAVITY>
0

>  <SCORE.RESTR.norm>
0

>  <SCORE.SYSTEM>
0

>  <SCORE.SYSTEM.CONST>
0

>  <SCORE.SYSTEM.DIHEDRAL>
0

>  <SCORE.SYSTEM.SOLV>
0

>  <SCORE.SYSTEM.norm>
0

>  <SCORE.heavy>
13

>  <SCORE.norm>
-3.01112

>  <RMSD>
0.722

$$$$
1eht cryst
 OpenBabel11021811383D
libRbt.so/2013.1/901 2013/11/27
 13 14  0  0  0  0  0  0  0  0999 V2000
   -4.8039   -7.8826   10.5725 C   0  0  0  0  0  0  0  0  0  0  0  0
   -5.2654   -7.0095   11.5535 N   0  0  0  0  0  0  0  0  0  0  0  0
   -5.6428   -7.5357   12.7619 C   0  0  0  0  0  0  0  0  0  0  0  0
   -5.5471   -8.7587   12.8824 O   0  0  0  0  0  0  0  0  0  0  0  0
   -6.1159   -6.8001   13.8189 N   0  0  0  0  0  0  0  0  0  0  0  0
   -6.4900   -7.3545   15.0320 C   0  0  0  0  0  0  0  0  0  0  0  0
   -6.1814   -5.4642   13.5529 C   0  0  0  0  0  0  0  0  0  0  0  0
   -5.8042   -4.9512   12.3458 C   0  0  0  0  0  0  0  0  0  0  0  0
   -5.3159   -5.6875   11.2512 C   0  0  0  0  0  0  0  0  0  0  0  0
   -4.9632   -5.2745   10.1474 O   0  0  0  0  0  0  0  0  0  0  0  0
   -6.0044   -3.5806   12.4400 N   0  0  0  0  0  0  0  0  0  0  0  0
   -6.4856   -3.3598   13.6864 C   0  0  0  0  0  0  0  0  0  0  0  0
   -6.6114   -4.4463   14.3968 N   0  0  0  0  0  0  0  0  0  0  0  0
  1  2  1  0  0  0  0
  2  9  1  0  0  0  0
  2  3  1  0  0  0  0
  3  5  1  0  0  0  0
  3  4  2  0  0  0  0
  5  6  1  0  0  0  0
  5  7  1  0  0  0  0
  7  8  2  0  0  0  0
  7 13  1  0  0  0  0
  8  9  1  0  0  0  0
  8 11  1  0  0  0  0
  9 10  2  0  0  0  0
 11 12  1  0  0  0  0
 12 13  2  0  0  0  0
M  END
>  <CHROM.1>
-5.77235054,-6.05034454,12.62285152,-0.76786083,1.20447256,-0.31919681

>  <Name>
1eht cryst

>  <RI>
0

>  <Rbt.Current_Directory>
/home/itssahil/PROJECTS/Mol_Feturizer/New_Systems/rnas/1eht

>  <Rbt.Executable>
rbdock ($Id: //depot/dev/client3/rdock/2013.1/src/exe/rbdock.cxx#4 $)

>  <Rbt.Library>
libRbt.so (2013.1, Build901 2013/11/27)

>  <Rbt.Parameter_File>
/export/apps/rDock/src/rDock_2013.1_src/data/scripts/dock_solv.prm

>  <Rbt.Receptor>
prm/blind_docking_100.prm

>  <SCORE>
-39.1866

>  <SCORE.INTER>
-39.1866

>  <SCORE.INTER.CONST>
1

>  <SCORE.INTER.POLAR>
-1.93341

>  <SCORE.INTER.ROT>
0

>  <SCORE.INTER.SOLV>
9.81103

>  <SCORE.INTER.VDW>
-26.55

>  <SCORE.INTER.norm>
-3.01435

>  <SCORE.INTRA>
0

>  <SCORE.INTRA.DIHEDRAL>
0

>  <SCORE.INTRA.DIHEDRAL.0>
0

>  <SCORE.INTRA.POLAR>
0

>  <SCORE.INTRA.POLAR.0>
0

>  <SCORE.INTRA.REPUL>
0

>  <SCORE.INTRA.REPUL.0>
0

>  <SCORE.INTRA.SOLV>
0

>  <SCORE.INTRA.SOLV.lig_0>
-12.9768

>  <SCORE.INTRA.VDW>
0

>  <SCORE.INTRA.VDW.0>
0

>  <SCORE.INTRA.norm>
0

>  <SCORE.RESTR>
0

>  <SCORE.RESTR.CAVITY>
0

>  <SCORE.RESTR.norm>
0

>  <SCORE.SYSTEM>
0

>  <SCORE.SYSTEM.CONST>
0

>  <SCORE.SYSTEM.DIHEDRAL>
0

>  <SCORE.SYSTEM.SOLV>
0

>  <SCORE.SYSTEM.norm>
0

>  <SCORE.heavy>
13

>  <SCORE.norm>
-3.01435

>  <RMSD>
0.724

$$$$
1eht cryst
 OpenBabel11021811383D
libRbt.so/2013.1/901 2013/11/27
 13 14  0  0  0  0  0  0  0  0999 V2000
   -4.7964   -7.8853   10.5733 C   0  0  0  0  0  0  0  0  0  0  0  0
   -5.2598   -7.0122   11.5534 N   0  0  0  0  0  0  0  0  0  0  0  0
   -5.6379   -7.5382   12.7618 C   0  0  0  0  0  0  0  0  0  0  0  0
   -5.5410   -8.7609   12.8830 O   0  0  0  0  0  0  0  0  0  0  0  0
   -6.1128   -6.8025   13.8179 N   0  0  0  0  0  0  0  0  0  0  0  0
   -6.4876   -7.3566   15.0309 C   0  0  0  0  0  0  0  0  0  0  0  0
   -6.1795   -5.4668   13.5512 C   0  0  0  0  0  0  0  0  0  0  0  0
   -5.8015   -4.9540   12.3442 C   0  0  0  0  0  0  0  0  0  0  0  0
   -5.3114   -5.6903   11.2504 C   0  0  0  0  0  0  0  0  0  0  0  0
   -4.9581   -5.2776   10.1467 O   0  0  0  0  0  0  0  0  0  0  0  0
   -6.0033   -3.5836   12.4375 N   0  0  0  0  0  0  0  0  0  0  0  0
   -6.4860   -3.3626   13.6832 C   0  0  0  0  0  0  0  0  0  0  0  0
   -6.6114   -4.4489   14.3941 N   0  0  0  0  0  0  0  0  0  0  0  0
  1  2  1  0  0  0  0
  2  9  1  0  0  0  0
  2  3  1  0  0  0  0
  3  5  1  0  0  0  0
  3  4  2  0  0  0  0
  5  6  1  0  0  0  0
  5  7  1  0  0  0  0
  7  8  2  0  0  0  0
  7 13  1  0  0  0  0
  8  9  1  0  0  0  0
  8 11  1  0  0  0  0
  9 10  2  0  0  0  0
 11 12  1  0  0  0  0
 12 13  2  0  0  0  0
M  END
>  <CHROM.1>
-5.76883753,-6.05298976,12.62180800,-0.76599756,1.20320030,-0.32145569

>  <Name>
1eht cryst

>  <RI>
0

>  <Rbt.Current_Directory>
/home/itssahil/PROJECTS/Mol_Feturizer/New_Systems/rnas/1eht

>  <Rbt.Executable>
rbdock ($Id: //depot/dev/client3/rdock/2013.1/src/exe/rbdock.cxx#4 $)

>  <Rbt.Library>
libRbt.so (2013.1, Build901 2013/11/27)

>  <Rbt.Parameter_File>
/export/apps/rDock/src/rDock_2013.1_src/data/scripts/dock_solv.prm

>  <Rbt.Receptor>
prm/blind_docking_20.prm

>  <SCORE>
-39.1941

>  <SCORE.INTER>
-39.1941

>  <SCORE.INTER.CONST>
1

>  <SCORE.INTER.POLAR>
-1.93529

>  <SCORE.INTER.ROT>
0

>  <SCORE.INTER.SOLV>
9.80623

>  <SCORE.INTER.VDW>
-26.5472

>  <SCORE.INTER.norm>
-3.01493

>  <SCORE.INTRA>
0

>  <SCORE.INTRA.DIHEDRAL>
0

>  <SCORE.INTRA.DIHEDRAL.0>
0

>  <SCORE.INTRA.POLAR>
0

>  <SCORE.INTRA.POLAR.0>
0

>  <SCORE.INTRA.REPUL>
0

>  <SCORE.INTRA.REPUL.0>
0

>  <SCORE.INTRA.SOLV>
0

>  <SCORE.INTRA.SOLV.lig_0>
-12.9768

>  <SCORE.INTRA.VDW>
0

>  <SCORE.INTRA.VDW.0>
0

>  <SCORE.INTRA.norm>
0

>  <SCORE.RESTR>
0

>  <SCORE.RESTR.CAVITY>
0

>  <SCORE.RESTR.norm>
0

>  <SCORE.SYSTEM>
0

>  <SCORE.SYSTEM.CONST>
0

>  <SCORE.SYSTEM.DIHEDRAL>
0

>  <SCORE.SYSTEM.SOLV>
0

>  <SCORE.SYSTEM.norm>
0

>  <SCORE.heavy>
13

>  <SCORE.norm>
-3.01493

>  <RMSD>
0.724

$$$$
1eht cryst
 OpenBabel11021811383D
libRbt.so/2013.1/901 2013/11/27
 13 14  0  0  0  0  0  0  0  0999 V2000
   -4.7055   -7.6477   10.6315 C   0  0  0  0  0  0  0  0  0  0  0  0
   -5.2199   -6.8400   11.6417 N   0  0  0  0  0  0  0  0  0  0  0  0
   -5.6082   -7.4376   12.8129 C   0  0  0  0  0  0  0  0  0  0  0  0
   -5.4740   -8.6612   12.8760 O   0  0  0  0  0  0  0  0  0  0  0  0
   -6.1314   -6.7712   13.8921 N   0  0  0  0  0  0  0  0  0  0  0  0
   -6.5156   -7.3971   15.0666 C   0  0  0  0  0  0  0  0  0  0  0  0
   -6.2358   -5.4267   13.6900 C   0  0  0  0  0  0  0  0  0  0  0  0
   -5.8472   -4.8423   12.5194 C   0  0  0  0  0  0  0  0  0  0  0  0
   -5.3081   -5.5069   11.4031 C   0  0  0  0  0  0  0  0  0  0  0  0
   -4.9431   -5.0284   10.3302 O   0  0  0  0  0  0  0  0  0  0  0  0
   -6.0961   -3.4854   12.6752 N   0  0  0  0  0  0  0  0  0  0  0  0
   -6.6144   -3.3425   13.9180 C   0  0  0  0  0  0  0  0  0  0  0  0
   -6.7203   -4.4665   14.5712 N   0  0  0  0  0  0  0  0  0  0  0  0
  1  2  1  0  0  0  0
  2  9  1  0  0  0  0
  2  3  1  0  0  0  0
  3  5  1  0  0  0  0
  3  4  2  0  0  0  0
  5  6  1  0  0  0  0
  5  7  1  0  0  0  0
  7  8  2  0  0  0  0
  7 13  1  0  0  0  0
  8  9  1  0  0  0  0
  8 11  1  0  0  0  0
  9 10  2  0  0  0  0
 11 12  1  0  0  0  0
 12 13  2  0  0  0  0
M  END
>  <CHROM.1>
-5.78478748,-5.95219630,12.74322164,-0.70450906,1.17021281,-0.32871069

>  <Name>
1eht cryst

>  <RI>
0

>  <Rbt.Current_Directory>
/home/itssahil/PROJECTS/Mol_Feturizer/New_Systems/rnas/1eht

>  <Rbt.Executable>
rbdock ($Id: //depot/dev/client3/rdock/2013.1/src/exe/rbdock.cxx#4 $)

>  <Rbt.Library>
libRbt.so (2013.1, Build901 2013/11/27)

>  <Rbt.Parameter_File>
/export/apps/rDock/src/rDock_2013.1_src/data/scripts/dock_solv.prm

>  <Rbt.Receptor>
prm/blind_docking_80.prm

>  <SCORE>
-38.6583

>  <SCORE.INTER>
-38.6672

>  <SCORE.INTER.CONST>
1

>  <SCORE.INTER.POLAR>
-1.76305

>  <SCORE.INTER.ROT>
0

>  <SCORE.INTER.SOLV>
10.0554

>  <SCORE.INTER.VDW>
-26.8531

>  <SCORE.INTER.norm>
-2.9744

>  <SCORE.INTRA>
0

>  <SCORE.INTRA.DIHEDRAL>
0

>  <SCORE.INTRA.DIHEDRAL.0>
0

>  <SCORE.INTRA.POLAR>
0

>  <SCORE.INTRA.POLAR.0>
0

>  <SCORE.INTRA.REPUL>
0

>  <SCORE.INTRA.REPUL.0>
0

>  <SCORE.INTRA.SOLV>
0

>  <SCORE.INTRA.SOLV.lig_0>
-12.9768

>  <SCORE.INTRA.VDW>
0

>  <SCORE.INTRA.VDW.0>
0

>  <SCORE.INTRA.norm>
0

>  <SCORE.RESTR>
0.00889133

>  <SCORE.RESTR.CAVITY>
0.00889133

>  <SCORE.RESTR.norm>
0.000683949

>  <SCORE.SYSTEM>
0

>  <SCORE.SYSTEM.CONST>
0

>  <SCORE.SYSTEM.DIHEDRAL>
0

>  <SCORE.SYSTEM.SOLV>
0

>  <SCORE.SYSTEM.norm>
0

>  <SCORE.heavy>
13

>  <SCORE.norm>
-2.97372

>  <RMSD>
0.724

$$$$
1eht cryst
 OpenBabel11021811383D
libRbt.so/2013.1/901 2013/11/27
 13 14  0  0  0  0  0  0  0  0999 V2000
   -4.7758   -7.8741   10.5905 C   0  0  0  0  0  0  0  0  0  0  0  0
   -5.2435   -7.0099   11.5764 N   0  0  0  0  0  0  0  0  0  0  0  0
   -5.6301   -7.5472   12.7771 C   0  0  0  0  0  0  0  0  0  0  0  0
   -5.5364   -8.7713   12.8866 O   0  0  0  0  0  0  0  0  0  0  0  0
   -6.1101   -6.8211   13.8376 N   0  0  0  0  0  0  0  0  0  0  0  0
   -6.4935   -7.3867   15.0426 C   0  0  0  0  0  0  0  0  0  0  0  0
   -6.1725   -5.4827   13.5839 C   0  0  0  0  0  0  0  0  0  0  0  0
   -5.7861   -4.9586   12.3844 C   0  0  0  0  0  0  0  0  0  0  0  0
   -5.2907   -5.6850   11.2863 C   0  0  0  0  0  0  0  0  0  0  0  0
   -4.9297   -5.2619   10.1891 O   0  0  0  0  0  0  0  0  0  0  0  0
   -5.9857   -3.5888   12.4902 N   0  0  0  0  0  0  0  0  0  0  0  0
   -6.4756   -3.3793   13.7351 C   0  0  0  0  0  0  0  0  0  0  0  0
   -6.6075   -4.4724   14.4343 N   0  0  0  0  0  0  0  0  0  0  0  0
  1  2  1  0  0  0  0
  2  9  1  0  0  0  0
  2  3  1  0  0  0  0
  3  5  1  0  0  0  0
  3  4  2  0  0  0  0
  5  6  1  0  0  0  0
  5  7  1  0  0  0  0
  7  8  2  0  0  0  0
  7 13  1  0  0  0  0
  8  9  1  0  0  0  0
  8 11  1  0  0  0  0
  9 10  2  0  0  0  0
 11 12  1  0  0  0  0
 12 13  2  0  0  0  0
M  END
>  <CHROM.1>
-5.75727520,-6.06040355,12.65121125,-0.77650212,1.19795051,-0.30163758

>  <Name>
1eht cryst

>  <RI>
0

>  <Rbt.Current_Directory>
/home/itssahil/PROJECTS/Mol_Feturizer/New_Systems/rnas/1eht

>  <Rbt.Executable>
rbdock ($Id: //depot/dev/client3/rdock/2013.1/src/exe/rbdock.cxx#4 $)

>  <Rbt.Library>
libRbt.so (2013.1, Build901 2013/11/27)

>  <Rbt.Parameter_File>
/export/apps/rDock/src/rDock_2013.1_src/data/scripts/dock_solv.prm

>  <Rbt.Receptor>
prm/pocket_docking_5.prm

>  <SCORE>
-39.1599

>  <SCORE.INTER>
-39.1599

>  <SCORE.INTER.CONST>
1

>  <SCORE.INTER.POLAR>
-1.93101

>  <SCORE.INTER.ROT>
0

>  <SCORE.INTER.SOLV>
9.8117

>  <SCORE.INTER.VDW>
-26.5405

>  <SCORE.INTER.norm>
-3.0123

>  <SCORE.INTRA>
0

>  <SCORE.INTRA.DIHEDRAL>
0

>  <SCORE.INTRA.DIHEDRAL.0>
0

>  <SCORE.INTRA.POLAR>
0

>  <SCORE.INTRA.POLAR.0>
0

>  <SCORE.INTRA.REPUL>
0

>  <SCORE.INTRA.REPUL.0>
0

>  <SCORE.INTRA.SOLV>
0

>  <SCORE.INTRA.SOLV.lig_0>
-12.9768

>  <SCORE.INTRA.VDW>
0

>  <SCORE.INTRA.VDW.0>
0

>  <SCORE.INTRA.norm>
0

>  <SCORE.RESTR>
0

>  <SCORE.RESTR.CAVITY>
0

>  <SCORE.RESTR.norm>
0

>  <SCORE.SYSTEM>
0

>  <SCORE.SYSTEM.CONST>
0

>  <SCORE.SYSTEM.DIHEDRAL>
0

>  <SCORE.SYSTEM.SOLV>
0

>  <SCORE.SYSTEM.norm>
0

>  <SCORE.heavy>
13

>  <SCORE.norm>
-3.0123

>  <RMSD>
0.724

$$$$
1eht cryst
 OpenBabel11021811383D
libRbt.so/2013.1/901 2013/11/27
 13 14  0  0  0  0  0  0  0  0999 V2000
   -4.7650   -7.8646   10.5905 C   0  0  0  0  0  0  0  0  0  0  0  0
   -5.2368   -7.0005   11.5745 N   0  0  0  0  0  0  0  0  0  0  0  0
   -5.6268   -7.5377   12.7741 C   0  0  0  0  0  0  0  0  0  0  0  0
   -5.5323   -8.7616   12.8844 O   0  0  0  0  0  0  0  0  0  0  0  0
   -6.1110   -6.8116   13.8328 N   0  0  0  0  0  0  0  0  0  0  0  0
   -6.4978   -7.3770   15.0367 C   0  0  0  0  0  0  0  0  0  0  0  0
   -6.1738   -5.4734   13.5782 C   0  0  0  0  0  0  0  0  0  0  0  0
   -5.7839   -4.9494   12.3798 C   0  0  0  0  0  0  0  0  0  0  0  0
   -5.2843   -5.6757   11.2837 C   0  0  0  0  0  0  0  0  0  0  0  0
   -4.9200   -5.2528   10.1875 O   0  0  0  0  0  0  0  0  0  0  0  0
   -5.9852   -3.5798   12.4844 N   0  0  0  0  0  0  0  0  0  0  0  0
   -6.4794   -3.3702   13.7276 C   0  0  0  0  0  0  0  0  0  0  0  0
   -6.6126   -4.4631   14.4268 N   0  0  0  0  0  0  0  0  0  0  0  0
  1  2  1  0  0  0  0
  2  9  1  0  0  0  0
  2  3  1  0  0  0  0
  3  5  1  0  0  0  0
  3  4  2  0  0  0  0
  5  6  1  0  0  0  0
  5  7  1  0  0  0  0
  7  8  2  0  0  0  0
  7 13  1  0  0  0  0
  8  9  1  0  0  0  0
  8 11  1  0  0  0  0
  9 10  2  0  0  0  0
 11 12  1  0  0  0  0
 12 13  2  0  0  0  0
M  END
>  <CHROM.1>
-5.75497091,-6.05105276,12.64720283,-0.77670627,1.19452519,-0.30186113

>  <Name>
1eht cryst

>  <RI>
0

>  <Rbt.Current_Directory>
/home/itssahil/PROJECTS/Mol_Feturizer/New_Systems/rnas/1eht

>  <Rbt.Executable>
rbdock ($Id: //depot/dev/client3/rdock/2013.1/src/exe/rbdock.cxx#4 $)

>  <Rbt.Library>
libRbt.so (2013.1, Build901 2013/11/27)

>  <Rbt.Parameter_File>
/export/apps/rDock/src/rDock_2013.1_src/data/scripts/dock_solv.prm

>  <Rbt.Receptor>
prm/pocket_docking_8.prm

>  <SCORE>
-39.1824

>  <SCORE.INTER>
-39.1824

>  <SCORE.INTER.CONST>
1

>  <SCORE.INTER.POLAR>
-1.9311

>  <SCORE.INTER.ROT>
0

>  <SCORE.INTER.SOLV>
9.834

>  <SCORE.INTER.VDW>
-26.5626

>  <SCORE.INTER.norm>
-3.01403

>  <SCORE.INTRA>
0

>  <SCORE.INTRA.DIHEDRAL>
0

>  <SCORE.INTRA.DIHEDRAL.0>
0

>  <SCORE.INTRA.POLAR>
0

>  <SCORE.INTRA.POLAR.0>
0

>  <SCORE.INTRA.REPUL>
0

>  <SCORE.INTRA.REPUL.0>
0

>  <SCORE.INTRA.SOLV>
0

>  <SCORE.INTRA.SOLV.lig_0>
-12.9768

>  <SCORE.INTRA.VDW>
0

>  <SCORE.INTRA.VDW.0>
0

>  <SCORE.INTRA.norm>
0

>  <SCORE.RESTR>
0

>  <SCORE.RESTR.CAVITY>
0

>  <SCORE.RESTR.norm>
0

>  <SCORE.SYSTEM>
0

>  <SCORE.SYSTEM.CONST>
0

>  <SCORE.SYSTEM.DIHEDRAL>
0

>  <SCORE.SYSTEM.SOLV>
0

>  <SCORE.SYSTEM.norm>
0

>  <SCORE.heavy>
13

>  <SCORE.norm>
-3.01403

>  <RMSD>
0.724

$$$$
1eht cryst
 OpenBabel11021811383D
libRbt.so/2013.1/901 2013/11/27
 13 14  0  0  0  0  0  0  0  0999 V2000
   -4.7767   -7.8754   10.5734 C   0  0  0  0  0  0  0  0  0  0  0  0
   -5.2555   -7.0024   11.5460 N   0  0  0  0  0  0  0  0  0  0  0  0
   -5.6273   -7.5251   12.7577 C   0  0  0  0  0  0  0  0  0  0  0  0
   -5.5113   -8.7452   12.8884 O   0  0  0  0  0  0  0  0  0  0  0  0
   -6.1157   -6.7890   13.8075 N   0  0  0  0  0  0  0  0  0  0  0  0
   -6.4837   -7.3398   15.0240 C   0  0  0  0  0  0  0  0  0  0  0  0
   -6.2030   -5.4566   13.5304 C   0  0  0  0  0  0  0  0  0  0  0  0
   -5.8312   -4.9470   12.3201 C   0  0  0  0  0  0  0  0  0  0  0  0
   -5.3276   -5.6838   11.2328 C   0  0  0  0  0  0  0  0  0  0  0  0
   -4.9789   -5.2740   10.1266 O   0  0  0  0  0  0  0  0  0  0  0  0
   -6.0548   -3.5794   12.4027 N   0  0  0  0  0  0  0  0  0  0  0  0
   -6.5431   -3.3566   13.6459 C   0  0  0  0  0  0  0  0  0  0  0  0
   -6.6525   -4.4393   14.3649 N   0  0  0  0  0  0  0  0  0  0  0  0
  1  2  1  0  0  0  0
  2  9  1  0  0  0  0
  2  3  1  0  0  0  0
  3  5  1  0  0  0  0
  3  4  2  0  0  0  0
  5  6  1  0  0  0  0
  5  7  1  0  0  0  0
  7  8  2  0  0  0  0
  7 13  1  0  0  0  0
  8  9  1  0  0  0  0
  8 11  1  0  0  0  0
  9 10  2  0  0  0  0
 11 12  1  0  0  0  0
 12 13  2  0  0  0  0
M  END
>  <CHROM.1>
-5.78157492,-6.04324585,12.60621474,-0.72635703,1.19628239,-0.36601662

>  <Name>
1eht cryst

>  <RI>
0

>  <Rbt.Current_Directory>
/home/itssahil/PROJECTS/Mol_Feturizer/New_Systems/rnas/1eht

>  <Rbt.Executable>
rbdock ($Id: //depot/dev/client3/rdock/2013.1/src/exe/rbdock.cxx#4 $)

>  <Rbt.Library>
libRbt.so (2013.1, Build901 2013/11/27)

>  <Rbt.Parameter_File>
/export/apps/rDock/src/rDock_2013.1_src/data/scripts/dock_solv.prm

>  <Rbt.Receptor>
prm/pocket_docking_8.prm

>  <SCORE>
-39.1442

>  <SCORE.INTER>
-39.1442

>  <SCORE.INTER.CONST>
1

>  <SCORE.INTER.POLAR>
-1.93028

>  <SCORE.INTER.ROT>
0

>  <SCORE.INTER.SOLV>
9.79986

>  <SCORE.INTER.VDW>
-26.5285

>  <SCORE.INTER.norm>
-3.01109

>  <SCORE.INTRA>
0

>  <SCORE.INTRA.DIHEDRAL>
0

>  <SCORE.INTRA.DIHEDRAL.0>
0

>  <SCORE.INTRA.POLAR>
0

>  <SCORE.INTRA.POLAR.0>
0

>  <SCORE.INTRA.REPUL>
0

>  <SCORE.INTRA.REPUL.0>
0

>  <SCORE.INTRA.SOLV>
0

>  <SCORE.INTRA.SOLV.lig_0>
-12.9768

>  <SCORE.INTRA.VDW>
0

>  <SCORE.INTRA.VDW.0>
0

>  <SCORE.INTRA.norm>
0

>  <SCORE.RESTR>
0

>  <SCORE.RESTR.CAVITY>
0

>  <SCORE.RESTR.norm>
0

>  <SCORE.SYSTEM>
0

>  <SCORE.SYSTEM.CONST>
0

>  <SCORE.SYSTEM.DIHEDRAL>
0

>  <SCORE.SYSTEM.SOLV>
0

>  <SCORE.SYSTEM.norm>
0

>  <SCORE.heavy>
13

>  <SCORE.norm>
-3.01109

>  <RMSD>
0.724

$$$$
1eht cryst
 OpenBabel11021811383D
libRbt.so/2013.1/901 2013/11/27
 13 14  0  0  0  0  0  0  0  0999 V2000
   -4.7755   -7.8718   10.5920 C   0  0  0  0  0  0  0  0  0  0  0  0
   -5.2437   -7.0078   11.5779 N   0  0  0  0  0  0  0  0  0  0  0  0
   -5.6321   -7.5455   12.7778 C   0  0  0  0  0  0  0  0  0  0  0  0
   -5.5395   -8.7697   12.8867 O   0  0  0  0  0  0  0  0  0  0  0  0
   -6.1128   -6.8196   13.8382 N   0  0  0  0  0  0  0  0  0  0  0  0
   -6.4980   -7.3855   15.0424 C   0  0  0  0  0  0  0  0  0  0  0  0
   -6.1738   -5.4811   13.5851 C   0  0  0  0  0  0  0  0  0  0  0  0
   -5.7856   -4.9566   12.3863 C   0  0  0  0  0  0  0  0  0  0  0  0
   -5.2895   -5.6827   11.2885 C   0  0  0  0  0  0  0  0  0  0  0  0
   -4.9269   -5.2593   10.1919 O   0  0  0  0  0  0  0  0  0  0  0  0
   -5.9843   -3.5867   12.4927 N   0  0  0  0  0  0  0  0  0  0  0  0
   -6.4755   -3.3775   13.7371 C   0  0  0  0  0  0  0  0  0  0  0  0
   -6.6091   -4.4709   14.4356 N   0  0  0  0  0  0  0  0  0  0  0  0
  1  2  1  0  0  0  0
  2  9  1  0  0  0  0
  2  3  1  0  0  0  0
  3  5  1  0  0  0  0
  3  4  2  0  0  0  0
  5  6  1  0  0  0  0
  5  7  1  0  0  0  0
  7  8  2  0  0  0  0
  7 13  1  0  0  0  0
  8  9  1  0  0  0  0
  8 11  1  0  0  0  0
  9 10  2  0  0  0  0
 11 12  1  0  0  0  0
 12 13  2  0  0  0  0
M  END
>  <CHROM.1>
-5.75797181,-6.05852144,12.65258250,-0.77947342,1.19705463,-0.29831885

>  <Name>
1eht cryst

>  <RI>
0

>  <Rbt.Current_Directory>
/home/itssahil/PROJECTS/Mol_Feturizer/New_Systems/rnas/1eht

>  <Rbt.Executable>
rbdock ($Id: //depot/dev/client3/rdock/2013.1/src/exe/rbdock.cxx#4 $)

>  <Rbt.Library>
libRbt.so (2013.1, Build901 2013/11/27)

>  <Rbt.Parameter_File>
/export/apps/rDock/src/rDock_2013.1_src/data/scripts/dock_solv.prm

>  <Rbt.Receptor>
prm/blind_docking_40.prm

>  <SCORE>
-39.1559

>  <SCORE.INTER>
-39.1559

>  <SCORE.INTER.CONST>
1

>  <SCORE.INTER.POLAR>
-1.9305

>  <SCORE.INTER.ROT>
0

>  <SCORE.INTER.SOLV>
9.81782

>  <SCORE.INTER.VDW>
-26.5416

>  <SCORE.INTER.norm>
-3.012

>  <SCORE.INTRA>
0

>  <SCORE.INTRA.DIHEDRAL>
0

>  <SCORE.INTRA.DIHEDRAL.0>
0

>  <SCORE.INTRA.POLAR>
0

>  <SCORE.INTRA.POLAR.0>
0

>  <SCORE.INTRA.REPUL>
0

>  <SCORE.INTRA.REPUL.0>
0

>  <SCORE.INTRA.SOLV>
0

>  <SCORE.INTRA.SOLV.lig_0>
-12.9768

>  <SCORE.INTRA.VDW>
0

>  <SCORE.INTRA.VDW.0>
0

>  <SCORE.INTRA.norm>
0

>  <SCORE.RESTR>
0

>  <SCORE.RESTR.CAVITY>
0

>  <SCORE.RESTR.norm>
0

>  <SCORE.SYSTEM>
0

>  <SCORE.SYSTEM.CONST>
0

>  <SCORE.SYSTEM.DIHEDRAL>
0

>  <SCORE.SYSTEM.SOLV>
0

>  <SCORE.SYSTEM.norm>
0

>  <SCORE.heavy>
13

>  <SCORE.norm>
-3.012

>  <RMSD>
0.725

$$$$
1eht cryst
 OpenBabel11021811383D
libRbt.so/2013.1/901 2013/11/27
 13 14  0  0  0  0  0  0  0  0999 V2000
   -4.7707   -7.8728   10.5928 C   0  0  0  0  0  0  0  0  0  0  0  0
   -5.2398   -7.0089   11.5782 N   0  0  0  0  0  0  0  0  0  0  0  0
   -5.6277   -7.5464   12.7783 C   0  0  0  0  0  0  0  0  0  0  0  0
   -5.5339   -8.7705   12.8878 O   0  0  0  0  0  0  0  0  0  0  0  0
   -6.1091   -6.8205   13.8384 N   0  0  0  0  0  0  0  0  0  0  0  0
   -6.4938   -7.3863   15.0429 C   0  0  0  0  0  0  0  0  0  0  0  0
   -6.1715   -5.4821   13.5847 C   0  0  0  0  0  0  0  0  0  0  0  0
   -5.7837   -4.9578   12.3857 C   0  0  0  0  0  0  0  0  0  0  0  0
   -5.2869   -5.6839   11.2882 C   0  0  0  0  0  0  0  0  0  0  0  0
   -4.9246   -5.2607   10.1914 O   0  0  0  0  0  0  0  0  0  0  0  0
   -5.9838   -3.5881   12.4915 N   0  0  0  0  0  0  0  0  0  0  0  0
   -6.4753   -3.3788   13.7358 C   0  0  0  0  0  0  0  0  0  0  0  0
   -6.6078   -4.4720   14.4347 N   0  0  0  0  0  0  0  0  0  0  0  0
  1  2  1  0  0  0  0
  2  9  1  0  0  0  0
  2  3  1  0  0  0  0
  3  5  1  0  0  0  0
  3  4  2  0  0  0  0
  5  6  1  0  0  0  0
  5  7  1  0  0  0  0
  7  8  2  0  0  0  0
  7 13  1  0  0  0  0
  8  9  1  0  0  0  0
  8 11  1  0  0  0  0
  9 10  2  0  0  0  0
 11 12  1  0  0  0  0
 12 13  2  0  0  0  0
M  END
>  <CHROM.1>
-5.75503307,-6.05961359,12.65247539,-0.77691651,1.19671839,-0.30114788

>  <Name>
1eht cryst

>  <RI>
0

>  <Rbt.Current_Directory>
/home/itssahil/PROJECTS/Mol_Feturizer/New_Systems/rnas/1eht

>  <Rbt.Executable>
rbdock ($Id: //depot/dev/client3/rdock/2013.1/src/exe/rbdock.cxx#4 $)

>  <Rbt.Library>
libRbt.so (2013.1, Build901 2013/11/27)

>  <Rbt.Parameter_File>
/export/apps/rDock/src/rDock_2013.1_src/data/scripts/dock_solv.prm

>  <Rbt.Receptor>
prm/pocket_docking_3.prm

>  <SCORE>
-39.1604

>  <SCORE.INTER>
-39.1604

>  <SCORE.INTER.CONST>
1

>  <SCORE.INTER.POLAR>
-1.93081

>  <SCORE.INTER.ROT>
0

>  <SCORE.INTER.SOLV>
9.81498

>  <SCORE.INTER.VDW>
-26.5425

>  <SCORE.INTER.norm>
-3.01233

>  <SCORE.INTRA>
0

>  <SCORE.INTRA.DIHEDRAL>
0

>  <SCORE.INTRA.DIHEDRAL.0>
0

>  <SCORE.INTRA.POLAR>
0

>  <SCORE.INTRA.POLAR.0>
0

>  <SCORE.INTRA.REPUL>
0

>  <SCORE.INTRA.REPUL.0>
0

>  <SCORE.INTRA.SOLV>
0

>  <SCORE.INTRA.SOLV.lig_0>
-12.9768

>  <SCORE.INTRA.VDW>
0

>  <SCORE.INTRA.VDW.0>
0

>  <SCORE.INTRA.norm>
0

>  <SCORE.RESTR>
0

>  <SCORE.RESTR.CAVITY>
0

>  <SCORE.RESTR.norm>
0

>  <SCORE.SYSTEM>
0

>  <SCORE.SYSTEM.CONST>
0

>  <SCORE.SYSTEM.DIHEDRAL>
0

>  <SCORE.SYSTEM.SOLV>
0

>  <SCORE.SYSTEM.norm>
0

>  <SCORE.heavy>
13

>  <SCORE.norm>
-3.01233

>  <RMSD>
0.725

$$$$
1eht cryst
 OpenBabel11021811383D
libRbt.so/2013.1/901 2013/11/27
 13 14  0  0  0  0  0  0  0  0999 V2000
   -4.7742   -7.9018   10.5783 C   0  0  0  0  0  0  0  0  0  0  0  0
   -5.2479   -7.0281   11.5528 N   0  0  0  0  0  0  0  0  0  0  0  0
   -5.6238   -7.5514   12.7630 C   0  0  0  0  0  0  0  0  0  0  0  0
   -5.5158   -8.7725   12.8907 O   0  0  0  0  0  0  0  0  0  0  0  0
   -6.1078   -6.8147   13.8144 N   0  0  0  0  0  0  0  0  0  0  0  0
   -6.4802   -7.3661   15.0294 C   0  0  0  0  0  0  0  0  0  0  0  0
   -6.1863   -5.4811   13.5406 C   0  0  0  0  0  0  0  0  0  0  0  0
   -5.8105   -4.9710   12.3318 C   0  0  0  0  0  0  0  0  0  0  0  0
   -5.3111   -5.7083   11.2429 C   0  0  0  0  0  0  0  0  0  0  0  0
   -4.9591   -5.2980   10.1379 O   0  0  0  0  0  0  0  0  0  0  0  0
   -6.0251   -3.6021   12.4177 N   0  0  0  0  0  0  0  0  0  0  0  0
   -6.5126   -3.3792   13.6612 C   0  0  0  0  0  0  0  0  0  0  0  0
   -6.6295   -4.4629   14.3774 N   0  0  0  0  0  0  0  0  0  0  0  0
  1  2  1  0  0  0  0
  2  9  1  0  0  0  0
  2  3  1  0  0  0  0
  3  5  1  0  0  0  0
  3  4  2  0  0  0  0
  5  6  1  0  0  0  0
  5  7  1  0  0  0  0
  7  8  2  0  0  0  0
  7 13  1  0  0  0  0
  8  9  1  0  0  0  0
  8 11  1  0  0  0  0
  9 10  2  0  0  0  0
 11 12  1  0  0  0  0
 12 13  2  0  0  0  0
M  END
>  <CHROM.1>
-5.76819360,-6.06818067,12.61519217,-0.74373799,1.19807447,-0.34733333

>  <Name>
1eht cryst

>  <RI>
0

>  <Rbt.Current_Directory>
/home/itssahil/PROJECTS/Mol_Feturizer/New_Systems/rnas/1eht

>  <Rbt.Executable>
rbdock ($Id: //depot/dev/client3/rdock/2013.1/src/exe/rbdock.cxx#4 $)

>  <Rbt.Library>
libRbt.so (2013.1, Build901 2013/11/27)

>  <Rbt.Parameter_File>
/export/apps/rDock/src/rDock_2013.1_src/data/scripts/dock_solv.prm

>  <Rbt.Receptor>
prm/pocket_docking_5.prm

>  <SCORE>
-39.1831

>  <SCORE.INTER>
-39.1831

>  <SCORE.INTER.CONST>
1

>  <SCORE.INTER.POLAR>
-1.95058

>  <SCORE.INTER.ROT>
0

>  <SCORE.INTER.SOLV>
9.7627

>  <SCORE.INTER.VDW>
-26.4743

>  <SCORE.INTER.norm>
-3.01408

>  <SCORE.INTRA>
0

>  <SCORE.INTRA.DIHEDRAL>
0

>  <SCORE.INTRA.DIHEDRAL.0>
0

>  <SCORE.INTRA.POLAR>
0

>  <SCORE.INTRA.POLAR.0>
0

>  <SCORE.INTRA.REPUL>
0

>  <SCORE.INTRA.REPUL.0>
0

>  <SCORE.INTRA.SOLV>
0

>  <SCORE.INTRA.SOLV.lig_0>
-12.9768

>  <SCORE.INTRA.VDW>
0

>  <SCORE.INTRA.VDW.0>
0

>  <SCORE.INTRA.norm>
0

>  <SCORE.RESTR>
0

>  <SCORE.RESTR.CAVITY>
0

>  <SCORE.RESTR.norm>
0

>  <SCORE.SYSTEM>
0

>  <SCORE.SYSTEM.CONST>
0

>  <SCORE.SYSTEM.DIHEDRAL>
0

>  <SCORE.SYSTEM.SOLV>
0

>  <SCORE.SYSTEM.norm>
0

>  <SCORE.heavy>
13

>  <SCORE.norm>
-3.01408

>  <RMSD>
0.725

$$$$
1eht cryst
 OpenBabel11021811383D
libRbt.so/2013.1/901 2013/11/27
 13 14  0  0  0  0  0  0  0  0999 V2000
   -4.7594   -7.8587   10.5950 C   0  0  0  0  0  0  0  0  0  0  0  0
   -5.2362   -6.9967   11.5785 N   0  0  0  0  0  0  0  0  0  0  0  0
   -5.6350   -7.5368   12.7739 C   0  0  0  0  0  0  0  0  0  0  0  0
   -5.5434   -8.7612   12.8812 O   0  0  0  0  0  0  0  0  0  0  0  0
   -6.1248   -6.8131   13.8316 N   0  0  0  0  0  0  0  0  0  0  0  0
   -6.5205   -7.3814   15.0313 C   0  0  0  0  0  0  0  0  0  0  0  0
   -6.1836   -5.4740   13.5807 C   0  0  0  0  0  0  0  0  0  0  0  0
   -5.7849   -4.9471   12.3865 C   0  0  0  0  0  0  0  0  0  0  0  0
   -5.2794   -5.6710   11.2915 C   0  0  0  0  0  0  0  0  0  0  0  0
   -4.9072   -5.2454   10.1989 O   0  0  0  0  0  0  0  0  0  0  0  0
   -5.9845   -3.5774   12.4939 N   0  0  0  0  0  0  0  0  0  0  0  0
   -6.4865   -3.3707   13.7344 C   0  0  0  0  0  0  0  0  0  0  0  0
   -6.6262   -4.4655   14.4294 N   0  0  0  0  0  0  0  0  0  0  0  0
  1  2  1  0  0  0  0
  2  9  1  0  0  0  0
  2  3  1  0  0  0  0
  3  5  1  0  0  0  0
  3  4  2  0  0  0  0
  5  6  1  0  0  0  0
  5  7  1  0  0  0  0
  7  8  2  0  0  0  0
  7 13  1  0  0  0  0
  8  9  1  0  0  0  0
  8 11  1  0  0  0  0
  9 10  2  0  0  0  0
 11 12  1  0  0  0  0
 12 13  2  0  0  0  0
M  END
>  <CHROM.1>
-5.75969611,-6.04956401,12.65069591,-0.78645344,1.18875139,-0.28979088

>  <Name>
1eht cryst

>  <RI>
0

>  <Rbt.Current_Directory>
/home/itssahil/PROJECTS/Mol_Feturizer/New_Systems/rnas/1eht

>  <Rbt.Executable>
rbdock ($Id: //depot/dev/client3/rdock/2013.1/src/exe/rbdock.cxx#4 $)

>  <Rbt.Library>
libRbt.so (2013.1, Build901 2013/11/27)

>  <Rbt.Parameter_File>
/export/apps/rDock/src/rDock_2013.1_src/data/scripts/dock_solv.prm

>  <Rbt.Receptor>
prm/blind_docking_100.prm

>  <SCORE>
-39.1648

>  <SCORE.INTER>
-39.1648

>  <SCORE.INTER.CONST>
1

>  <SCORE.INTER.POLAR>
-1.93475

>  <SCORE.INTER.ROT>
0

>  <SCORE.INTER.SOLV>
9.8463

>  <SCORE.INTER.VDW>
-26.5428

>  <SCORE.INTER.norm>
-3.01267

>  <SCORE.INTRA>
0

>  <SCORE.INTRA.DIHEDRAL>
0

>  <SCORE.INTRA.DIHEDRAL.0>
0

>  <SCORE.INTRA.POLAR>
0

>  <SCORE.INTRA.POLAR.0>
0

>  <SCORE.INTRA.REPUL>
0

>  <SCORE.INTRA.REPUL.0>
0

>  <SCORE.INTRA.SOLV>
0

>  <SCORE.INTRA.SOLV.lig_0>
-12.9768

>  <SCORE.INTRA.VDW>
0

>  <SCORE.INTRA.VDW.0>
0

>  <SCORE.INTRA.norm>
0

>  <SCORE.RESTR>
0

>  <SCORE.RESTR.CAVITY>
0

>  <SCORE.RESTR.norm>
0

>  <SCORE.SYSTEM>
0

>  <SCORE.SYSTEM.CONST>
0

>  <SCORE.SYSTEM.DIHEDRAL>
0

>  <SCORE.SYSTEM.SOLV>
0

>  <SCORE.SYSTEM.norm>
0

>  <SCORE.heavy>
13

>  <SCORE.norm>
-3.01267

>  <RMSD>
0.726

$$$$
1eht cryst
 OpenBabel11021811383D
libRbt.so/2013.1/901 2013/11/27
 13 14  0  0  0  0  0  0  0  0999 V2000
   -4.7672   -7.8683   10.6034 C   0  0  0  0  0  0  0  0  0  0  0  0
   -5.2387   -7.0130   11.5952 N   0  0  0  0  0  0  0  0  0  0  0  0
   -5.6343   -7.5615   12.7878 C   0  0  0  0  0  0  0  0  0  0  0  0
   -5.5447   -8.7870   12.8853 O   0  0  0  0  0  0  0  0  0  0  0  0
   -6.1189   -6.8450   13.8528 N   0  0  0  0  0  0  0  0  0  0  0  0
   -6.5113   -7.4219   15.0495 C   0  0  0  0  0  0  0  0  0  0  0  0
   -6.1759   -5.5040   13.6125 C   0  0  0  0  0  0  0  0  0  0  0  0
   -5.7805   -4.9686   12.4209 C   0  0  0  0  0  0  0  0  0  0  0  0
   -5.2803   -5.6850   11.3185 C   0  0  0  0  0  0  0  0  0  0  0  0
   -4.9112   -5.2518   10.2280 O   0  0  0  0  0  0  0  0  0  0  0  0
   -5.9769   -3.5994   12.5396 N   0  0  0  0  0  0  0  0  0  0  0  0
   -6.4740   -3.4013   13.7836 C   0  0  0  0  0  0  0  0  0  0  0  0
   -6.6134   -4.5012   14.4706 N   0  0  0  0  0  0  0  0  0  0  0  0
  1  2  1  0  0  0  0
  2  9  1  0  0  0  0
  2  3  1  0  0  0  0
  3  5  1  0  0  0  0
  3  4  2  0  0  0  0
  5  6  1  0  0  0  0
  5  7  1  0  0  0  0
  7  8  2  0  0  0  0
  7 13  1  0  0  0  0
  8  9  1  0  0  0  0
  8 11  1  0  0  0  0
  9 10  2  0  0  0  0
 11 12  1  0  0  0  0
 12 13  2  0  0  0  0
M  END
>  <CHROM.1>
-5.75645271,-6.07317095,12.67653416,-0.78882149,1.19276766,-0.27986355

>  <Name>
1eht cryst

>  <RI>
0

>  <Rbt.Current_Directory>
/home/itssahil/PROJECTS/Mol_Feturizer/New_Systems/rnas/1eht

>  <Rbt.Executable>
rbdock ($Id: //depot/dev/client3/rdock/2013.1/src/exe/rbdock.cxx#4 $)

>  <Rbt.Library>
libRbt.so (2013.1, Build901 2013/11/27)

>  <Rbt.Parameter_File>
/export/apps/rDock/src/rDock_2013.1_src/data/scripts/dock_solv.prm

>  <Rbt.Receptor>
prm/blind_docking_20.prm

>  <SCORE>
-39.1833

>  <SCORE.INTER>
-39.1833

>  <SCORE.INTER.CONST>
1

>  <SCORE.INTER.POLAR>
-1.928

>  <SCORE.INTER.ROT>
0

>  <SCORE.INTER.SOLV>
9.80591

>  <SCORE.INTER.VDW>
-26.5641

>  <SCORE.INTER.norm>
-3.0141

>  <SCORE.INTRA>
0

>  <SCORE.INTRA.DIHEDRAL>
0

>  <SCORE.INTRA.DIHEDRAL.0>
0

>  <SCORE.INTRA.POLAR>
0

>  <SCORE.INTRA.POLAR.0>
0

>  <SCORE.INTRA.REPUL>
0

>  <SCORE.INTRA.REPUL.0>
0

>  <SCORE.INTRA.SOLV>
0

>  <SCORE.INTRA.SOLV.lig_0>
-12.9768

>  <SCORE.INTRA.VDW>
0

>  <SCORE.INTRA.VDW.0>
0

>  <SCORE.INTRA.norm>
0

>  <SCORE.RESTR>
0

>  <SCORE.RESTR.CAVITY>
0

>  <SCORE.RESTR.norm>
0

>  <SCORE.SYSTEM>
0

>  <SCORE.SYSTEM.CONST>
0

>  <SCORE.SYSTEM.DIHEDRAL>
0

>  <SCORE.SYSTEM.SOLV>
0

>  <SCORE.SYSTEM.norm>
0

>  <SCORE.heavy>
13

>  <SCORE.norm>
-3.0141

>  <RMSD>
0.726

$$$$
1eht cryst
 OpenBabel11021811383D
libRbt.so/2013.1/901 2013/11/27
 13 14  0  0  0  0  0  0  0  0999 V2000
   -4.7620   -7.8639   10.5937 C   0  0  0  0  0  0  0  0  0  0  0  0
   -5.2350   -6.9997   11.5771 N   0  0  0  0  0  0  0  0  0  0  0  0
   -5.6264   -7.5367   12.7762 C   0  0  0  0  0  0  0  0  0  0  0  0
   -5.5321   -8.7606   12.8868 O   0  0  0  0  0  0  0  0  0  0  0  0
   -6.1119   -6.8105   13.8342 N   0  0  0  0  0  0  0  0  0  0  0  0
   -6.5002   -7.3758   15.0378 C   0  0  0  0  0  0  0  0  0  0  0  0
   -6.1744   -5.4724   13.5795 C   0  0  0  0  0  0  0  0  0  0  0  0
   -5.7831   -4.9485   12.3815 C   0  0  0  0  0  0  0  0  0  0  0  0
   -5.2821   -5.6749   11.2861 C   0  0  0  0  0  0  0  0  0  0  0  0
   -4.9166   -5.2521   10.1902 O   0  0  0  0  0  0  0  0  0  0  0  0
   -5.9846   -3.5789   12.4857 N   0  0  0  0  0  0  0  0  0  0  0  0
   -6.4803   -3.3692   13.7282 C   0  0  0  0  0  0  0  0  0  0  0  0
   -6.6144   -4.4620   14.4274 N   0  0  0  0  0  0  0  0  0  0  0  0
  1  2  1  0  0  0  0
  2  9  1  0  0  0  0
  2  3  1  0  0  0  0
  3  5  1  0  0  0  0
  3  4  2  0  0  0  0
  5  6  1  0  0  0  0
  5  7  1  0  0  0  0
  7  8  2  0  0  0  0
  7 13  1  0  0  0  0
  8  9  1  0  0  0  0
  8 11  1  0  0  0  0
  9 10  2  0  0  0  0
 11 12  1  0  0  0  0
 12 13  2  0  0  0  0
M  END
>  <CHROM.1>
-5.75447893,-6.05009797,12.64902181,-0.77761529,1.19333925,-0.30113292

>  <Name>
1eht cryst

>  <RI>
0

>  <Rbt.Current_Directory>
/home/itssahil/PROJECTS/Mol_Feturizer/New_Systems/rnas/1eht

>  <Rbt.Executable>
rbdock ($Id: //depot/dev/client3/rdock/2013.1/src/exe/rbdock.cxx#4 $)

>  <Rbt.Library>
libRbt.so (2013.1, Build901 2013/11/27)

>  <Rbt.Parameter_File>
/export/apps/rDock/src/rDock_2013.1_src/data/scripts/dock_solv.prm

>  <Rbt.Receptor>
prm/blind_docking_20.prm

>  <SCORE>
-39.1822

>  <SCORE.INTER>
-39.1822

>  <SCORE.INTER.CONST>
1

>  <SCORE.INTER.POLAR>
-1.93121

>  <SCORE.INTER.ROT>
0

>  <SCORE.INTER.SOLV>
9.83687

>  <SCORE.INTER.VDW>
-26.563

>  <SCORE.INTER.norm>
-3.01401

>  <SCORE.INTRA>
0

>  <SCORE.INTRA.DIHEDRAL>
0

>  <SCORE.INTRA.DIHEDRAL.0>
0

>  <SCORE.INTRA.POLAR>
0

>  <SCORE.INTRA.POLAR.0>
0

>  <SCORE.INTRA.REPUL>
0

>  <SCORE.INTRA.REPUL.0>
0

>  <SCORE.INTRA.SOLV>
0

>  <SCORE.INTRA.SOLV.lig_0>
-12.9768

>  <SCORE.INTRA.VDW>
0

>  <SCORE.INTRA.VDW.0>
0

>  <SCORE.INTRA.norm>
0

>  <SCORE.RESTR>
0

>  <SCORE.RESTR.CAVITY>
0

>  <SCORE.RESTR.norm>
0

>  <SCORE.SYSTEM>
0

>  <SCORE.SYSTEM.CONST>
0

>  <SCORE.SYSTEM.DIHEDRAL>
0

>  <SCORE.SYSTEM.SOLV>
0

>  <SCORE.SYSTEM.norm>
0

>  <SCORE.heavy>
13

>  <SCORE.norm>
-3.01401

>  <RMSD>
0.726

$$$$
1eht cryst
 OpenBabel11021811383D
libRbt.so/2013.1/901 2013/11/27
 13 14  0  0  0  0  0  0  0  0999 V2000
   -4.7630   -7.8680   10.5932 C   0  0  0  0  0  0  0  0  0  0  0  0
   -5.2356   -7.0028   11.5758 N   0  0  0  0  0  0  0  0  0  0  0  0
   -5.6251   -7.5385   12.7763 C   0  0  0  0  0  0  0  0  0  0  0  0
   -5.5295   -8.7622   12.8885 O   0  0  0  0  0  0  0  0  0  0  0  0
   -6.1100   -6.8112   13.8338 N   0  0  0  0  0  0  0  0  0  0  0  0
   -6.4962   -7.3751   15.0387 C   0  0  0  0  0  0  0  0  0  0  0  0
   -6.1740   -5.4735   13.5772 C   0  0  0  0  0  0  0  0  0  0  0  0
   -5.7846   -4.9510   12.3780 C   0  0  0  0  0  0  0  0  0  0  0  0
   -5.2843   -5.6786   11.2830 C   0  0  0  0  0  0  0  0  0  0  0  0
   -4.9204   -5.2570   10.1861 O   0  0  0  0  0  0  0  0  0  0  0  0
   -5.9872   -3.5814   12.4804 N   0  0  0  0  0  0  0  0  0  0  0  0
   -6.4816   -3.3703   13.7233 C   0  0  0  0  0  0  0  0  0  0  0  0
   -6.6138   -4.4623   14.4242 N   0  0  0  0  0  0  0  0  0  0  0  0
  1  2  1  0  0  0  0
  2  9  1  0  0  0  0
  2  3  1  0  0  0  0
  3  5  1  0  0  0  0
  3  4  2  0  0  0  0
  5  6  1  0  0  0  0
  5  7  1  0  0  0  0
  7  8  2  0  0  0  0
  7 13  1  0  0  0  0
  8  9  1  0  0  0  0
  8 11  1  0  0  0  0
  9 10  2  0  0  0  0
 11 12  1  0  0  0  0
 12 13  2  0  0  0  0
M  END
>  <CHROM.1>
-5.75464899,-6.05218200,12.64706481,-0.77426679,1.19422381,-0.30569654

>  <Name>
1eht cryst

>  <RI>
0

>  <Rbt.Current_Directory>
/home/itssahil/PROJECTS/Mol_Feturizer/New_Systems/rnas/1eht

>  <Rbt.Executable>
rbdock ($Id: //depot/dev/client3/rdock/2013.1/src/exe/rbdock.cxx#4 $)

>  <Rbt.Library>
libRbt.so (2013.1, Build901 2013/11/27)

>  <Rbt.Parameter_File>
/export/apps/rDock/src/rDock_2013.1_src/data/scripts/dock_solv.prm

>  <Rbt.Receptor>
prm/blind_docking_40.prm

>  <SCORE>
-39.185

>  <SCORE.INTER>
-39.185

>  <SCORE.INTER.CONST>
1

>  <SCORE.INTER.POLAR>
-1.93216

>  <SCORE.INTER.ROT>
0

>  <SCORE.INTER.SOLV>
9.82911

>  <SCORE.INTER.VDW>
-26.5591

>  <SCORE.INTER.norm>
-3.01423

>  <SCORE.INTRA>
0

>  <SCORE.INTRA.DIHEDRAL>
0

>  <SCORE.INTRA.DIHEDRAL.0>
0

>  <SCORE.INTRA.POLAR>
0

>  <SCORE.INTRA.POLAR.0>
0

>  <SCORE.INTRA.REPUL>
0

>  <SCORE.INTRA.REPUL.0>
0

>  <SCORE.INTRA.SOLV>
0

>  <SCORE.INTRA.SOLV.lig_0>
-12.9768

>  <SCORE.INTRA.VDW>
0

>  <SCORE.INTRA.VDW.0>
0

>  <SCORE.INTRA.norm>
0

>  <SCORE.RESTR>
0

>  <SCORE.RESTR.CAVITY>
0

>  <SCORE.RESTR.norm>
0

>  <SCORE.SYSTEM>
0

>  <SCORE.SYSTEM.CONST>
0

>  <SCORE.SYSTEM.DIHEDRAL>
0

>  <SCORE.SYSTEM.SOLV>
0

>  <SCORE.SYSTEM.norm>
0

>  <SCORE.heavy>
13

>  <SCORE.norm>
-3.01423

>  <RMSD>
0.726

$$$$
1eht cryst
 OpenBabel11021811383D
libRbt.so/2013.1/901 2013/11/27
 13 14  0  0  0  0  0  0  0  0999 V2000
   -4.7862   -7.8834   10.5799 C   0  0  0  0  0  0  0  0  0  0  0  0
   -5.2514   -7.0103   11.5591 N   0  0  0  0  0  0  0  0  0  0  0  0
   -5.6269   -7.5356   12.7685 C   0  0  0  0  0  0  0  0  0  0  0  0
   -5.5263   -8.7579   12.8915 O   0  0  0  0  0  0  0  0  0  0  0  0
   -6.1031   -6.7997   13.8240 N   0  0  0  0  0  0  0  0  0  0  0  0
   -6.4752   -7.3532   15.0381 C   0  0  0  0  0  0  0  0  0  0  0  0
   -6.1740   -5.4647   13.5553 C   0  0  0  0  0  0  0  0  0  0  0  0
   -5.7986   -4.9525   12.3472 C   0  0  0  0  0  0  0  0  0  0  0  0
   -5.3073   -5.6890   11.2541 C   0  0  0  0  0  0  0  0  0  0  0  0
   -4.9561   -5.2769   10.1495 O   0  0  0  0  0  0  0  0  0  0  0  0
   -6.0044   -3.5826   12.4386 N   0  0  0  0  0  0  0  0  0  0  0  0
   -6.4867   -3.3612   13.6844 C   0  0  0  0  0  0  0  0  0  0  0  0
   -6.6082   -4.4468   14.3971 N   0  0  0  0  0  0  0  0  0  0  0  0
  1  2  1  0  0  0  0
  2  9  1  0  0  0  0
  2  3  1  0  0  0  0
  3  5  1  0  0  0  0
  3  4  2  0  0  0  0
  5  6  1  0  0  0  0
  5  7  1  0  0  0  0
  7  8  2  0  0  0  0
  7 13  1  0  0  0  0
  8  9  1  0  0  0  0
  8 11  1  0  0  0  0
  9 10  2  0  0  0  0
 11 12  1  0  0  0  0
 12 13  2  0  0  0  0
M  END
>  <CHROM.1>
-5.76241887,-6.05099258,12.62644955,-0.75736008,1.20304649,-0.33101230

>  <Name>
1eht cryst

>  <RI>
0

>  <Rbt.Current_Directory>
/home/itssahil/PROJECTS/Mol_Feturizer/New_Systems/rnas/1eht

>  <Rbt.Executable>
rbdock ($Id: //depot/dev/client3/rdock/2013.1/src/exe/rbdock.cxx#4 $)

>  <Rbt.Library>
libRbt.so (2013.1, Build901 2013/11/27)

>  <Rbt.Parameter_File>
/export/apps/rDock/src/rDock_2013.1_src/data/scripts/dock_solv.prm

>  <Rbt.Receptor>
prm/blind_docking_40.prm

>  <SCORE>
-39.1736

>  <SCORE.INTER>
-39.1736

>  <SCORE.INTER.CONST>
1

>  <SCORE.INTER.POLAR>
-1.93255

>  <SCORE.INTER.ROT>
0

>  <SCORE.INTER.SOLV>
9.80605

>  <SCORE.INTER.VDW>
-26.5426

>  <SCORE.INTER.norm>
-3.01335

>  <SCORE.INTRA>
0

>  <SCORE.INTRA.DIHEDRAL>
0

>  <SCORE.INTRA.DIHEDRAL.0>
0

>  <SCORE.INTRA.POLAR>
0

>  <SCORE.INTRA.POLAR.0>
0

>  <SCORE.INTRA.REPUL>
0

>  <SCORE.INTRA.REPUL.0>
0

>  <SCORE.INTRA.SOLV>
0

>  <SCORE.INTRA.SOLV.lig_0>
-12.9768

>  <SCORE.INTRA.VDW>
0

>  <SCORE.INTRA.VDW.0>
0

>  <SCORE.INTRA.norm>
0

>  <SCORE.RESTR>
0

>  <SCORE.RESTR.CAVITY>
0

>  <SCORE.RESTR.norm>
0

>  <SCORE.SYSTEM>
0

>  <SCORE.SYSTEM.CONST>
0

>  <SCORE.SYSTEM.DIHEDRAL>
0

>  <SCORE.SYSTEM.SOLV>
0

>  <SCORE.SYSTEM.norm>
0

>  <SCORE.heavy>
13

>  <SCORE.norm>
-3.01335

>  <RMSD>
0.726

$$$$
1eht cryst
 OpenBabel11021811383D
libRbt.so/2013.1/901 2013/11/27
 13 14  0  0  0  0  0  0  0  0999 V2000
   -4.7615   -7.8651   10.5941 C   0  0  0  0  0  0  0  0  0  0  0  0
   -5.2349   -7.0007   11.5770 N   0  0  0  0  0  0  0  0  0  0  0  0
   -5.6264   -7.5374   12.7764 C   0  0  0  0  0  0  0  0  0  0  0  0
   -5.5316   -8.7613   12.8875 O   0  0  0  0  0  0  0  0  0  0  0  0
   -6.1122   -6.8109   13.8340 N   0  0  0  0  0  0  0  0  0  0  0  0
   -6.5003   -7.3759   15.0378 C   0  0  0  0  0  0  0  0  0  0  0  0
   -6.1751   -5.4729   13.5788 C   0  0  0  0  0  0  0  0  0  0  0  0
   -5.7839   -4.9494   12.3806 C   0  0  0  0  0  0  0  0  0  0  0  0
   -5.2825   -5.6761   11.2855 C   0  0  0  0  0  0  0  0  0  0  0  0
   -4.9170   -5.2536   10.1895 O   0  0  0  0  0  0  0  0  0  0  0  0
   -5.9858   -3.5798   12.4842 N   0  0  0  0  0  0  0  0  0  0  0  0
   -6.4817   -3.3697   13.7267 C   0  0  0  0  0  0  0  0  0  0  0  0
   -6.6154   -4.4624   14.4263 N   0  0  0  0  0  0  0  0  0  0  0  0
  1  2  1  0  0  0  0
  2  9  1  0  0  0  0
  2  3  1  0  0  0  0
  3  5  1  0  0  0  0
  3  4  2  0  0  0  0
  5  6  1  0  0  0  0
  5  7  1  0  0  0  0
  7  8  2  0  0  0  0
  7 13  1  0  0  0  0
  8  9  1  0  0  0  0
  8 11  1  0  0  0  0
  9 10  2  0  0  0  0
 11 12  1  0  0  0  0
 12 13  2  0  0  0  0
M  END
>  <CHROM.1>
-5.75486482,-6.05086977,12.64857615,-0.77683239,1.19315060,-0.30225816

>  <Name>
1eht cryst

>  <RI>
0

>  <Rbt.Current_Directory>
/home/itssahil/PROJECTS/Mol_Feturizer/New_Systems/rnas/1eht

>  <Rbt.Executable>
rbdock ($Id: //depot/dev/client3/rdock/2013.1/src/exe/rbdock.cxx#4 $)

>  <Rbt.Library>
libRbt.so (2013.1, Build901 2013/11/27)

>  <Rbt.Parameter_File>
/export/apps/rDock/src/rDock_2013.1_src/data/scripts/dock_solv.prm

>  <Rbt.Receptor>
prm/blind_docking_40.prm

>  <SCORE>
-39.1837

>  <SCORE.INTER>
-39.1837

>  <SCORE.INTER.CONST>
1

>  <SCORE.INTER.POLAR>
-1.93206

>  <SCORE.INTER.ROT>
0

>  <SCORE.INTER.SOLV>
9.83451

>  <SCORE.INTER.VDW>
-26.5604

>  <SCORE.INTER.norm>
-3.01413

>  <SCORE.INTRA>
0

>  <SCORE.INTRA.DIHEDRAL>
0

>  <SCORE.INTRA.DIHEDRAL.0>
0

>  <SCORE.INTRA.POLAR>
0

>  <SCORE.INTRA.POLAR.0>
0

>  <SCORE.INTRA.REPUL>
0

>  <SCORE.INTRA.REPUL.0>
0

>  <SCORE.INTRA.SOLV>
0

>  <SCORE.INTRA.SOLV.lig_0>
-12.9768

>  <SCORE.INTRA.VDW>
0

>  <SCORE.INTRA.VDW.0>
0

>  <SCORE.INTRA.norm>
0

>  <SCORE.RESTR>
0

>  <SCORE.RESTR.CAVITY>
0

>  <SCORE.RESTR.norm>
0

>  <SCORE.SYSTEM>
0

>  <SCORE.SYSTEM.CONST>
0

>  <SCORE.SYSTEM.DIHEDRAL>
0

>  <SCORE.SYSTEM.SOLV>
0

>  <SCORE.SYSTEM.norm>
0

>  <SCORE.heavy>
13

>  <SCORE.norm>
-3.01413

>  <RMSD>
0.726

$$$$
1eht cryst
 OpenBabel11021811383D
libRbt.so/2013.1/901 2013/11/27
 13 14  0  0  0  0  0  0  0  0999 V2000
   -4.7061   -7.6464   10.6346 C   0  0  0  0  0  0  0  0  0  0  0  0
   -5.2187   -6.8389   11.6459 N   0  0  0  0  0  0  0  0  0  0  0  0
   -5.6048   -7.4367   12.8177 C   0  0  0  0  0  0  0  0  0  0  0  0
   -5.4703   -8.6603   12.8803 O   0  0  0  0  0  0  0  0  0  0  0  0
   -6.1260   -6.7705   13.8979 N   0  0  0  0  0  0  0  0  0  0  0  0
   -6.5080   -7.3967   15.0730 C   0  0  0  0  0  0  0  0  0  0  0  0
   -6.2309   -5.4260   13.6962 C   0  0  0  0  0  0  0  0  0  0  0  0
   -5.8446   -4.8413   12.5251 C   0  0  0  0  0  0  0  0  0  0  0  0
   -5.3074   -5.5058   11.4076 C   0  0  0  0  0  0  0  0  0  0  0  0
   -4.9444   -5.0270   10.3342 O   0  0  0  0  0  0  0  0  0  0  0  0
   -6.0933   -3.4845   12.6816 N   0  0  0  0  0  0  0  0  0  0  0  0
   -6.6093   -3.3419   13.9254 C   0  0  0  0  0  0  0  0  0  0  0  0
   -6.7139   -4.4660   14.5785 N   0  0  0  0  0  0  0  0  0  0  0  0
  1  2  1  0  0  0  0
  2  9  1  0  0  0  0
  2  3  1  0  0  0  0
  3  5  1  0  0  0  0
  3  4  2  0  0  0  0
  5  6  1  0  0  0  0
  5  7  1  0  0  0  0
  7  8  2  0  0  0  0
  7 13  1  0  0  0  0
  8  9  1  0  0  0  0
  8 11  1  0  0  0  0
  9 10  2  0  0  0  0
 11 12  1  0  0  0  0
 12 13  2  0  0  0  0
M  END
>  <CHROM.1>
-5.78160581,-5.95128807,12.74859066,-0.70277908,1.17192744,-0.33012362

>  <Name>
1eht cryst

>  <RI>
0

>  <Rbt.Current_Directory>
/home/itssahil/PROJECTS/Mol_Feturizer/New_Systems/rnas/1eht

>  <Rbt.Executable>
rbdock ($Id: //depot/dev/client3/rdock/2013.1/src/exe/rbdock.cxx#4 $)

>  <Rbt.Library>
libRbt.so (2013.1, Build901 2013/11/27)

>  <Rbt.Parameter_File>
/export/apps/rDock/src/rDock_2013.1_src/data/scripts/dock_solv.prm

>  <Rbt.Receptor>
prm/blind_docking_80.prm

>  <SCORE>
-38.6548

>  <SCORE.INTER>
-38.6618

>  <SCORE.INTER.CONST>
1

>  <SCORE.INTER.POLAR>
-1.7571

>  <SCORE.INTER.ROT>
0

>  <SCORE.INTER.SOLV>
10.0578

>  <SCORE.INTER.VDW>
-26.8701

>  <SCORE.INTER.norm>
-2.97398

>  <SCORE.INTRA>
0

>  <SCORE.INTRA.DIHEDRAL>
0

>  <SCORE.INTRA.DIHEDRAL.0>
0

>  <SCORE.INTRA.POLAR>
0

>  <SCORE.INTRA.POLAR.0>
0

>  <SCORE.INTRA.REPUL>
0

>  <SCORE.INTRA.REPUL.0>
0

>  <SCORE.INTRA.SOLV>
0

>  <SCORE.INTRA.SOLV.lig_0>
-12.9768

>  <SCORE.INTRA.VDW>
0

>  <SCORE.INTRA.VDW.0>
0

>  <SCORE.INTRA.norm>
0

>  <SCORE.RESTR>
0.00697353

>  <SCORE.RESTR.CAVITY>
0.00697353

>  <SCORE.RESTR.norm>
0.000536425

>  <SCORE.SYSTEM>
0

>  <SCORE.SYSTEM.CONST>
0

>  <SCORE.SYSTEM.DIHEDRAL>
0

>  <SCORE.SYSTEM.SOLV>
0

>  <SCORE.SYSTEM.norm>
0

>  <SCORE.heavy>
13

>  <SCORE.norm>
-2.97345

>  <RMSD>
0.726

$$$$
1eht cryst
 OpenBabel11021811383D
libRbt.so/2013.1/901 2013/11/27
 13 14  0  0  0  0  0  0  0  0999 V2000
   -4.7710   -7.8639   10.6034 C   0  0  0  0  0  0  0  0  0  0  0  0
   -5.2440   -7.0098   11.5955 N   0  0  0  0  0  0  0  0  0  0  0  0
   -5.6445   -7.5600   12.7857 C   0  0  0  0  0  0  0  0  0  0  0  0
   -5.5576   -8.7858   12.8809 O   0  0  0  0  0  0  0  0  0  0  0  0
   -6.1311   -6.8448   13.8506 N   0  0  0  0  0  0  0  0  0  0  0  0
   -6.5285   -7.4233   15.0448 C   0  0  0  0  0  0  0  0  0  0  0  0
   -6.1847   -5.5031   13.6129 C   0  0  0  0  0  0  0  0  0  0  0  0
   -5.7845   -4.9660   12.4238 C   0  0  0  0  0  0  0  0  0  0  0  0
   -5.2821   -5.6811   11.3215 C   0  0  0  0  0  0  0  0  0  0  0  0
   -4.9087   -5.2463   10.2330 O   0  0  0  0  0  0  0  0  0  0  0  0
   -5.9786   -3.5967   12.5447 N   0  0  0  0  0  0  0  0  0  0  0  0
   -6.4794   -3.4002   13.7874 C   0  0  0  0  0  0  0  0  0  0  0  0
   -6.6231   -4.5013   14.4717 N   0  0  0  0  0  0  0  0  0  0  0  0
  1  2  1  0  0  0  0
  2  9  1  0  0  0  0
  2  3  1  0  0  0  0
  3  5  1  0  0  0  0
  3  4  2  0  0  0  0
  5  6  1  0  0  0  0
  5  7  1  0  0  0  0
  7  8  2  0  0  0  0
  7 13  1  0  0  0  0
  8  9  1  0  0  0  0
  8 11  1  0  0  0  0
  9 10  2  0  0  0  0
 11 12  1  0  0  0  0
 12 13  2  0  0  0  0
M  END
>  <CHROM.1>
-5.76341183,-6.07115011,12.67713154,-0.79622729,1.19020346,-0.27089946

>  <Name>
1eht cryst

>  <RI>
0

>  <Rbt.Current_Directory>
/home/itssahil/PROJECTS/Mol_Feturizer/New_Systems/rnas/1eht

>  <Rbt.Executable>
rbdock ($Id: //depot/dev/client3/rdock/2013.1/src/exe/rbdock.cxx#4 $)

>  <Rbt.Library>
libRbt.so (2013.1, Build901 2013/11/27)

>  <Rbt.Parameter_File>
/export/apps/rDock/src/rDock_2013.1_src/data/scripts/dock_solv.prm

>  <Rbt.Receptor>
prm/pocket_docking_2.prm

>  <SCORE>
-39.193

>  <SCORE.INTER>
-39.193

>  <SCORE.INTER.CONST>
1

>  <SCORE.INTER.POLAR>
-1.92899

>  <SCORE.INTER.ROT>
0

>  <SCORE.INTER.SOLV>
9.81546

>  <SCORE.INTER.VDW>
-26.5706

>  <SCORE.INTER.norm>
-3.01485

>  <SCORE.INTRA>
0

>  <SCORE.INTRA.DIHEDRAL>
0

>  <SCORE.INTRA.DIHEDRAL.0>
0

>  <SCORE.INTRA.POLAR>
0

>  <SCORE.INTRA.POLAR.0>
0

>  <SCORE.INTRA.REPUL>
0

>  <SCORE.INTRA.REPUL.0>
0

>  <SCORE.INTRA.SOLV>
0

>  <SCORE.INTRA.SOLV.lig_0>
-12.9768

>  <SCORE.INTRA.VDW>
0

>  <SCORE.INTRA.VDW.0>
0

>  <SCORE.INTRA.norm>
0

>  <SCORE.RESTR>
0

>  <SCORE.RESTR.CAVITY>
0

>  <SCORE.RESTR.norm>
0

>  <SCORE.SYSTEM>
0

>  <SCORE.SYSTEM.CONST>
0

>  <SCORE.SYSTEM.DIHEDRAL>
0

>  <SCORE.SYSTEM.SOLV>
0

>  <SCORE.SYSTEM.norm>
0

>  <SCORE.heavy>
13

>  <SCORE.norm>
-3.01485

>  <RMSD>
0.726

$$$$
1eht cryst
 OpenBabel11021811383D
libRbt.so/2013.1/901 2013/11/27
 13 14  0  0  0  0  0  0  0  0999 V2000
   -4.7837   -7.8739   10.5925 C   0  0  0  0  0  0  0  0  0  0  0  0
   -5.2460   -7.0090   11.5802 N   0  0  0  0  0  0  0  0  0  0  0  0
   -5.6280   -7.5455   12.7827 C   0  0  0  0  0  0  0  0  0  0  0  0
   -5.5352   -8.7697   12.8921 O   0  0  0  0  0  0  0  0  0  0  0  0
   -6.1024   -6.8187   13.8452 N   0  0  0  0  0  0  0  0  0  0  0  0
   -6.4812   -7.3835   15.0520 C   0  0  0  0  0  0  0  0  0  0  0  0
   -6.1644   -5.4803   13.5914 C   0  0  0  0  0  0  0  0  0  0  0  0
   -5.7826   -4.9569   12.3901 C   0  0  0  0  0  0  0  0  0  0  0  0
   -5.2929   -5.6841   11.2901 C   0  0  0  0  0  0  0  0  0  0  0  0
   -4.9363   -5.2617   10.1911 O   0  0  0  0  0  0  0  0  0  0  0  0
   -5.9802   -3.5869   12.4965 N   0  0  0  0  0  0  0  0  0  0  0  0
   -6.4644   -3.3765   13.7435 C   0  0  0  0  0  0  0  0  0  0  0  0
   -6.5945   -4.4693   14.4435 N   0  0  0  0  0  0  0  0  0  0  0  0
  1  2  1  0  0  0  0
  2  9  1  0  0  0  0
  2  3  1  0  0  0  0
  3  5  1  0  0  0  0
  3  4  2  0  0  0  0
  5  6  1  0  0  0  0
  5  7  1  0  0  0  0
  7  8  2  0  0  0  0
  7 13  1  0  0  0  0
  8  9  1  0  0  0  0
  8 11  1  0  0  0  0
  9 10  2  0  0  0  0
 11 12  1  0  0  0  0
 12 13  2  0  0  0  0
M  END
>  <CHROM.1>
-5.75394732,-6.05864189,12.65708484,-0.77597695,1.20249209,-0.30235312

>  <Name>
1eht cryst

>  <RI>
0

>  <Rbt.Current_Directory>
/home/itssahil/PROJECTS/Mol_Feturizer/New_Systems/rnas/1eht

>  <Rbt.Executable>
rbdock ($Id: //depot/dev/client3/rdock/2013.1/src/exe/rbdock.cxx#4 $)

>  <Rbt.Library>
libRbt.so (2013.1, Build901 2013/11/27)

>  <Rbt.Parameter_File>
/export/apps/rDock/src/rDock_2013.1_src/data/scripts/dock_solv.prm

>  <Rbt.Receptor>
prm/pocket_docking_4.prm

>  <SCORE>
-39.1674

>  <SCORE.INTER>
-39.1674

>  <SCORE.INTER.CONST>
1

>  <SCORE.INTER.POLAR>
-1.92264

>  <SCORE.INTER.ROT>
0

>  <SCORE.INTER.SOLV>
9.81238

>  <SCORE.INTER.VDW>
-26.5736

>  <SCORE.INTER.norm>
-3.01288

>  <SCORE.INTRA>
0

>  <SCORE.INTRA.DIHEDRAL>
0

>  <SCORE.INTRA.DIHEDRAL.0>
0

>  <SCORE.INTRA.POLAR>
0

>  <SCORE.INTRA.POLAR.0>
0

>  <SCORE.INTRA.REPUL>
0

>  <SCORE.INTRA.REPUL.0>
0

>  <SCORE.INTRA.SOLV>
0

>  <SCORE.INTRA.SOLV.lig_0>
-12.9768

>  <SCORE.INTRA.VDW>
0

>  <SCORE.INTRA.VDW.0>
0

>  <SCORE.INTRA.norm>
0

>  <SCORE.RESTR>
0

>  <SCORE.RESTR.CAVITY>
0

>  <SCORE.RESTR.norm>
0

>  <SCORE.SYSTEM>
0

>  <SCORE.SYSTEM.CONST>
0

>  <SCORE.SYSTEM.DIHEDRAL>
0

>  <SCORE.SYSTEM.SOLV>
0

>  <SCORE.SYSTEM.norm>
0

>  <SCORE.heavy>
13

>  <SCORE.norm>
-3.01288

>  <RMSD>
0.726

$$$$
1eht cryst
 OpenBabel11021811383D
libRbt.so/2013.1/901 2013/11/27
 13 14  0  0  0  0  0  0  0  0999 V2000
   -4.7969   -7.8899   10.5763 C   0  0  0  0  0  0  0  0  0  0  0  0
   -5.2593   -7.0156   11.5558 N   0  0  0  0  0  0  0  0  0  0  0  0
   -5.6356   -7.5401   12.7653 C   0  0  0  0  0  0  0  0  0  0  0  0
   -5.5382   -8.7627   12.8880 O   0  0  0  0  0  0  0  0  0  0  0  0
   -6.1095   -6.8032   13.8211 N   0  0  0  0  0  0  0  0  0  0  0  0
   -6.4825   -7.3558   15.0353 C   0  0  0  0  0  0  0  0  0  0  0  0
   -6.1769   -5.4679   13.5526 C   0  0  0  0  0  0  0  0  0  0  0  0
   -5.8008   -4.9565   12.3444 C   0  0  0  0  0  0  0  0  0  0  0  0
   -5.3118   -5.6942   11.2510 C   0  0  0  0  0  0  0  0  0  0  0  0
   -4.9600   -5.2828   10.1464 O   0  0  0  0  0  0  0  0  0  0  0  0
   -6.0029   -3.5861   12.4362 N   0  0  0  0  0  0  0  0  0  0  0  0
   -6.4840   -3.3636   13.6822 C   0  0  0  0  0  0  0  0  0  0  0  0
   -6.6081   -4.4490   14.3948 N   0  0  0  0  0  0  0  0  0  0  0  0
  1  2  1  0  0  0  0
  2  9  1  0  0  0  0
  2  3  1  0  0  0  0
  3  5  1  0  0  0  0
  3  4  2  0  0  0  0
  5  6  1  0  0  0  0
  5  7  1  0  0  0  0
  7  8  2  0  0  0  0
  7 13  1  0  0  0  0
  8  9  1  0  0  0  0
  8 11  1  0  0  0  0
  9 10  2  0  0  0  0
 11 12  1  0  0  0  0
 12 13  2  0  0  0  0
M  END
>  <CHROM.1>
-5.76731704,-6.05516796,12.62353332,-0.76389237,1.20431164,-0.32476512

>  <Name>
1eht cryst

>  <RI>
0

>  <Rbt.Current_Directory>
/home/itssahil/PROJECTS/Mol_Feturizer/New_Systems/rnas/1eht

>  <Rbt.Executable>
rbdock ($Id: //depot/dev/client3/rdock/2013.1/src/exe/rbdock.cxx#4 $)

>  <Rbt.Library>
libRbt.so (2013.1, Build901 2013/11/27)

>  <Rbt.Parameter_File>
/export/apps/rDock/src/rDock_2013.1_src/data/scripts/dock_solv.prm

>  <Rbt.Receptor>
prm/pocket_docking_6.prm

>  <SCORE>
-39.1946

>  <SCORE.INTER>
-39.1946

>  <SCORE.INTER.CONST>
1

>  <SCORE.INTER.POLAR>
-1.93413

>  <SCORE.INTER.ROT>
0

>  <SCORE.INTER.SOLV>
9.79882

>  <SCORE.INTER.VDW>
-26.5489

>  <SCORE.INTER.norm>
-3.01497

>  <SCORE.INTRA>
0

>  <SCORE.INTRA.DIHEDRAL>
0

>  <SCORE.INTRA.DIHEDRAL.0>
0

>  <SCORE.INTRA.POLAR>
0

>  <SCORE.INTRA.POLAR.0>
0

>  <SCORE.INTRA.REPUL>
0

>  <SCORE.INTRA.REPUL.0>
0

>  <SCORE.INTRA.SOLV>
0

>  <SCORE.INTRA.SOLV.lig_0>
-12.9768

>  <SCORE.INTRA.VDW>
0

>  <SCORE.INTRA.VDW.0>
0

>  <SCORE.INTRA.norm>
0

>  <SCORE.RESTR>
0

>  <SCORE.RESTR.CAVITY>
0

>  <SCORE.RESTR.norm>
0

>  <SCORE.SYSTEM>
0

>  <SCORE.SYSTEM.CONST>
0

>  <SCORE.SYSTEM.DIHEDRAL>
0

>  <SCORE.SYSTEM.SOLV>
0

>  <SCORE.SYSTEM.norm>
0

>  <SCORE.heavy>
13

>  <SCORE.norm>
-3.01497

>  <RMSD>
0.726

$$$$
1eht cryst
 OpenBabel11021811383D
libRbt.so/2013.1/901 2013/11/27
 13 14  0  0  0  0  0  0  0  0999 V2000
   -4.7611   -7.8676   10.5931 C   0  0  0  0  0  0  0  0  0  0  0  0
   -5.2358   -7.0027   11.5751 N   0  0  0  0  0  0  0  0  0  0  0  0
   -5.6282   -7.5388   12.7744 C   0  0  0  0  0  0  0  0  0  0  0  0
   -5.5331   -8.7626   12.8863 O   0  0  0  0  0  0  0  0  0  0  0  0
   -6.1154   -6.8119   13.8311 N   0  0  0  0  0  0  0  0  0  0  0  0
   -6.5046   -7.3763   15.0348 C   0  0  0  0  0  0  0  0  0  0  0  0
   -6.1786   -5.4741   13.5749 C   0  0  0  0  0  0  0  0  0  0  0  0
   -5.7864   -4.9511   12.3768 C   0  0  0  0  0  0  0  0  0  0  0  0
   -5.2836   -5.6783   11.2827 C   0  0  0  0  0  0  0  0  0  0  0  0
   -4.9171   -5.2564   10.1868 O   0  0  0  0  0  0  0  0  0  0  0  0
   -5.9889   -3.5815   12.4794 N   0  0  0  0  0  0  0  0  0  0  0  0
   -6.4862   -3.3709   13.7212 C   0  0  0  0  0  0  0  0  0  0  0  0
   -6.6202   -4.4632   14.4213 N   0  0  0  0  0  0  0  0  0  0  0  0
  1  2  1  0  0  0  0
  2  9  1  0  0  0  0
  2  3  1  0  0  0  0
  3  5  1  0  0  0  0
  3  4  2  0  0  0  0
  5  6  1  0  0  0  0
  5  7  1  0  0  0  0
  7  8  2  0  0  0  0
  7 13  1  0  0  0  0
  8  9  1  0  0  0  0
  8 11  1  0  0  0  0
  9 10  2  0  0  0  0
 11 12  1  0  0  0  0
 12 13  2  0  0  0  0
M  END
>  <CHROM.1>
-5.75721560,-6.05244355,12.64548539,-0.77662425,1.19206627,-0.30307463

>  <Name>
1eht cryst

>  <RI>
224

>  <Rbt.Current_Directory>
/home/itssahil/PROJECTS/Mol_Feturizer/New_Systems/rnas/1eht

>  <Rbt.Executable>
rbdock ($Id: //depot/dev/client3/rdock/2013.1/src/exe/rbdock.cxx#4 $)

>  <Rbt.Library>
libRbt.so (2013.1, Build901 2013/11/27)

>  <Rbt.Parameter_File>
/export/apps/rDock/src/rDock_2013.1_src/data/scripts/dock_solv.prm

>  <Rbt.Receptor>
prm/pocket_docking_7.prm

>  <SCORE>
-39.1827

>  <SCORE.INTER>
-39.1827

>  <SCORE.INTER.CONST>
1

>  <SCORE.INTER.POLAR>
-1.93546

>  <SCORE.INTER.ROT>
0

>  <SCORE.INTER.SOLV>
9.83079

>  <SCORE.INTER.VDW>
-26.5472

>  <SCORE.INTER.norm>
-3.01405

>  <SCORE.INTRA>
0

>  <SCORE.INTRA.DIHEDRAL>
0

>  <SCORE.INTRA.DIHEDRAL.0>
0

>  <SCORE.INTRA.POLAR>
0

>  <SCORE.INTRA.POLAR.0>
0

>  <SCORE.INTRA.REPUL>
0

>  <SCORE.INTRA.REPUL.0>
0

>  <SCORE.INTRA.SOLV>
0

>  <SCORE.INTRA.SOLV.lig_0>
-12.9768

>  <SCORE.INTRA.VDW>
0

>  <SCORE.INTRA.VDW.0>
0

>  <SCORE.INTRA.norm>
0

>  <SCORE.RESTR>
0

>  <SCORE.RESTR.CAVITY>
0

>  <SCORE.RESTR.norm>
0

>  <SCORE.SYSTEM>
0

>  <SCORE.SYSTEM.CONST>
0

>  <SCORE.SYSTEM.DIHEDRAL>
0

>  <SCORE.SYSTEM.SOLV>
0

>  <SCORE.SYSTEM.norm>
0

>  <SCORE.heavy>
13

>  <SCORE.norm>
-3.01405

>  <RMSD>
0.726

$$$$
1eht cryst
 OpenBabel11021811383D
libRbt.so/2013.1/901 2013/11/27
 13 14  0  0  0  0  0  0  0  0999 V2000
   -4.7643   -7.8684   10.5966 C   0  0  0  0  0  0  0  0  0  0  0  0
   -5.2327   -7.0053   11.5831 N   0  0  0  0  0  0  0  0  0  0  0  0
   -5.6179   -7.5436   12.7838 C   0  0  0  0  0  0  0  0  0  0  0  0
   -5.5225   -8.7676   12.8928 O   0  0  0  0  0  0  0  0  0  0  0  0
   -6.0984   -6.8186   13.8449 N   0  0  0  0  0  0  0  0  0  0  0  0
   -6.4803   -7.3851   15.0498 C   0  0  0  0  0  0  0  0  0  0  0  0
   -6.1627   -5.4802   13.5917 C   0  0  0  0  0  0  0  0  0  0  0  0
   -5.7776   -4.9551   12.3922 C   0  0  0  0  0  0  0  0  0  0  0  0
   -5.2818   -5.6803   11.2936 C   0  0  0  0  0  0  0  0  0  0  0  0
   -4.9219   -5.2563   10.1963 O   0  0  0  0  0  0  0  0  0  0  0  0
   -5.9790   -3.5856   12.4987 N   0  0  0  0  0  0  0  0  0  0  0  0
   -6.4686   -3.3773   13.7439 C   0  0  0  0  0  0  0  0  0  0  0  0
   -6.5987   -4.4708   14.4428 N   0  0  0  0  0  0  0  0  0  0  0  0
  1  2  1  0  0  0  0
  2  9  1  0  0  0  0
  2  3  1  0  0  0  0
  3  5  1  0  0  0  0
  3  4  2  0  0  0  0
  5  6  1  0  0  0  0
  5  7  1  0  0  0  0
  7  8  2  0  0  0  0
  7 13  1  0  0  0  0
  8  9  1  0  0  0  0
  8 11  1  0  0  0  0
  9 10  2  0  0  0  0
 11 12  1  0  0  0  0
 12 13  2  0  0  0  0
M  END
>  <CHROM.1>
-5.74716092,-6.05691495,12.65858378,-0.77253358,1.19802408,-0.30492829

>  <Name>
1eht cryst

>  <RI>
224

>  <Rbt.Current_Directory>
/home/itssahil/PROJECTS/Mol_Feturizer/New_Systems/rnas/1eht

>  <Rbt.Executable>
rbdock ($Id: //depot/dev/client3/rdock/2013.1/src/exe/rbdock.cxx#4 $)

>  <Rbt.Library>
libRbt.so (2013.1, Build901 2013/11/27)

>  <Rbt.Parameter_File>
/export/apps/rDock/src/rDock_2013.1_src/data/scripts/dock_solv.prm

>  <Rbt.Receptor>
prm/pocket_docking_7.prm

>  <SCORE>
-39.1776

>  <SCORE.INTER>
-39.1776

>  <SCORE.INTER.CONST>
1

>  <SCORE.INTER.POLAR>
-1.92456

>  <SCORE.INTER.ROT>
0

>  <SCORE.INTER.SOLV>
9.81932

>  <SCORE.INTER.VDW>
-26.5763

>  <SCORE.INTER.norm>
-3.01366

>  <SCORE.INTRA>
0

>  <SCORE.INTRA.DIHEDRAL>
0

>  <SCORE.INTRA.DIHEDRAL.0>
0

>  <SCORE.INTRA.POLAR>
0

>  <SCORE.INTRA.POLAR.0>
0

>  <SCORE.INTRA.REPUL>
0

>  <SCORE.INTRA.REPUL.0>
0

>  <SCORE.INTRA.SOLV>
0

>  <SCORE.INTRA.SOLV.lig_0>
-12.9768

>  <SCORE.INTRA.VDW>
0

>  <SCORE.INTRA.VDW.0>
0

>  <SCORE.INTRA.norm>
0

>  <SCORE.RESTR>
0

>  <SCORE.RESTR.CAVITY>
0

>  <SCORE.RESTR.norm>
0

>  <SCORE.SYSTEM>
0

>  <SCORE.SYSTEM.CONST>
0

>  <SCORE.SYSTEM.DIHEDRAL>
0

>  <SCORE.SYSTEM.SOLV>
0

>  <SCORE.SYSTEM.norm>
0

>  <SCORE.heavy>
13

>  <SCORE.norm>
-3.01366

>  <RMSD>
0.726

$$$$
1eht cryst
 OpenBabel11021811383D
libRbt.so/2013.1/901 2013/11/27
 13 14  0  0  0  0  0  0  0  0999 V2000
   -4.7629   -7.8688   10.5948 C   0  0  0  0  0  0  0  0  0  0  0  0
   -5.2349   -7.0031   11.5773 N   0  0  0  0  0  0  0  0  0  0  0  0
   -5.6229   -7.5381   12.7785 C   0  0  0  0  0  0  0  0  0  0  0  0
   -5.5264   -8.7616   12.8917 O   0  0  0  0  0  0  0  0  0  0  0  0
   -6.1070   -6.8102   13.8360 N   0  0  0  0  0  0  0  0  0  0  0  0
   -6.4916   -7.3734   15.0418 C   0  0  0  0  0  0  0  0  0  0  0  0
   -6.1720   -5.4727   13.5785 C   0  0  0  0  0  0  0  0  0  0  0  0
   -5.7843   -4.9510   12.3784 C   0  0  0  0  0  0  0  0  0  0  0  0
   -5.2847   -5.6791   11.2834 C   0  0  0  0  0  0  0  0  0  0  0  0
   -4.9223   -5.2582   10.1858 O   0  0  0  0  0  0  0  0  0  0  0  0
   -5.9875   -3.5814   12.4800 N   0  0  0  0  0  0  0  0  0  0  0  0
   -6.4807   -3.3697   13.7233 C   0  0  0  0  0  0  0  0  0  0  0  0
   -6.6115   -4.4612   14.4252 N   0  0  0  0  0  0  0  0  0  0  0  0
  1  2  1  0  0  0  0
  2  9  1  0  0  0  0
  2  3  1  0  0  0  0
  3  5  1  0  0  0  0
  3  4  2  0  0  0  0
  5  6  1  0  0  0  0
  5  7  1  0  0  0  0
  7  8  2  0  0  0  0
  7 13  1  0  0  0  0
  8  9  1  0  0  0  0
  8 11  1  0  0  0  0
  9 10  2  0  0  0  0
 11 12  1  0  0  0  0
 12 13  2  0  0  0  0
M  END
>  <CHROM.1>
-5.75337330,-6.05193724,12.64832519,-0.77192484,1.19510307,-0.30865159

>  <Name>
1eht cryst

>  <RI>
0

>  <Rbt.Current_Directory>
/home/itssahil/PROJECTS/Mol_Feturizer/New_Systems/rnas/1eht

>  <Rbt.Executable>
rbdock ($Id: //depot/dev/client3/rdock/2013.1/src/exe/rbdock.cxx#4 $)

>  <Rbt.Library>
libRbt.so (2013.1, Build901 2013/11/27)

>  <Rbt.Parameter_File>
/export/apps/rDock/src/rDock_2013.1_src/data/scripts/dock_solv.prm

>  <Rbt.Receptor>
prm/blind_docking_100.prm

>  <SCORE>
-39.1848

>  <SCORE.INTER>
-39.1848

>  <SCORE.INTER.CONST>
1

>  <SCORE.INTER.POLAR>
-1.93065

>  <SCORE.INTER.ROT>
0

>  <SCORE.INTER.SOLV>
9.82732

>  <SCORE.INTER.VDW>
-26.5635

>  <SCORE.INTER.norm>
-3.01422

>  <SCORE.INTRA>
0

>  <SCORE.INTRA.DIHEDRAL>
0

>  <SCORE.INTRA.DIHEDRAL.0>
0

>  <SCORE.INTRA.POLAR>
0

>  <SCORE.INTRA.POLAR.0>
0

>  <SCORE.INTRA.REPUL>
0

>  <SCORE.INTRA.REPUL.0>
0

>  <SCORE.INTRA.SOLV>
0

>  <SCORE.INTRA.SOLV.lig_0>
-12.9768

>  <SCORE.INTRA.VDW>
0

>  <SCORE.INTRA.VDW.0>
0

>  <SCORE.INTRA.norm>
0

>  <SCORE.RESTR>
0

>  <SCORE.RESTR.CAVITY>
0

>  <SCORE.RESTR.norm>
0

>  <SCORE.SYSTEM>
0

>  <SCORE.SYSTEM.CONST>
0

>  <SCORE.SYSTEM.DIHEDRAL>
0

>  <SCORE.SYSTEM.SOLV>
0

>  <SCORE.SYSTEM.norm>
0

>  <SCORE.heavy>
13

>  <SCORE.norm>
-3.01422

>  <RMSD>
0.727

$$$$
1eht cryst
 OpenBabel11021811383D
libRbt.so/2013.1/901 2013/11/27
 13 14  0  0  0  0  0  0  0  0999 V2000
   -4.7615   -7.8659   10.5945 C   0  0  0  0  0  0  0  0  0  0  0  0
   -5.2359   -7.0015   11.5770 N   0  0  0  0  0  0  0  0  0  0  0  0
   -5.6298   -7.5383   12.7755 C   0  0  0  0  0  0  0  0  0  0  0  0
   -5.5360   -8.7623   12.8863 O   0  0  0  0  0  0  0  0  0  0  0  0
   -6.1168   -6.8119   13.8326 N   0  0  0  0  0  0  0  0  0  0  0  0
   -6.5074   -7.3770   15.0355 C   0  0  0  0  0  0  0  0  0  0  0  0
   -6.1784   -5.4737   13.5777 C   0  0  0  0  0  0  0  0  0  0  0  0
   -5.7847   -4.9500   12.3804 C   0  0  0  0  0  0  0  0  0  0  0  0
   -5.2820   -5.6767   11.2858 C   0  0  0  0  0  0  0  0  0  0  0  0
   -4.9144   -5.2541   10.1906 O   0  0  0  0  0  0  0  0  0  0  0  0
   -5.9858   -3.5803   12.4842 N   0  0  0  0  0  0  0  0  0  0  0  0
   -6.4837   -3.3704   13.7258 C   0  0  0  0  0  0  0  0  0  0  0  0
   -6.6194   -4.4632   14.4248 N   0  0  0  0  0  0  0  0  0  0  0  0
  1  2  1  0  0  0  0
  2  9  1  0  0  0  0
  2  3  1  0  0  0  0
  3  5  1  0  0  0  0
  3  4  2  0  0  0  0
  5  6  1  0  0  0  0
  5  7  1  0  0  0  0
  7  8  2  0  0  0  0
  7 13  1  0  0  0  0
  8  9  1  0  0  0  0
  8 11  1  0  0  0  0
  9 10  2  0  0  0  0
 11 12  1  0  0  0  0
 12 13  2  0  0  0  0
M  END
>  <CHROM.1>
-5.75698425,-6.05163820,12.64797168,-0.78004682,1.19176127,-0.29890229

>  <Name>
1eht cryst

>  <RI>
0

>  <Rbt.Current_Directory>
/home/itssahil/PROJECTS/Mol_Feturizer/New_Systems/rnas/1eht

>  <Rbt.Executable>
rbdock ($Id: //depot/dev/client3/rdock/2013.1/src/exe/rbdock.cxx#4 $)

>  <Rbt.Library>
libRbt.so (2013.1, Build901 2013/11/27)

>  <Rbt.Parameter_File>
/export/apps/rDock/src/rDock_2013.1_src/data/scripts/dock_solv.prm

>  <Rbt.Receptor>
prm/blind_docking_20.prm

>  <SCORE>
-39.1797

>  <SCORE.INTER>
-39.1797

>  <SCORE.INTER.CONST>
1

>  <SCORE.INTER.POLAR>
-1.9341

>  <SCORE.INTER.ROT>
0

>  <SCORE.INTER.SOLV>
9.83518

>  <SCORE.INTER.VDW>
-26.5512

>  <SCORE.INTER.norm>
-3.01383

>  <SCORE.INTRA>
0

>  <SCORE.INTRA.DIHEDRAL>
0

>  <SCORE.INTRA.DIHEDRAL.0>
0

>  <SCORE.INTRA.POLAR>
0

>  <SCORE.INTRA.POLAR.0>
0

>  <SCORE.INTRA.REPUL>
0

>  <SCORE.INTRA.REPUL.0>
0

>  <SCORE.INTRA.SOLV>
0

>  <SCORE.INTRA.SOLV.lig_0>
-12.9768

>  <SCORE.INTRA.VDW>
0

>  <SCORE.INTRA.VDW.0>
0

>  <SCORE.INTRA.norm>
0

>  <SCORE.RESTR>
0

>  <SCORE.RESTR.CAVITY>
0

>  <SCORE.RESTR.norm>
0

>  <SCORE.SYSTEM>
0

>  <SCORE.SYSTEM.CONST>
0

>  <SCORE.SYSTEM.DIHEDRAL>
0

>  <SCORE.SYSTEM.SOLV>
0

>  <SCORE.SYSTEM.norm>
0

>  <SCORE.heavy>
13

>  <SCORE.norm>
-3.01383

>  <RMSD>
0.727

$$$$
1eht cryst
 OpenBabel11021811383D
libRbt.so/2013.1/901 2013/11/27
 13 14  0  0  0  0  0  0  0  0999 V2000
   -4.7578   -7.8647   10.5981 C   0  0  0  0  0  0  0  0  0  0  0  0
   -5.2330   -7.0008   11.5806 N   0  0  0  0  0  0  0  0  0  0  0  0
   -5.6200   -7.5373   12.7814 C   0  0  0  0  0  0  0  0  0  0  0  0
   -5.5200   -8.7606   12.8941 O   0  0  0  0  0  0  0  0  0  0  0  0
   -6.1069   -6.8114   13.8389 N   0  0  0  0  0  0  0  0  0  0  0  0
   -6.4906   -7.3761   15.0442 C   0  0  0  0  0  0  0  0  0  0  0  0
   -6.1758   -5.4740   13.5818 C   0  0  0  0  0  0  0  0  0  0  0  0
   -5.7889   -4.9506   12.3822 C   0  0  0  0  0  0  0  0  0  0  0  0
   -5.2865   -5.6768   11.2872 C   0  0  0  0  0  0  0  0  0  0  0  0
   -4.9247   -5.2544   10.1900 O   0  0  0  0  0  0  0  0  0  0  0  0
   -5.9963   -3.5817   12.4842 N   0  0  0  0  0  0  0  0  0  0  0  0
   -6.4909   -3.3719   13.7272 C   0  0  0  0  0  0  0  0  0  0  0  0
   -6.6188   -4.4640   14.4286 N   0  0  0  0  0  0  0  0  0  0  0  0
  1  2  1  0  0  0  0
  2  9  1  0  0  0  0
  2  3  1  0  0  0  0
  3  5  1  0  0  0  0
  3  4  2  0  0  0  0
  5  6  1  0  0  0  0
  5  7  1  0  0  0  0
  7  8  2  0  0  0  0
  7 13  1  0  0  0  0
  8  9  1  0  0  0  0
  8 11  1  0  0  0  0
  9 10  2  0  0  0  0
 11 12  1  0  0  0  0
 12 13  2  0  0  0  0
M  END
>  <CHROM.1>
-5.75489493,-6.05155970,12.65169410,-0.76466956,1.19361928,-0.31502227

>  <Name>
1eht cryst

>  <RI>
0

>  <Rbt.Current_Directory>
/home/itssahil/PROJECTS/Mol_Feturizer/New_Systems/rnas/1eht

>  <Rbt.Executable>
rbdock ($Id: //depot/dev/client3/rdock/2013.1/src/exe/rbdock.cxx#4 $)

>  <Rbt.Library>
libRbt.so (2013.1, Build901 2013/11/27)

>  <Rbt.Parameter_File>
/export/apps/rDock/src/rDock_2013.1_src/data/scripts/dock_solv.prm

>  <Rbt.Receptor>
prm/blind_docking_20.prm

>  <SCORE>
-39.1678

>  <SCORE.INTER>
-39.1678

>  <SCORE.INTER.CONST>
1

>  <SCORE.INTER.POLAR>
-1.92623

>  <SCORE.INTER.ROT>
0

>  <SCORE.INTER.SOLV>
9.82417

>  <SCORE.INTER.VDW>
-26.5658

>  <SCORE.INTER.norm>
-3.01291

>  <SCORE.INTRA>
0

>  <SCORE.INTRA.DIHEDRAL>
0

>  <SCORE.INTRA.DIHEDRAL.0>
0

>  <SCORE.INTRA.POLAR>
0

>  <SCORE.INTRA.POLAR.0>
0

>  <SCORE.INTRA.REPUL>
0

>  <SCORE.INTRA.REPUL.0>
0

>  <SCORE.INTRA.SOLV>
0

>  <SCORE.INTRA.SOLV.lig_0>
-12.9768

>  <SCORE.INTRA.VDW>
0

>  <SCORE.INTRA.VDW.0>
0

>  <SCORE.INTRA.norm>
0

>  <SCORE.RESTR>
0

>  <SCORE.RESTR.CAVITY>
0

>  <SCORE.RESTR.norm>
0

>  <SCORE.SYSTEM>
0

>  <SCORE.SYSTEM.CONST>
0

>  <SCORE.SYSTEM.DIHEDRAL>
0

>  <SCORE.SYSTEM.SOLV>
0

>  <SCORE.SYSTEM.norm>
0

>  <SCORE.heavy>
13

>  <SCORE.norm>
-3.01291

>  <RMSD>
0.727

$$$$
1eht cryst
 OpenBabel11021811383D
libRbt.so/2013.1/901 2013/11/27
 13 14  0  0  0  0  0  0  0  0999 V2000
   -4.7607   -7.8645   10.5950 C   0  0  0  0  0  0  0  0  0  0  0  0
   -5.2348   -7.0004   11.5779 N   0  0  0  0  0  0  0  0  0  0  0  0
   -5.6278   -7.5376   12.7765 C   0  0  0  0  0  0  0  0  0  0  0  0
   -5.5336   -8.7616   12.8871 O   0  0  0  0  0  0  0  0  0  0  0  0
   -6.1144   -6.8116   13.8341 N   0  0  0  0  0  0  0  0  0  0  0  0
   -6.5042   -7.3770   15.0371 C   0  0  0  0  0  0  0  0  0  0  0  0
   -6.1766   -5.4733   13.5794 C   0  0  0  0  0  0  0  0  0  0  0  0
   -5.7838   -4.9493   12.3820 C   0  0  0  0  0  0  0  0  0  0  0  0
   -5.2815   -5.6756   11.2871 C   0  0  0  0  0  0  0  0  0  0  0  0
   -4.9146   -5.2527   10.1917 O   0  0  0  0  0  0  0  0  0  0  0  0
   -5.9852   -3.5797   12.4862 N   0  0  0  0  0  0  0  0  0  0  0  0
   -6.4825   -3.3701   13.7282 C   0  0  0  0  0  0  0  0  0  0  0  0
   -6.6174   -4.4631   14.4270 N   0  0  0  0  0  0  0  0  0  0  0  0
  1  2  1  0  0  0  0
  2  9  1  0  0  0  0
  2  3  1  0  0  0  0
  3  5  1  0  0  0  0
  3  4  2  0  0  0  0
  5  6  1  0  0  0  0
  5  7  1  0  0  0  0
  7  8  2  0  0  0  0
  7 13  1  0  0  0  0
  8  9  1  0  0  0  0
  8 11  1  0  0  0  0
  9 10  2  0  0  0  0
 11 12  1  0  0  0  0
 12 13  2  0  0  0  0
M  END
>  <CHROM.1>
-5.75552310,-6.05096940,12.64941057,-0.77876936,1.19221648,-0.29990198

>  <Name>
1eht cryst

>  <RI>
0

>  <Rbt.Current_Directory>
/home/itssahil/PROJECTS/Mol_Feturizer/New_Systems/rnas/1eht

>  <Rbt.Executable>
rbdock ($Id: //depot/dev/client3/rdock/2013.1/src/exe/rbdock.cxx#4 $)

>  <Rbt.Library>
libRbt.so (2013.1, Build901 2013/11/27)

>  <Rbt.Parameter_File>
/export/apps/rDock/src/rDock_2013.1_src/data/scripts/dock_solv.prm

>  <Rbt.Receptor>
prm/blind_docking_40.prm

>  <SCORE>
-39.183

>  <SCORE.INTER>
-39.183

>  <SCORE.INTER.CONST>
1

>  <SCORE.INTER.POLAR>
-1.93275

>  <SCORE.INTER.ROT>
0

>  <SCORE.INTER.SOLV>
9.83606

>  <SCORE.INTER.VDW>
-26.5582

>  <SCORE.INTER.norm>
-3.01408

>  <SCORE.INTRA>
0

>  <SCORE.INTRA.DIHEDRAL>
0

>  <SCORE.INTRA.DIHEDRAL.0>
0

>  <SCORE.INTRA.POLAR>
0

>  <SCORE.INTRA.POLAR.0>
0

>  <SCORE.INTRA.REPUL>
0

>  <SCORE.INTRA.REPUL.0>
0

>  <SCORE.INTRA.SOLV>
0

>  <SCORE.INTRA.SOLV.lig_0>
-12.9768

>  <SCORE.INTRA.VDW>
0

>  <SCORE.INTRA.VDW.0>
0

>  <SCORE.INTRA.norm>
0

>  <SCORE.RESTR>
0

>  <SCORE.RESTR.CAVITY>
0

>  <SCORE.RESTR.norm>
0

>  <SCORE.SYSTEM>
0

>  <SCORE.SYSTEM.CONST>
0

>  <SCORE.SYSTEM.DIHEDRAL>
0

>  <SCORE.SYSTEM.SOLV>
0

>  <SCORE.SYSTEM.norm>
0

>  <SCORE.heavy>
13

>  <SCORE.norm>
-3.01408

>  <RMSD>
0.727

$$$$
1eht cryst
 OpenBabel11021811383D
libRbt.so/2013.1/901 2013/11/27
 13 14  0  0  0  0  0  0  0  0999 V2000
   -4.7595   -7.8661   10.5949 C   0  0  0  0  0  0  0  0  0  0  0  0
   -5.2347   -7.0018   11.5770 N   0  0  0  0  0  0  0  0  0  0  0  0
   -5.6281   -7.5385   12.7757 C   0  0  0  0  0  0  0  0  0  0  0  0
   -5.5332   -8.7623   12.8870 O   0  0  0  0  0  0  0  0  0  0  0  0
   -6.1158   -6.8121   13.8325 N   0  0  0  0  0  0  0  0  0  0  0  0
   -6.5059   -7.3771   15.0356 C   0  0  0  0  0  0  0  0  0  0  0  0
   -6.1785   -5.4741   13.5770 C   0  0  0  0  0  0  0  0  0  0  0  0
   -5.7854   -4.9505   12.3795 C   0  0  0  0  0  0  0  0  0  0  0  0
   -5.2820   -5.6772   11.2853 C   0  0  0  0  0  0  0  0  0  0  0  0
   -4.9147   -5.2546   10.1900 O   0  0  0  0  0  0  0  0  0  0  0  0
   -5.9877   -3.5809   12.4828 N   0  0  0  0  0  0  0  0  0  0  0  0
   -6.4858   -3.3710   13.7244 C   0  0  0  0  0  0  0  0  0  0  0  0
   -6.6205   -4.4636   14.4238 N   0  0  0  0  0  0  0  0  0  0  0  0
  1  2  1  0  0  0  0
  2  9  1  0  0  0  0
  2  3  1  0  0  0  0
  3  5  1  0  0  0  0
  3  4  2  0  0  0  0
  5  6  1  0  0  0  0
  5  7  1  0  0  0  0
  7  8  2  0  0  0  0
  7 13  1  0  0  0  0
  8  9  1  0  0  0  0
  8 11  1  0  0  0  0
  9 10  2  0  0  0  0
 11 12  1  0  0  0  0
 12 13  2  0  0  0  0
M  END
>  <CHROM.1>
-5.75661953,-6.05198978,12.64759593,-0.77773201,1.19147877,-0.30145455

>  <Name>
1eht cryst

>  <RI>
224

>  <Rbt.Current_Directory>
/home/itssahil/PROJECTS/Mol_Feturizer/New_Systems/rnas/1eht

>  <Rbt.Executable>
rbdock ($Id: //depot/dev/client3/rdock/2013.1/src/exe/rbdock.cxx#4 $)

>  <Rbt.Library>
libRbt.so (2013.1, Build901 2013/11/27)

>  <Rbt.Parameter_File>
/export/apps/rDock/src/rDock_2013.1_src/data/scripts/dock_solv.prm

>  <Rbt.Receptor>
prm/pocket_docking_7.prm

>  <SCORE>
-39.1837

>  <SCORE.INTER>
-39.1837

>  <SCORE.INTER.CONST>
1

>  <SCORE.INTER.POLAR>
-1.93494

>  <SCORE.INTER.ROT>
0

>  <SCORE.INTER.SOLV>
9.83312

>  <SCORE.INTER.VDW>
-26.5504

>  <SCORE.INTER.norm>
-3.01413

>  <SCORE.INTRA>
0

>  <SCORE.INTRA.DIHEDRAL>
0

>  <SCORE.INTRA.DIHEDRAL.0>
0

>  <SCORE.INTRA.POLAR>
0

>  <SCORE.INTRA.POLAR.0>
0

>  <SCORE.INTRA.REPUL>
0

>  <SCORE.INTRA.REPUL.0>
0

>  <SCORE.INTRA.SOLV>
0

>  <SCORE.INTRA.SOLV.lig_0>
-12.9768

>  <SCORE.INTRA.VDW>
0

>  <SCORE.INTRA.VDW.0>
0

>  <SCORE.INTRA.norm>
0

>  <SCORE.RESTR>
0

>  <SCORE.RESTR.CAVITY>
0

>  <SCORE.RESTR.norm>
0

>  <SCORE.SYSTEM>
0

>  <SCORE.SYSTEM.CONST>
0

>  <SCORE.SYSTEM.DIHEDRAL>
0

>  <SCORE.SYSTEM.SOLV>
0

>  <SCORE.SYSTEM.norm>
0

>  <SCORE.heavy>
13

>  <SCORE.norm>
-3.01413

>  <RMSD>
0.727

$$$$
1eht cryst
 OpenBabel11021811383D
libRbt.so/2013.1/901 2013/11/27
 13 14  0  0  0  0  0  0  0  0999 V2000
   -4.7729   -7.8695   10.5936 C   0  0  0  0  0  0  0  0  0  0  0  0
   -5.2422   -7.0035   11.5771 N   0  0  0  0  0  0  0  0  0  0  0  0
   -5.6292   -7.5383   12.7787 C   0  0  0  0  0  0  0  0  0  0  0  0
   -5.5343   -8.7620   12.8912 O   0  0  0  0  0  0  0  0  0  0  0  0
   -6.1107   -6.8102   13.8372 N   0  0  0  0  0  0  0  0  0  0  0  0
   -6.4944   -7.3733   15.0432 C   0  0  0  0  0  0  0  0  0  0  0  0
   -6.1743   -5.4725   13.5802 C   0  0  0  0  0  0  0  0  0  0  0  0
   -5.7875   -4.9508   12.3798 C   0  0  0  0  0  0  0  0  0  0  0  0
   -5.2905   -5.6793   11.2838 C   0  0  0  0  0  0  0  0  0  0  0  0
   -4.9291   -5.2585   10.1859 O   0  0  0  0  0  0  0  0  0  0  0  0
   -5.9886   -3.5810   12.4822 N   0  0  0  0  0  0  0  0  0  0  0  0
   -6.4797   -3.3690   13.7262 C   0  0  0  0  0  0  0  0  0  0  0  0
   -6.6110   -4.4606   14.4279 N   0  0  0  0  0  0  0  0  0  0  0  0
  1  2  1  0  0  0  0
  2  9  1  0  0  0  0
  2  3  1  0  0  0  0
  3  5  1  0  0  0  0
  3  4  2  0  0  0  0
  5  6  1  0  0  0  0
  5  7  1  0  0  0  0
  7  8  2  0  0  0  0
  7 13  1  0  0  0  0
  8  9  1  0  0  0  0
  8 11  1  0  0  0  0
  9 10  2  0  0  0  0
 11 12  1  0  0  0  0
 12 13  2  0  0  0  0
M  END
>  <CHROM.1>
-5.75775398,-6.05193968,12.64924664,-0.77446355,1.19690511,-0.30591447

>  <Name>
1eht cryst

>  <RI>
0

>  <Rbt.Current_Directory>
/home/itssahil/PROJECTS/Mol_Feturizer/New_Systems/rnas/1eht

>  <Rbt.Executable>
rbdock ($Id: //depot/dev/client3/rdock/2013.1/src/exe/rbdock.cxx#4 $)

>  <Rbt.Library>
libRbt.so (2013.1, Build901 2013/11/27)

>  <Rbt.Parameter_File>
/export/apps/rDock/src/rDock_2013.1_src/data/scripts/dock_solv.prm

>  <Rbt.Receptor>
prm/pocket_docking_8.prm

>  <SCORE>
-39.1745

>  <SCORE.INTER>
-39.1745

>  <SCORE.INTER.CONST>
1

>  <SCORE.INTER.POLAR>
-1.92819

>  <SCORE.INTER.ROT>
0

>  <SCORE.INTER.SOLV>
9.82639

>  <SCORE.INTER.VDW>
-26.5645

>  <SCORE.INTER.norm>
-3.01342

>  <SCORE.INTRA>
0

>  <SCORE.INTRA.DIHEDRAL>
0

>  <SCORE.INTRA.DIHEDRAL.0>
0

>  <SCORE.INTRA.POLAR>
0

>  <SCORE.INTRA.POLAR.0>
0

>  <SCORE.INTRA.REPUL>
0

>  <SCORE.INTRA.REPUL.0>
0

>  <SCORE.INTRA.SOLV>
0

>  <SCORE.INTRA.SOLV.lig_0>
-12.9768

>  <SCORE.INTRA.VDW>
0

>  <SCORE.INTRA.VDW.0>
0

>  <SCORE.INTRA.norm>
0

>  <SCORE.RESTR>
0

>  <SCORE.RESTR.CAVITY>
0

>  <SCORE.RESTR.norm>
0

>  <SCORE.SYSTEM>
0

>  <SCORE.SYSTEM.CONST>
0

>  <SCORE.SYSTEM.DIHEDRAL>
0

>  <SCORE.SYSTEM.SOLV>
0

>  <SCORE.SYSTEM.norm>
0

>  <SCORE.heavy>
13

>  <SCORE.norm>
-3.01342

>  <RMSD>
0.727

$$$$
1eht cryst
 OpenBabel11021811383D
libRbt.so/2013.1/901 2013/11/27
 13 14  0  0  0  0  0  0  0  0999 V2000
   -4.8191   -7.8872   10.5863 C   0  0  0  0  0  0  0  0  0  0  0  0
   -5.2718   -7.0187   11.5754 N   0  0  0  0  0  0  0  0  0  0  0  0
   -5.6446   -7.5511   12.7826 C   0  0  0  0  0  0  0  0  0  0  0  0
   -5.5529   -8.7752   12.8947 O   0  0  0  0  0  0  0  0  0  0  0  0
   -6.1089   -6.8204   13.8469 N   0  0  0  0  0  0  0  0  0  0  0  0
   -6.4785   -7.3811   15.0584 C   0  0  0  0  0  0  0  0  0  0  0  0
   -6.1708   -5.4827   13.5897 C   0  0  0  0  0  0  0  0  0  0  0  0
   -5.7982   -4.9634   12.3838 C   0  0  0  0  0  0  0  0  0  0  0  0
   -5.3190   -5.6945   11.2818 C   0  0  0  0  0  0  0  0  0  0  0  0
   -4.9708   -5.2759   10.1787 O   0  0  0  0  0  0  0  0  0  0  0  0
   -5.9927   -3.5927   12.4879 N   0  0  0  0  0  0  0  0  0  0  0  0
   -6.4661   -3.3779   13.7382 C   0  0  0  0  0  0  0  0  0  0  0  0
   -6.5922   -4.4685   14.4425 N   0  0  0  0  0  0  0  0  0  0  0  0
  1  2  1  0  0  0  0
  2  9  1  0  0  0  0
  2  3  1  0  0  0  0
  3  5  1  0  0  0  0
  3  4  2  0  0  0  0
  5  6  1  0  0  0  0
  5  7  1  0  0  0  0
  7  8  2  0  0  0  0
  7 13  1  0  0  0  0
  8  9  1  0  0  0  0
  8 11  1  0  0  0  0
  9 10  2  0  0  0  0
 11 12  1  0  0  0  0
 12 13  2  0  0  0  0
M  END
>  <CHROM.1>
-5.76914252,-6.06439987,12.65369179,-0.77333644,1.21094909,-0.30771393

>  <Name>
1eht cryst

>  <RI>
0

>  <Rbt.Current_Directory>
/home/itssahil/PROJECTS/Mol_Feturizer/New_Systems/rnas/1eht

>  <Rbt.Executable>
rbdock ($Id: //depot/dev/client3/rdock/2013.1/src/exe/rbdock.cxx#4 $)

>  <Rbt.Library>
libRbt.so (2013.1, Build901 2013/11/27)

>  <Rbt.Parameter_File>
/export/apps/rDock/src/rDock_2013.1_src/data/scripts/dock_solv.prm

>  <Rbt.Receptor>
prm/pocket_docking_8.prm

>  <SCORE>
-39.1185

>  <SCORE.INTER>
-39.1185

>  <SCORE.INTER.CONST>
1

>  <SCORE.INTER.POLAR>
-1.91801

>  <SCORE.INTER.ROT>
0

>  <SCORE.INTER.SOLV>
9.78549

>  <SCORE.INTER.VDW>
-26.5475

>  <SCORE.INTER.norm>
-3.00912

>  <SCORE.INTRA>
0

>  <SCORE.INTRA.DIHEDRAL>
0

>  <SCORE.INTRA.DIHEDRAL.0>
0

>  <SCORE.INTRA.POLAR>
0

>  <SCORE.INTRA.POLAR.0>
0

>  <SCORE.INTRA.REPUL>
0

>  <SCORE.INTRA.REPUL.0>
0

>  <SCORE.INTRA.SOLV>
0

>  <SCORE.INTRA.SOLV.lig_0>
-12.9768

>  <SCORE.INTRA.VDW>
0

>  <SCORE.INTRA.VDW.0>
0

>  <SCORE.INTRA.norm>
0

>  <SCORE.RESTR>
0

>  <SCORE.RESTR.CAVITY>
0

>  <SCORE.RESTR.norm>
0

>  <SCORE.SYSTEM>
0

>  <SCORE.SYSTEM.CONST>
0

>  <SCORE.SYSTEM.DIHEDRAL>
0

>  <SCORE.SYSTEM.SOLV>
0

>  <SCORE.SYSTEM.norm>
0

>  <SCORE.heavy>
13

>  <SCORE.norm>
-3.00912

>  <RMSD>
0.727

$$$$
1eht cryst
 OpenBabel11021811383D
libRbt.so/2013.1/901 2013/11/27
 13 14  0  0  0  0  0  0  0  0999 V2000
   -4.7653   -7.8686   10.5954 C   0  0  0  0  0  0  0  0  0  0  0  0
   -5.2374   -7.0029   11.5779 N   0  0  0  0  0  0  0  0  0  0  0  0
   -5.6271   -7.5381   12.7785 C   0  0  0  0  0  0  0  0  0  0  0  0
   -5.5321   -8.7619   12.8910 O   0  0  0  0  0  0  0  0  0  0  0  0
   -6.1115   -6.8104   13.8359 N   0  0  0  0  0  0  0  0  0  0  0  0
   -6.4980   -7.3738   15.0409 C   0  0  0  0  0  0  0  0  0  0  0  0
   -6.1748   -5.4727   13.5790 C   0  0  0  0  0  0  0  0  0  0  0  0
   -5.7853   -4.9506   12.3797 C   0  0  0  0  0  0  0  0  0  0  0  0
   -5.2854   -5.6787   11.2848 C   0  0  0  0  0  0  0  0  0  0  0  0
   -4.9214   -5.2576   10.1878 O   0  0  0  0  0  0  0  0  0  0  0  0
   -5.9871   -3.5809   12.4819 N   0  0  0  0  0  0  0  0  0  0  0  0
   -6.4813   -3.3693   13.7247 C   0  0  0  0  0  0  0  0  0  0  0  0
   -6.6141   -4.4611   14.4259 N   0  0  0  0  0  0  0  0  0  0  0  0
  1  2  1  0  0  0  0
  2  9  1  0  0  0  0
  2  3  1  0  0  0  0
  3  5  1  0  0  0  0
  3  4  2  0  0  0  0
  5  6  1  0  0  0  0
  5  7  1  0  0  0  0
  7  8  2  0  0  0  0
  7 13  1  0  0  0  0
  8  9  1  0  0  0  0
  8 11  1  0  0  0  0
  9 10  2  0  0  0  0
 11 12  1  0  0  0  0
 12 13  2  0  0  0  0
M  END
>  <CHROM.1>
-5.75586002,-6.05179460,12.64900594,-0.77559271,1.19445438,-0.30466549

>  <Name>
1eht cryst

>  <RI>
0

>  <Rbt.Current_Directory>
/home/itssahil/PROJECTS/Mol_Feturizer/New_Systems/rnas/1eht

>  <Rbt.Executable>
rbdock ($Id: //depot/dev/client3/rdock/2013.1/src/exe/rbdock.cxx#4 $)

>  <Rbt.Library>
libRbt.so (2013.1, Build901 2013/11/27)

>  <Rbt.Parameter_File>
/export/apps/rDock/src/rDock_2013.1_src/data/scripts/dock_solv.prm

>  <Rbt.Receptor>
prm/blind_docking_100.prm

>  <SCORE>
-39.1824

>  <SCORE.INTER>
-39.1824

>  <SCORE.INTER.CONST>
1

>  <SCORE.INTER.POLAR>
-1.93123

>  <SCORE.INTER.ROT>
0

>  <SCORE.INTER.SOLV>
9.82959

>  <SCORE.INTER.VDW>
-26.5607

>  <SCORE.INTER.norm>
-3.01403

>  <SCORE.INTRA>
0

>  <SCORE.INTRA.DIHEDRAL>
0

>  <SCORE.INTRA.DIHEDRAL.0>
0

>  <SCORE.INTRA.POLAR>
0

>  <SCORE.INTRA.POLAR.0>
0

>  <SCORE.INTRA.REPUL>
0

>  <SCORE.INTRA.REPUL.0>
0

>  <SCORE.INTRA.SOLV>
0

>  <SCORE.INTRA.SOLV.lig_0>
-12.9768

>  <SCORE.INTRA.VDW>
0

>  <SCORE.INTRA.VDW.0>
0

>  <SCORE.INTRA.norm>
0

>  <SCORE.RESTR>
0

>  <SCORE.RESTR.CAVITY>
0

>  <SCORE.RESTR.norm>
0

>  <SCORE.SYSTEM>
0

>  <SCORE.SYSTEM.CONST>
0

>  <SCORE.SYSTEM.DIHEDRAL>
0

>  <SCORE.SYSTEM.SOLV>
0

>  <SCORE.SYSTEM.norm>
0

>  <SCORE.heavy>
13

>  <SCORE.norm>
-3.01403

>  <RMSD>
0.728

$$$$
1eht cryst
 OpenBabel11021811383D
libRbt.so/2013.1/901 2013/11/27
 13 14  0  0  0  0  0  0  0  0999 V2000
   -4.7609   -7.8682   10.5958 C   0  0  0  0  0  0  0  0  0  0  0  0
   -5.2348   -7.0027   11.5776 N   0  0  0  0  0  0  0  0  0  0  0  0
   -5.6242   -7.5379   12.7783 C   0  0  0  0  0  0  0  0  0  0  0  0
   -5.5272   -8.7614   12.8916 O   0  0  0  0  0  0  0  0  0  0  0  0
   -6.1103   -6.8103   13.8351 N   0  0  0  0  0  0  0  0  0  0  0  0
   -6.4964   -7.3737   15.0403 C   0  0  0  0  0  0  0  0  0  0  0  0
   -6.1758   -5.4728   13.5774 C   0  0  0  0  0  0  0  0  0  0  0  0
   -5.7865   -4.9509   12.3779 C   0  0  0  0  0  0  0  0  0  0  0  0
   -5.2849   -5.6787   11.2837 C   0  0  0  0  0  0  0  0  0  0  0  0
   -4.9211   -5.2577   10.1866 O   0  0  0  0  0  0  0  0  0  0  0  0
   -5.9907   -3.5814   12.4792 N   0  0  0  0  0  0  0  0  0  0  0  0
   -6.4858   -3.3699   13.7217 C   0  0  0  0  0  0  0  0  0  0  0  0
   -6.6170   -4.4615   14.4234 N   0  0  0  0  0  0  0  0  0  0  0  0
  1  2  1  0  0  0  0
  2  9  1  0  0  0  0
  2  3  1  0  0  0  0
  3  5  1  0  0  0  0
  3  4  2  0  0  0  0
  5  6  1  0  0  0  0
  5  7  1  0  0  0  0
  7  8  2  0  0  0  0
  7 13  1  0  0  0  0
  8  9  1  0  0  0  0
  8 11  1  0  0  0  0
  9 10  2  0  0  0  0
 11 12  1  0  0  0  0
 12 13  2  0  0  0  0
M  END
>  <CHROM.1>
-5.75538682,-6.05181792,12.64788990,-0.77164929,1.19352162,-0.30892900

>  <Name>
1eht cryst

>  <RI>
0

>  <Rbt.Current_Directory>
/home/itssahil/PROJECTS/Mol_Feturizer/New_Systems/rnas/1eht

>  <Rbt.Executable>
rbdock ($Id: //depot/dev/client3/rdock/2013.1/src/exe/rbdock.cxx#4 $)

>  <Rbt.Library>
libRbt.so (2013.1, Build901 2013/11/27)

>  <Rbt.Parameter_File>
/export/apps/rDock/src/rDock_2013.1_src/data/scripts/dock_solv.prm

>  <Rbt.Receptor>
prm/blind_docking_40.prm

>  <SCORE>
-39.1817

>  <SCORE.INTER>
-39.1817

>  <SCORE.INTER.CONST>
1

>  <SCORE.INTER.POLAR>
-1.93184

>  <SCORE.INTER.ROT>
0

>  <SCORE.INTER.SOLV>
9.82756

>  <SCORE.INTER.VDW>
-26.5575

>  <SCORE.INTER.norm>
-3.01397

>  <SCORE.INTRA>
0

>  <SCORE.INTRA.DIHEDRAL>
0

>  <SCORE.INTRA.DIHEDRAL.0>
0

>  <SCORE.INTRA.POLAR>
0

>  <SCORE.INTRA.POLAR.0>
0

>  <SCORE.INTRA.REPUL>
0

>  <SCORE.INTRA.REPUL.0>
0

>  <SCORE.INTRA.SOLV>
0

>  <SCORE.INTRA.SOLV.lig_0>
-12.9768

>  <SCORE.INTRA.VDW>
0

>  <SCORE.INTRA.VDW.0>
0

>  <SCORE.INTRA.norm>
0

>  <SCORE.RESTR>
0

>  <SCORE.RESTR.CAVITY>
0

>  <SCORE.RESTR.norm>
0

>  <SCORE.SYSTEM>
0

>  <SCORE.SYSTEM.CONST>
0

>  <SCORE.SYSTEM.DIHEDRAL>
0

>  <SCORE.SYSTEM.SOLV>
0

>  <SCORE.SYSTEM.norm>
0

>  <SCORE.heavy>
13

>  <SCORE.norm>
-3.01397

>  <RMSD>
0.728

$$$$
1eht cryst
 OpenBabel11021811383D
libRbt.so/2013.1/901 2013/11/27
 13 14  0  0  0  0  0  0  0  0999 V2000
   -4.8069   -7.8851   10.5775 C   0  0  0  0  0  0  0  0  0  0  0  0
   -5.2705   -7.0115   11.5570 N   0  0  0  0  0  0  0  0  0  0  0  0
   -5.6528   -7.5373   12.7641 C   0  0  0  0  0  0  0  0  0  0  0  0
   -5.5594   -8.7603   12.8847 O   0  0  0  0  0  0  0  0  0  0  0  0
   -6.1285   -6.8010   13.8196 N   0  0  0  0  0  0  0  0  0  0  0  0
   -6.5076   -7.3550   15.0313 C   0  0  0  0  0  0  0  0  0  0  0  0
   -6.1911   -5.4650   13.5535 C   0  0  0  0  0  0  0  0  0  0  0  0
   -5.8089   -4.9524   12.3477 C   0  0  0  0  0  0  0  0  0  0  0  0
   -5.3181   -5.6893   11.2547 C   0  0  0  0  0  0  0  0  0  0  0  0
   -4.9610   -5.2768   10.1521 O   0  0  0  0  0  0  0  0  0  0  0  0
   -6.0075   -3.5816   12.4414 N   0  0  0  0  0  0  0  0  0  0  0  0
   -6.4926   -3.3601   13.6861 C   0  0  0  0  0  0  0  0  0  0  0  0
   -6.6225   -4.4466   14.3960 N   0  0  0  0  0  0  0  0  0  0  0  0
  1  2  1  0  0  0  0
  2  9  1  0  0  0  0
  2  3  1  0  0  0  0
  3  5  1  0  0  0  0
  3  4  2  0  0  0  0
  5  6  1  0  0  0  0
  5  7  1  0  0  0  0
  7  8  2  0  0  0  0
  7 13  1  0  0  0  0
  8  9  1  0  0  0  0
  8 11  1  0  0  0  0
  9 10  2  0  0  0  0
 11 12  1  0  0  0  0
 12 13  2  0  0  0  0
M  END
>  <CHROM.1>
-5.77971291,-6.05165996,12.62475226,-0.77475558,1.20168053,-0.31265451

>  <Name>
1eht cryst

>  <RI>
0

>  <Rbt.Current_Directory>
/home/itssahil/PROJECTS/Mol_Feturizer/New_Systems/rnas/1eht

>  <Rbt.Executable>
rbdock ($Id: //depot/dev/client3/rdock/2013.1/src/exe/rbdock.cxx#4 $)

>  <Rbt.Library>
libRbt.so (2013.1, Build901 2013/11/27)

>  <Rbt.Parameter_File>
/export/apps/rDock/src/rDock_2013.1_src/data/scripts/dock_solv.prm

>  <Rbt.Receptor>
prm/pocket_docking_2.prm

>  <SCORE>
-39.1707

>  <SCORE.INTER>
-39.1707

>  <SCORE.INTER.CONST>
1

>  <SCORE.INTER.POLAR>
-1.93724

>  <SCORE.INTER.ROT>
0

>  <SCORE.INTER.SOLV>
9.81081

>  <SCORE.INTER.VDW>
-26.5266

>  <SCORE.INTER.norm>
-3.01313

>  <SCORE.INTRA>
0

>  <SCORE.INTRA.DIHEDRAL>
0

>  <SCORE.INTRA.DIHEDRAL.0>
0

>  <SCORE.INTRA.POLAR>
0

>  <SCORE.INTRA.POLAR.0>
0

>  <SCORE.INTRA.REPUL>
0

>  <SCORE.INTRA.REPUL.0>
0

>  <SCORE.INTRA.SOLV>
0

>  <SCORE.INTRA.SOLV.lig_0>
-12.9768

>  <SCORE.INTRA.VDW>
0

>  <SCORE.INTRA.VDW.0>
0

>  <SCORE.INTRA.norm>
0

>  <SCORE.RESTR>
0

>  <SCORE.RESTR.CAVITY>
0

>  <SCORE.RESTR.norm>
0

>  <SCORE.SYSTEM>
0

>  <SCORE.SYSTEM.CONST>
0

>  <SCORE.SYSTEM.DIHEDRAL>
0

>  <SCORE.SYSTEM.SOLV>
0

>  <SCORE.SYSTEM.norm>
0

>  <SCORE.heavy>
13

>  <SCORE.norm>
-3.01313

>  <RMSD>
0.728

$$$$
1eht cryst
 OpenBabel11021811383D
libRbt.so/2013.1/901 2013/11/27
 13 14  0  0  0  0  0  0  0  0999 V2000
   -4.7730   -7.8701   10.5938 C   0  0  0  0  0  0  0  0  0  0  0  0
   -5.2428   -7.0039   11.5770 N   0  0  0  0  0  0  0  0  0  0  0  0
   -5.6317   -7.5387   12.7779 C   0  0  0  0  0  0  0  0  0  0  0  0
   -5.5381   -8.7626   12.8903 O   0  0  0  0  0  0  0  0  0  0  0  0
   -6.1140   -6.8105   13.8360 N   0  0  0  0  0  0  0  0  0  0  0  0
   -6.4997   -7.3736   15.0414 C   0  0  0  0  0  0  0  0  0  0  0  0
   -6.1760   -5.4727   13.5793 C   0  0  0  0  0  0  0  0  0  0  0  0
   -5.7873   -4.9510   12.3795 C   0  0  0  0  0  0  0  0  0  0  0  0
   -5.2896   -5.6796   11.2840 C   0  0  0  0  0  0  0  0  0  0  0  0
   -4.9264   -5.2588   10.1866 O   0  0  0  0  0  0  0  0  0  0  0  0
   -5.9873   -3.5811   12.4821 N   0  0  0  0  0  0  0  0  0  0  0  0
   -6.4798   -3.3690   13.7255 C   0  0  0  0  0  0  0  0  0  0  0  0
   -6.6130   -4.4606   14.4267 N   0  0  0  0  0  0  0  0  0  0  0  0
  1  2  1  0  0  0  0
  2  9  1  0  0  0  0
  2  3  1  0  0  0  0
  3  5  1  0  0  0  0
  3  4  2  0  0  0  0
  5  6  1  0  0  0  0
  5  7  1  0  0  0  0
  7  8  2  0  0  0  0
  7 13  1  0  0  0  0
  8  9  1  0  0  0  0
  8 11  1  0  0  0  0
  9 10  2  0  0  0  0
 11 12  1  0  0  0  0
 12 13  2  0  0  0  0
M  END
>  <CHROM.1>
-5.75884763,-6.05224565,12.64871335,-0.77775835,1.19597195,-0.30257606

>  <Name>
1eht cryst

>  <RI>
0

>  <Rbt.Current_Directory>
/home/itssahil/PROJECTS/Mol_Feturizer/New_Systems/rnas/1eht

>  <Rbt.Executable>
rbdock ($Id: //depot/dev/client3/rdock/2013.1/src/exe/rbdock.cxx#4 $)

>  <Rbt.Library>
libRbt.so (2013.1, Build901 2013/11/27)

>  <Rbt.Parameter_File>
/export/apps/rDock/src/rDock_2013.1_src/data/scripts/dock_solv.prm

>  <Rbt.Receptor>
prm/pocket_docking_4.prm

>  <SCORE>
-39.1776

>  <SCORE.INTER>
-39.1776

>  <SCORE.INTER.CONST>
1

>  <SCORE.INTER.POLAR>
-1.93043

>  <SCORE.INTER.ROT>
0

>  <SCORE.INTER.SOLV>
9.82807

>  <SCORE.INTER.VDW>
-26.5596

>  <SCORE.INTER.norm>
-3.01366

>  <SCORE.INTRA>
0

>  <SCORE.INTRA.DIHEDRAL>
0

>  <SCORE.INTRA.DIHEDRAL.0>
0

>  <SCORE.INTRA.POLAR>
0

>  <SCORE.INTRA.POLAR.0>
0

>  <SCORE.INTRA.REPUL>
0

>  <SCORE.INTRA.REPUL.0>
0

>  <SCORE.INTRA.SOLV>
0

>  <SCORE.INTRA.SOLV.lig_0>
-12.9768

>  <SCORE.INTRA.VDW>
0

>  <SCORE.INTRA.VDW.0>
0

>  <SCORE.INTRA.norm>
0

>  <SCORE.RESTR>
0

>  <SCORE.RESTR.CAVITY>
0

>  <SCORE.RESTR.norm>
0

>  <SCORE.SYSTEM>
0

>  <SCORE.SYSTEM.CONST>
0

>  <SCORE.SYSTEM.DIHEDRAL>
0

>  <SCORE.SYSTEM.SOLV>
0

>  <SCORE.SYSTEM.norm>
0

>  <SCORE.heavy>
13

>  <SCORE.norm>
-3.01366

>  <RMSD>
0.728

$$$$
1eht cryst
 OpenBabel11021811383D
libRbt.so/2013.1/901 2013/11/27
 13 14  0  0  0  0  0  0  0  0999 V2000
   -4.7609   -7.8670   10.5972 C   0  0  0  0  0  0  0  0  0  0  0  0
   -5.2361   -7.0022   11.5789 N   0  0  0  0  0  0  0  0  0  0  0  0
   -5.6223   -7.5375   12.7806 C   0  0  0  0  0  0  0  0  0  0  0  0
   -5.5214   -8.7606   12.8947 O   0  0  0  0  0  0  0  0  0  0  0  0
   -6.1091   -6.8105   13.8374 N   0  0  0  0  0  0  0  0  0  0  0  0
   -6.4918   -7.3741   15.0436 C   0  0  0  0  0  0  0  0  0  0  0  0
   -6.1789   -5.4735   13.5787 C   0  0  0  0  0  0  0  0  0  0  0  0
   -5.7929   -4.9513   12.3783 C   0  0  0  0  0  0  0  0  0  0  0  0
   -5.2906   -5.6786   11.2840 C   0  0  0  0  0  0  0  0  0  0  0  0
   -4.9296   -5.2573   10.1860 O   0  0  0  0  0  0  0  0  0  0  0  0
   -6.0011   -3.5824   12.4787 N   0  0  0  0  0  0  0  0  0  0  0  0
   -6.4951   -3.3714   13.7217 C   0  0  0  0  0  0  0  0  0  0  0  0
   -6.6221   -4.4628   14.4245 N   0  0  0  0  0  0  0  0  0  0  0  0
  1  2  1  0  0  0  0
  2  9  1  0  0  0  0
  2  3  1  0  0  0  0
  3  5  1  0  0  0  0
  3  4  2  0  0  0  0
  5  6  1  0  0  0  0
  5  7  1  0  0  0  0
  7  8  2  0  0  0  0
  7 13  1  0  0  0  0
  8  9  1  0  0  0  0
  8 11  1  0  0  0  0
  9 10  2  0  0  0  0
 11 12  1  0  0  0  0
 12 13  2  0  0  0  0
M  END
>  <CHROM.1>
-5.75809434,-6.05193544,12.64910307,-0.76270641,1.19389790,-0.31806243

>  <Name>
1eht cryst

>  <RI>
0

>  <Rbt.Current_Directory>
/home/itssahil/PROJECTS/Mol_Feturizer/New_Systems/rnas/1eht

>  <Rbt.Executable>
rbdock ($Id: //depot/dev/client3/rdock/2013.1/src/exe/rbdock.cxx#4 $)

>  <Rbt.Library>
libRbt.so (2013.1, Build901 2013/11/27)

>  <Rbt.Parameter_File>
/export/apps/rDock/src/rDock_2013.1_src/data/scripts/dock_solv.prm

>  <Rbt.Receptor>
prm/pocket_docking_4.prm

>  <SCORE>
-39.1608

>  <SCORE.INTER>
-39.1608

>  <SCORE.INTER.CONST>
1

>  <SCORE.INTER.POLAR>
-1.92703

>  <SCORE.INTER.ROT>
0

>  <SCORE.INTER.SOLV>
9.82001

>  <SCORE.INTER.VDW>
-26.5571

>  <SCORE.INTER.norm>
-3.01237

>  <SCORE.INTRA>
0

>  <SCORE.INTRA.DIHEDRAL>
0

>  <SCORE.INTRA.DIHEDRAL.0>
0

>  <SCORE.INTRA.POLAR>
0

>  <SCORE.INTRA.POLAR.0>
0

>  <SCORE.INTRA.REPUL>
0

>  <SCORE.INTRA.REPUL.0>
0

>  <SCORE.INTRA.SOLV>
0

>  <SCORE.INTRA.SOLV.lig_0>
-12.9768

>  <SCORE.INTRA.VDW>
0

>  <SCORE.INTRA.VDW.0>
0

>  <SCORE.INTRA.norm>
0

>  <SCORE.RESTR>
0

>  <SCORE.RESTR.CAVITY>
0

>  <SCORE.RESTR.norm>
0

>  <SCORE.SYSTEM>
0

>  <SCORE.SYSTEM.CONST>
0

>  <SCORE.SYSTEM.DIHEDRAL>
0

>  <SCORE.SYSTEM.SOLV>
0

>  <SCORE.SYSTEM.norm>
0

>  <SCORE.heavy>
13

>  <SCORE.norm>
-3.01237

>  <RMSD>
0.728

$$$$
1eht cryst
 OpenBabel11021811383D
libRbt.so/2013.1/901 2013/11/27
 13 14  0  0  0  0  0  0  0  0999 V2000
   -4.7730   -7.9041   10.5818 C   0  0  0  0  0  0  0  0  0  0  0  0
   -5.2447   -7.0289   11.5560 N   0  0  0  0  0  0  0  0  0  0  0  0
   -5.6174   -7.5502   12.7680 C   0  0  0  0  0  0  0  0  0  0  0  0
   -5.5086   -8.7711   12.8976 O   0  0  0  0  0  0  0  0  0  0  0  0
   -6.0992   -6.8119   13.8193 N   0  0  0  0  0  0  0  0  0  0  0  0
   -6.4683   -7.3614   15.0361 C   0  0  0  0  0  0  0  0  0  0  0  0
   -6.1788   -5.4788   13.5434 C   0  0  0  0  0  0  0  0  0  0  0  0
   -5.8061   -4.9706   12.3328 C   0  0  0  0  0  0  0  0  0  0  0  0
   -5.3092   -5.7097   11.2439 C   0  0  0  0  0  0  0  0  0  0  0  0
   -4.9600   -5.3012   10.1374 O   0  0  0  0  0  0  0  0  0  0  0  0
   -6.0211   -3.6017   12.4168 N   0  0  0  0  0  0  0  0  0  0  0  0
   -6.5057   -3.3768   13.6611 C   0  0  0  0  0  0  0  0  0  0  0  0
   -6.6204   -4.4594   14.3795 N   0  0  0  0  0  0  0  0  0  0  0  0
  1  2  1  0  0  0  0
  2  9  1  0  0  0  0
  2  3  1  0  0  0  0
  3  5  1  0  0  0  0
  3  4  2  0  0  0  0
  5  6  1  0  0  0  0
  5  7  1  0  0  0  0
  7  8  2  0  0  0  0
  7 13  1  0  0  0  0
  8  9  1  0  0  0  0
  8 11  1  0  0  0  0
  9 10  2  0  0  0  0
 11 12  1  0  0  0  0
 12 13  2  0  0  0  0
M  END
>  <CHROM.1>
-5.76274314,-6.06735480,12.61793977,-0.74042437,1.20023257,-0.35215956

>  <Name>
1eht cryst

>  <RI>
0

>  <Rbt.Current_Directory>
/home/itssahil/PROJECTS/Mol_Feturizer/New_Systems/rnas/1eht

>  <Rbt.Executable>
rbdock ($Id: //depot/dev/client3/rdock/2013.1/src/exe/rbdock.cxx#4 $)

>  <Rbt.Library>
libRbt.so (2013.1, Build901 2013/11/27)

>  <Rbt.Parameter_File>
/export/apps/rDock/src/rDock_2013.1_src/data/scripts/dock_solv.prm

>  <Rbt.Receptor>
prm/pocket_docking_6.prm

>  <SCORE>
-39.1589

>  <SCORE.INTER>
-39.1589

>  <SCORE.INTER.CONST>
1

>  <SCORE.INTER.POLAR>
-1.94675

>  <SCORE.INTER.ROT>
0

>  <SCORE.INTER.SOLV>
9.76071

>  <SCORE.INTER.VDW>
-26.4703

>  <SCORE.INTER.norm>
-3.01222

>  <SCORE.INTRA>
0

>  <SCORE.INTRA.DIHEDRAL>
0

>  <SCORE.INTRA.DIHEDRAL.0>
0

>  <SCORE.INTRA.POLAR>
0

>  <SCORE.INTRA.POLAR.0>
0

>  <SCORE.INTRA.REPUL>
0

>  <SCORE.INTRA.REPUL.0>
0

>  <SCORE.INTRA.SOLV>
0

>  <SCORE.INTRA.SOLV.lig_0>
-12.9768

>  <SCORE.INTRA.VDW>
0

>  <SCORE.INTRA.VDW.0>
0

>  <SCORE.INTRA.norm>
0

>  <SCORE.RESTR>
0

>  <SCORE.RESTR.CAVITY>
0

>  <SCORE.RESTR.norm>
0

>  <SCORE.SYSTEM>
0

>  <SCORE.SYSTEM.CONST>
0

>  <SCORE.SYSTEM.DIHEDRAL>
0

>  <SCORE.SYSTEM.SOLV>
0

>  <SCORE.SYSTEM.norm>
0

>  <SCORE.heavy>
13

>  <SCORE.norm>
-3.01222

>  <RMSD>
0.728

$$$$
1eht cryst
 OpenBabel11021811383D
libRbt.so/2013.1/901 2013/11/27
 13 14  0  0  0  0  0  0  0  0999 V2000
   -4.7631   -7.8687   10.5957 C   0  0  0  0  0  0  0  0  0  0  0  0
   -5.2344   -7.0025   11.5782 N   0  0  0  0  0  0  0  0  0  0  0  0
   -5.6193   -7.5367   12.7808 C   0  0  0  0  0  0  0  0  0  0  0  0
   -5.5210   -8.7600   12.8950 O   0  0  0  0  0  0  0  0  0  0  0  0
   -6.1024   -6.8083   13.8384 N   0  0  0  0  0  0  0  0  0  0  0  0
   -6.4840   -7.3707   15.0454 C   0  0  0  0  0  0  0  0  0  0  0  0
   -6.1698   -5.4712   13.5794 C   0  0  0  0  0  0  0  0  0  0  0  0
   -5.7850   -4.9502   12.3781 C   0  0  0  0  0  0  0  0  0  0  0  0
   -5.2865   -5.6789   11.2830 C   0  0  0  0  0  0  0  0  0  0  0  0
   -4.9268   -5.2587   10.1842 O   0  0  0  0  0  0  0  0  0  0  0  0
   -5.9899   -3.5808   12.4785 N   0  0  0  0  0  0  0  0  0  0  0  0
   -6.4811   -3.3684   13.7225 C   0  0  0  0  0  0  0  0  0  0  0  0
   -6.6090   -4.4593   14.4258 N   0  0  0  0  0  0  0  0  0  0  0  0
  1  2  1  0  0  0  0
  2  9  1  0  0  0  0
  2  3  1  0  0  0  0
  3  5  1  0  0  0  0
  3  4  2  0  0  0  0
  5  6  1  0  0  0  0
  5  7  1  0  0  0  0
  7  8  2  0  0  0  0
  7 13  1  0  0  0  0
  8  9  1  0  0  0  0
  8 11  1  0  0  0  0
  9 10  2  0  0  0  0
 11 12  1  0  0  0  0
 12 13  2  0  0  0  0
M  END
>  <CHROM.1>
-5.75212326,-6.05085873,12.64913739,-0.76678095,1.19648122,-0.31454715

>  <Name>
1eht cryst

>  <RI>
0

>  <Rbt.Current_Directory>
/home/itssahil/PROJECTS/Mol_Feturizer/New_Systems/rnas/1eht

>  <Rbt.Executable>
rbdock ($Id: //depot/dev/client3/rdock/2013.1/src/exe/rbdock.cxx#4 $)

>  <Rbt.Library>
libRbt.so (2013.1, Build901 2013/11/27)

>  <Rbt.Parameter_File>
/export/apps/rDock/src/rDock_2013.1_src/data/scripts/dock_solv.prm

>  <Rbt.Receptor>
prm/pocket_docking_8.prm

>  <SCORE>
-39.1738

>  <SCORE.INTER>
-39.1738

>  <SCORE.INTER.CONST>
1

>  <SCORE.INTER.POLAR>
-1.927

>  <SCORE.INTER.ROT>
0

>  <SCORE.INTER.SOLV>
9.82513

>  <SCORE.INTER.VDW>
-26.5676

>  <SCORE.INTER.norm>
-3.01337

>  <SCORE.INTRA>
0

>  <SCORE.INTRA.DIHEDRAL>
0

>  <SCORE.INTRA.DIHEDRAL.0>
0

>  <SCORE.INTRA.POLAR>
0

>  <SCORE.INTRA.POLAR.0>
0

>  <SCORE.INTRA.REPUL>
0

>  <SCORE.INTRA.REPUL.0>
0

>  <SCORE.INTRA.SOLV>
0

>  <SCORE.INTRA.SOLV.lig_0>
-12.9768

>  <SCORE.INTRA.VDW>
0

>  <SCORE.INTRA.VDW.0>
0

>  <SCORE.INTRA.norm>
0

>  <SCORE.RESTR>
0

>  <SCORE.RESTR.CAVITY>
0

>  <SCORE.RESTR.norm>
0

>  <SCORE.SYSTEM>
0

>  <SCORE.SYSTEM.CONST>
0

>  <SCORE.SYSTEM.DIHEDRAL>
0

>  <SCORE.SYSTEM.SOLV>
0

>  <SCORE.SYSTEM.norm>
0

>  <SCORE.heavy>
13

>  <SCORE.norm>
-3.01337

>  <RMSD>
0.728

$$$$
1eht cryst
 OpenBabel11021811383D
libRbt.so/2013.1/901 2013/11/27
 13 14  0  0  0  0  0  0  0  0999 V2000
   -4.7745   -7.8701   10.5966 C   0  0  0  0  0  0  0  0  0  0  0  0
   -5.2437   -7.0038   11.5799 N   0  0  0  0  0  0  0  0  0  0  0  0
   -5.6303   -7.5382   12.7818 C   0  0  0  0  0  0  0  0  0  0  0  0
   -5.5353   -8.7619   12.8948 O   0  0  0  0  0  0  0  0  0  0  0  0
   -6.1117   -6.8097   13.8401 N   0  0  0  0  0  0  0  0  0  0  0  0
   -6.4950   -7.3724   15.0465 C   0  0  0  0  0  0  0  0  0  0  0  0
   -6.1754   -5.4721   13.5827 C   0  0  0  0  0  0  0  0  0  0  0  0
   -5.7890   -4.9509   12.3820 C   0  0  0  0  0  0  0  0  0  0  0  0
   -5.2922   -5.6797   11.2862 C   0  0  0  0  0  0  0  0  0  0  0  0
   -4.9311   -5.2593   10.1879 O   0  0  0  0  0  0  0  0  0  0  0  0
   -5.9902   -3.5810   12.4839 N   0  0  0  0  0  0  0  0  0  0  0  0
   -6.4811   -3.3686   13.7279 C   0  0  0  0  0  0  0  0  0  0  0  0
   -6.6121   -4.4600   14.4301 N   0  0  0  0  0  0  0  0  0  0  0  0
  1  2  1  0  0  0  0
  2  9  1  0  0  0  0
  2  3  1  0  0  0  0
  3  5  1  0  0  0  0
  3  4  2  0  0  0  0
  5  6  1  0  0  0  0
  5  7  1  0  0  0  0
  7  8  2  0  0  0  0
  7 13  1  0  0  0  0
  8  9  1  0  0  0  0
  8 11  1  0  0  0  0
  9 10  2  0  0  0  0
 11 12  1  0  0  0  0
 12 13  2  0  0  0  0
M  END
>  <CHROM.1>
-5.75909950,-6.05188163,12.65182206,-0.77397043,1.19710297,-0.30675548

>  <Name>
1eht cryst

>  <RI>
0

>  <Rbt.Current_Directory>
/home/itssahil/PROJECTS/Mol_Feturizer/New_Systems/rnas/1eht

>  <Rbt.Executable>
rbdock ($Id: //depot/dev/client3/rdock/2013.1/src/exe/rbdock.cxx#4 $)

>  <Rbt.Library>
libRbt.so (2013.1, Build901 2013/11/27)

>  <Rbt.Parameter_File>
/export/apps/rDock/src/rDock_2013.1_src/data/scripts/dock_solv.prm

>  <Rbt.Receptor>
prm/blind_docking_40.prm

>  <SCORE>
-39.1687

>  <SCORE.INTER>
-39.1687

>  <SCORE.INTER.CONST>
1

>  <SCORE.INTER.POLAR>
-1.92632

>  <SCORE.INTER.ROT>
0

>  <SCORE.INTER.SOLV>
9.82486

>  <SCORE.INTER.VDW>
-26.5664

>  <SCORE.INTER.norm>
-3.01298

>  <SCORE.INTRA>
0

>  <SCORE.INTRA.DIHEDRAL>
0

>  <SCORE.INTRA.DIHEDRAL.0>
0

>  <SCORE.INTRA.POLAR>
0

>  <SCORE.INTRA.POLAR.0>
0

>  <SCORE.INTRA.REPUL>
0

>  <SCORE.INTRA.REPUL.0>
0

>  <SCORE.INTRA.SOLV>
0

>  <SCORE.INTRA.SOLV.lig_0>
-12.9768

>  <SCORE.INTRA.VDW>
0

>  <SCORE.INTRA.VDW.0>
0

>  <SCORE.INTRA.norm>
0

>  <SCORE.RESTR>
0

>  <SCORE.RESTR.CAVITY>
0

>  <SCORE.RESTR.norm>
0

>  <SCORE.SYSTEM>
0

>  <SCORE.SYSTEM.CONST>
0

>  <SCORE.SYSTEM.DIHEDRAL>
0

>  <SCORE.SYSTEM.SOLV>
0

>  <SCORE.SYSTEM.norm>
0

>  <SCORE.heavy>
13

>  <SCORE.norm>
-3.01298

>  <RMSD>
0.729

$$$$
1eht cryst
 OpenBabel11021811383D
libRbt.so/2013.1/901 2013/11/27
 13 14  0  0  0  0  0  0  0  0999 V2000
   -4.7627   -7.8669   10.5981 C   0  0  0  0  0  0  0  0  0  0  0  0
   -5.2378   -7.0019   11.5797 N   0  0  0  0  0  0  0  0  0  0  0  0
   -5.6291   -7.5376   12.7795 C   0  0  0  0  0  0  0  0  0  0  0  0
   -5.5326   -8.7612   12.8922 O   0  0  0  0  0  0  0  0  0  0  0  0
   -6.1165   -6.8106   13.8360 N   0  0  0  0  0  0  0  0  0  0  0  0
   -6.5045   -7.3745   15.0402 C   0  0  0  0  0  0  0  0  0  0  0  0
   -6.1812   -5.4729   13.5790 C   0  0  0  0  0  0  0  0  0  0  0  0
   -5.7901   -4.9503   12.3804 C   0  0  0  0  0  0  0  0  0  0  0  0
   -5.2871   -5.6777   11.2864 C   0  0  0  0  0  0  0  0  0  0  0  0
   -4.9216   -5.2561   10.1901 O   0  0  0  0  0  0  0  0  0  0  0  0
   -5.9940   -3.5809   12.4821 N   0  0  0  0  0  0  0  0  0  0  0  0
   -6.4909   -3.3700   13.7240 C   0  0  0  0  0  0  0  0  0  0  0  0
   -6.6234   -4.4619   14.4249 N   0  0  0  0  0  0  0  0  0  0  0  0
  1  2  1  0  0  0  0
  2  9  1  0  0  0  0
  2  3  1  0  0  0  0
  3  5  1  0  0  0  0
  3  4  2  0  0  0  0
  5  6  1  0  0  0  0
  5  7  1  0  0  0  0
  7  8  2  0  0  0  0
  7 13  1  0  0  0  0
  8  9  1  0  0  0  0
  8 11  1  0  0  0  0
  9 10  2  0  0  0  0
 11 12  1  0  0  0  0
 12 13  2  0  0  0  0
M  END
>  <CHROM.1>
-5.75964882,-6.05147070,12.64972846,-0.77356698,1.19222480,-0.30655896

>  <Name>
1eht cryst

>  <RI>
0

>  <Rbt.Current_Directory>
/home/itssahil/PROJECTS/Mol_Feturizer/New_Systems/rnas/1eht

>  <Rbt.Executable>
rbdock ($Id: //depot/dev/client3/rdock/2013.1/src/exe/rbdock.cxx#4 $)

>  <Rbt.Library>
libRbt.so (2013.1, Build901 2013/11/27)

>  <Rbt.Parameter_File>
/export/apps/rDock/src/rDock_2013.1_src/data/scripts/dock_solv.prm

>  <Rbt.Receptor>
prm/blind_docking_40.prm

>  <SCORE>
-39.1703

>  <SCORE.INTER>
-39.1703

>  <SCORE.INTER.CONST>
1

>  <SCORE.INTER.POLAR>
-1.93132

>  <SCORE.INTER.ROT>
0

>  <SCORE.INTER.SOLV>
9.82878

>  <SCORE.INTER.VDW>
-26.552

>  <SCORE.INTER.norm>
-3.0131

>  <SCORE.INTRA>
0

>  <SCORE.INTRA.DIHEDRAL>
0

>  <SCORE.INTRA.DIHEDRAL.0>
0

>  <SCORE.INTRA.POLAR>
0

>  <SCORE.INTRA.POLAR.0>
0

>  <SCORE.INTRA.REPUL>
0

>  <SCORE.INTRA.REPUL.0>
0

>  <SCORE.INTRA.SOLV>
0

>  <SCORE.INTRA.SOLV.lig_0>
-12.9768

>  <SCORE.INTRA.VDW>
0

>  <SCORE.INTRA.VDW.0>
0

>  <SCORE.INTRA.norm>
0

>  <SCORE.RESTR>
0

>  <SCORE.RESTR.CAVITY>
0

>  <SCORE.RESTR.norm>
0

>  <SCORE.SYSTEM>
0

>  <SCORE.SYSTEM.CONST>
0

>  <SCORE.SYSTEM.DIHEDRAL>
0

>  <SCORE.SYSTEM.SOLV>
0

>  <SCORE.SYSTEM.norm>
0

>  <SCORE.heavy>
13

>  <SCORE.norm>
-3.0131

>  <RMSD>
0.729

$$$$
1eht cryst
 OpenBabel11021811383D
libRbt.so/2013.1/901 2013/11/27
 13 14  0  0  0  0  0  0  0  0999 V2000
   -4.7696   -7.9033   10.5851 C   0  0  0  0  0  0  0  0  0  0  0  0
   -5.2451   -7.0287   11.5579 N   0  0  0  0  0  0  0  0  0  0  0  0
   -5.6228   -7.5507   12.7680 C   0  0  0  0  0  0  0  0  0  0  0  0
   -5.5148   -8.7717   12.8973 O   0  0  0  0  0  0  0  0  0  0  0  0
   -6.1089   -6.8130   13.8177 N   0  0  0  0  0  0  0  0  0  0  0  0
   -6.4831   -7.3631   15.0327 C   0  0  0  0  0  0  0  0  0  0  0  0
   -6.1872   -5.4797   13.5424 C   0  0  0  0  0  0  0  0  0  0  0  0
   -5.8094   -4.9708   12.3336 C   0  0  0  0  0  0  0  0  0  0  0  0
   -5.3081   -5.7092   11.2464 C   0  0  0  0  0  0  0  0  0  0  0  0
   -4.9544   -5.3001   10.1415 O   0  0  0  0  0  0  0  0  0  0  0  0
   -6.0246   -3.6019   12.4176 N   0  0  0  0  0  0  0  0  0  0  0  0
   -6.5142   -3.3777   13.6601 C   0  0  0  0  0  0  0  0  0  0  0  0
   -6.6320   -4.4607   14.3773 N   0  0  0  0  0  0  0  0  0  0  0  0
  1  2  1  0  0  0  0
  2  9  1  0  0  0  0
  2  3  1  0  0  0  0
  3  5  1  0  0  0  0
  3  4  2  0  0  0  0
  5  6  1  0  0  0  0
  5  7  1  0  0  0  0
  7  8  2  0  0  0  0
  7 13  1  0  0  0  0
  8  9  1  0  0  0  0
  8 11  1  0  0  0  0
  9 10  2  0  0  0  0
 11 12  1  0  0  0  0
 12 13  2  0  0  0  0
M  END
>  <CHROM.1>
-5.76738241,-6.06770510,12.61828065,-0.74467683,1.19640898,-0.34756818

>  <Name>
1eht cryst

>  <RI>
0

>  <Rbt.Current_Directory>
/home/itssahil/PROJECTS/Mol_Feturizer/New_Systems/rnas/1eht

>  <Rbt.Executable>
rbdock ($Id: //depot/dev/client3/rdock/2013.1/src/exe/rbdock.cxx#4 $)

>  <Rbt.Library>
libRbt.so (2013.1, Build901 2013/11/27)

>  <Rbt.Parameter_File>
/export/apps/rDock/src/rDock_2013.1_src/data/scripts/dock_solv.prm

>  <Rbt.Receptor>
prm/pocket_docking_3.prm

>  <SCORE>
-39.1871

>  <SCORE.INTER>
-39.1871

>  <SCORE.INTER.CONST>
1

>  <SCORE.INTER.POLAR>
-1.95162

>  <SCORE.INTER.ROT>
0

>  <SCORE.INTER.SOLV>
9.76382

>  <SCORE.INTER.VDW>
-26.474

>  <SCORE.INTER.norm>
-3.01439

>  <SCORE.INTRA>
0

>  <SCORE.INTRA.DIHEDRAL>
0

>  <SCORE.INTRA.DIHEDRAL.0>
0

>  <SCORE.INTRA.POLAR>
0

>  <SCORE.INTRA.POLAR.0>
0

>  <SCORE.INTRA.REPUL>
0

>  <SCORE.INTRA.REPUL.0>
0

>  <SCORE.INTRA.SOLV>
0

>  <SCORE.INTRA.SOLV.lig_0>
-12.9768

>  <SCORE.INTRA.VDW>
0

>  <SCORE.INTRA.VDW.0>
0

>  <SCORE.INTRA.norm>
0

>  <SCORE.RESTR>
0

>  <SCORE.RESTR.CAVITY>
0

>  <SCORE.RESTR.norm>
0

>  <SCORE.SYSTEM>
0

>  <SCORE.SYSTEM.CONST>
0

>  <SCORE.SYSTEM.DIHEDRAL>
0

>  <SCORE.SYSTEM.SOLV>
0

>  <SCORE.SYSTEM.norm>
0

>  <SCORE.heavy>
13

>  <SCORE.norm>
-3.01439

>  <RMSD>
0.729

$$$$
1eht cryst
 OpenBabel11021811383D
libRbt.so/2013.1/901 2013/11/27
 13 14  0  0  0  0  0  0  0  0999 V2000
   -4.7662   -7.9024   10.5842 C   0  0  0  0  0  0  0  0  0  0  0  0
   -5.2434   -7.0283   11.5567 N   0  0  0  0  0  0  0  0  0  0  0  0
   -5.6228   -7.5510   12.7661 C   0  0  0  0  0  0  0  0  0  0  0  0
   -5.5145   -8.7721   12.8949 O   0  0  0  0  0  0  0  0  0  0  0  0
   -6.1106   -6.8140   13.8154 N   0  0  0  0  0  0  0  0  0  0  0  0
   -6.4863   -7.3648   15.0296 C   0  0  0  0  0  0  0  0  0  0  0  0
   -6.1890   -5.4806   13.5405 C   0  0  0  0  0  0  0  0  0  0  0  0
   -5.8097   -4.9710   12.3325 C   0  0  0  0  0  0  0  0  0  0  0  0
   -5.3065   -5.7088   11.2457 C   0  0  0  0  0  0  0  0  0  0  0  0
   -4.9513   -5.2990   10.1415 O   0  0  0  0  0  0  0  0  0  0  0  0
   -6.0255   -3.6022   12.4168 N   0  0  0  0  0  0  0  0  0  0  0  0
   -6.5169   -3.3788   13.6587 C   0  0  0  0  0  0  0  0  0  0  0  0
   -6.6354   -4.4622   14.3752 N   0  0  0  0  0  0  0  0  0  0  0  0
  1  2  1  0  0  0  0
  2  9  1  0  0  0  0
  2  3  1  0  0  0  0
  3  5  1  0  0  0  0
  3  4  2  0  0  0  0
  5  6  1  0  0  0  0
  5  7  1  0  0  0  0
  7  8  2  0  0  0  0
  7 13  1  0  0  0  0
  8  9  1  0  0  0  0
  8 11  1  0  0  0  0
  9 10  2  0  0  0  0
 11 12  1  0  0  0  0
 12 13  2  0  0  0  0
M  END
>  <CHROM.1>
-5.76762438,-6.06804836,12.61676347,-0.74507222,1.19493938,-0.34675675

>  <Name>
1eht cryst

>  <RI>
0

>  <Rbt.Current_Directory>
/home/itssahil/PROJECTS/Mol_Feturizer/New_Systems/rnas/1eht

>  <Rbt.Executable>
rbdock ($Id: //depot/dev/client3/rdock/2013.1/src/exe/rbdock.cxx#4 $)

>  <Rbt.Library>
libRbt.so (2013.1, Build901 2013/11/27)

>  <Rbt.Parameter_File>
/export/apps/rDock/src/rDock_2013.1_src/data/scripts/dock_solv.prm

>  <Rbt.Receptor>
prm/pocket_docking_3.prm

>  <SCORE>
-39.1861

>  <SCORE.INTER>
-39.1861

>  <SCORE.INTER.CONST>
1

>  <SCORE.INTER.POLAR>
-1.95386

>  <SCORE.INTER.ROT>
0

>  <SCORE.INTER.SOLV>
9.76487

>  <SCORE.INTER.VDW>
-26.4661

>  <SCORE.INTER.norm>
-3.01431

>  <SCORE.INTRA>
0

>  <SCORE.INTRA.DIHEDRAL>
0

>  <SCORE.INTRA.DIHEDRAL.0>
0

>  <SCORE.INTRA.POLAR>
0

>  <SCORE.INTRA.POLAR.0>
0

>  <SCORE.INTRA.REPUL>
0

>  <SCORE.INTRA.REPUL.0>
0

>  <SCORE.INTRA.SOLV>
0

>  <SCORE.INTRA.SOLV.lig_0>
-12.9768

>  <SCORE.INTRA.VDW>
0

>  <SCORE.INTRA.VDW.0>
0

>  <SCORE.INTRA.norm>
0

>  <SCORE.RESTR>
0

>  <SCORE.RESTR.CAVITY>
0

>  <SCORE.RESTR.norm>
0

>  <SCORE.SYSTEM>
0

>  <SCORE.SYSTEM.CONST>
0

>  <SCORE.SYSTEM.DIHEDRAL>
0

>  <SCORE.SYSTEM.SOLV>
0

>  <SCORE.SYSTEM.norm>
0

>  <SCORE.heavy>
13

>  <SCORE.norm>
-3.01431

>  <RMSD>
0.729

$$$$
1eht cryst
 OpenBabel11021811383D
libRbt.so/2013.1/901 2013/11/27
 13 14  0  0  0  0  0  0  0  0999 V2000
   -4.7674   -7.8677   10.5973 C   0  0  0  0  0  0  0  0  0  0  0  0
   -5.2387   -7.0020   11.5801 N   0  0  0  0  0  0  0  0  0  0  0  0
   -5.6296   -7.5373   12.7803 C   0  0  0  0  0  0  0  0  0  0  0  0
   -5.5362   -8.7612   12.8921 O   0  0  0  0  0  0  0  0  0  0  0  0
   -6.1135   -6.8095   13.8379 N   0  0  0  0  0  0  0  0  0  0  0  0
   -6.5011   -7.3731   15.0424 C   0  0  0  0  0  0  0  0  0  0  0  0
   -6.1750   -5.4716   13.5817 C   0  0  0  0  0  0  0  0  0  0  0  0
   -5.7843   -4.9494   12.3828 C   0  0  0  0  0  0  0  0  0  0  0  0
   -5.2850   -5.6775   11.2877 C   0  0  0  0  0  0  0  0  0  0  0  0
   -4.9200   -5.2563   10.1910 O   0  0  0  0  0  0  0  0  0  0  0  0
   -5.9845   -3.5795   12.4856 N   0  0  0  0  0  0  0  0  0  0  0  0
   -6.4789   -3.3679   13.7284 C   0  0  0  0  0  0  0  0  0  0  0  0
   -6.6132   -4.4599   14.4289 N   0  0  0  0  0  0  0  0  0  0  0  0
  1  2  1  0  0  0  0
  2  9  1  0  0  0  0
  2  3  1  0  0  0  0
  3  5  1  0  0  0  0
  3  4  2  0  0  0  0
  5  6  1  0  0  0  0
  5  7  1  0  0  0  0
  7  8  2  0  0  0  0
  7 13  1  0  0  0  0
  8  9  1  0  0  0  0
  8 11  1  0  0  0  0
  9 10  2  0  0  0  0
 11 12  1  0  0  0  0
 12 13  2  0  0  0  0
M  END
>  <CHROM.1>
-5.75641671,-6.05072291,12.65149592,-0.77919539,1.19447881,-0.30078322

>  <Name>
1eht cryst

>  <RI>
0

>  <Rbt.Current_Directory>
/home/itssahil/PROJECTS/Mol_Feturizer/New_Systems/rnas/1eht

>  <Rbt.Executable>
rbdock ($Id: //depot/dev/client3/rdock/2013.1/src/exe/rbdock.cxx#4 $)

>  <Rbt.Library>
libRbt.so (2013.1, Build901 2013/11/27)

>  <Rbt.Parameter_File>
/export/apps/rDock/src/rDock_2013.1_src/data/scripts/dock_solv.prm

>  <Rbt.Receptor>
prm/pocket_docking_4.prm

>  <SCORE>
-39.1771

>  <SCORE.INTER>
-39.1771

>  <SCORE.INTER.CONST>
1

>  <SCORE.INTER.POLAR>
-1.92954

>  <SCORE.INTER.ROT>
0

>  <SCORE.INTER.SOLV>
9.83369

>  <SCORE.INTER.VDW>
-26.5642

>  <SCORE.INTER.norm>
-3.01363

>  <SCORE.INTRA>
0

>  <SCORE.INTRA.DIHEDRAL>
0

>  <SCORE.INTRA.DIHEDRAL.0>
0

>  <SCORE.INTRA.POLAR>
0

>  <SCORE.INTRA.POLAR.0>
0

>  <SCORE.INTRA.REPUL>
0

>  <SCORE.INTRA.REPUL.0>
0

>  <SCORE.INTRA.SOLV>
0

>  <SCORE.INTRA.SOLV.lig_0>
-12.9768

>  <SCORE.INTRA.VDW>
0

>  <SCORE.INTRA.VDW.0>
0

>  <SCORE.INTRA.norm>
0

>  <SCORE.RESTR>
0

>  <SCORE.RESTR.CAVITY>
0

>  <SCORE.RESTR.norm>
0

>  <SCORE.SYSTEM>
0

>  <SCORE.SYSTEM.CONST>
0

>  <SCORE.SYSTEM.DIHEDRAL>
0

>  <SCORE.SYSTEM.SOLV>
0

>  <SCORE.SYSTEM.norm>
0

>  <SCORE.heavy>
13

>  <SCORE.norm>
-3.01363

>  <RMSD>
0.729

$$$$
1eht cryst
 OpenBabel11021811383D
libRbt.so/2013.1/901 2013/11/27
 13 14  0  0  0  0  0  0  0  0999 V2000
   -4.7687   -7.9031   10.5839 C   0  0  0  0  0  0  0  0  0  0  0  0
   -5.2439   -7.0285   11.5569 N   0  0  0  0  0  0  0  0  0  0  0  0
   -5.6207   -7.5505   12.7674 C   0  0  0  0  0  0  0  0  0  0  0  0
   -5.5121   -8.7715   12.8967 O   0  0  0  0  0  0  0  0  0  0  0  0
   -6.1062   -6.8129   13.8174 N   0  0  0  0  0  0  0  0  0  0  0  0
   -6.4794   -7.3631   15.0326 C   0  0  0  0  0  0  0  0  0  0  0  0
   -6.1852   -5.4797   13.5419 C   0  0  0  0  0  0  0  0  0  0  0  0
   -5.8084   -4.9708   12.3329 C   0  0  0  0  0  0  0  0  0  0  0  0
   -5.3076   -5.7091   11.2454 C   0  0  0  0  0  0  0  0  0  0  0  0
   -4.9547   -5.2999   10.1403 O   0  0  0  0  0  0  0  0  0  0  0  0
   -6.0240   -3.6019   12.4169 N   0  0  0  0  0  0  0  0  0  0  0  0
   -6.5129   -3.3778   13.6597 C   0  0  0  0  0  0  0  0  0  0  0  0
   -6.6298   -4.4608   14.3771 N   0  0  0  0  0  0  0  0  0  0  0  0
  1  2  1  0  0  0  0
  2  9  1  0  0  0  0
  2  3  1  0  0  0  0
  3  5  1  0  0  0  0
  3  4  2  0  0  0  0
  5  6  1  0  0  0  0
  5  7  1  0  0  0  0
  7  8  2  0  0  0  0
  7 13  1  0  0  0  0
  8  9  1  0  0  0  0
  8 11  1  0  0  0  0
  9 10  2  0  0  0  0
 11 12  1  0  0  0  0
 12 13  2  0  0  0  0
M  END
>  <CHROM.1>
-5.76580443,-6.06761309,12.61761909,-0.74316418,1.19693134,-0.34905906

>  <Name>
1eht cryst

>  <RI>
0

>  <Rbt.Current_Directory>
/home/itssahil/PROJECTS/Mol_Feturizer/New_Systems/rnas/1eht

>  <Rbt.Executable>
rbdock ($Id: //depot/dev/client3/rdock/2013.1/src/exe/rbdock.cxx#4 $)

>  <Rbt.Library>
libRbt.so (2013.1, Build901 2013/11/27)

>  <Rbt.Parameter_File>
/export/apps/rDock/src/rDock_2013.1_src/data/scripts/dock_solv.prm

>  <Rbt.Receptor>
prm/pocket_docking_4.prm

>  <SCORE>
-39.1891

>  <SCORE.INTER>
-39.1891

>  <SCORE.INTER.CONST>
1

>  <SCORE.INTER.POLAR>
-1.951

>  <SCORE.INTER.ROT>
0

>  <SCORE.INTER.SOLV>
9.76343

>  <SCORE.INTER.VDW>
-26.4772

>  <SCORE.INTER.norm>
-3.01455

>  <SCORE.INTRA>
0

>  <SCORE.INTRA.DIHEDRAL>
0

>  <SCORE.INTRA.DIHEDRAL.0>
0

>  <SCORE.INTRA.POLAR>
0

>  <SCORE.INTRA.POLAR.0>
0

>  <SCORE.INTRA.REPUL>
0

>  <SCORE.INTRA.REPUL.0>
0

>  <SCORE.INTRA.SOLV>
0

>  <SCORE.INTRA.SOLV.lig_0>
-12.9768

>  <SCORE.INTRA.VDW>
0

>  <SCORE.INTRA.VDW.0>
0

>  <SCORE.INTRA.norm>
0

>  <SCORE.RESTR>
0

>  <SCORE.RESTR.CAVITY>
0

>  <SCORE.RESTR.norm>
0

>  <SCORE.SYSTEM>
0

>  <SCORE.SYSTEM.CONST>
0

>  <SCORE.SYSTEM.DIHEDRAL>
0

>  <SCORE.SYSTEM.SOLV>
0

>  <SCORE.SYSTEM.norm>
0

>  <SCORE.heavy>
13

>  <SCORE.norm>
-3.01455

>  <RMSD>
0.729

$$$$
1eht cryst
 OpenBabel11021811383D
libRbt.so/2013.1/901 2013/11/27
 13 14  0  0  0  0  0  0  0  0999 V2000
   -4.6570   -7.8613   10.6242 C   0  0  0  0  0  0  0  0  0  0  0  0
   -5.1633   -7.0109   11.6030 N   0  0  0  0  0  0  0  0  0  0  0  0
   -5.5718   -7.5618   12.7902 C   0  0  0  0  0  0  0  0  0  0  0  0
   -5.4614   -8.7849   12.8948 O   0  0  0  0  0  0  0  0  0  0  0  0
   -6.0901   -6.8500   13.8424 N   0  0  0  0  0  0  0  0  0  0  0  0
   -6.4950   -7.4292   15.0338 C   0  0  0  0  0  0  0  0  0  0  0  0
   -6.1672   -5.5112   13.5950 C   0  0  0  0  0  0  0  0  0  0  0  0
   -5.7588   -4.9735   12.4090 C   0  0  0  0  0  0  0  0  0  0  0  0
   -5.2241   -5.6850   11.3196 C   0  0  0  0  0  0  0  0  0  0  0  0
   -4.8421   -5.2494   10.2345 O   0  0  0  0  0  0  0  0  0  0  0  0
   -5.9828   -3.6078   12.5178 N   0  0  0  0  0  0  0  0  0  0  0  0
   -6.5076   -3.4139   13.7509 C   0  0  0  0  0  0  0  0  0  0  0  0
   -6.6399   -4.5133   14.4400 N   0  0  0  0  0  0  0  0  0  0  0  0
  1  2  1  0  0  0  0
  2  9  1  0  0  0  0
  2  3  1  0  0  0  0
  3  5  1  0  0  0  0
  3  4  2  0  0  0  0
  5  6  1  0  0  0  0
  5  7  1  0  0  0  0
  7  8  2  0  0  0  0
  7 13  1  0  0  0  0
  8  9  1  0  0  0  0
  8 11  1  0  0  0  0
  9 10  2  0  0  0  0
 11 12  1  0  0  0  0
 12 13  2  0  0  0  0
M  END
>  <CHROM.1>
-5.71930447,-6.07638939,12.66990070,-0.75702590,1.16883035,-0.31355230

>  <Name>
1eht cryst

>  <RI>
224

>  <Rbt.Current_Directory>
/home/itssahil/PROJECTS/Mol_Feturizer/New_Systems/rnas/1eht

>  <Rbt.Executable>
rbdock ($Id: //depot/dev/client3/rdock/2013.1/src/exe/rbdock.cxx#4 $)

>  <Rbt.Library>
libRbt.so (2013.1, Build901 2013/11/27)

>  <Rbt.Parameter_File>
/export/apps/rDock/src/rDock_2013.1_src/data/scripts/dock_solv.prm

>  <Rbt.Receptor>
prm/pocket_docking_7.prm

>  <SCORE>
-39.087

>  <SCORE.INTER>
-39.087

>  <SCORE.INTER.CONST>
1

>  <SCORE.INTER.POLAR>
-1.956

>  <SCORE.INTER.ROT>
0

>  <SCORE.INTER.SOLV>
9.80357

>  <SCORE.INTER.VDW>
-26.4058

>  <SCORE.INTER.norm>
-3.00669

>  <SCORE.INTRA>
0

>  <SCORE.INTRA.DIHEDRAL>
0

>  <SCORE.INTRA.DIHEDRAL.0>
0

>  <SCORE.INTRA.POLAR>
0

>  <SCORE.INTRA.POLAR.0>
0

>  <SCORE.INTRA.REPUL>
0

>  <SCORE.INTRA.REPUL.0>
0

>  <SCORE.INTRA.SOLV>
0

>  <SCORE.INTRA.SOLV.lig_0>
-12.9768

>  <SCORE.INTRA.VDW>
0

>  <SCORE.INTRA.VDW.0>
0

>  <SCORE.INTRA.norm>
0

>  <SCORE.RESTR>
0

>  <SCORE.RESTR.CAVITY>
0

>  <SCORE.RESTR.norm>
0

>  <SCORE.SYSTEM>
0

>  <SCORE.SYSTEM.CONST>
0

>  <SCORE.SYSTEM.DIHEDRAL>
0

>  <SCORE.SYSTEM.SOLV>
0

>  <SCORE.SYSTEM.norm>
0

>  <SCORE.heavy>
13

>  <SCORE.norm>
-3.00669

>  <RMSD>
0.729

$$$$
1eht cryst
 OpenBabel11021811383D
libRbt.so/2013.1/901 2013/11/27
 13 14  0  0  0  0  0  0  0  0999 V2000
   -4.7665   -7.8733   10.5885 C   0  0  0  0  0  0  0  0  0  0  0  0
   -5.2511   -7.0032   11.5610 N   0  0  0  0  0  0  0  0  0  0  0  0
   -5.6276   -7.5293   12.7698 C   0  0  0  0  0  0  0  0  0  0  0  0
   -5.5104   -8.7495   12.8982 O   0  0  0  0  0  0  0  0  0  0  0  0
   -6.1218   -6.7963   13.8190 N   0  0  0  0  0  0  0  0  0  0  0  0
   -6.4945   -7.3505   15.0326 C   0  0  0  0  0  0  0  0  0  0  0  0
   -6.2098   -5.4635   13.5446 C   0  0  0  0  0  0  0  0  0  0  0  0
   -5.8332   -4.9505   12.3372 C   0  0  0  0  0  0  0  0  0  0  0  0
   -5.3236   -5.6841   11.2505 C   0  0  0  0  0  0  0  0  0  0  0  0
   -4.9705   -5.2711   10.1468 O   0  0  0  0  0  0  0  0  0  0  0  0
   -6.0592   -3.5834   12.4219 N   0  0  0  0  0  0  0  0  0  0  0  0
   -6.5534   -3.3642   13.6634 C   0  0  0  0  0  0  0  0  0  0  0  0
   -6.6645   -4.4487   14.3794 N   0  0  0  0  0  0  0  0  0  0  0  0
  1  2  1  0  0  0  0
  2  9  1  0  0  0  0
  2  3  1  0  0  0  0
  3  5  1  0  0  0  0
  3  4  2  0  0  0  0
  5  6  1  0  0  0  0
  5  7  1  0  0  0  0
  7  8  2  0  0  0  0
  7 13  1  0  0  0  0
  8  9  1  0  0  0  0
  8 11  1  0  0  0  0
  9 10  2  0  0  0  0
 11 12  1  0  0  0  0
 12 13  2  0  0  0  0
M  END
>  <CHROM.1>
-5.78330064,-6.04732330,12.62100962,-0.72708696,1.19153385,-0.36302467

>  <Name>
1eht cryst

>  <RI>
0

>  <Rbt.Current_Directory>
/home/itssahil/PROJECTS/Mol_Feturizer/New_Systems/rnas/1eht

>  <Rbt.Executable>
rbdock ($Id: //depot/dev/client3/rdock/2013.1/src/exe/rbdock.cxx#4 $)

>  <Rbt.Library>
libRbt.so (2013.1, Build901 2013/11/27)

>  <Rbt.Parameter_File>
/export/apps/rDock/src/rDock_2013.1_src/data/scripts/dock_solv.prm

>  <Rbt.Receptor>
prm/pocket_docking_8.prm

>  <SCORE>
-39.1678

>  <SCORE.INTER>
-39.1678

>  <SCORE.INTER.CONST>
1

>  <SCORE.INTER.POLAR>
-1.92841

>  <SCORE.INTER.ROT>
0

>  <SCORE.INTER.SOLV>
9.79538

>  <SCORE.INTER.VDW>
-26.549

>  <SCORE.INTER.norm>
-3.01291

>  <SCORE.INTRA>
0

>  <SCORE.INTRA.DIHEDRAL>
0

>  <SCORE.INTRA.DIHEDRAL.0>
0

>  <SCORE.INTRA.POLAR>
0

>  <SCORE.INTRA.POLAR.0>
0

>  <SCORE.INTRA.REPUL>
0

>  <SCORE.INTRA.REPUL.0>
0

>  <SCORE.INTRA.SOLV>
0

>  <SCORE.INTRA.SOLV.lig_0>
-12.9768

>  <SCORE.INTRA.VDW>
0

>  <SCORE.INTRA.VDW.0>
0

>  <SCORE.INTRA.norm>
0

>  <SCORE.RESTR>
0

>  <SCORE.RESTR.CAVITY>
0

>  <SCORE.RESTR.norm>
0

>  <SCORE.SYSTEM>
0

>  <SCORE.SYSTEM.CONST>
0

>  <SCORE.SYSTEM.DIHEDRAL>
0

>  <SCORE.SYSTEM.SOLV>
0

>  <SCORE.SYSTEM.norm>
0

>  <SCORE.heavy>
13

>  <SCORE.norm>
-3.01291

>  <RMSD>
0.729

$$$$
1eht cryst
 OpenBabel11021811383D
libRbt.so/2013.1/901 2013/11/27
 13 14  0  0  0  0  0  0  0  0999 V2000
   -4.7568   -7.8627   10.6016 C   0  0  0  0  0  0  0  0  0  0  0  0
   -5.2330   -6.9988   11.5837 N   0  0  0  0  0  0  0  0  0  0  0  0
   -5.6264   -7.5360   12.7822 C   0  0  0  0  0  0  0  0  0  0  0  0
   -5.5307   -8.7598   12.8933 O   0  0  0  0  0  0  0  0  0  0  0  0
   -6.1150   -6.8102   13.8389 N   0  0  0  0  0  0  0  0  0  0  0  0
   -6.5052   -7.3756   15.0418 C   0  0  0  0  0  0  0  0  0  0  0  0
   -6.1786   -5.4721   13.5837 C   0  0  0  0  0  0  0  0  0  0  0  0
   -5.7854   -4.9481   12.3865 C   0  0  0  0  0  0  0  0  0  0  0  0
   -5.2811   -5.6742   11.2923 C   0  0  0  0  0  0  0  0  0  0  0  0
   -4.9137   -5.2512   10.1971 O   0  0  0  0  0  0  0  0  0  0  0  0
   -5.9887   -3.5787   12.4899 N   0  0  0  0  0  0  0  0  0  0  0  0
   -6.4874   -3.3693   13.7313 C   0  0  0  0  0  0  0  0  0  0  0  0
   -6.6216   -4.4621   14.4304 N   0  0  0  0  0  0  0  0  0  0  0  0
  1  2  1  0  0  0  0
  2  9  1  0  0  0  0
  2  3  1  0  0  0  0
  3  5  1  0  0  0  0
  3  4  2  0  0  0  0
  5  6  1  0  0  0  0
  5  7  1  0  0  0  0
  7  8  2  0  0  0  0
  7 13  1  0  0  0  0
  8  9  1  0  0  0  0
  8 11  1  0  0  0  0
  9 10  2  0  0  0  0
 11 12  1  0  0  0  0
 12 13  2  0  0  0  0
M  END
>  <CHROM.1>
-5.75595964,-6.04959723,12.65431382,-0.77619746,1.19091014,-0.30269668

>  <Name>
1eht cryst

>  <RI>
0

>  <Rbt.Current_Directory>
/home/itssahil/PROJECTS/Mol_Feturizer/New_Systems/rnas/1eht

>  <Rbt.Executable>
rbdock ($Id: //depot/dev/client3/rdock/2013.1/src/exe/rbdock.cxx#4 $)

>  <Rbt.Library>
libRbt.so (2013.1, Build901 2013/11/27)

>  <Rbt.Parameter_File>
/export/apps/rDock/src/rDock_2013.1_src/data/scripts/dock_solv.prm

>  <Rbt.Receptor>
prm/blind_docking_20.prm

>  <SCORE>
-39.1739

>  <SCORE.INTER>
-39.1739

>  <SCORE.INTER.CONST>
1

>  <SCORE.INTER.POLAR>
-1.92963

>  <SCORE.INTER.ROT>
0

>  <SCORE.INTER.SOLV>
9.83716

>  <SCORE.INTER.VDW>
-26.5629

>  <SCORE.INTER.norm>
-3.01338

>  <SCORE.INTRA>
0

>  <SCORE.INTRA.DIHEDRAL>
0

>  <SCORE.INTRA.DIHEDRAL.0>
0

>  <SCORE.INTRA.POLAR>
0

>  <SCORE.INTRA.POLAR.0>
0

>  <SCORE.INTRA.REPUL>
0

>  <SCORE.INTRA.REPUL.0>
0

>  <SCORE.INTRA.SOLV>
0

>  <SCORE.INTRA.SOLV.lig_0>
-12.9768

>  <SCORE.INTRA.VDW>
0

>  <SCORE.INTRA.VDW.0>
0

>  <SCORE.INTRA.norm>
0

>  <SCORE.RESTR>
0

>  <SCORE.RESTR.CAVITY>
0

>  <SCORE.RESTR.norm>
0

>  <SCORE.SYSTEM>
0

>  <SCORE.SYSTEM.CONST>
0

>  <SCORE.SYSTEM.DIHEDRAL>
0

>  <SCORE.SYSTEM.SOLV>
0

>  <SCORE.SYSTEM.norm>
0

>  <SCORE.heavy>
13

>  <SCORE.norm>
-3.01338

>  <RMSD>
0.730

$$$$
1eht cryst
 OpenBabel11021811383D
libRbt.so/2013.1/901 2013/11/27
 13 14  0  0  0  0  0  0  0  0999 V2000
   -4.7615   -7.8695   10.5915 C   0  0  0  0  0  0  0  0  0  0  0  0
   -5.2468   -6.9991   11.5633 N   0  0  0  0  0  0  0  0  0  0  0  0
   -5.6220   -7.5244   12.7729 C   0  0  0  0  0  0  0  0  0  0  0  0
   -5.5029   -8.7443   12.9025 O   0  0  0  0  0  0  0  0  0  0  0  0
   -6.1167   -6.7910   13.8216 N   0  0  0  0  0  0  0  0  0  0  0  0
   -6.4880   -7.3444   15.0359 C   0  0  0  0  0  0  0  0  0  0  0  0
   -6.2068   -5.4586   13.5458 C   0  0  0  0  0  0  0  0  0  0  0  0
   -5.8315   -4.9464   12.3377 C   0  0  0  0  0  0  0  0  0  0  0  0
   -5.3214   -5.6804   11.2515 C   0  0  0  0  0  0  0  0  0  0  0  0
   -4.9694   -5.2681   10.1472 O   0  0  0  0  0  0  0  0  0  0  0  0
   -6.0594   -3.5795   12.4210 N   0  0  0  0  0  0  0  0  0  0  0  0
   -6.5534   -3.3597   13.6625 C   0  0  0  0  0  0  0  0  0  0  0  0
   -6.6625   -4.4436   14.3797 N   0  0  0  0  0  0  0  0  0  0  0  0
  1  2  1  0  0  0  0
  2  9  1  0  0  0  0
  2  3  1  0  0  0  0
  3  5  1  0  0  0  0
  3  4  2  0  0  0  0
  5  6  1  0  0  0  0
  5  7  1  0  0  0  0
  7  8  2  0  0  0  0
  7 13  1  0  0  0  0
  8  9  1  0  0  0  0
  8 11  1  0  0  0  0
  9 10  2  0  0  0  0
 11 12  1  0  0  0  0
 12 13  2  0  0  0  0
M  END
>  <CHROM.1>
-5.77987250,-6.04281949,12.62259127,-0.72297106,1.19147277,-0.36791588

>  <Name>
1eht cryst

>  <RI>
0

>  <Rbt.Current_Directory>
/home/itssahil/PROJECTS/Mol_Feturizer/New_Systems/rnas/1eht

>  <Rbt.Executable>
rbdock ($Id: //depot/dev/client3/rdock/2013.1/src/exe/rbdock.cxx#4 $)

>  <Rbt.Library>
libRbt.so (2013.1, Build901 2013/11/27)

>  <Rbt.Parameter_File>
/export/apps/rDock/src/rDock_2013.1_src/data/scripts/dock_solv.prm

>  <Rbt.Receptor>
prm/blind_docking_20.prm

>  <SCORE>
-39.1661

>  <SCORE.INTER>
-39.1661

>  <SCORE.INTER.CONST>
1

>  <SCORE.INTER.POLAR>
-1.9241

>  <SCORE.INTER.ROT>
0

>  <SCORE.INTER.SOLV>
9.80224

>  <SCORE.INTER.VDW>
-26.5645

>  <SCORE.INTER.norm>
-3.01278

>  <SCORE.INTRA>
0

>  <SCORE.INTRA.DIHEDRAL>
0

>  <SCORE.INTRA.DIHEDRAL.0>
0

>  <SCORE.INTRA.POLAR>
0

>  <SCORE.INTRA.POLAR.0>
0

>  <SCORE.INTRA.REPUL>
0

>  <SCORE.INTRA.REPUL.0>
0

>  <SCORE.INTRA.SOLV>
0

>  <SCORE.INTRA.SOLV.lig_0>
-12.9768

>  <SCORE.INTRA.VDW>
0

>  <SCORE.INTRA.VDW.0>
0

>  <SCORE.INTRA.norm>
0

>  <SCORE.RESTR>
0

>  <SCORE.RESTR.CAVITY>
0

>  <SCORE.RESTR.norm>
0

>  <SCORE.SYSTEM>
0

>  <SCORE.SYSTEM.CONST>
0

>  <SCORE.SYSTEM.DIHEDRAL>
0

>  <SCORE.SYSTEM.SOLV>
0

>  <SCORE.SYSTEM.norm>
0

>  <SCORE.heavy>
13

>  <SCORE.norm>
-3.01278

>  <RMSD>
0.730

$$$$
1eht cryst
 OpenBabel11021811383D
libRbt.so/2013.1/901 2013/11/27
 13 14  0  0  0  0  0  0  0  0999 V2000
   -4.7670   -7.9033   10.5868 C   0  0  0  0  0  0  0  0  0  0  0  0
   -5.2424   -7.0284   11.5596 N   0  0  0  0  0  0  0  0  0  0  0  0
   -5.6191   -7.5501   12.7702 C   0  0  0  0  0  0  0  0  0  0  0  0
   -5.5103   -8.7710   12.8999 O   0  0  0  0  0  0  0  0  0  0  0  0
   -6.1049   -6.8123   13.8199 N   0  0  0  0  0  0  0  0  0  0  0  0
   -6.4781   -7.3621   15.0353 C   0  0  0  0  0  0  0  0  0  0  0  0
   -6.1842   -5.4792   13.5440 C   0  0  0  0  0  0  0  0  0  0  0  0
   -5.8075   -4.9706   12.3348 C   0  0  0  0  0  0  0  0  0  0  0  0
   -5.3064   -5.7092   11.2475 C   0  0  0  0  0  0  0  0  0  0  0  0
   -4.9536   -5.3003   10.1423 O   0  0  0  0  0  0  0  0  0  0  0  0
   -6.0234   -3.6017   12.4183 N   0  0  0  0  0  0  0  0  0  0  0  0
   -6.5124   -3.3773   13.6609 C   0  0  0  0  0  0  0  0  0  0  0  0
   -6.6291   -4.4601   14.3787 N   0  0  0  0  0  0  0  0  0  0  0  0
  1  2  1  0  0  0  0
  2  9  1  0  0  0  0
  2  3  1  0  0  0  0
  3  5  1  0  0  0  0
  3  4  2  0  0  0  0
  5  6  1  0  0  0  0
  5  7  1  0  0  0  0
  7  8  2  0  0  0  0
  7 13  1  0  0  0  0
  8  9  1  0  0  0  0
  8 11  1  0  0  0  0
  9 10  2  0  0  0  0
 11 12  1  0  0  0  0
 12 13  2  0  0  0  0
M  END
>  <CHROM.1>
-5.76461146,-6.06731600,12.61986432,-0.74258323,1.19679450,-0.34995252

>  <Name>
1eht cryst

>  <RI>
0

>  <Rbt.Current_Directory>
/home/itssahil/PROJECTS/Mol_Feturizer/New_Systems/rnas/1eht

>  <Rbt.Executable>
rbdock ($Id: //depot/dev/client3/rdock/2013.1/src/exe/rbdock.cxx#4 $)

>  <Rbt.Library>
libRbt.so (2013.1, Build901 2013/11/27)

>  <Rbt.Parameter_File>
/export/apps/rDock/src/rDock_2013.1_src/data/scripts/dock_solv.prm

>  <Rbt.Receptor>
prm/pocket_docking_4.prm

>  <SCORE>
-39.1913

>  <SCORE.INTER>
-39.1913

>  <SCORE.INTER.CONST>
1

>  <SCORE.INTER.POLAR>
-1.95001

>  <SCORE.INTER.ROT>
0

>  <SCORE.INTER.SOLV>
9.76352

>  <SCORE.INTER.VDW>
-26.482

>  <SCORE.INTER.norm>
-3.01471

>  <SCORE.INTRA>
0

>  <SCORE.INTRA.DIHEDRAL>
0

>  <SCORE.INTRA.DIHEDRAL.0>
0

>  <SCORE.INTRA.POLAR>
0

>  <SCORE.INTRA.POLAR.0>
0

>  <SCORE.INTRA.REPUL>
0

>  <SCORE.INTRA.REPUL.0>
0

>  <SCORE.INTRA.SOLV>
0

>  <SCORE.INTRA.SOLV.lig_0>
-12.9768

>  <SCORE.INTRA.VDW>
0

>  <SCORE.INTRA.VDW.0>
0

>  <SCORE.INTRA.norm>
0

>  <SCORE.RESTR>
0

>  <SCORE.RESTR.CAVITY>
0

>  <SCORE.RESTR.norm>
0

>  <SCORE.SYSTEM>
0

>  <SCORE.SYSTEM.CONST>
0

>  <SCORE.SYSTEM.DIHEDRAL>
0

>  <SCORE.SYSTEM.SOLV>
0

>  <SCORE.SYSTEM.norm>
0

>  <SCORE.heavy>
13

>  <SCORE.norm>
-3.01471

>  <RMSD>
0.730

$$$$
1eht cryst
 OpenBabel11021811383D
libRbt.so/2013.1/901 2013/11/27
 13 14  0  0  0  0  0  0  0  0999 V2000
   -4.7636   -7.8726   10.5897 C   0  0  0  0  0  0  0  0  0  0  0  0
   -5.2476   -7.0013   11.5613 N   0  0  0  0  0  0  0  0  0  0  0  0
   -5.6216   -7.5255   12.7717 C   0  0  0  0  0  0  0  0  0  0  0  0
   -5.5027   -8.7453   12.9022 O   0  0  0  0  0  0  0  0  0  0  0  0
   -6.1150   -6.7911   13.8203 N   0  0  0  0  0  0  0  0  0  0  0  0
   -6.4852   -7.3434   15.0356 C   0  0  0  0  0  0  0  0  0  0  0  0
   -6.2051   -5.4589   13.5436 C   0  0  0  0  0  0  0  0  0  0  0  0
   -5.8310   -4.9478   12.3346 C   0  0  0  0  0  0  0  0  0  0  0  0
   -5.3223   -5.6828   11.2485 C   0  0  0  0  0  0  0  0  0  0  0  0
   -4.9714   -5.2716   10.1435 O   0  0  0  0  0  0  0  0  0  0  0  0
   -6.0585   -3.5808   12.4171 N   0  0  0  0  0  0  0  0  0  0  0  0
   -6.5511   -3.3598   13.6589 C   0  0  0  0  0  0  0  0  0  0  0  0
   -6.6597   -4.4431   14.3771 N   0  0  0  0  0  0  0  0  0  0  0  0
  1  2  1  0  0  0  0
  2  9  1  0  0  0  0
  2  3  1  0  0  0  0
  3  5  1  0  0  0  0
  3  4  2  0  0  0  0
  5  6  1  0  0  0  0
  5  7  1  0  0  0  0
  7  8  2  0  0  0  0
  7 13  1  0  0  0  0
  8  9  1  0  0  0  0
  8 11  1  0  0  0  0
  9 10  2  0  0  0  0
 11 12  1  0  0  0  0
 12 13  2  0  0  0  0
M  END
>  <CHROM.1>
-5.77935136,-6.04401648,12.62038709,-0.72248960,1.19257795,-0.36919832

>  <Name>
1eht cryst

>  <RI>
224

>  <Rbt.Current_Directory>
/home/itssahil/PROJECTS/Mol_Feturizer/New_Systems/rnas/1eht

>  <Rbt.Executable>
rbdock ($Id: //depot/dev/client3/rdock/2013.1/src/exe/rbdock.cxx#4 $)

>  <Rbt.Library>
libRbt.so (2013.1, Build901 2013/11/27)

>  <Rbt.Parameter_File>
/export/apps/rDock/src/rDock_2013.1_src/data/scripts/dock_solv.prm

>  <Rbt.Receptor>
prm/pocket_docking_7.prm

>  <SCORE>
-39.1434

>  <SCORE.INTER>
-39.1434

>  <SCORE.INTER.CONST>
1

>  <SCORE.INTER.POLAR>
-1.92554

>  <SCORE.INTER.ROT>
0

>  <SCORE.INTER.SOLV>
9.79859

>  <SCORE.INTER.VDW>
-26.5434

>  <SCORE.INTER.norm>
-3.01103

>  <SCORE.INTRA>
0

>  <SCORE.INTRA.DIHEDRAL>
0

>  <SCORE.INTRA.DIHEDRAL.0>
0

>  <SCORE.INTRA.POLAR>
0

>  <SCORE.INTRA.POLAR.0>
0

>  <SCORE.INTRA.REPUL>
0

>  <SCORE.INTRA.REPUL.0>
0

>  <SCORE.INTRA.SOLV>
0

>  <SCORE.INTRA.SOLV.lig_0>
-12.9768

>  <SCORE.INTRA.VDW>
0

>  <SCORE.INTRA.VDW.0>
0

>  <SCORE.INTRA.norm>
0

>  <SCORE.RESTR>
0

>  <SCORE.RESTR.CAVITY>
0

>  <SCORE.RESTR.norm>
0

>  <SCORE.SYSTEM>
0

>  <SCORE.SYSTEM.CONST>
0

>  <SCORE.SYSTEM.DIHEDRAL>
0

>  <SCORE.SYSTEM.SOLV>
0

>  <SCORE.SYSTEM.norm>
0

>  <SCORE.heavy>
13

>  <SCORE.norm>
-3.01103

>  <RMSD>
0.730

$$$$
1eht cryst
 OpenBabel11021811383D
libRbt.so/2013.1/901 2013/11/27
 13 14  0  0  0  0  0  0  0  0999 V2000
   -4.7649   -7.9029   10.5867 C   0  0  0  0  0  0  0  0  0  0  0  0
   -5.2419   -7.0282   11.5588 N   0  0  0  0  0  0  0  0  0  0  0  0
   -5.6203   -7.5502   12.7688 C   0  0  0  0  0  0  0  0  0  0  0  0
   -5.5116   -8.7710   12.8985 O   0  0  0  0  0  0  0  0  0  0  0  0
   -6.1078   -6.8125   13.8178 N   0  0  0  0  0  0  0  0  0  0  0  0
   -6.4827   -7.3626   15.0326 C   0  0  0  0  0  0  0  0  0  0  0  0
   -6.1868   -5.4794   13.5420 C   0  0  0  0  0  0  0  0  0  0  0  0
   -5.8083   -4.9706   12.3334 C   0  0  0  0  0  0  0  0  0  0  0  0
   -5.3055   -5.7090   11.2469 C   0  0  0  0  0  0  0  0  0  0  0  0
   -4.9511   -5.2999   10.1422 O   0  0  0  0  0  0  0  0  0  0  0  0
   -6.0245   -3.6018   12.4168 N   0  0  0  0  0  0  0  0  0  0  0  0
   -6.5154   -3.3776   13.6588 C   0  0  0  0  0  0  0  0  0  0  0  0
   -6.6331   -4.4604   14.3762 N   0  0  0  0  0  0  0  0  0  0  0  0
  1  2  1  0  0  0  0
  2  9  1  0  0  0  0
  2  3  1  0  0  0  0
  3  5  1  0  0  0  0
  3  4  2  0  0  0  0
  5  6  1  0  0  0  0
  5  7  1  0  0  0  0
  7  8  2  0  0  0  0
  7 13  1  0  0  0  0
  8  9  1  0  0  0  0
  8 11  1  0  0  0  0
  9 10  2  0  0  0  0
 11 12  1  0  0  0  0
 12 13  2  0  0  0  0
M  END
>  <CHROM.1>
-5.76576432,-6.06733039,12.61846450,-0.74370245,1.19535662,-0.34877255

>  <Name>
1eht cryst

>  <RI>
0

>  <Rbt.Current_Directory>
/home/itssahil/PROJECTS/Mol_Feturizer/New_Systems/rnas/1eht

>  <Rbt.Executable>
rbdock ($Id: //depot/dev/client3/rdock/2013.1/src/exe/rbdock.cxx#4 $)

>  <Rbt.Library>
libRbt.so (2013.1, Build901 2013/11/27)

>  <Rbt.Parameter_File>
/export/apps/rDock/src/rDock_2013.1_src/data/scripts/dock_solv.prm

>  <Rbt.Receptor>
prm/pocket_docking_8.prm

>  <SCORE>
-39.1885

>  <SCORE.INTER>
-39.1885

>  <SCORE.INTER.CONST>
1

>  <SCORE.INTER.POLAR>
-1.95213

>  <SCORE.INTER.ROT>
0

>  <SCORE.INTER.SOLV>
9.76495

>  <SCORE.INTER.VDW>
-26.4735

>  <SCORE.INTER.norm>
-3.0145

>  <SCORE.INTRA>
0

>  <SCORE.INTRA.DIHEDRAL>
0

>  <SCORE.INTRA.DIHEDRAL.0>
0

>  <SCORE.INTRA.POLAR>
0

>  <SCORE.INTRA.POLAR.0>
0

>  <SCORE.INTRA.REPUL>
0

>  <SCORE.INTRA.REPUL.0>
0

>  <SCORE.INTRA.SOLV>
0

>  <SCORE.INTRA.SOLV.lig_0>
-12.9768

>  <SCORE.INTRA.VDW>
0

>  <SCORE.INTRA.VDW.0>
0

>  <SCORE.INTRA.norm>
0

>  <SCORE.RESTR>
0

>  <SCORE.RESTR.CAVITY>
0

>  <SCORE.RESTR.norm>
0

>  <SCORE.SYSTEM>
0

>  <SCORE.SYSTEM.CONST>
0

>  <SCORE.SYSTEM.DIHEDRAL>
0

>  <SCORE.SYSTEM.SOLV>
0

>  <SCORE.SYSTEM.norm>
0

>  <SCORE.heavy>
13

>  <SCORE.norm>
-3.0145

>  <RMSD>
0.730

$$$$
1eht cryst
 OpenBabel11021811383D
libRbt.so/2013.1/901 2013/11/27
 13 14  0  0  0  0  0  0  0  0999 V2000
   -4.7657   -7.8704   10.5943 C   0  0  0  0  0  0  0  0  0  0  0  0
   -5.2496   -7.0004   11.5672 N   0  0  0  0  0  0  0  0  0  0  0  0
   -5.6226   -7.5261   12.7772 C   0  0  0  0  0  0  0  0  0  0  0  0
   -5.5029   -8.7460   12.9063 O   0  0  0  0  0  0  0  0  0  0  0  0
   -6.1157   -6.7932   13.8270 N   0  0  0  0  0  0  0  0  0  0  0  0
   -6.4848   -7.3471   15.0418 C   0  0  0  0  0  0  0  0  0  0  0  0
   -6.2067   -5.4607   13.5517 C   0  0  0  0  0  0  0  0  0  0  0  0
   -5.8337   -4.9481   12.3431 C   0  0  0  0  0  0  0  0  0  0  0  0
   -5.3252   -5.6816   11.2558 C   0  0  0  0  0  0  0  0  0  0  0  0
   -4.9753   -5.2689   10.1511 O   0  0  0  0  0  0  0  0  0  0  0  0
   -6.0619   -3.5813   12.4272 N   0  0  0  0  0  0  0  0  0  0  0  0
   -6.5538   -3.3620   13.6696 C   0  0  0  0  0  0  0  0  0  0  0  0
   -6.6613   -4.4461   14.3867 N   0  0  0  0  0  0  0  0  0  0  0  0
  1  2  1  0  0  0  0
  2  9  1  0  0  0  0
  2  3  1  0  0  0  0
  3  5  1  0  0  0  0
  3  4  2  0  0  0  0
  5  6  1  0  0  0  0
  5  7  1  0  0  0  0
  7  8  2  0  0  0  0
  7 13  1  0  0  0  0
  8  9  1  0  0  0  0
  8 11  1  0  0  0  0
  9 10  2  0  0  0  0
 11 12  1  0  0  0  0
 12 13  2  0  0  0  0
M  END
>  <CHROM.1>
-5.78121532,-6.04456839,12.62763193,-0.72045841,1.19296753,-0.36997986

>  <Name>
1eht cryst

>  <RI>
0

>  <Rbt.Current_Directory>
/home/itssahil/PROJECTS/Mol_Feturizer/New_Systems/rnas/1eht

>  <Rbt.Executable>
rbdock ($Id: //depot/dev/client3/rdock/2013.1/src/exe/rbdock.cxx#4 $)

>  <Rbt.Library>
libRbt.so (2013.1, Build901 2013/11/27)

>  <Rbt.Parameter_File>
/export/apps/rDock/src/rDock_2013.1_src/data/scripts/dock_solv.prm

>  <Rbt.Receptor>
prm/pocket_docking_2.prm

>  <SCORE>
-39.1602

>  <SCORE.INTER>
-39.1602

>  <SCORE.INTER.CONST>
1

>  <SCORE.INTER.POLAR>
-1.91972

>  <SCORE.INTER.ROT>
0

>  <SCORE.INTER.SOLV>
9.79557

>  <SCORE.INTER.VDW>
-26.5729

>  <SCORE.INTER.norm>
-3.01232

>  <SCORE.INTRA>
0

>  <SCORE.INTRA.DIHEDRAL>
0

>  <SCORE.INTRA.DIHEDRAL.0>
0

>  <SCORE.INTRA.POLAR>
0

>  <SCORE.INTRA.POLAR.0>
0

>  <SCORE.INTRA.REPUL>
0

>  <SCORE.INTRA.REPUL.0>
0

>  <SCORE.INTRA.SOLV>
0

>  <SCORE.INTRA.SOLV.lig_0>
-12.9768

>  <SCORE.INTRA.VDW>
0

>  <SCORE.INTRA.VDW.0>
0

>  <SCORE.INTRA.norm>
0

>  <SCORE.RESTR>
0

>  <SCORE.RESTR.CAVITY>
0

>  <SCORE.RESTR.norm>
0

>  <SCORE.SYSTEM>
0

>  <SCORE.SYSTEM.CONST>
0

>  <SCORE.SYSTEM.DIHEDRAL>
0

>  <SCORE.SYSTEM.SOLV>
0

>  <SCORE.SYSTEM.norm>
0

>  <SCORE.heavy>
13

>  <SCORE.norm>
-3.01232

>  <RMSD>
0.731

$$$$
1eht cryst
 OpenBabel11021811383D
libRbt.so/2013.1/901 2013/11/27
 13 14  0  0  0  0  0  0  0  0999 V2000
   -4.7766   -7.8773   10.5888 C   0  0  0  0  0  0  0  0  0  0  0  0
   -5.2580   -7.0056   11.5615 N   0  0  0  0  0  0  0  0  0  0  0  0
   -5.6355   -7.5304   12.7705 C   0  0  0  0  0  0  0  0  0  0  0  0
   -5.5220   -8.7510   12.8990 O   0  0  0  0  0  0  0  0  0  0  0  0
   -6.1268   -6.7958   13.8199 N   0  0  0  0  0  0  0  0  0  0  0  0
   -6.5007   -7.3488   15.0338 C   0  0  0  0  0  0  0  0  0  0  0  0
   -6.2109   -5.4627   13.5455 C   0  0  0  0  0  0  0  0  0  0  0  0
   -5.8334   -4.9511   12.3379 C   0  0  0  0  0  0  0  0  0  0  0  0
   -5.3266   -5.6863   11.2509 C   0  0  0  0  0  0  0  0  0  0  0  0
   -4.9728   -5.2745   10.1471 O   0  0  0  0  0  0  0  0  0  0  0  0
   -6.0551   -3.5833   12.4226 N   0  0  0  0  0  0  0  0  0  0  0  0
   -6.5480   -3.3624   13.6643 C   0  0  0  0  0  0  0  0  0  0  0  0
   -6.6620   -4.4465   14.3804 N   0  0  0  0  0  0  0  0  0  0  0  0
  1  2  1  0  0  0  0
  2  9  1  0  0  0  0
  2  3  1  0  0  0  0
  3  5  1  0  0  0  0
  3  4  2  0  0  0  0
  5  6  1  0  0  0  0
  5  7  1  0  0  0  0
  7  8  2  0  0  0  0
  7 13  1  0  0  0  0
  8  9  1  0  0  0  0
  8 11  1  0  0  0  0
  9 10  2  0  0  0  0
 11 12  1  0  0  0  0
 12 13  2  0  0  0  0
M  END
>  <CHROM.1>
-5.78668493,-6.04800285,12.62171451,-0.73441694,1.19310063,-0.35629384

>  <Name>
1eht cryst

>  <RI>
0

>  <Rbt.Current_Directory>
/home/itssahil/PROJECTS/Mol_Feturizer/New_Systems/rnas/1eht

>  <Rbt.Executable>
rbdock ($Id: //depot/dev/client3/rdock/2013.1/src/exe/rbdock.cxx#4 $)

>  <Rbt.Library>
libRbt.so (2013.1, Build901 2013/11/27)

>  <Rbt.Parameter_File>
/export/apps/rDock/src/rDock_2013.1_src/data/scripts/dock_solv.prm

>  <Rbt.Receptor>
prm/pocket_docking_4.prm

>  <SCORE>
-39.1433

>  <SCORE.INTER>
-39.1433

>  <SCORE.INTER.CONST>
1

>  <SCORE.INTER.POLAR>
-1.9296

>  <SCORE.INTER.ROT>
0

>  <SCORE.INTER.SOLV>
9.79568

>  <SCORE.INTER.VDW>
-26.5288

>  <SCORE.INTER.norm>
-3.01102

>  <SCORE.INTRA>
0

>  <SCORE.INTRA.DIHEDRAL>
0

>  <SCORE.INTRA.DIHEDRAL.0>
0

>  <SCORE.INTRA.POLAR>
0

>  <SCORE.INTRA.POLAR.0>
0

>  <SCORE.INTRA.REPUL>
0

>  <SCORE.INTRA.REPUL.0>
0

>  <SCORE.INTRA.SOLV>
0

>  <SCORE.INTRA.SOLV.lig_0>
-12.9768

>  <SCORE.INTRA.VDW>
0

>  <SCORE.INTRA.VDW.0>
0

>  <SCORE.INTRA.norm>
0

>  <SCORE.RESTR>
0

>  <SCORE.RESTR.CAVITY>
0

>  <SCORE.RESTR.norm>
0

>  <SCORE.SYSTEM>
0

>  <SCORE.SYSTEM.CONST>
0

>  <SCORE.SYSTEM.DIHEDRAL>
0

>  <SCORE.SYSTEM.SOLV>
0

>  <SCORE.SYSTEM.norm>
0

>  <SCORE.heavy>
13

>  <SCORE.norm>
-3.01102

>  <RMSD>
0.731

$$$$
1eht cryst
 OpenBabel11021811383D
libRbt.so/2013.1/901 2013/11/27
 13 14  0  0  0  0  0  0  0  0999 V2000
   -4.7663   -7.9037   10.5875 C   0  0  0  0  0  0  0  0  0  0  0  0
   -5.2427   -7.0288   11.5597 N   0  0  0  0  0  0  0  0  0  0  0  0
   -5.6202   -7.5504   12.7701 C   0  0  0  0  0  0  0  0  0  0  0  0
   -5.5111   -8.7712   12.9002 O   0  0  0  0  0  0  0  0  0  0  0  0
   -6.1070   -6.8124   13.8193 N   0  0  0  0  0  0  0  0  0  0  0  0
   -6.4808   -7.3622   15.0346 C   0  0  0  0  0  0  0  0  0  0  0  0
   -6.1865   -5.4794   13.5431 C   0  0  0  0  0  0  0  0  0  0  0  0
   -5.8090   -4.9710   12.3341 C   0  0  0  0  0  0  0  0  0  0  0  0
   -5.3069   -5.7096   11.2474 C   0  0  0  0  0  0  0  0  0  0  0  0
   -4.9535   -5.3008   10.1423 O   0  0  0  0  0  0  0  0  0  0  0  0
   -6.0255   -3.6022   12.4172 N   0  0  0  0  0  0  0  0  0  0  0  0
   -6.5154   -3.3777   13.6594 C   0  0  0  0  0  0  0  0  0  0  0  0
   -6.6323   -4.4603   14.3773 N   0  0  0  0  0  0  0  0  0  0  0  0
  1  2  1  0  0  0  0
  2  9  1  0  0  0  0
  2  3  1  0  0  0  0
  3  5  1  0  0  0  0
  3  4  2  0  0  0  0
  5  6  1  0  0  0  0
  5  7  1  0  0  0  0
  7  8  2  0  0  0  0
  7 13  1  0  0  0  0
  8  9  1  0  0  0  0
  8 11  1  0  0  0  0
  9 10  2  0  0  0  0
 11 12  1  0  0  0  0
 12 13  2  0  0  0  0
M  END
>  <CHROM.1>
-5.76603339,-6.06762906,12.61944425,-0.74244285,1.19600441,-0.35028034

>  <Name>
1eht cryst

>  <RI>
0

>  <Rbt.Current_Directory>
/home/itssahil/PROJECTS/Mol_Feturizer/New_Systems/rnas/1eht

>  <Rbt.Executable>
rbdock ($Id: //depot/dev/client3/rdock/2013.1/src/exe/rbdock.cxx#4 $)

>  <Rbt.Library>
libRbt.so (2013.1, Build901 2013/11/27)

>  <Rbt.Parameter_File>
/export/apps/rDock/src/rDock_2013.1_src/data/scripts/dock_solv.prm

>  <Rbt.Receptor>
prm/pocket_docking_6.prm

>  <SCORE>
-39.1871

>  <SCORE.INTER>
-39.1871

>  <SCORE.INTER.CONST>
1

>  <SCORE.INTER.POLAR>
-1.95116

>  <SCORE.INTER.ROT>
0

>  <SCORE.INTER.SOLV>
9.76267

>  <SCORE.INTER.VDW>
-26.4751

>  <SCORE.INTER.norm>
-3.01439

>  <SCORE.INTRA>
0

>  <SCORE.INTRA.DIHEDRAL>
0

>  <SCORE.INTRA.DIHEDRAL.0>
0

>  <SCORE.INTRA.POLAR>
0

>  <SCORE.INTRA.POLAR.0>
0

>  <SCORE.INTRA.REPUL>
0

>  <SCORE.INTRA.REPUL.0>
0

>  <SCORE.INTRA.SOLV>
0

>  <SCORE.INTRA.SOLV.lig_0>
-12.9768

>  <SCORE.INTRA.VDW>
0

>  <SCORE.INTRA.VDW.0>
0

>  <SCORE.INTRA.norm>
0

>  <SCORE.RESTR>
0

>  <SCORE.RESTR.CAVITY>
0

>  <SCORE.RESTR.norm>
0

>  <SCORE.SYSTEM>
0

>  <SCORE.SYSTEM.CONST>
0

>  <SCORE.SYSTEM.DIHEDRAL>
0

>  <SCORE.SYSTEM.SOLV>
0

>  <SCORE.SYSTEM.norm>
0

>  <SCORE.heavy>
13

>  <SCORE.norm>
-3.01439

>  <RMSD>
0.731

$$$$
1eht cryst
 OpenBabel11021811383D
libRbt.so/2013.1/901 2013/11/27
 13 14  0  0  0  0  0  0  0  0999 V2000
   -4.7653   -7.9040   10.5889 C   0  0  0  0  0  0  0  0  0  0  0  0
   -5.2417   -7.0289   11.5608 N   0  0  0  0  0  0  0  0  0  0  0  0
   -5.6190   -7.5501   12.7714 C   0  0  0  0  0  0  0  0  0  0  0  0
   -5.5099   -8.7709   12.9018 O   0  0  0  0  0  0  0  0  0  0  0  0
   -6.1058   -6.8120   13.8205 N   0  0  0  0  0  0  0  0  0  0  0  0
   -6.4796   -7.3614   15.0359 C   0  0  0  0  0  0  0  0  0  0  0  0
   -6.1854   -5.4790   13.5439 C   0  0  0  0  0  0  0  0  0  0  0  0
   -5.8080   -4.9708   12.3347 C   0  0  0  0  0  0  0  0  0  0  0  0
   -5.3059   -5.7098   11.2482 C   0  0  0  0  0  0  0  0  0  0  0  0
   -4.9525   -5.3012   10.1430 O   0  0  0  0  0  0  0  0  0  0  0  0
   -6.0245   -3.6020   12.4175 N   0  0  0  0  0  0  0  0  0  0  0  0
   -6.5144   -3.3772   13.6597 C   0  0  0  0  0  0  0  0  0  0  0  0
   -6.6312   -4.4597   14.3779 N   0  0  0  0  0  0  0  0  0  0  0  0
  1  2  1  0  0  0  0
  2  9  1  0  0  0  0
  2  3  1  0  0  0  0
  3  5  1  0  0  0  0
  3  4  2  0  0  0  0
  5  6  1  0  0  0  0
  5  7  1  0  0  0  0
  7  8  2  0  0  0  0
  7 13  1  0  0  0  0
  8  9  1  0  0  0  0
  8 11  1  0  0  0  0
  9 10  2  0  0  0  0
 11 12  1  0  0  0  0
 12 13  2  0  0  0  0
M  END
>  <CHROM.1>
-5.76495620,-6.06744042,12.62035806,-0.74233267,1.19602378,-0.35064054

>  <Name>
1eht cryst

>  <RI>
224

>  <Rbt.Current_Directory>
/home/itssahil/PROJECTS/Mol_Feturizer/New_Systems/rnas/1eht

>  <Rbt.Executable>
rbdock ($Id: //depot/dev/client3/rdock/2013.1/src/exe/rbdock.cxx#4 $)

>  <Rbt.Library>
libRbt.so (2013.1, Build901 2013/11/27)

>  <Rbt.Parameter_File>
/export/apps/rDock/src/rDock_2013.1_src/data/scripts/dock_solv.prm

>  <Rbt.Receptor>
prm/pocket_docking_7.prm

>  <SCORE>
-39.1899

>  <SCORE.INTER>
-39.1899

>  <SCORE.INTER.CONST>
1

>  <SCORE.INTER.POLAR>
-1.95078

>  <SCORE.INTER.ROT>
0

>  <SCORE.INTER.SOLV>
9.76294

>  <SCORE.INTER.VDW>
-26.4783

>  <SCORE.INTER.norm>
-3.0146

>  <SCORE.INTRA>
0

>  <SCORE.INTRA.DIHEDRAL>
0

>  <SCORE.INTRA.DIHEDRAL.0>
0

>  <SCORE.INTRA.POLAR>
0

>  <SCORE.INTRA.POLAR.0>
0

>  <SCORE.INTRA.REPUL>
0

>  <SCORE.INTRA.REPUL.0>
0

>  <SCORE.INTRA.SOLV>
0

>  <SCORE.INTRA.SOLV.lig_0>
-12.9768

>  <SCORE.INTRA.VDW>
0

>  <SCORE.INTRA.VDW.0>
0

>  <SCORE.INTRA.norm>
0

>  <SCORE.RESTR>
0

>  <SCORE.RESTR.CAVITY>
0

>  <SCORE.RESTR.norm>
0

>  <SCORE.SYSTEM>
0

>  <SCORE.SYSTEM.CONST>
0

>  <SCORE.SYSTEM.DIHEDRAL>
0

>  <SCORE.SYSTEM.SOLV>
0

>  <SCORE.SYSTEM.norm>
0

>  <SCORE.heavy>
13

>  <SCORE.norm>
-3.0146

>  <RMSD>
0.731

$$$$
1eht cryst
 OpenBabel11021811383D
libRbt.so/2013.1/901 2013/11/27
 13 14  0  0  0  0  0  0  0  0999 V2000
   -4.7662   -7.9036   10.5900 C   0  0  0  0  0  0  0  0  0  0  0  0
   -5.2415   -7.0284   11.5624 N   0  0  0  0  0  0  0  0  0  0  0  0
   -5.6177   -7.5495   12.7735 C   0  0  0  0  0  0  0  0  0  0  0  0
   -5.5086   -8.7703   12.9038 O   0  0  0  0  0  0  0  0  0  0  0  0
   -6.1033   -6.8112   13.8229 N   0  0  0  0  0  0  0  0  0  0  0  0
   -6.4760   -7.3605   15.0388 C   0  0  0  0  0  0  0  0  0  0  0  0
   -6.1830   -5.4783   13.5463 C   0  0  0  0  0  0  0  0  0  0  0  0
   -5.8068   -4.9702   12.3367 C   0  0  0  0  0  0  0  0  0  0  0  0
   -5.3059   -5.7093   11.2497 C   0  0  0  0  0  0  0  0  0  0  0  0
   -4.9535   -5.3009   10.1441 O   0  0  0  0  0  0  0  0  0  0  0  0
   -6.0230   -3.6014   12.4196 N   0  0  0  0  0  0  0  0  0  0  0  0
   -6.5116   -3.3764   13.6623 C   0  0  0  0  0  0  0  0  0  0  0  0
   -6.6279   -4.4588   14.3806 N   0  0  0  0  0  0  0  0  0  0  0  0
  1  2  1  0  0  0  0
  2  9  1  0  0  0  0
  2  3  1  0  0  0  0
  3  5  1  0  0  0  0
  3  4  2  0  0  0  0
  5  6  1  0  0  0  0
  5  7  1  0  0  0  0
  7  8  2  0  0  0  0
  7 13  1  0  0  0  0
  8  9  1  0  0  0  0
  8 11  1  0  0  0  0
  9 10  2  0  0  0  0
 11 12  1  0  0  0  0
 12 13  2  0  0  0  0
M  END
>  <CHROM.1>
-5.76359927,-6.06681799,12.62240403,-0.74171416,1.19702320,-0.35129882

>  <Name>
1eht cryst

>  <RI>
0

>  <Rbt.Current_Directory>
/home/itssahil/PROJECTS/Mol_Feturizer/New_Systems/rnas/1eht

>  <Rbt.Executable>
rbdock ($Id: //depot/dev/client3/rdock/2013.1/src/exe/rbdock.cxx#4 $)

>  <Rbt.Library>
libRbt.so (2013.1, Build901 2013/11/27)

>  <Rbt.Parameter_File>
/export/apps/rDock/src/rDock_2013.1_src/data/scripts/dock_solv.prm

>  <Rbt.Receptor>
prm/blind_docking_60.prm

>  <SCORE>
-39.1918

>  <SCORE.INTER>
-39.1918

>  <SCORE.INTER.CONST>
1

>  <SCORE.INTER.POLAR>
-1.94854

>  <SCORE.INTER.ROT>
0

>  <SCORE.INTER.SOLV>
9.76351

>  <SCORE.INTER.VDW>
-26.4873

>  <SCORE.INTER.norm>
-3.01476

>  <SCORE.INTRA>
0

>  <SCORE.INTRA.DIHEDRAL>
0

>  <SCORE.INTRA.DIHEDRAL.0>
0

>  <SCORE.INTRA.POLAR>
0

>  <SCORE.INTRA.POLAR.0>
0

>  <SCORE.INTRA.REPUL>
0

>  <SCORE.INTRA.REPUL.0>
0

>  <SCORE.INTRA.SOLV>
0

>  <SCORE.INTRA.SOLV.lig_0>
-12.9768

>  <SCORE.INTRA.VDW>
0

>  <SCORE.INTRA.VDW.0>
0

>  <SCORE.INTRA.norm>
0

>  <SCORE.RESTR>
0

>  <SCORE.RESTR.CAVITY>
0

>  <SCORE.RESTR.norm>
0

>  <SCORE.SYSTEM>
0

>  <SCORE.SYSTEM.CONST>
0

>  <SCORE.SYSTEM.DIHEDRAL>
0

>  <SCORE.SYSTEM.SOLV>
0

>  <SCORE.SYSTEM.norm>
0

>  <SCORE.heavy>
13

>  <SCORE.norm>
-3.01476

>  <RMSD>
0.732

$$$$
1eht cryst
 OpenBabel11021811383D
libRbt.so/2013.1/901 2013/11/27
 13 14  0  0  0  0  0  0  0  0999 V2000
   -4.7637   -7.9037   10.5918 C   0  0  0  0  0  0  0  0  0  0  0  0
   -5.2394   -7.0282   11.5638 N   0  0  0  0  0  0  0  0  0  0  0  0
   -5.6151   -7.5489   12.7752 C   0  0  0  0  0  0  0  0  0  0  0  0
   -5.5053   -8.7695   12.9062 O   0  0  0  0  0  0  0  0  0  0  0  0
   -6.1011   -6.8102   13.8242 N   0  0  0  0  0  0  0  0  0  0  0  0
   -6.4733   -7.3591   15.0405 C   0  0  0  0  0  0  0  0  0  0  0  0
   -6.1816   -5.4775   13.5469 C   0  0  0  0  0  0  0  0  0  0  0  0
   -5.8058   -4.9699   12.3370 C   0  0  0  0  0  0  0  0  0  0  0  0
   -5.3046   -5.7094   11.2503 C   0  0  0  0  0  0  0  0  0  0  0  0
   -4.9526   -5.3014   10.1445 O   0  0  0  0  0  0  0  0  0  0  0  0
   -6.0228   -3.6012   12.4191 N   0  0  0  0  0  0  0  0  0  0  0  0
   -6.5114   -3.3758   13.6617 C   0  0  0  0  0  0  0  0  0  0  0  0
   -6.6270   -4.4579   14.3807 N   0  0  0  0  0  0  0  0  0  0  0  0
  1  2  1  0  0  0  0
  2  9  1  0  0  0  0
  2  3  1  0  0  0  0
  3  5  1  0  0  0  0
  3  4  2  0  0  0  0
  5  6  1  0  0  0  0
  5  7  1  0  0  0  0
  7  8  2  0  0  0  0
  7 13  1  0  0  0  0
  8  9  1  0  0  0  0
  8 11  1  0  0  0  0
  9 10  2  0  0  0  0
 11 12  1  0  0  0  0
 12 13  2  0  0  0  0
M  END
>  <CHROM.1>
-5.76192676,-6.06633900,12.62327648,-0.74007035,1.19692603,-0.35339916

>  <Name>
1eht cryst

>  <RI>
0

>  <Rbt.Current_Directory>
/home/itssahil/PROJECTS/Mol_Feturizer/New_Systems/rnas/1eht

>  <Rbt.Executable>
rbdock ($Id: //depot/dev/client3/rdock/2013.1/src/exe/rbdock.cxx#4 $)

>  <Rbt.Library>
libRbt.so (2013.1, Build901 2013/11/27)

>  <Rbt.Parameter_File>
/export/apps/rDock/src/rDock_2013.1_src/data/scripts/dock_solv.prm

>  <Rbt.Receptor>
prm/blind_docking_100.prm

>  <SCORE>
-39.1915

>  <SCORE.INTER>
-39.1915

>  <SCORE.INTER.CONST>
1

>  <SCORE.INTER.POLAR>
-1.94784

>  <SCORE.INTER.ROT>
0

>  <SCORE.INTER.SOLV>
9.76354

>  <SCORE.INTER.VDW>
-26.4894

>  <SCORE.INTER.norm>
-3.01473

>  <SCORE.INTRA>
0

>  <SCORE.INTRA.DIHEDRAL>
0

>  <SCORE.INTRA.DIHEDRAL.0>
0

>  <SCORE.INTRA.POLAR>
0

>  <SCORE.INTRA.POLAR.0>
0

>  <SCORE.INTRA.REPUL>
0

>  <SCORE.INTRA.REPUL.0>
0

>  <SCORE.INTRA.SOLV>
0

>  <SCORE.INTRA.SOLV.lig_0>
-12.9768

>  <SCORE.INTRA.VDW>
0

>  <SCORE.INTRA.VDW.0>
0

>  <SCORE.INTRA.norm>
0

>  <SCORE.RESTR>
0

>  <SCORE.RESTR.CAVITY>
0

>  <SCORE.RESTR.norm>
0

>  <SCORE.SYSTEM>
0

>  <SCORE.SYSTEM.CONST>
0

>  <SCORE.SYSTEM.DIHEDRAL>
0

>  <SCORE.SYSTEM.SOLV>
0

>  <SCORE.SYSTEM.norm>
0

>  <SCORE.heavy>
13

>  <SCORE.norm>
-3.01473

>  <RMSD>
0.733

$$$$
1eht cryst
 OpenBabel11021811383D
libRbt.so/2013.1/901 2013/11/27
 13 14  0  0  0  0  0  0  0  0999 V2000
   -4.7641   -7.9039   10.5929 C   0  0  0  0  0  0  0  0  0  0  0  0
   -5.2390   -7.0282   11.5651 N   0  0  0  0  0  0  0  0  0  0  0  0
   -5.6137   -7.5487   12.7769 C   0  0  0  0  0  0  0  0  0  0  0  0
   -5.5037   -8.7693   12.9080 O   0  0  0  0  0  0  0  0  0  0  0  0
   -6.0988   -6.8098   13.8262 N   0  0  0  0  0  0  0  0  0  0  0  0
   -6.4699   -7.3584   15.0429 C   0  0  0  0  0  0  0  0  0  0  0  0
   -6.1795   -5.4771   13.5487 C   0  0  0  0  0  0  0  0  0  0  0  0
   -5.8048   -4.9698   12.3384 C   0  0  0  0  0  0  0  0  0  0  0  0
   -5.3045   -5.7094   11.2514 C   0  0  0  0  0  0  0  0  0  0  0  0
   -4.9534   -5.3017   10.1452 O   0  0  0  0  0  0  0  0  0  0  0  0
   -6.0217   -3.6010   12.4204 N   0  0  0  0  0  0  0  0  0  0  0  0
   -6.5093   -3.3754   13.6634 C   0  0  0  0  0  0  0  0  0  0  0  0
   -6.6242   -4.4573   14.3827 N   0  0  0  0  0  0  0  0  0  0  0  0
  1  2  1  0  0  0  0
  2  9  1  0  0  0  0
  2  3  1  0  0  0  0
  3  5  1  0  0  0  0
  3  4  2  0  0  0  0
  5  6  1  0  0  0  0
  5  7  1  0  0  0  0
  7  8  2  0  0  0  0
  7 13  1  0  0  0  0
  8  9  1  0  0  0  0
  8 11  1  0  0  0  0
  9 10  2  0  0  0  0
 11 12  1  0  0  0  0
 12 13  2  0  0  0  0
M  END
>  <CHROM.1>
-5.76065737,-6.06614667,12.62483588,-0.73924337,1.19771560,-0.35436651

>  <Name>
1eht cryst

>  <RI>
0

>  <Rbt.Current_Directory>
/home/itssahil/PROJECTS/Mol_Feturizer/New_Systems/rnas/1eht

>  <Rbt.Executable>
rbdock ($Id: //depot/dev/client3/rdock/2013.1/src/exe/rbdock.cxx#4 $)

>  <Rbt.Library>
libRbt.so (2013.1, Build901 2013/11/27)

>  <Rbt.Parameter_File>
/export/apps/rDock/src/rDock_2013.1_src/data/scripts/dock_solv.prm

>  <Rbt.Receptor>
prm/blind_docking_20.prm

>  <SCORE>
-39.1912

>  <SCORE.INTER>
-39.1912

>  <SCORE.INTER.CONST>
1

>  <SCORE.INTER.POLAR>
-1.94618

>  <SCORE.INTER.ROT>
0

>  <SCORE.INTER.SOLV>
9.76298

>  <SCORE.INTER.VDW>
-26.4946

>  <SCORE.INTER.norm>
-3.01471

>  <SCORE.INTRA>
0

>  <SCORE.INTRA.DIHEDRAL>
0

>  <SCORE.INTRA.DIHEDRAL.0>
0

>  <SCORE.INTRA.POLAR>
0

>  <SCORE.INTRA.POLAR.0>
0

>  <SCORE.INTRA.REPUL>
0

>  <SCORE.INTRA.REPUL.0>
0

>  <SCORE.INTRA.SOLV>
0

>  <SCORE.INTRA.SOLV.lig_0>
-12.9768

>  <SCORE.INTRA.VDW>
0

>  <SCORE.INTRA.VDW.0>
0

>  <SCORE.INTRA.norm>
0

>  <SCORE.RESTR>
0

>  <SCORE.RESTR.CAVITY>
0

>  <SCORE.RESTR.norm>
0

>  <SCORE.SYSTEM>
0

>  <SCORE.SYSTEM.CONST>
0

>  <SCORE.SYSTEM.DIHEDRAL>
0

>  <SCORE.SYSTEM.SOLV>
0

>  <SCORE.SYSTEM.norm>
0

>  <SCORE.heavy>
13

>  <SCORE.norm>
-3.01471

>  <RMSD>
0.733

$$$$
1eht cryst
 OpenBabel11021811383D
libRbt.so/2013.1/901 2013/11/27
 13 14  0  0  0  0  0  0  0  0999 V2000
   -4.7532   -7.8786   10.6072 C   0  0  0  0  0  0  0  0  0  0  0  0
   -5.2284   -7.0130   11.5883 N   0  0  0  0  0  0  0  0  0  0  0  0
   -5.6164   -7.5475   12.7897 C   0  0  0  0  0  0  0  0  0  0  0  0
   -5.5172   -8.7707   12.9042 O   0  0  0  0  0  0  0  0  0  0  0  0
   -6.1034   -6.8198   13.8459 N   0  0  0  0  0  0  0  0  0  0  0  0
   -6.4880   -7.3826   15.0518 C   0  0  0  0  0  0  0  0  0  0  0  0
   -6.1713   -5.4827   13.5868 C   0  0  0  0  0  0  0  0  0  0  0  0
   -5.7834   -4.9612   12.3867 C   0  0  0  0  0  0  0  0  0  0  0  0
   -5.2809   -5.6894   11.2930 C   0  0  0  0  0  0  0  0  0  0  0  0
   -4.9183   -5.2688   10.1954 O   0  0  0  0  0  0  0  0  0  0  0  0
   -5.9899   -3.5921   12.4866 N   0  0  0  0  0  0  0  0  0  0  0  0
   -6.4850   -3.3802   13.7291 C   0  0  0  0  0  0  0  0  0  0  0  0
   -6.6140   -4.4712   14.4320 N   0  0  0  0  0  0  0  0  0  0  0  0
  1  2  1  0  0  0  0
  2  9  1  0  0  0  0
  2  3  1  0  0  0  0
  3  5  1  0  0  0  0
  3  4  2  0  0  0  0
  5  6  1  0  0  0  0
  5  7  1  0  0  0  0
  7  8  2  0  0  0  0
  7 13  1  0  0  0  0
  8  9  1  0  0  0  0
  8 11  1  0  0  0  0
  9 10  2  0  0  0  0
 11 12  1  0  0  0  0
 12 13  2  0  0  0  0
M  END
>  <CHROM.1>
-5.75022229,-6.06185753,12.65777936,-0.76677917,1.19332894,-0.31448533

>  <Name>
1eht cryst

>  <RI>
0

>  <Rbt.Current_Directory>
/home/itssahil/PROJECTS/Mol_Feturizer/New_Systems/rnas/1eht

>  <Rbt.Executable>
rbdock ($Id: //depot/dev/client3/rdock/2013.1/src/exe/rbdock.cxx#4 $)

>  <Rbt.Library>
libRbt.so (2013.1, Build901 2013/11/27)

>  <Rbt.Parameter_File>
/export/apps/rDock/src/rDock_2013.1_src/data/scripts/dock_solv.prm

>  <Rbt.Receptor>
prm/blind_docking_60.prm

>  <SCORE>
-39.1729

>  <SCORE.INTER>
-39.1729

>  <SCORE.INTER.CONST>
1

>  <SCORE.INTER.POLAR>
-1.93335

>  <SCORE.INTER.ROT>
0

>  <SCORE.INTER.SOLV>
9.80348

>  <SCORE.INTER.VDW>
-26.5386

>  <SCORE.INTER.norm>
-3.0133

>  <SCORE.INTRA>
0

>  <SCORE.INTRA.DIHEDRAL>
0

>  <SCORE.INTRA.DIHEDRAL.0>
0

>  <SCORE.INTRA.POLAR>
0

>  <SCORE.INTRA.POLAR.0>
0

>  <SCORE.INTRA.REPUL>
0

>  <SCORE.INTRA.REPUL.0>
0

>  <SCORE.INTRA.SOLV>
0

>  <SCORE.INTRA.SOLV.lig_0>
-12.9768

>  <SCORE.INTRA.VDW>
0

>  <SCORE.INTRA.VDW.0>
0

>  <SCORE.INTRA.norm>
0

>  <SCORE.RESTR>
0

>  <SCORE.RESTR.CAVITY>
0

>  <SCORE.RESTR.norm>
0

>  <SCORE.SYSTEM>
0

>  <SCORE.SYSTEM.CONST>
0

>  <SCORE.SYSTEM.DIHEDRAL>
0

>  <SCORE.SYSTEM.SOLV>
0

>  <SCORE.SYSTEM.norm>
0

>  <SCORE.heavy>
13

>  <SCORE.norm>
-3.0133

>  <RMSD>
0.733

$$$$
1eht cryst
 OpenBabel11021811383D
libRbt.so/2013.1/901 2013/11/27
 13 14  0  0  0  0  0  0  0  0999 V2000
   -4.7671   -7.9046   10.5923 C   0  0  0  0  0  0  0  0  0  0  0  0
   -5.2418   -7.0288   11.5645 N   0  0  0  0  0  0  0  0  0  0  0  0
   -5.6173   -7.5491   12.7760 C   0  0  0  0  0  0  0  0  0  0  0  0
   -5.5082   -8.7698   12.9070 O   0  0  0  0  0  0  0  0  0  0  0  0
   -6.1023   -6.8101   13.8253 N   0  0  0  0  0  0  0  0  0  0  0  0
   -6.4743   -7.3586   15.0417 C   0  0  0  0  0  0  0  0  0  0  0  0
   -6.1820   -5.4773   13.5479 C   0  0  0  0  0  0  0  0  0  0  0  0
   -5.8064   -4.9701   12.3378 C   0  0  0  0  0  0  0  0  0  0  0  0
   -5.3062   -5.7099   11.2510 C   0  0  0  0  0  0  0  0  0  0  0  0
   -4.9545   -5.3022   10.1449 O   0  0  0  0  0  0  0  0  0  0  0  0
   -6.0225   -3.6012   12.4199 N   0  0  0  0  0  0  0  0  0  0  0  0
   -6.5103   -3.3754   13.6628 C   0  0  0  0  0  0  0  0  0  0  0  0
   -6.6263   -4.4573   14.3819 N   0  0  0  0  0  0  0  0  0  0  0  0
  1  2  1  0  0  0  0
  2  9  1  0  0  0  0
  2  3  1  0  0  0  0
  3  5  1  0  0  0  0
  3  4  2  0  0  0  0
  5  6  1  0  0  0  0
  5  7  1  0  0  0  0
  7  8  2  0  0  0  0
  7 13  1  0  0  0  0
  8  9  1  0  0  0  0
  8 11  1  0  0  0  0
  9 10  2  0  0  0  0
 11 12  1  0  0  0  0
 12 13  2  0  0  0  0
M  END
>  <CHROM.1>
-5.76316457,-6.06648038,12.62413143,-0.74140423,1.19759904,-0.35220432

>  <Name>
1eht cryst

>  <RI>
0

>  <Rbt.Current_Directory>
/home/itssahil/PROJECTS/Mol_Feturizer/New_Systems/rnas/1eht

>  <Rbt.Executable>
rbdock ($Id: //depot/dev/client3/rdock/2013.1/src/exe/rbdock.cxx#4 $)

>  <Rbt.Library>
libRbt.so (2013.1, Build901 2013/11/27)

>  <Rbt.Parameter_File>
/export/apps/rDock/src/rDock_2013.1_src/data/scripts/dock_solv.prm

>  <Rbt.Receptor>
prm/blind_docking_60.prm

>  <SCORE>
-39.1897

>  <SCORE.INTER>
-39.1897

>  <SCORE.INTER.CONST>
1

>  <SCORE.INTER.POLAR>
-1.94706

>  <SCORE.INTER.ROT>
0

>  <SCORE.INTER.SOLV>
9.76298

>  <SCORE.INTER.VDW>
-26.4906

>  <SCORE.INTER.norm>
-3.0146

>  <SCORE.INTRA>
0

>  <SCORE.INTRA.DIHEDRAL>
0

>  <SCORE.INTRA.DIHEDRAL.0>
0

>  <SCORE.INTRA.POLAR>
0

>  <SCORE.INTRA.POLAR.0>
0

>  <SCORE.INTRA.REPUL>
0

>  <SCORE.INTRA.REPUL.0>
0

>  <SCORE.INTRA.SOLV>
0

>  <SCORE.INTRA.SOLV.lig_0>
-12.9768

>  <SCORE.INTRA.VDW>
0

>  <SCORE.INTRA.VDW.0>
0

>  <SCORE.INTRA.norm>
0

>  <SCORE.RESTR>
0

>  <SCORE.RESTR.CAVITY>
0

>  <SCORE.RESTR.norm>
0

>  <SCORE.SYSTEM>
0

>  <SCORE.SYSTEM.CONST>
0

>  <SCORE.SYSTEM.DIHEDRAL>
0

>  <SCORE.SYSTEM.SOLV>
0

>  <SCORE.SYSTEM.norm>
0

>  <SCORE.heavy>
13

>  <SCORE.norm>
-3.0146

>  <RMSD>
0.733

$$$$
1eht cryst
 OpenBabel11021811383D
libRbt.so/2013.1/901 2013/11/27
 13 14  0  0  0  0  0  0  0  0999 V2000
   -4.7613   -7.8815   10.6072 C   0  0  0  0  0  0  0  0  0  0  0  0
   -5.2339   -7.0151   11.5888 N   0  0  0  0  0  0  0  0  0  0  0  0
   -5.6204   -7.5488   12.7910 C   0  0  0  0  0  0  0  0  0  0  0  0
   -5.5223   -8.7721   12.9057 O   0  0  0  0  0  0  0  0  0  0  0  0
   -6.1048   -6.8202   13.8478 N   0  0  0  0  0  0  0  0  0  0  0  0
   -6.4880   -7.3822   15.0545 C   0  0  0  0  0  0  0  0  0  0  0  0
   -6.1717   -5.4831   13.5884 C   0  0  0  0  0  0  0  0  0  0  0  0
   -5.7854   -4.9625   12.3874 C   0  0  0  0  0  0  0  0  0  0  0  0
   -5.2855   -5.6915   11.2932 C   0  0  0  0  0  0  0  0  0  0  0  0
   -4.9243   -5.2716   10.1948 O   0  0  0  0  0  0  0  0  0  0  0  0
   -5.9903   -3.5931   12.4873 N   0  0  0  0  0  0  0  0  0  0  0  0
   -6.4830   -3.3803   13.7305 C   0  0  0  0  0  0  0  0  0  0  0  0
   -6.6120   -4.4710   14.4340 N   0  0  0  0  0  0  0  0  0  0  0  0
  1  2  1  0  0  0  0
  2  9  1  0  0  0  0
  2  3  1  0  0  0  0
  3  5  1  0  0  0  0
  3  4  2  0  0  0  0
  5  6  1  0  0  0  0
  5  7  1  0  0  0  0
  7  8  2  0  0  0  0
  7 13  1  0  0  0  0
  8  9  1  0  0  0  0
  8 11  1  0  0  0  0
  9 10  2  0  0  0  0
 11 12  1  0  0  0  0
 12 13  2  0  0  0  0
M  END
>  <CHROM.1>
-5.75289028,-6.06306242,12.65883914,-0.76808829,1.19528112,-0.31358452

>  <Name>
1eht cryst

>  <RI>
0

>  <Rbt.Current_Directory>
/home/itssahil/PROJECTS/Mol_Feturizer/New_Systems/rnas/1eht

>  <Rbt.Executable>
rbdock ($Id: //depot/dev/client3/rdock/2013.1/src/exe/rbdock.cxx#4 $)

>  <Rbt.Library>
libRbt.so (2013.1, Build901 2013/11/27)

>  <Rbt.Parameter_File>
/export/apps/rDock/src/rDock_2013.1_src/data/scripts/dock_solv.prm

>  <Rbt.Receptor>
prm/blind_docking_20.prm

>  <SCORE>
-39.1691

>  <SCORE.INTER>
-39.1691

>  <SCORE.INTER.CONST>
1

>  <SCORE.INTER.POLAR>
-1.93192

>  <SCORE.INTER.ROT>
0

>  <SCORE.INTER.SOLV>
9.79926

>  <SCORE.INTER.VDW>
-26.5394

>  <SCORE.INTER.norm>
-3.01301

>  <SCORE.INTRA>
0

>  <SCORE.INTRA.DIHEDRAL>
0

>  <SCORE.INTRA.DIHEDRAL.0>
0

>  <SCORE.INTRA.POLAR>
0

>  <SCORE.INTRA.POLAR.0>
0

>  <SCORE.INTRA.REPUL>
0

>  <SCORE.INTRA.REPUL.0>
0

>  <SCORE.INTRA.SOLV>
0

>  <SCORE.INTRA.SOLV.lig_0>
-12.9768

>  <SCORE.INTRA.VDW>
0

>  <SCORE.INTRA.VDW.0>
0

>  <SCORE.INTRA.norm>
0

>  <SCORE.RESTR>
0

>  <SCORE.RESTR.CAVITY>
0

>  <SCORE.RESTR.norm>
0

>  <SCORE.SYSTEM>
0

>  <SCORE.SYSTEM.CONST>
0

>  <SCORE.SYSTEM.DIHEDRAL>
0

>  <SCORE.SYSTEM.SOLV>
0

>  <SCORE.SYSTEM.norm>
0

>  <SCORE.heavy>
13

>  <SCORE.norm>
-3.01301

>  <RMSD>
0.734

$$$$
1eht cryst
 OpenBabel11021811383D
libRbt.so/2013.1/901 2013/11/27
 13 14  0  0  0  0  0  0  0  0999 V2000
   -4.7628   -7.9045   10.5926 C   0  0  0  0  0  0  0  0  0  0  0  0
   -5.2393   -7.0286   11.5638 N   0  0  0  0  0  0  0  0  0  0  0  0
   -5.6157   -7.5488   12.7752 C   0  0  0  0  0  0  0  0  0  0  0  0
   -5.5055   -8.7693   12.9070 O   0  0  0  0  0  0  0  0  0  0  0  0
   -6.1025   -6.8097   13.8236 N   0  0  0  0  0  0  0  0  0  0  0  0
   -6.4752   -7.3579   15.0399 C   0  0  0  0  0  0  0  0  0  0  0  0
   -6.1832   -5.4771   13.5455 C   0  0  0  0  0  0  0  0  0  0  0  0
   -5.8068   -4.9701   12.3355 C   0  0  0  0  0  0  0  0  0  0  0  0
   -5.3048   -5.7100   11.2496 C   0  0  0  0  0  0  0  0  0  0  0  0
   -4.9522   -5.3025   10.1437 O   0  0  0  0  0  0  0  0  0  0  0  0
   -6.0243   -3.6014   12.4168 N   0  0  0  0  0  0  0  0  0  0  0  0
   -6.5137   -3.3755   13.6590 C   0  0  0  0  0  0  0  0  0  0  0  0
   -6.6294   -4.4572   14.3785 N   0  0  0  0  0  0  0  0  0  0  0  0
  1  2  1  0  0  0  0
  2  9  1  0  0  0  0
  2  3  1  0  0  0  0
  3  5  1  0  0  0  0
  3  4  2  0  0  0  0
  5  6  1  0  0  0  0
  5  7  1  0  0  0  0
  7  8  2  0  0  0  0
  7 13  1  0  0  0  0
  8  9  1  0  0  0  0
  8 11  1  0  0  0  0
  9 10  2  0  0  0  0
 11 12  1  0  0  0  0
 12 13  2  0  0  0  0
M  END
>  <CHROM.1>
-5.76279844,-6.06634109,12.62246031,-0.73989107,1.19626371,-0.35410991

>  <Name>
1eht cryst

>  <RI>
0

>  <Rbt.Current_Directory>
/home/itssahil/PROJECTS/Mol_Feturizer/New_Systems/rnas/1eht

>  <Rbt.Executable>
rbdock ($Id: //depot/dev/client3/rdock/2013.1/src/exe/rbdock.cxx#4 $)

>  <Rbt.Library>
libRbt.so (2013.1, Build901 2013/11/27)

>  <Rbt.Parameter_File>
/export/apps/rDock/src/rDock_2013.1_src/data/scripts/dock_solv.prm

>  <Rbt.Receptor>
prm/blind_docking_20.prm

>  <SCORE>
-39.1884

>  <SCORE.INTER>
-39.1884

>  <SCORE.INTER.CONST>
1

>  <SCORE.INTER.POLAR>
-1.94897

>  <SCORE.INTER.ROT>
0

>  <SCORE.INTER.SOLV>
9.76306

>  <SCORE.INTER.VDW>
-26.4834

>  <SCORE.INTER.norm>
-3.01449

>  <SCORE.INTRA>
0

>  <SCORE.INTRA.DIHEDRAL>
0

>  <SCORE.INTRA.DIHEDRAL.0>
0

>  <SCORE.INTRA.POLAR>
0

>  <SCORE.INTRA.POLAR.0>
0

>  <SCORE.INTRA.REPUL>
0

>  <SCORE.INTRA.REPUL.0>
0

>  <SCORE.INTRA.SOLV>
0

>  <SCORE.INTRA.SOLV.lig_0>
-12.9768

>  <SCORE.INTRA.VDW>
0

>  <SCORE.INTRA.VDW.0>
0

>  <SCORE.INTRA.norm>
0

>  <SCORE.RESTR>
0

>  <SCORE.RESTR.CAVITY>
0

>  <SCORE.RESTR.norm>
0

>  <SCORE.SYSTEM>
0

>  <SCORE.SYSTEM.CONST>
0

>  <SCORE.SYSTEM.DIHEDRAL>
0

>  <SCORE.SYSTEM.SOLV>
0

>  <SCORE.SYSTEM.norm>
0

>  <SCORE.heavy>
13

>  <SCORE.norm>
-3.01449

>  <RMSD>
0.734

$$$$
1eht cryst
 OpenBabel11021811383D
libRbt.so/2013.1/901 2013/11/27
 13 14  0  0  0  0  0  0  0  0999 V2000
   -4.7694   -7.9049   10.5923 C   0  0  0  0  0  0  0  0  0  0  0  0
   -5.2449   -7.0291   11.5642 N   0  0  0  0  0  0  0  0  0  0  0  0
   -5.6228   -7.5499   12.7748 C   0  0  0  0  0  0  0  0  0  0  0  0
   -5.5149   -8.7708   12.9053 O   0  0  0  0  0  0  0  0  0  0  0  0
   -6.1088   -6.8110   13.8238 N   0  0  0  0  0  0  0  0  0  0  0  0
   -6.4831   -7.3599   15.0393 C   0  0  0  0  0  0  0  0  0  0  0  0
   -6.1869   -5.4781   13.5470 C   0  0  0  0  0  0  0  0  0  0  0  0
   -5.8090   -4.9704   12.3378 C   0  0  0  0  0  0  0  0  0  0  0  0
   -5.3077   -5.7100   11.2513 C   0  0  0  0  0  0  0  0  0  0  0  0
   -4.9539   -5.3020   10.1461 O   0  0  0  0  0  0  0  0  0  0  0  0
   -6.0240   -3.6014   12.4203 N   0  0  0  0  0  0  0  0  0  0  0  0
   -6.5137   -3.3759   13.6625 C   0  0  0  0  0  0  0  0  0  0  0  0
   -6.6317   -4.4582   14.3809 N   0  0  0  0  0  0  0  0  0  0  0  0
  1  2  1  0  0  0  0
  2  9  1  0  0  0  0
  2  3  1  0  0  0  0
  3  5  1  0  0  0  0
  3  4  2  0  0  0  0
  5  6  1  0  0  0  0
  5  7  1  0  0  0  0
  7  8  2  0  0  0  0
  7 13  1  0  0  0  0
  8  9  1  0  0  0  0
  8 11  1  0  0  0  0
  9 10  2  0  0  0  0
 11 12  1  0  0  0  0
 12 13  2  0  0  0  0
M  END
>  <CHROM.1>
-5.76713299,-6.06703687,12.62355230,-0.74503188,1.19640630,-0.34825813

>  <Name>
1eht cryst

>  <RI>
0

>  <Rbt.Current_Directory>
/home/itssahil/PROJECTS/Mol_Feturizer/New_Systems/rnas/1eht

>  <Rbt.Executable>
rbdock ($Id: //depot/dev/client3/rdock/2013.1/src/exe/rbdock.cxx#4 $)

>  <Rbt.Library>
libRbt.so (2013.1, Build901 2013/11/27)

>  <Rbt.Parameter_File>
/export/apps/rDock/src/rDock_2013.1_src/data/scripts/dock_solv.prm

>  <Rbt.Receptor>
prm/pocket_docking_2.prm

>  <SCORE>
-39.1875

>  <SCORE.INTER>
-39.1875

>  <SCORE.INTER.CONST>
1

>  <SCORE.INTER.POLAR>
-1.9494

>  <SCORE.INTER.ROT>
0

>  <SCORE.INTER.SOLV>
9.76387

>  <SCORE.INTER.VDW>
-26.4816

>  <SCORE.INTER.norm>
-3.01442

>  <SCORE.INTRA>
0

>  <SCORE.INTRA.DIHEDRAL>
0

>  <SCORE.INTRA.DIHEDRAL.0>
0

>  <SCORE.INTRA.POLAR>
0

>  <SCORE.INTRA.POLAR.0>
0

>  <SCORE.INTRA.REPUL>
0

>  <SCORE.INTRA.REPUL.0>
0

>  <SCORE.INTRA.SOLV>
0

>  <SCORE.INTRA.SOLV.lig_0>
-12.9768

>  <SCORE.INTRA.VDW>
0

>  <SCORE.INTRA.VDW.0>
0

>  <SCORE.INTRA.norm>
0

>  <SCORE.RESTR>
0

>  <SCORE.RESTR.CAVITY>
0

>  <SCORE.RESTR.norm>
0

>  <SCORE.SYSTEM>
0

>  <SCORE.SYSTEM.CONST>
0

>  <SCORE.SYSTEM.DIHEDRAL>
0

>  <SCORE.SYSTEM.SOLV>
0

>  <SCORE.SYSTEM.norm>
0

>  <SCORE.heavy>
13

>  <SCORE.norm>
-3.01442

>  <RMSD>
0.734

$$$$
1eht cryst
 OpenBabel11021811383D
libRbt.so/2013.1/901 2013/11/27
 13 14  0  0  0  0  0  0  0  0999 V2000
   -4.7629   -7.8828   10.6077 C   0  0  0  0  0  0  0  0  0  0  0  0
   -5.2344   -7.0159   11.5894 N   0  0  0  0  0  0  0  0  0  0  0  0
   -5.6199   -7.5491   12.7921 C   0  0  0  0  0  0  0  0  0  0  0  0
   -5.5219   -8.7724   12.9073 O   0  0  0  0  0  0  0  0  0  0  0  0
   -6.1033   -6.8200   13.8491 N   0  0  0  0  0  0  0  0  0  0  0  0
   -6.4854   -7.3816   15.0564 C   0  0  0  0  0  0  0  0  0  0  0  0
   -6.1703   -5.4831   13.5893 C   0  0  0  0  0  0  0  0  0  0  0  0
   -5.7850   -4.9629   12.3877 C   0  0  0  0  0  0  0  0  0  0  0  0
   -5.2862   -5.6924   11.2933 C   0  0  0  0  0  0  0  0  0  0  0  0
   -4.9260   -5.2730   10.1944 O   0  0  0  0  0  0  0  0  0  0  0  0
   -5.9896   -3.5934   12.4873 N   0  0  0  0  0  0  0  0  0  0  0  0
   -6.4812   -3.3801   13.7309 C   0  0  0  0  0  0  0  0  0  0  0  0
   -6.6096   -4.4705   14.4349 N   0  0  0  0  0  0  0  0  0  0  0  0
  1  2  1  0  0  0  0
  2  9  1  0  0  0  0
  2  3  1  0  0  0  0
  3  5  1  0  0  0  0
  3  4  2  0  0  0  0
  5  6  1  0  0  0  0
  5  7  1  0  0  0  0
  7  8  2  0  0  0  0
  7 13  1  0  0  0  0
  8  9  1  0  0  0  0
  8 11  1  0  0  0  0
  9 10  2  0  0  0  0
 11 12  1  0  0  0  0
 12 13  2  0  0  0  0
M  END
>  <CHROM.1>
-5.75236843,-6.06340860,12.65952334,-0.76763691,1.19619388,-0.31439230

>  <Name>
1eht cryst

>  <RI>
0

>  <Rbt.Current_Directory>
/home/itssahil/PROJECTS/Mol_Feturizer/New_Systems/rnas/1eht

>  <Rbt.Executable>
rbdock ($Id: //depot/dev/client3/rdock/2013.1/src/exe/rbdock.cxx#4 $)

>  <Rbt.Library>
libRbt.so (2013.1, Build901 2013/11/27)

>  <Rbt.Parameter_File>
/export/apps/rDock/src/rDock_2013.1_src/data/scripts/dock_solv.prm

>  <Rbt.Receptor>
prm/pocket_docking_2.prm

>  <SCORE>
-39.166

>  <SCORE.INTER>
-39.166

>  <SCORE.INTER.CONST>
1

>  <SCORE.INTER.POLAR>
-1.93074

>  <SCORE.INTER.ROT>
0

>  <SCORE.INTER.SOLV>
9.79748

>  <SCORE.INTER.VDW>
-26.5407

>  <SCORE.INTER.norm>
-3.01277

>  <SCORE.INTRA>
0

>  <SCORE.INTRA.DIHEDRAL>
0

>  <SCORE.INTRA.DIHEDRAL.0>
0

>  <SCORE.INTRA.POLAR>
0

>  <SCORE.INTRA.POLAR.0>
0

>  <SCORE.INTRA.REPUL>
0

>  <SCORE.INTRA.REPUL.0>
0

>  <SCORE.INTRA.SOLV>
0

>  <SCORE.INTRA.SOLV.lig_0>
-12.9768

>  <SCORE.INTRA.VDW>
0

>  <SCORE.INTRA.VDW.0>
0

>  <SCORE.INTRA.norm>
0

>  <SCORE.RESTR>
0

>  <SCORE.RESTR.CAVITY>
0

>  <SCORE.RESTR.norm>
0

>  <SCORE.SYSTEM>
0

>  <SCORE.SYSTEM.CONST>
0

>  <SCORE.SYSTEM.DIHEDRAL>
0

>  <SCORE.SYSTEM.SOLV>
0

>  <SCORE.SYSTEM.norm>
0

>  <SCORE.heavy>
13

>  <SCORE.norm>
-3.01277

>  <RMSD>
0.734

$$$$
1eht cryst
 OpenBabel11021811383D
libRbt.so/2013.1/901 2013/11/27
 13 14  0  0  0  0  0  0  0  0999 V2000
   -4.7679   -7.8836   10.6057 C   0  0  0  0  0  0  0  0  0  0  0  0
   -5.2390   -7.0167   11.5875 N   0  0  0  0  0  0  0  0  0  0  0  0
   -5.6252   -7.5499   12.7900 C   0  0  0  0  0  0  0  0  0  0  0  0
   -5.5281   -8.7733   12.9049 O   0  0  0  0  0  0  0  0  0  0  0  0
   -6.1083   -6.8207   13.8470 N   0  0  0  0  0  0  0  0  0  0  0  0
   -6.4912   -7.3822   15.0541 C   0  0  0  0  0  0  0  0  0  0  0  0
   -6.1743   -5.4836   13.5875 C   0  0  0  0  0  0  0  0  0  0  0  0
   -5.7882   -4.9635   12.3862 C   0  0  0  0  0  0  0  0  0  0  0  0
   -5.2897   -5.6931   11.2917 C   0  0  0  0  0  0  0  0  0  0  0  0
   -4.9289   -5.2737   10.1930 O   0  0  0  0  0  0  0  0  0  0  0  0
   -5.9919   -3.5939   12.4860 N   0  0  0  0  0  0  0  0  0  0  0  0
   -6.4836   -3.3804   13.7295 C   0  0  0  0  0  0  0  0  0  0  0  0
   -6.6131   -4.4709   14.4332 N   0  0  0  0  0  0  0  0  0  0  0  0
  1  2  1  0  0  0  0
  2  9  1  0  0  0  0
  2  3  1  0  0  0  0
  3  5  1  0  0  0  0
  3  4  2  0  0  0  0
  5  6  1  0  0  0  0
  5  7  1  0  0  0  0
  7  8  2  0  0  0  0
  7 13  1  0  0  0  0
  8  9  1  0  0  0  0
  8 11  1  0  0  0  0
  9 10  2  0  0  0  0
 11 12  1  0  0  0  0
 12 13  2  0  0  0  0
M  END
>  <CHROM.1>
-5.75653270,-6.06404662,12.65771773,-0.76976151,1.19617476,-0.31218373

>  <Name>
1eht cryst

>  <RI>
0

>  <Rbt.Current_Directory>
/home/itssahil/PROJECTS/Mol_Feturizer/New_Systems/rnas/1eht

>  <Rbt.Executable>
rbdock ($Id: //depot/dev/client3/rdock/2013.1/src/exe/rbdock.cxx#4 $)

>  <Rbt.Library>
libRbt.so (2013.1, Build901 2013/11/27)

>  <Rbt.Parameter_File>
/export/apps/rDock/src/rDock_2013.1_src/data/scripts/dock_solv.prm

>  <Rbt.Receptor>
prm/pocket_docking_8.prm

>  <SCORE>
-39.1668

>  <SCORE.INTER>
-39.1668

>  <SCORE.INTER.CONST>
1

>  <SCORE.INTER.POLAR>
-1.93239

>  <SCORE.INTER.ROT>
0

>  <SCORE.INTER.SOLV>
9.79637

>  <SCORE.INTER.VDW>
-26.5353

>  <SCORE.INTER.norm>
-3.01283

>  <SCORE.INTRA>
0

>  <SCORE.INTRA.DIHEDRAL>
0

>  <SCORE.INTRA.DIHEDRAL.0>
0

>  <SCORE.INTRA.POLAR>
0

>  <SCORE.INTRA.POLAR.0>
0

>  <SCORE.INTRA.REPUL>
0

>  <SCORE.INTRA.REPUL.0>
0

>  <SCORE.INTRA.SOLV>
0

>  <SCORE.INTRA.SOLV.lig_0>
-12.9768

>  <SCORE.INTRA.VDW>
0

>  <SCORE.INTRA.VDW.0>
0

>  <SCORE.INTRA.norm>
0

>  <SCORE.RESTR>
0

>  <SCORE.RESTR.CAVITY>
0

>  <SCORE.RESTR.norm>
0

>  <SCORE.SYSTEM>
0

>  <SCORE.SYSTEM.CONST>
0

>  <SCORE.SYSTEM.DIHEDRAL>
0

>  <SCORE.SYSTEM.SOLV>
0

>  <SCORE.SYSTEM.norm>
0

>  <SCORE.heavy>
13

>  <SCORE.norm>
-3.01283

>  <RMSD>
0.734

$$$$
1eht cryst
 OpenBabel11021811383D
libRbt.so/2013.1/901 2013/11/27
 13 14  0  0  0  0  0  0  0  0999 V2000
   -4.7514   -7.8802   10.6101 C   0  0  0  0  0  0  0  0  0  0  0  0
   -5.2282   -7.0142   11.5899 N   0  0  0  0  0  0  0  0  0  0  0  0
   -5.6177   -7.5481   12.7911 C   0  0  0  0  0  0  0  0  0  0  0  0
   -5.5182   -8.7712   12.9065 O   0  0  0  0  0  0  0  0  0  0  0  0
   -6.1065   -6.8198   13.8461 N   0  0  0  0  0  0  0  0  0  0  0  0
   -6.4926   -7.3819   15.0518 C   0  0  0  0  0  0  0  0  0  0  0  0
   -6.1745   -5.4829   13.5861 C   0  0  0  0  0  0  0  0  0  0  0  0
   -5.7851   -4.9621   12.3861 C   0  0  0  0  0  0  0  0  0  0  0  0
   -5.2808   -5.6908   11.2937 C   0  0  0  0  0  0  0  0  0  0  0  0
   -4.9168   -5.2708   10.1962 O   0  0  0  0  0  0  0  0  0  0  0  0
   -5.9923   -3.5929   12.4849 N   0  0  0  0  0  0  0  0  0  0  0  0
   -6.4892   -3.3804   13.7265 C   0  0  0  0  0  0  0  0  0  0  0  0
   -6.6188   -4.4711   14.4299 N   0  0  0  0  0  0  0  0  0  0  0  0
  1  2  1  0  0  0  0
  2  9  1  0  0  0  0
  2  3  1  0  0  0  0
  3  5  1  0  0  0  0
  3  4  2  0  0  0  0
  5  6  1  0  0  0  0
  5  7  1  0  0  0  0
  7  8  2  0  0  0  0
  7 13  1  0  0  0  0
  8  9  1  0  0  0  0
  8 11  1  0  0  0  0
  9 10  2  0  0  0  0
 11 12  1  0  0  0  0
 12 13  2  0  0  0  0
M  END
>  <CHROM.1>
-5.75192486,-6.06254137,12.65798775,-0.76703061,1.19186286,-0.31490722

>  <Name>
1eht cryst

>  <RI>
0

>  <Rbt.Current_Directory>
/home/itssahil/PROJECTS/Mol_Feturizer/New_Systems/rnas/1eht

>  <Rbt.Executable>
rbdock ($Id: //depot/dev/client3/rdock/2013.1/src/exe/rbdock.cxx#4 $)

>  <Rbt.Library>
libRbt.so (2013.1, Build901 2013/11/27)

>  <Rbt.Parameter_File>
/export/apps/rDock/src/rDock_2013.1_src/data/scripts/dock_solv.prm

>  <Rbt.Receptor>
prm/pocket_docking_4.prm

>  <SCORE>
-39.1752

>  <SCORE.INTER>
-39.1752

>  <SCORE.INTER.CONST>
1

>  <SCORE.INTER.POLAR>
-1.93548

>  <SCORE.INTER.ROT>
0

>  <SCORE.INTER.SOLV>
9.80166

>  <SCORE.INTER.VDW>
-26.5324

>  <SCORE.INTER.norm>
-3.01347

>  <SCORE.INTRA>
0

>  <SCORE.INTRA.DIHEDRAL>
0

>  <SCORE.INTRA.DIHEDRAL.0>
0

>  <SCORE.INTRA.POLAR>
0

>  <SCORE.INTRA.POLAR.0>
0

>  <SCORE.INTRA.REPUL>
0

>  <SCORE.INTRA.REPUL.0>
0

>  <SCORE.INTRA.SOLV>
0

>  <SCORE.INTRA.SOLV.lig_0>
-12.9768

>  <SCORE.INTRA.VDW>
0

>  <SCORE.INTRA.VDW.0>
0

>  <SCORE.INTRA.norm>
0

>  <SCORE.RESTR>
0

>  <SCORE.RESTR.CAVITY>
0

>  <SCORE.RESTR.norm>
0

>  <SCORE.SYSTEM>
0

>  <SCORE.SYSTEM.CONST>
0

>  <SCORE.SYSTEM.DIHEDRAL>
0

>  <SCORE.SYSTEM.SOLV>
0

>  <SCORE.SYSTEM.norm>
0

>  <SCORE.heavy>
13

>  <SCORE.norm>
-3.01347

>  <RMSD>
0.735

$$$$
1eht cryst
 OpenBabel11021811383D
libRbt.so/2013.1/901 2013/11/27
 13 14  0  0  0  0  0  0  0  0999 V2000
   -4.7490   -7.8834   10.6117 C   0  0  0  0  0  0  0  0  0  0  0  0
   -5.2268   -7.0165   11.5903 N   0  0  0  0  0  0  0  0  0  0  0  0
   -5.6153   -7.5491   12.7924 C   0  0  0  0  0  0  0  0  0  0  0  0
   -5.5141   -8.7718   12.9098 O   0  0  0  0  0  0  0  0  0  0  0  0
   -6.1048   -6.8198   13.8464 N   0  0  0  0  0  0  0  0  0  0  0  0
   -6.4898   -7.3806   15.0531 C   0  0  0  0  0  0  0  0  0  0  0  0
   -6.1747   -5.4834   13.5843 C   0  0  0  0  0  0  0  0  0  0  0  0
   -5.7864   -4.9640   12.3835 C   0  0  0  0  0  0  0  0  0  0  0  0
   -5.2813   -5.6936   11.2920 C   0  0  0  0  0  0  0  0  0  0  0  0
   -4.9182   -5.2748   10.1939 O   0  0  0  0  0  0  0  0  0  0  0  0
   -5.9954   -3.5949   12.4802 N   0  0  0  0  0  0  0  0  0  0  0  0
   -6.4923   -3.3812   13.7216 C   0  0  0  0  0  0  0  0  0  0  0  0
   -6.6202   -4.4709   14.4267 N   0  0  0  0  0  0  0  0  0  0  0  0
  1  2  1  0  0  0  0
  2  9  1  0  0  0  0
  2  3  1  0  0  0  0
  3  5  1  0  0  0  0
  3  4  2  0  0  0  0
  5  6  1  0  0  0  0
  5  7  1  0  0  0  0
  7  8  2  0  0  0  0
  7 13  1  0  0  0  0
  8  9  1  0  0  0  0
  8 11  1  0  0  0  0
  9 10  2  0  0  0  0
 11 12  1  0  0  0  0
 12 13  2  0  0  0  0
M  END
>  <CHROM.1>
-5.75157529,-6.06391477,12.65706399,-0.76323938,1.19167745,-0.31999113

>  <Name>
1eht cryst

>  <RI>
0

>  <Rbt.Current_Directory>
/home/itssahil/PROJECTS/Mol_Feturizer/New_Systems/rnas/1eht

>  <Rbt.Executable>
rbdock ($Id: //depot/dev/client3/rdock/2013.1/src/exe/rbdock.cxx#4 $)

>  <Rbt.Library>
libRbt.so (2013.1, Build901 2013/11/27)

>  <Rbt.Parameter_File>
/export/apps/rDock/src/rDock_2013.1_src/data/scripts/dock_solv.prm

>  <Rbt.Receptor>
prm/pocket_docking_2.prm

>  <SCORE>
-39.1758

>  <SCORE.INTER>
-39.1758

>  <SCORE.INTER.CONST>
1

>  <SCORE.INTER.POLAR>
-1.93678

>  <SCORE.INTER.ROT>
0

>  <SCORE.INTER.SOLV>
9.79541

>  <SCORE.INTER.VDW>
-26.5264

>  <SCORE.INTER.norm>
-3.01352

>  <SCORE.INTRA>
0

>  <SCORE.INTRA.DIHEDRAL>
0

>  <SCORE.INTRA.DIHEDRAL.0>
0

>  <SCORE.INTRA.POLAR>
0

>  <SCORE.INTRA.POLAR.0>
0

>  <SCORE.INTRA.REPUL>
0

>  <SCORE.INTRA.REPUL.0>
0

>  <SCORE.INTRA.SOLV>
0

>  <SCORE.INTRA.SOLV.lig_0>
-12.9768

>  <SCORE.INTRA.VDW>
0

>  <SCORE.INTRA.VDW.0>
0

>  <SCORE.INTRA.norm>
0

>  <SCORE.RESTR>
0

>  <SCORE.RESTR.CAVITY>
0

>  <SCORE.RESTR.norm>
0

>  <SCORE.SYSTEM>
0

>  <SCORE.SYSTEM.CONST>
0

>  <SCORE.SYSTEM.DIHEDRAL>
0

>  <SCORE.SYSTEM.SOLV>
0

>  <SCORE.SYSTEM.norm>
0

>  <SCORE.heavy>
13

>  <SCORE.norm>
-3.01352

>  <RMSD>
0.736

$$$$
1eht cryst
 OpenBabel11021811383D
libRbt.so/2013.1/901 2013/11/27
 13 14  0  0  0  0  0  0  0  0999 V2000
   -4.7577   -7.8842   10.6111 C   0  0  0  0  0  0  0  0  0  0  0  0
   -5.2325   -7.0168   11.5907 N   0  0  0  0  0  0  0  0  0  0  0  0
   -5.6200   -7.5491   12.7933 C   0  0  0  0  0  0  0  0  0  0  0  0
   -5.5206   -8.7721   12.9101 O   0  0  0  0  0  0  0  0  0  0  0  0
   -6.1066   -6.8194   13.8483 N   0  0  0  0  0  0  0  0  0  0  0  0
   -6.4908   -7.3799   15.0554 C   0  0  0  0  0  0  0  0  0  0  0  0
   -6.1748   -5.4828   13.5867 C   0  0  0  0  0  0  0  0  0  0  0  0
   -5.7874   -4.9636   12.3854 C   0  0  0  0  0  0  0  0  0  0  0  0
   -5.2853   -5.6937   11.2930 C   0  0  0  0  0  0  0  0  0  0  0  0
   -4.9231   -5.2752   10.1944 O   0  0  0  0  0  0  0  0  0  0  0  0
   -5.9941   -3.5942   12.4828 N   0  0  0  0  0  0  0  0  0  0  0  0
   -6.4887   -3.3800   13.7251 C   0  0  0  0  0  0  0  0  0  0  0  0
   -6.6173   -4.4698   14.4301 N   0  0  0  0  0  0  0  0  0  0  0  0
  1  2  1  0  0  0  0
  2  9  1  0  0  0  0
  2  3  1  0  0  0  0
  3  5  1  0  0  0  0
  3  4  2  0  0  0  0
  5  6  1  0  0  0  0
  5  7  1  0  0  0  0
  7  8  2  0  0  0  0
  7 13  1  0  0  0  0
  8  9  1  0  0  0  0
  8 11  1  0  0  0  0
  9 10  2  0  0  0  0
 11 12  1  0  0  0  0
 12 13  2  0  0  0  0
M  END
>  <CHROM.1>
-5.75403179,-6.06369314,12.65860501,-0.76620778,1.19366000,-0.31691897

>  <Name>
1eht cryst

>  <RI>
0

>  <Rbt.Current_Directory>
/home/itssahil/PROJECTS/Mol_Feturizer/New_Systems/rnas/1eht

>  <Rbt.Executable>
rbdock ($Id: //depot/dev/client3/rdock/2013.1/src/exe/rbdock.cxx#4 $)

>  <Rbt.Library>
libRbt.so (2013.1, Build901 2013/11/27)

>  <Rbt.Parameter_File>
/export/apps/rDock/src/rDock_2013.1_src/data/scripts/dock_solv.prm

>  <Rbt.Receptor>
prm/pocket_docking_6.prm

>  <SCORE>
-39.1705

>  <SCORE.INTER>
-39.1705

>  <SCORE.INTER.CONST>
1

>  <SCORE.INTER.POLAR>
-1.93431

>  <SCORE.INTER.ROT>
0

>  <SCORE.INTER.SOLV>
9.79575

>  <SCORE.INTER.VDW>
-26.5312

>  <SCORE.INTER.norm>
-3.01311

>  <SCORE.INTRA>
0

>  <SCORE.INTRA.DIHEDRAL>
0

>  <SCORE.INTRA.DIHEDRAL.0>
0

>  <SCORE.INTRA.POLAR>
0

>  <SCORE.INTRA.POLAR.0>
0

>  <SCORE.INTRA.REPUL>
0

>  <SCORE.INTRA.REPUL.0>
0

>  <SCORE.INTRA.SOLV>
0

>  <SCORE.INTRA.SOLV.lig_0>
-12.9768

>  <SCORE.INTRA.VDW>
0

>  <SCORE.INTRA.VDW.0>
0

>  <SCORE.INTRA.norm>
0

>  <SCORE.RESTR>
0

>  <SCORE.RESTR.CAVITY>
0

>  <SCORE.RESTR.norm>
0

>  <SCORE.SYSTEM>
0

>  <SCORE.SYSTEM.CONST>
0

>  <SCORE.SYSTEM.DIHEDRAL>
0

>  <SCORE.SYSTEM.SOLV>
0

>  <SCORE.SYSTEM.norm>
0

>  <SCORE.heavy>
13

>  <SCORE.norm>
-3.01311

>  <RMSD>
0.736

$$$$
1eht cryst
 OpenBabel11021811383D
libRbt.so/2013.1/901 2013/11/27
 13 14  0  0  0  0  0  0  0  0999 V2000
   -4.7511   -7.8838   10.6138 C   0  0  0  0  0  0  0  0  0  0  0  0
   -5.2275   -7.0167   11.5930 N   0  0  0  0  0  0  0  0  0  0  0  0
   -5.6159   -7.5493   12.7951 C   0  0  0  0  0  0  0  0  0  0  0  0
   -5.5160   -8.7722   12.9119 O   0  0  0  0  0  0  0  0  0  0  0  0
   -6.1041   -6.8199   13.8496 N   0  0  0  0  0  0  0  0  0  0  0  0
   -6.4893   -7.3808   15.0562 C   0  0  0  0  0  0  0  0  0  0  0  0
   -6.1728   -5.4833   13.5880 C   0  0  0  0  0  0  0  0  0  0  0  0
   -5.7844   -4.9638   12.3872 C   0  0  0  0  0  0  0  0  0  0  0  0
   -5.2807   -5.6936   11.2952 C   0  0  0  0  0  0  0  0  0  0  0  0
   -4.9176   -5.2748   10.1970 O   0  0  0  0  0  0  0  0  0  0  0  0
   -5.9920   -3.5946   12.4845 N   0  0  0  0  0  0  0  0  0  0  0  0
   -6.4881   -3.3808   13.7262 C   0  0  0  0  0  0  0  0  0  0  0  0
   -6.6168   -4.4707   14.4310 N   0  0  0  0  0  0  0  0  0  0  0  0
  1  2  1  0  0  0  0
  2  9  1  0  0  0  0
  2  3  1  0  0  0  0
  3  5  1  0  0  0  0
  3  4  2  0  0  0  0
  5  6  1  0  0  0  0
  5  7  1  0  0  0  0
  7  8  2  0  0  0  0
  7 13  1  0  0  0  0
  8  9  1  0  0  0  0
  8 11  1  0  0  0  0
  9 10  2  0  0  0  0
 11 12  1  0  0  0  0
 12 13  2  0  0  0  0
M  END
>  <CHROM.1>
-5.75070943,-6.06394963,12.66032978,-0.76561290,1.19245857,-0.31740532

>  <Name>
1eht cryst

>  <RI>
0

>  <Rbt.Current_Directory>
/home/itssahil/PROJECTS/Mol_Feturizer/New_Systems/rnas/1eht

>  <Rbt.Executable>
rbdock ($Id: //depot/dev/client3/rdock/2013.1/src/exe/rbdock.cxx#4 $)

>  <Rbt.Library>
libRbt.so (2013.1, Build901 2013/11/27)

>  <Rbt.Parameter_File>
/export/apps/rDock/src/rDock_2013.1_src/data/scripts/dock_solv.prm

>  <Rbt.Receptor>
prm/blind_docking_100.prm

>  <SCORE>
-39.1734

>  <SCORE.INTER>
-39.1734

>  <SCORE.INTER.CONST>
1

>  <SCORE.INTER.POLAR>
-1.93433

>  <SCORE.INTER.ROT>
0

>  <SCORE.INTER.SOLV>
9.79647

>  <SCORE.INTER.VDW>
-26.5334

>  <SCORE.INTER.norm>
-3.01334

>  <SCORE.INTRA>
0

>  <SCORE.INTRA.DIHEDRAL>
0

>  <SCORE.INTRA.DIHEDRAL.0>
0

>  <SCORE.INTRA.POLAR>
0

>  <SCORE.INTRA.POLAR.0>
0

>  <SCORE.INTRA.REPUL>
0

>  <SCORE.INTRA.REPUL.0>
0

>  <SCORE.INTRA.SOLV>
0

>  <SCORE.INTRA.SOLV.lig_0>
-12.9768

>  <SCORE.INTRA.VDW>
0

>  <SCORE.INTRA.VDW.0>
0

>  <SCORE.INTRA.norm>
0

>  <SCORE.RESTR>
0

>  <SCORE.RESTR.CAVITY>
0

>  <SCORE.RESTR.norm>
0

>  <SCORE.SYSTEM>
0

>  <SCORE.SYSTEM.CONST>
0

>  <SCORE.SYSTEM.DIHEDRAL>
0

>  <SCORE.SYSTEM.SOLV>
0

>  <SCORE.SYSTEM.norm>
0

>  <SCORE.heavy>
13

>  <SCORE.norm>
-3.01334

>  <RMSD>
0.737

$$$$
1eht cryst
 OpenBabel11021811383D
libRbt.so/2013.1/901 2013/11/27
 13 14  0  0  0  0  0  0  0  0999 V2000
   -4.7483   -7.8816   10.6137 C   0  0  0  0  0  0  0  0  0  0  0  0
   -5.2268   -7.0150   11.5922 N   0  0  0  0  0  0  0  0  0  0  0  0
   -5.6174   -7.5482   12.7934 C   0  0  0  0  0  0  0  0  0  0  0  0
   -5.5174   -8.7712   12.9099 O   0  0  0  0  0  0  0  0  0  0  0  0
   -6.1079   -6.8194   13.8472 N   0  0  0  0  0  0  0  0  0  0  0  0
   -6.4951   -7.3808   15.0529 C   0  0  0  0  0  0  0  0  0  0  0  0
   -6.1764   -5.4827   13.5861 C   0  0  0  0  0  0  0  0  0  0  0  0
   -5.7859   -4.9627   12.3862 C   0  0  0  0  0  0  0  0  0  0  0  0
   -5.2799   -5.6919   11.2949 C   0  0  0  0  0  0  0  0  0  0  0  0
   -4.9148   -5.2726   10.1976 O   0  0  0  0  0  0  0  0  0  0  0  0
   -5.9941   -3.5936   12.4836 N   0  0  0  0  0  0  0  0  0  0  0  0
   -6.4926   -3.3804   13.7244 C   0  0  0  0  0  0  0  0  0  0  0  0
   -6.6224   -4.4705   14.4286 N   0  0  0  0  0  0  0  0  0  0  0  0
  1  2  1  0  0  0  0
  2  9  1  0  0  0  0
  2  3  1  0  0  0  0
  3  5  1  0  0  0  0
  3  4  2  0  0  0  0
  5  6  1  0  0  0  0
  5  7  1  0  0  0  0
  7  8  2  0  0  0  0
  7 13  1  0  0  0  0
  8  9  1  0  0  0  0
  8 11  1  0  0  0  0
  9 10  2  0  0  0  0
 11 12  1  0  0  0  0
 12 13  2  0  0  0  0
M  END
>  <CHROM.1>
-5.75239739,-6.06287473,12.65894409,-0.76645216,1.19054487,-0.31624221

>  <Name>
1eht cryst

>  <RI>
0

>  <Rbt.Current_Directory>
/home/itssahil/PROJECTS/Mol_Feturizer/New_Systems/rnas/1eht

>  <Rbt.Executable>
rbdock ($Id: //depot/dev/client3/rdock/2013.1/src/exe/rbdock.cxx#4 $)

>  <Rbt.Library>
libRbt.so (2013.1, Build901 2013/11/27)

>  <Rbt.Parameter_File>
/export/apps/rDock/src/rDock_2013.1_src/data/scripts/dock_solv.prm

>  <Rbt.Receptor>
prm/blind_docking_100.prm

>  <SCORE>
-39.176

>  <SCORE.INTER>
-39.176

>  <SCORE.INTER.CONST>
1

>  <SCORE.INTER.POLAR>
-1.93679

>  <SCORE.INTER.ROT>
0

>  <SCORE.INTER.SOLV>
9.80015

>  <SCORE.INTER.VDW>
-26.5281

>  <SCORE.INTER.norm>
-3.01354

>  <SCORE.INTRA>
0

>  <SCORE.INTRA.DIHEDRAL>
0

>  <SCORE.INTRA.DIHEDRAL.0>
0

>  <SCORE.INTRA.POLAR>
0

>  <SCORE.INTRA.POLAR.0>
0

>  <SCORE.INTRA.REPUL>
0

>  <SCORE.INTRA.REPUL.0>
0

>  <SCORE.INTRA.SOLV>
0

>  <SCORE.INTRA.SOLV.lig_0>
-12.9768

>  <SCORE.INTRA.VDW>
0

>  <SCORE.INTRA.VDW.0>
0

>  <SCORE.INTRA.norm>
0

>  <SCORE.RESTR>
0

>  <SCORE.RESTR.CAVITY>
0

>  <SCORE.RESTR.norm>
0

>  <SCORE.SYSTEM>
0

>  <SCORE.SYSTEM.CONST>
0

>  <SCORE.SYSTEM.DIHEDRAL>
0

>  <SCORE.SYSTEM.SOLV>
0

>  <SCORE.SYSTEM.norm>
0

>  <SCORE.heavy>
13

>  <SCORE.norm>
-3.01354

>  <RMSD>
0.737

$$$$
1eht cryst
 OpenBabel11021811383D
libRbt.so/2013.1/901 2013/11/27
 13 14  0  0  0  0  0  0  0  0999 V2000
   -4.7690   -7.8888   10.5940 C   0  0  0  0  0  0  0  0  0  0  0  0
   -5.2507   -7.0120   11.5618 N   0  0  0  0  0  0  0  0  0  0  0  0
   -5.6308   -7.5306   12.7727 C   0  0  0  0  0  0  0  0  0  0  0  0
   -5.5192   -8.7507   12.9070 O   0  0  0  0  0  0  0  0  0  0  0  0
   -6.1229   -6.7905   13.8179 N   0  0  0  0  0  0  0  0  0  0  0  0
   -6.4994   -7.3372   15.0337 C   0  0  0  0  0  0  0  0  0  0  0  0
   -6.2047   -5.4586   13.5371 C   0  0  0  0  0  0  0  0  0  0  0  0
   -5.8245   -4.9531   12.3277 C   0  0  0  0  0  0  0  0  0  0  0  0
   -5.3171   -5.6940   11.2450 C   0  0  0  0  0  0  0  0  0  0  0  0
   -4.9609   -5.2879   10.1398 O   0  0  0  0  0  0  0  0  0  0  0  0
   -6.0446   -3.5845   12.4056 N   0  0  0  0  0  0  0  0  0  0  0  0
   -6.5391   -3.3572   13.6455 C   0  0  0  0  0  0  0  0  0  0  0  0
   -6.6558   -4.4378   14.3665 N   0  0  0  0  0  0  0  0  0  0  0  0
  1  2  1  0  0  0  0
  2  9  1  0  0  0  0
  2  3  1  0  0  0  0
  3  5  1  0  0  0  0
  3  4  2  0  0  0  0
  5  6  1  0  0  0  0
  5  7  1  0  0  0  0
  7  8  2  0  0  0  0
  7 13  1  0  0  0  0
  8  9  1  0  0  0  0
  8 11  1  0  0  0  0
  9 10  2  0  0  0  0
 11 12  1  0  0  0  0
 12 13  2  0  0  0  0
M  END
>  <CHROM.1>
-5.77979061,-6.04869268,12.61670323,-0.73931288,1.19208199,-0.35642127

>  <Name>
1eht cryst

>  <RI>
0

>  <Rbt.Current_Directory>
/home/itssahil/PROJECTS/Mol_Feturizer/New_Systems/rnas/1eht

>  <Rbt.Executable>
rbdock ($Id: //depot/dev/client3/rdock/2013.1/src/exe/rbdock.cxx#4 $)

>  <Rbt.Library>
libRbt.so (2013.1, Build901 2013/11/27)

>  <Rbt.Parameter_File>
/export/apps/rDock/src/rDock_2013.1_src/data/scripts/dock_solv.prm

>  <Rbt.Receptor>
prm/blind_docking_40.prm

>  <SCORE>
-39.1374

>  <SCORE.INTER>
-39.1374

>  <SCORE.INTER.CONST>
1

>  <SCORE.INTER.POLAR>
-1.94076

>  <SCORE.INTER.ROT>
0

>  <SCORE.INTER.SOLV>
9.79505

>  <SCORE.INTER.VDW>
-26.4874

>  <SCORE.INTER.norm>
-3.01057

>  <SCORE.INTRA>
0

>  <SCORE.INTRA.DIHEDRAL>
0

>  <SCORE.INTRA.DIHEDRAL.0>
0

>  <SCORE.INTRA.POLAR>
0

>  <SCORE.INTRA.POLAR.0>
0

>  <SCORE.INTRA.REPUL>
0

>  <SCORE.INTRA.REPUL.0>
0

>  <SCORE.INTRA.SOLV>
0

>  <SCORE.INTRA.SOLV.lig_0>
-12.9768

>  <SCORE.INTRA.VDW>
0

>  <SCORE.INTRA.VDW.0>
0

>  <SCORE.INTRA.norm>
0

>  <SCORE.RESTR>
0

>  <SCORE.RESTR.CAVITY>
0

>  <SCORE.RESTR.norm>
0

>  <SCORE.SYSTEM>
0

>  <SCORE.SYSTEM.CONST>
0

>  <SCORE.SYSTEM.DIHEDRAL>
0

>  <SCORE.SYSTEM.SOLV>
0

>  <SCORE.SYSTEM.norm>
0

>  <SCORE.heavy>
13

>  <SCORE.norm>
-3.01057

>  <RMSD>
0.737

$$$$
1eht cryst
 OpenBabel11021811383D
libRbt.so/2013.1/901 2013/11/27
 13 14  0  0  0  0  0  0  0  0999 V2000
   -4.7467   -7.8836   10.6140 C   0  0  0  0  0  0  0  0  0  0  0  0
   -5.2258   -7.0166   11.5919 N   0  0  0  0  0  0  0  0  0  0  0  0
   -5.6158   -7.5492   12.7935 C   0  0  0  0  0  0  0  0  0  0  0  0
   -5.5148   -8.7720   12.9110 O   0  0  0  0  0  0  0  0  0  0  0  0
   -6.1067   -6.8199   13.8469 N   0  0  0  0  0  0  0  0  0  0  0  0
   -6.4934   -7.3807   15.0531 C   0  0  0  0  0  0  0  0  0  0  0  0
   -6.1763   -5.4835   13.5847 C   0  0  0  0  0  0  0  0  0  0  0  0
   -5.7864   -4.9641   12.3844 C   0  0  0  0  0  0  0  0  0  0  0  0
   -5.2799   -5.6937   11.2936 C   0  0  0  0  0  0  0  0  0  0  0  0
   -4.9153   -5.2750   10.1959 O   0  0  0  0  0  0  0  0  0  0  0  0
   -5.9956   -3.5950   12.4807 N   0  0  0  0  0  0  0  0  0  0  0  0
   -6.4941   -3.3813   13.7215 C   0  0  0  0  0  0  0  0  0  0  0  0
   -6.6229   -4.4710   14.4265 N   0  0  0  0  0  0  0  0  0  0  0  0
  1  2  1  0  0  0  0
  2  9  1  0  0  0  0
  2  3  1  0  0  0  0
  3  5  1  0  0  0  0
  3  4  2  0  0  0  0
  5  6  1  0  0  0  0
  5  7  1  0  0  0  0
  7  8  2  0  0  0  0
  7 13  1  0  0  0  0
  8  9  1  0  0  0  0
  8 11  1  0  0  0  0
  9 10  2  0  0  0  0
 11 12  1  0  0  0  0
 12 13  2  0  0  0  0
M  END
>  <CHROM.1>
-5.75195795,-6.06402942,12.65798213,-0.76437613,1.19043489,-0.31894136

>  <Name>
1eht cryst

>  <RI>
0

>  <Rbt.Current_Directory>
/home/itssahil/PROJECTS/Mol_Feturizer/New_Systems/rnas/1eht

>  <Rbt.Executable>
rbdock ($Id: //depot/dev/client3/rdock/2013.1/src/exe/rbdock.cxx#4 $)

>  <Rbt.Library>
libRbt.so (2013.1, Build901 2013/11/27)

>  <Rbt.Parameter_File>
/export/apps/rDock/src/rDock_2013.1_src/data/scripts/dock_solv.prm

>  <Rbt.Receptor>
prm/blind_docking_40.prm

>  <SCORE>
-39.1773

>  <SCORE.INTER>
-39.1773

>  <SCORE.INTER.CONST>
1

>  <SCORE.INTER.POLAR>
-1.93783

>  <SCORE.INTER.ROT>
0

>  <SCORE.INTER.SOLV>
9.79614

>  <SCORE.INTER.VDW>
-26.5242

>  <SCORE.INTER.norm>
-3.01364

>  <SCORE.INTRA>
0

>  <SCORE.INTRA.DIHEDRAL>
0

>  <SCORE.INTRA.DIHEDRAL.0>
0

>  <SCORE.INTRA.POLAR>
0

>  <SCORE.INTRA.POLAR.0>
0

>  <SCORE.INTRA.REPUL>
0

>  <SCORE.INTRA.REPUL.0>
0

>  <SCORE.INTRA.SOLV>
0

>  <SCORE.INTRA.SOLV.lig_0>
-12.9768

>  <SCORE.INTRA.VDW>
0

>  <SCORE.INTRA.VDW.0>
0

>  <SCORE.INTRA.norm>
0

>  <SCORE.RESTR>
0

>  <SCORE.RESTR.CAVITY>
0

>  <SCORE.RESTR.norm>
0

>  <SCORE.SYSTEM>
0

>  <SCORE.SYSTEM.CONST>
0

>  <SCORE.SYSTEM.DIHEDRAL>
0

>  <SCORE.SYSTEM.SOLV>
0

>  <SCORE.SYSTEM.norm>
0

>  <SCORE.heavy>
13

>  <SCORE.norm>
-3.01364

>  <RMSD>
0.737

$$$$
1eht cryst
 OpenBabel11021811383D
libRbt.so/2013.1/901 2013/11/27
 13 14  0  0  0  0  0  0  0  0999 V2000
   -4.7554   -7.8862   10.6127 C   0  0  0  0  0  0  0  0  0  0  0  0
   -5.2311   -7.0184   11.5916 N   0  0  0  0  0  0  0  0  0  0  0  0
   -5.6183   -7.5501   12.7946 C   0  0  0  0  0  0  0  0  0  0  0  0
   -5.5179   -8.7729   12.9123 O   0  0  0  0  0  0  0  0  0  0  0  0
   -6.1056   -6.8200   13.8489 N   0  0  0  0  0  0  0  0  0  0  0  0
   -6.4894   -7.3799   15.0564 C   0  0  0  0  0  0  0  0  0  0  0  0
   -6.1749   -5.4837   13.5863 C   0  0  0  0  0  0  0  0  0  0  0  0
   -5.7878   -4.9651   12.3847 C   0  0  0  0  0  0  0  0  0  0  0  0
   -5.2850   -5.6956   11.2928 C   0  0  0  0  0  0  0  0  0  0  0  0
   -4.9231   -5.2776   10.1940 O   0  0  0  0  0  0  0  0  0  0  0  0
   -5.9957   -3.5958   12.4811 N   0  0  0  0  0  0  0  0  0  0  0  0
   -6.4906   -3.3811   13.7231 C   0  0  0  0  0  0  0  0  0  0  0  0
   -6.6184   -4.4704   14.4289 N   0  0  0  0  0  0  0  0  0  0  0  0
  1  2  1  0  0  0  0
  2  9  1  0  0  0  0
  2  3  1  0  0  0  0
  3  5  1  0  0  0  0
  3  4  2  0  0  0  0
  5  6  1  0  0  0  0
  5  7  1  0  0  0  0
  7  8  2  0  0  0  0
  7 13  1  0  0  0  0
  8  9  1  0  0  0  0
  8 11  1  0  0  0  0
  9 10  2  0  0  0  0
 11 12  1  0  0  0  0
 12 13  2  0  0  0  0
M  END
>  <CHROM.1>
-5.75355593,-6.06492915,12.65870681,-0.76409731,1.19330413,-0.31964125

>  <Name>
1eht cryst

>  <RI>
0

>  <Rbt.Current_Directory>
/home/itssahil/PROJECTS/Mol_Feturizer/New_Systems/rnas/1eht

>  <Rbt.Executable>
rbdock ($Id: //depot/dev/client3/rdock/2013.1/src/exe/rbdock.cxx#4 $)

>  <Rbt.Library>
libRbt.so (2013.1, Build901 2013/11/27)

>  <Rbt.Parameter_File>
/export/apps/rDock/src/rDock_2013.1_src/data/scripts/dock_solv.prm

>  <Rbt.Receptor>
prm/blind_docking_40.prm

>  <SCORE>
-39.1724

>  <SCORE.INTER>
-39.1724

>  <SCORE.INTER.CONST>
1

>  <SCORE.INTER.POLAR>
-1.93526

>  <SCORE.INTER.ROT>
0

>  <SCORE.INTER.SOLV>
9.79152

>  <SCORE.INTER.VDW>
-26.5279

>  <SCORE.INTER.norm>
-3.01326

>  <SCORE.INTRA>
0

>  <SCORE.INTRA.DIHEDRAL>
0

>  <SCORE.INTRA.DIHEDRAL.0>
0

>  <SCORE.INTRA.POLAR>
0

>  <SCORE.INTRA.POLAR.0>
0

>  <SCORE.INTRA.REPUL>
0

>  <SCORE.INTRA.REPUL.0>
0

>  <SCORE.INTRA.SOLV>
0

>  <SCORE.INTRA.SOLV.lig_0>
-12.9768

>  <SCORE.INTRA.VDW>
0

>  <SCORE.INTRA.VDW.0>
0

>  <SCORE.INTRA.norm>
0

>  <SCORE.RESTR>
0

>  <SCORE.RESTR.CAVITY>
0

>  <SCORE.RESTR.norm>
0

>  <SCORE.SYSTEM>
0

>  <SCORE.SYSTEM.CONST>
0

>  <SCORE.SYSTEM.DIHEDRAL>
0

>  <SCORE.SYSTEM.SOLV>
0

>  <SCORE.SYSTEM.norm>
0

>  <SCORE.heavy>
13

>  <SCORE.norm>
-3.01326

>  <RMSD>
0.737

$$$$
1eht cryst
 OpenBabel11021811383D
libRbt.so/2013.1/901 2013/11/27
 13 14  0  0  0  0  0  0  0  0999 V2000
   -4.7497   -7.8744   10.6103 C   0  0  0  0  0  0  0  0  0  0  0  0
   -5.2293   -7.0067   11.5874 N   0  0  0  0  0  0  0  0  0  0  0  0
   -5.6228   -7.5387   12.7881 C   0  0  0  0  0  0  0  0  0  0  0  0
   -5.5243   -8.7617   12.9056 O   0  0  0  0  0  0  0  0  0  0  0  0
   -6.1147   -6.8087   13.8405 N   0  0  0  0  0  0  0  0  0  0  0  0
   -6.5049   -7.3689   15.0457 C   0  0  0  0  0  0  0  0  0  0  0  0
   -6.1813   -5.4722   13.5783 C   0  0  0  0  0  0  0  0  0  0  0  0
   -5.7879   -4.9533   12.3788 C   0  0  0  0  0  0  0  0  0  0  0  0
   -5.2804   -5.6837   11.2891 C   0  0  0  0  0  0  0  0  0  0  0  0
   -4.9126   -5.2654   10.1922 O   0  0  0  0  0  0  0  0  0  0  0  0
   -5.9948   -3.5839   12.4750 N   0  0  0  0  0  0  0  0  0  0  0  0
   -6.4956   -3.3693   13.7147 C   0  0  0  0  0  0  0  0  0  0  0  0
   -6.6279   -4.4589   14.4193 N   0  0  0  0  0  0  0  0  0  0  0  0
  1  2  1  0  0  0  0
  2  9  1  0  0  0  0
  2  3  1  0  0  0  0
  3  5  1  0  0  0  0
  3  4  2  0  0  0  0
  5  6  1  0  0  0  0
  5  7  1  0  0  0  0
  7  8  2  0  0  0  0
  7 13  1  0  0  0  0
  8  9  1  0  0  0  0
  8 11  1  0  0  0  0
  9 10  2  0  0  0  0
 11 12  1  0  0  0  0
 12 13  2  0  0  0  0
M  END
>  <CHROM.1>
-5.75599945,-6.05331230,12.65240922,-0.77075687,1.18894785,-0.31289134

>  <Name>
1eht cryst

>  <RI>
0

>  <Rbt.Current_Directory>
/home/itssahil/PROJECTS/Mol_Feturizer/New_Systems/rnas/1eht

>  <Rbt.Executable>
rbdock ($Id: //depot/dev/client3/rdock/2013.1/src/exe/rbdock.cxx#4 $)

>  <Rbt.Library>
libRbt.so (2013.1, Build901 2013/11/27)

>  <Rbt.Parameter_File>
/export/apps/rDock/src/rDock_2013.1_src/data/scripts/dock_solv.prm

>  <Rbt.Receptor>
prm/blind_docking_40.prm

>  <SCORE>
-39.1625

>  <SCORE.INTER>
-39.1625

>  <SCORE.INTER.CONST>
1

>  <SCORE.INTER.POLAR>
-1.93683

>  <SCORE.INTER.ROT>
0

>  <SCORE.INTER.SOLV>
9.82233

>  <SCORE.INTER.VDW>
-26.5263

>  <SCORE.INTER.norm>
-3.0125

>  <SCORE.INTRA>
0

>  <SCORE.INTRA.DIHEDRAL>
0

>  <SCORE.INTRA.DIHEDRAL.0>
0

>  <SCORE.INTRA.POLAR>
0

>  <SCORE.INTRA.POLAR.0>
0

>  <SCORE.INTRA.REPUL>
0

>  <SCORE.INTRA.REPUL.0>
0

>  <SCORE.INTRA.SOLV>
0

>  <SCORE.INTRA.SOLV.lig_0>
-12.9768

>  <SCORE.INTRA.VDW>
0

>  <SCORE.INTRA.VDW.0>
0

>  <SCORE.INTRA.norm>
0

>  <SCORE.RESTR>
0

>  <SCORE.RESTR.CAVITY>
0

>  <SCORE.RESTR.norm>
0

>  <SCORE.SYSTEM>
0

>  <SCORE.SYSTEM.CONST>
0

>  <SCORE.SYSTEM.DIHEDRAL>
0

>  <SCORE.SYSTEM.SOLV>
0

>  <SCORE.SYSTEM.norm>
0

>  <SCORE.heavy>
13

>  <SCORE.norm>
-3.0125

>  <RMSD>
0.737

$$$$
1eht cryst
 OpenBabel11021811383D
libRbt.so/2013.1/901 2013/11/27
 13 14  0  0  0  0  0  0  0  0999 V2000
   -4.7601   -7.9083   10.5985 C   0  0  0  0  0  0  0  0  0  0  0  0
   -5.2367   -7.0309   11.5684 N   0  0  0  0  0  0  0  0  0  0  0  0
   -5.6108   -7.5489   12.7814 C   0  0  0  0  0  0  0  0  0  0  0  0
   -5.4987   -8.7689   12.9157 O   0  0  0  0  0  0  0  0  0  0  0  0
   -6.0973   -6.8081   13.8288 N   0  0  0  0  0  0  0  0  0  0  0  0
   -6.4677   -7.3542   15.0467 C   0  0  0  0  0  0  0  0  0  0  0  0
   -6.1803   -5.4763   13.5477 C   0  0  0  0  0  0  0  0  0  0  0  0
   -5.8062   -4.9715   12.3362 C   0  0  0  0  0  0  0  0  0  0  0  0
   -5.3044   -5.7130   11.2513 C   0  0  0  0  0  0  0  0  0  0  0  0
   -4.9539   -5.3075   10.1440 O   0  0  0  0  0  0  0  0  0  0  0  0
   -6.0256   -3.6029   12.4146 N   0  0  0  0  0  0  0  0  0  0  0  0
   -6.5138   -3.3749   13.6569 C   0  0  0  0  0  0  0  0  0  0  0  0
   -6.6270   -4.4551   14.3790 N   0  0  0  0  0  0  0  0  0  0  0  0
  1  2  1  0  0  0  0
  2  9  1  0  0  0  0
  2  3  1  0  0  0  0
  3  5  1  0  0  0  0
  3  4  2  0  0  0  0
  5  6  1  0  0  0  0
  5  7  1  0  0  0  0
  7  8  2  0  0  0  0
  7 13  1  0  0  0  0
  8  9  1  0  0  0  0
  8 11  1  0  0  0  0
  9 10  2  0  0  0  0
 11 12  1  0  0  0  0
 12 13  2  0  0  0  0
M  END
>  <CHROM.1>
-5.76024570,-6.06700320,12.62549427,-0.73494809,1.19692578,-0.36095442

>  <Name>
1eht cryst

>  <RI>
0

>  <Rbt.Current_Directory>
/home/itssahil/PROJECTS/Mol_Feturizer/New_Systems/rnas/1eht

>  <Rbt.Executable>
rbdock ($Id: //depot/dev/client3/rdock/2013.1/src/exe/rbdock.cxx#4 $)

>  <Rbt.Library>
libRbt.so (2013.1, Build901 2013/11/27)

>  <Rbt.Parameter_File>
/export/apps/rDock/src/rDock_2013.1_src/data/scripts/dock_solv.prm

>  <Rbt.Receptor>
prm/blind_docking_40.prm

>  <SCORE>
-39.1821

>  <SCORE.INTER>
-39.1821

>  <SCORE.INTER.CONST>
1

>  <SCORE.INTER.POLAR>
-1.94726

>  <SCORE.INTER.ROT>
0

>  <SCORE.INTER.SOLV>
9.75666

>  <SCORE.INTER.VDW>
-26.4827

>  <SCORE.INTER.norm>
-3.014

>  <SCORE.INTRA>
0

>  <SCORE.INTRA.DIHEDRAL>
0

>  <SCORE.INTRA.DIHEDRAL.0>
0

>  <SCORE.INTRA.POLAR>
0

>  <SCORE.INTRA.POLAR.0>
0

>  <SCORE.INTRA.REPUL>
0

>  <SCORE.INTRA.REPUL.0>
0

>  <SCORE.INTRA.SOLV>
0

>  <SCORE.INTRA.SOLV.lig_0>
-12.9768

>  <SCORE.INTRA.VDW>
0

>  <SCORE.INTRA.VDW.0>
0

>  <SCORE.INTRA.norm>
0

>  <SCORE.RESTR>
0

>  <SCORE.RESTR.CAVITY>
0

>  <SCORE.RESTR.norm>
0

>  <SCORE.SYSTEM>
0

>  <SCORE.SYSTEM.CONST>
0

>  <SCORE.SYSTEM.DIHEDRAL>
0

>  <SCORE.SYSTEM.SOLV>
0

>  <SCORE.SYSTEM.norm>
0

>  <SCORE.heavy>
13

>  <SCORE.norm>
-3.014

>  <RMSD>
0.737

$$$$
1eht cryst
 OpenBabel11021811383D
libRbt.so/2013.1/901 2013/11/27
 13 14  0  0  0  0  0  0  0  0999 V2000
   -4.7907   -7.8904   10.6051 C   0  0  0  0  0  0  0  0  0  0  0  0
   -5.2556   -7.0213   11.5880 N   0  0  0  0  0  0  0  0  0  0  0  0
   -5.6403   -7.5528   12.7919 C   0  0  0  0  0  0  0  0  0  0  0  0
   -5.5475   -8.7764   12.9069 O   0  0  0  0  0  0  0  0  0  0  0  0
   -6.1175   -6.8214   13.8501 N   0  0  0  0  0  0  0  0  0  0  0  0
   -6.4990   -7.3811   15.0584 C   0  0  0  0  0  0  0  0  0  0  0  0
   -6.1792   -5.4842   13.5903 C   0  0  0  0  0  0  0  0  0  0  0  0
   -5.7948   -4.9659   12.3877 C   0  0  0  0  0  0  0  0  0  0  0  0
   -5.3022   -5.6977   11.2920 C   0  0  0  0  0  0  0  0  0  0  0  0
   -4.9431   -5.2800   10.1921 O   0  0  0  0  0  0  0  0  0  0  0  0
   -5.9930   -3.5955   12.4877 N   0  0  0  0  0  0  0  0  0  0  0  0
   -6.4802   -3.3798   13.7325 C   0  0  0  0  0  0  0  0  0  0  0  0
   -6.6117   -4.4696   14.4370 N   0  0  0  0  0  0  0  0  0  0  0  0
  1  2  1  0  0  0  0
  2  9  1  0  0  0  0
  2  3  1  0  0  0  0
  3  5  1  0  0  0  0
  3  4  2  0  0  0  0
  5  6  1  0  0  0  0
  5  7  1  0  0  0  0
  7  8  2  0  0  0  0
  7 13  1  0  0  0  0
  8  9  1  0  0  0  0
  8 11  1  0  0  0  0
  9 10  2  0  0  0  0
 11 12  1  0  0  0  0
 12 13  2  0  0  0  0
M  END
>  <CHROM.1>
-5.76640711,-6.06644521,12.65950075,-0.77715203,1.20011764,-0.30561152

>  <Name>
1eht cryst

>  <RI>
0

>  <Rbt.Current_Directory>
/home/itssahil/PROJECTS/Mol_Feturizer/New_Systems/rnas/1eht

>  <Rbt.Executable>
rbdock ($Id: //depot/dev/client3/rdock/2013.1/src/exe/rbdock.cxx#4 $)

>  <Rbt.Library>
libRbt.so (2013.1, Build901 2013/11/27)

>  <Rbt.Parameter_File>
/export/apps/rDock/src/rDock_2013.1_src/data/scripts/dock_solv.prm

>  <Rbt.Receptor>
prm/blind_docking_60.prm

>  <SCORE>
-39.1527

>  <SCORE.INTER>
-39.1527

>  <SCORE.INTER.CONST>
1

>  <SCORE.INTER.POLAR>
-1.93038

>  <SCORE.INTER.ROT>
0

>  <SCORE.INTER.SOLV>
9.78888

>  <SCORE.INTER.VDW>
-26.5302

>  <SCORE.INTER.norm>
-3.01174

>  <SCORE.INTRA>
0

>  <SCORE.INTRA.DIHEDRAL>
0

>  <SCORE.INTRA.DIHEDRAL.0>
0

>  <SCORE.INTRA.POLAR>
0

>  <SCORE.INTRA.POLAR.0>
0

>  <SCORE.INTRA.REPUL>
0

>  <SCORE.INTRA.REPUL.0>
0

>  <SCORE.INTRA.SOLV>
0

>  <SCORE.INTRA.SOLV.lig_0>
-12.9768

>  <SCORE.INTRA.VDW>
0

>  <SCORE.INTRA.VDW.0>
0

>  <SCORE.INTRA.norm>
0

>  <SCORE.RESTR>
0

>  <SCORE.RESTR.CAVITY>
0

>  <SCORE.RESTR.norm>
0

>  <SCORE.SYSTEM>
0

>  <SCORE.SYSTEM.CONST>
0

>  <SCORE.SYSTEM.DIHEDRAL>
0

>  <SCORE.SYSTEM.SOLV>
0

>  <SCORE.SYSTEM.norm>
0

>  <SCORE.heavy>
13

>  <SCORE.norm>
-3.01174

>  <RMSD>
0.737

$$$$
1eht cryst
 OpenBabel11021811383D
libRbt.so/2013.1/901 2013/11/27
 13 14  0  0  0  0  0  0  0  0999 V2000
   -4.7565   -7.8839   10.6000 C   0  0  0  0  0  0  0  0  0  0  0  0
   -5.2439   -7.0097   11.5675 N   0  0  0  0  0  0  0  0  0  0  0  0
   -5.6209   -7.5303   12.7785 C   0  0  0  0  0  0  0  0  0  0  0  0
   -5.5016   -8.7497   12.9132 O   0  0  0  0  0  0  0  0  0  0  0  0
   -6.1177   -6.7929   13.8233 N   0  0  0  0  0  0  0  0  0  0  0  0
   -6.4910   -7.3416   15.0393 C   0  0  0  0  0  0  0  0  0  0  0  0
   -6.2079   -5.4617   13.5421 C   0  0  0  0  0  0  0  0  0  0  0  0
   -5.8308   -4.9542   12.3325 C   0  0  0  0  0  0  0  0  0  0  0  0
   -5.3185   -5.6923   11.2502 C   0  0  0  0  0  0  0  0  0  0  0  0
   -4.9648   -5.2844   10.1448 O   0  0  0  0  0  0  0  0  0  0  0  0
   -6.0594   -3.5871   12.4099 N   0  0  0  0  0  0  0  0  0  0  0  0
   -6.5556   -3.3624   13.6497 C   0  0  0  0  0  0  0  0  0  0  0  0
   -6.6655   -4.4435   14.3711 N   0  0  0  0  0  0  0  0  0  0  0  0
  1  2  1  0  0  0  0
  2  9  1  0  0  0  0
  2  3  1  0  0  0  0
  3  5  1  0  0  0  0
  3  4  2  0  0  0  0
  5  6  1  0  0  0  0
  5  7  1  0  0  0  0
  7  8  2  0  0  0  0
  7 13  1  0  0  0  0
  8  9  1  0  0  0  0
  8 11  1  0  0  0  0
  9 10  2  0  0  0  0
 11 12  1  0  0  0  0
 12 13  2  0  0  0  0
M  END
>  <CHROM.1>
-5.77918004,-6.04943104,12.62194162,-0.72358015,1.18970783,-0.37138580

>  <Name>
1eht cryst

>  <RI>
0

>  <Rbt.Current_Directory>
/home/itssahil/PROJECTS/Mol_Feturizer/New_Systems/rnas/1eht

>  <Rbt.Executable>
rbdock ($Id: //depot/dev/client3/rdock/2013.1/src/exe/rbdock.cxx#4 $)

>  <Rbt.Library>
libRbt.so (2013.1, Build901 2013/11/27)

>  <Rbt.Parameter_File>
/export/apps/rDock/src/rDock_2013.1_src/data/scripts/dock_solv.prm

>  <Rbt.Receptor>
prm/pocket_docking_2.prm

>  <SCORE>
-39.1554

>  <SCORE.INTER>
-39.1554

>  <SCORE.INTER.CONST>
1

>  <SCORE.INTER.POLAR>
-1.93411

>  <SCORE.INTER.ROT>
0

>  <SCORE.INTER.SOLV>
9.7861

>  <SCORE.INTER.VDW>
-26.5186

>  <SCORE.INTER.norm>
-3.01196

>  <SCORE.INTRA>
0

>  <SCORE.INTRA.DIHEDRAL>
0

>  <SCORE.INTRA.DIHEDRAL.0>
0

>  <SCORE.INTRA.POLAR>
0

>  <SCORE.INTRA.POLAR.0>
0

>  <SCORE.INTRA.REPUL>
0

>  <SCORE.INTRA.REPUL.0>
0

>  <SCORE.INTRA.SOLV>
0

>  <SCORE.INTRA.SOLV.lig_0>
-12.9768

>  <SCORE.INTRA.VDW>
0

>  <SCORE.INTRA.VDW.0>
0

>  <SCORE.INTRA.norm>
0

>  <SCORE.RESTR>
0

>  <SCORE.RESTR.CAVITY>
0

>  <SCORE.RESTR.norm>
0

>  <SCORE.SYSTEM>
0

>  <SCORE.SYSTEM.CONST>
0

>  <SCORE.SYSTEM.DIHEDRAL>
0

>  <SCORE.SYSTEM.SOLV>
0

>  <SCORE.SYSTEM.norm>
0

>  <SCORE.heavy>
13

>  <SCORE.norm>
-3.01196

>  <RMSD>
0.737

$$$$
1eht cryst
 OpenBabel11021811383D
libRbt.so/2013.1/901 2013/11/27
 13 14  0  0  0  0  0  0  0  0999 V2000
   -4.7487   -7.8833   10.6140 C   0  0  0  0  0  0  0  0  0  0  0  0
   -5.2268   -7.0163   11.5924 N   0  0  0  0  0  0  0  0  0  0  0  0
   -5.6170   -7.5491   12.7939 C   0  0  0  0  0  0  0  0  0  0  0  0
   -5.5171   -8.7720   12.9108 O   0  0  0  0  0  0  0  0  0  0  0  0
   -6.1071   -6.8198   13.8476 N   0  0  0  0  0  0  0  0  0  0  0  0
   -6.4940   -7.3808   15.0537 C   0  0  0  0  0  0  0  0  0  0  0  0
   -6.1755   -5.4833   13.5860 C   0  0  0  0  0  0  0  0  0  0  0  0
   -5.7854   -4.9636   12.3858 C   0  0  0  0  0  0  0  0  0  0  0  0
   -5.2798   -5.6933   11.2946 C   0  0  0  0  0  0  0  0  0  0  0  0
   -4.9150   -5.2743   10.1971 O   0  0  0  0  0  0  0  0  0  0  0  0
   -5.9933   -3.5945   12.4829 N   0  0  0  0  0  0  0  0  0  0  0  0
   -6.4914   -3.3808   13.7238 C   0  0  0  0  0  0  0  0  0  0  0  0
   -6.6211   -4.4707   14.4284 N   0  0  0  0  0  0  0  0  0  0  0  0
  1  2  1  0  0  0  0
  2  9  1  0  0  0  0
  2  3  1  0  0  0  0
  3  5  1  0  0  0  0
  3  4  2  0  0  0  0
  5  6  1  0  0  0  0
  5  7  1  0  0  0  0
  7  8  2  0  0  0  0
  7 13  1  0  0  0  0
  8  9  1  0  0  0  0
  8 11  1  0  0  0  0
  9 10  2  0  0  0  0
 11 12  1  0  0  0  0
 12 13  2  0  0  0  0
M  END
>  <CHROM.1>
-5.75187197,-6.06374129,12.65898356,-0.76646990,1.19089564,-0.31656204

>  <Name>
1eht cryst

>  <RI>
0

>  <Rbt.Current_Directory>
/home/itssahil/PROJECTS/Mol_Feturizer/New_Systems/rnas/1eht

>  <Rbt.Executable>
rbdock ($Id: //depot/dev/client3/rdock/2013.1/src/exe/rbdock.cxx#4 $)

>  <Rbt.Library>
libRbt.so (2013.1, Build901 2013/11/27)

>  <Rbt.Parameter_File>
/export/apps/rDock/src/rDock_2013.1_src/data/scripts/dock_solv.prm

>  <Rbt.Receptor>
prm/pocket_docking_6.prm

>  <SCORE>
-39.1754

>  <SCORE.INTER>
-39.1754

>  <SCORE.INTER.CONST>
1

>  <SCORE.INTER.POLAR>
-1.93655

>  <SCORE.INTER.ROT>
0

>  <SCORE.INTER.SOLV>
9.79803

>  <SCORE.INTER.VDW>
-26.5278

>  <SCORE.INTER.norm>
-3.01349

>  <SCORE.INTRA>
0

>  <SCORE.INTRA.DIHEDRAL>
0

>  <SCORE.INTRA.DIHEDRAL.0>
0

>  <SCORE.INTRA.POLAR>
0

>  <SCORE.INTRA.POLAR.0>
0

>  <SCORE.INTRA.REPUL>
0

>  <SCORE.INTRA.REPUL.0>
0

>  <SCORE.INTRA.SOLV>
0

>  <SCORE.INTRA.SOLV.lig_0>
-12.9768

>  <SCORE.INTRA.VDW>
0

>  <SCORE.INTRA.VDW.0>
0

>  <SCORE.INTRA.norm>
0

>  <SCORE.RESTR>
0

>  <SCORE.RESTR.CAVITY>
0

>  <SCORE.RESTR.norm>
0

>  <SCORE.SYSTEM>
0

>  <SCORE.SYSTEM.CONST>
0

>  <SCORE.SYSTEM.DIHEDRAL>
0

>  <SCORE.SYSTEM.SOLV>
0

>  <SCORE.SYSTEM.norm>
0

>  <SCORE.heavy>
13

>  <SCORE.norm>
-3.01349

>  <RMSD>
0.737

$$$$
1eht cryst
 OpenBabel11021811383D
libRbt.so/2013.1/901 2013/11/27
 13 14  0  0  0  0  0  0  0  0999 V2000
   -4.7620   -7.8749   10.6094 C   0  0  0  0  0  0  0  0  0  0  0  0
   -5.2335   -7.0060   11.5893 N   0  0  0  0  0  0  0  0  0  0  0  0
   -5.6189   -7.5367   12.7932 C   0  0  0  0  0  0  0  0  0  0  0  0
   -5.5208   -8.7598   12.9109 O   0  0  0  0  0  0  0  0  0  0  0  0
   -6.1022   -6.8054   13.8486 N   0  0  0  0  0  0  0  0  0  0  0  0
   -6.4843   -7.3644   15.0571 C   0  0  0  0  0  0  0  0  0  0  0  0
   -6.1693   -5.4690   13.5860 C   0  0  0  0  0  0  0  0  0  0  0  0
   -5.7840   -4.9514   12.3834 C   0  0  0  0  0  0  0  0  0  0  0  0
   -5.2853   -5.6832   11.2904 C   0  0  0  0  0  0  0  0  0  0  0  0
   -4.9251   -5.2661   10.1906 O   0  0  0  0  0  0  0  0  0  0  0  0
   -5.9887   -3.5817   12.4800 N   0  0  0  0  0  0  0  0  0  0  0  0
   -6.4802   -3.3657   13.7232 C   0  0  0  0  0  0  0  0  0  0  0  0
   -6.6086   -4.4547   14.4295 N   0  0  0  0  0  0  0  0  0  0  0  0
  1  2  1  0  0  0  0
  2  9  1  0  0  0  0
  2  3  1  0  0  0  0
  3  5  1  0  0  0  0
  3  4  2  0  0  0  0
  5  6  1  0  0  0  0
  5  7  1  0  0  0  0
  7  8  2  0  0  0  0
  7 13  1  0  0  0  0
  8  9  1  0  0  0  0
  8 11  1  0  0  0  0
  9 10  2  0  0  0  0
 11 12  1  0  0  0  0
 12 13  2  0  0  0  0
M  END
>  <CHROM.1>
-5.75139213,-6.05129190,12.65746183,-0.76753281,1.19624313,-0.31659022

>  <Name>
1eht cryst

>  <RI>
0

>  <Rbt.Current_Directory>
/home/itssahil/PROJECTS/Mol_Feturizer/New_Systems/rnas/1eht

>  <Rbt.Executable>
rbdock ($Id: //depot/dev/client3/rdock/2013.1/src/exe/rbdock.cxx#4 $)

>  <Rbt.Library>
libRbt.so (2013.1, Build901 2013/11/27)

>  <Rbt.Parameter_File>
/export/apps/rDock/src/rDock_2013.1_src/data/scripts/dock_solv.prm

>  <Rbt.Receptor>
prm/pocket_docking_6.prm

>  <SCORE>
-39.1725

>  <SCORE.INTER>
-39.1725

>  <SCORE.INTER.CONST>
1

>  <SCORE.INTER.POLAR>
-1.92562

>  <SCORE.INTER.ROT>
0

>  <SCORE.INTER.SOLV>
9.82099

>  <SCORE.INTER.VDW>
-26.5699

>  <SCORE.INTER.norm>
-3.01327

>  <SCORE.INTRA>
0

>  <SCORE.INTRA.DIHEDRAL>
0

>  <SCORE.INTRA.DIHEDRAL.0>
0

>  <SCORE.INTRA.POLAR>
0

>  <SCORE.INTRA.POLAR.0>
0

>  <SCORE.INTRA.REPUL>
0

>  <SCORE.INTRA.REPUL.0>
0

>  <SCORE.INTRA.SOLV>
0

>  <SCORE.INTRA.SOLV.lig_0>
-12.9768

>  <SCORE.INTRA.VDW>
0

>  <SCORE.INTRA.VDW.0>
0

>  <SCORE.INTRA.norm>
0

>  <SCORE.RESTR>
0

>  <SCORE.RESTR.CAVITY>
0

>  <SCORE.RESTR.norm>
0

>  <SCORE.SYSTEM>
0

>  <SCORE.SYSTEM.CONST>
0

>  <SCORE.SYSTEM.DIHEDRAL>
0

>  <SCORE.SYSTEM.SOLV>
0

>  <SCORE.SYSTEM.norm>
0

>  <SCORE.heavy>
13

>  <SCORE.norm>
-3.01327

>  <RMSD>
0.737

$$$$
1eht cryst
 OpenBabel11021811383D
libRbt.so/2013.1/901 2013/11/27
 13 14  0  0  0  0  0  0  0  0999 V2000
   -4.7510   -7.8841   10.6132 C   0  0  0  0  0  0  0  0  0  0  0  0
   -5.2277   -7.0170   11.5921 N   0  0  0  0  0  0  0  0  0  0  0  0
   -5.6154   -7.5494   12.7945 C   0  0  0  0  0  0  0  0  0  0  0  0
   -5.5145   -8.7722   12.9119 O   0  0  0  0  0  0  0  0  0  0  0  0
   -6.1038   -6.8199   13.8489 N   0  0  0  0  0  0  0  0  0  0  0  0
   -6.4881   -7.3805   15.0559 C   0  0  0  0  0  0  0  0  0  0  0  0
   -6.1735   -5.4835   13.5868 C   0  0  0  0  0  0  0  0  0  0  0  0
   -5.7860   -4.9642   12.3856 C   0  0  0  0  0  0  0  0  0  0  0  0
   -5.2820   -5.6941   11.2938 C   0  0  0  0  0  0  0  0  0  0  0  0
   -4.9196   -5.2755   10.1953 O   0  0  0  0  0  0  0  0  0  0  0  0
   -5.9945   -3.5951   12.4823 N   0  0  0  0  0  0  0  0  0  0  0  0
   -6.4903   -3.3811   13.7241 C   0  0  0  0  0  0  0  0  0  0  0  0
   -6.6180   -4.4708   14.4295 N   0  0  0  0  0  0  0  0  0  0  0  0
  1  2  1  0  0  0  0
  2  9  1  0  0  0  0
  2  3  1  0  0  0  0
  3  5  1  0  0  0  0
  3  4  2  0  0  0  0
  5  6  1  0  0  0  0
  5  7  1  0  0  0  0
  7  8  2  0  0  0  0
  7 13  1  0  0  0  0
  8  9  1  0  0  0  0
  8 11  1  0  0  0  0
  9 10  2  0  0  0  0
 11 12  1  0  0  0  0
 12 13  2  0  0  0  0
M  END
>  <CHROM.1>
-5.75130792,-6.06417559,12.65919380,-0.76341564,1.19252890,-0.31988498

>  <Name>
1eht cryst

>  <RI>
224

>  <Rbt.Current_Directory>
/home/itssahil/PROJECTS/Mol_Feturizer/New_Systems/rnas/1eht

>  <Rbt.Executable>
rbdock ($Id: //depot/dev/client3/rdock/2013.1/src/exe/rbdock.cxx#4 $)

>  <Rbt.Library>
libRbt.so (2013.1, Build901 2013/11/27)

>  <Rbt.Parameter_File>
/export/apps/rDock/src/rDock_2013.1_src/data/scripts/dock_solv.prm

>  <Rbt.Receptor>
prm/pocket_docking_7.prm

>  <SCORE>
-39.1742

>  <SCORE.INTER>
-39.1742

>  <SCORE.INTER.CONST>
1

>  <SCORE.INTER.POLAR>
-1.93512

>  <SCORE.INTER.ROT>
0

>  <SCORE.INTER.SOLV>
9.79423

>  <SCORE.INTER.VDW>
-26.5305

>  <SCORE.INTER.norm>
-3.0134

>  <SCORE.INTRA>
0

>  <SCORE.INTRA.DIHEDRAL>
0

>  <SCORE.INTRA.DIHEDRAL.0>
0

>  <SCORE.INTRA.POLAR>
0

>  <SCORE.INTRA.POLAR.0>
0

>  <SCORE.INTRA.REPUL>
0

>  <SCORE.INTRA.REPUL.0>
0

>  <SCORE.INTRA.SOLV>
0

>  <SCORE.INTRA.SOLV.lig_0>
-12.9768

>  <SCORE.INTRA.VDW>
0

>  <SCORE.INTRA.VDW.0>
0

>  <SCORE.INTRA.norm>
0

>  <SCORE.RESTR>
0

>  <SCORE.RESTR.CAVITY>
0

>  <SCORE.RESTR.norm>
0

>  <SCORE.SYSTEM>
0

>  <SCORE.SYSTEM.CONST>
0

>  <SCORE.SYSTEM.DIHEDRAL>
0

>  <SCORE.SYSTEM.SOLV>
0

>  <SCORE.SYSTEM.norm>
0

>  <SCORE.heavy>
13

>  <SCORE.norm>
-3.0134

>  <RMSD>
0.737

$$$$
1eht cryst
 OpenBabel11021811383D
libRbt.so/2013.1/901 2013/11/27
 13 14  0  0  0  0  0  0  0  0999 V2000
   -4.7471   -7.8840   10.6141 C   0  0  0  0  0  0  0  0  0  0  0  0
   -5.2261   -7.0170   11.5920 N   0  0  0  0  0  0  0  0  0  0  0  0
   -5.6158   -7.5495   12.7938 C   0  0  0  0  0  0  0  0  0  0  0  0
   -5.5146   -8.7723   12.9114 O   0  0  0  0  0  0  0  0  0  0  0  0
   -6.1066   -6.8202   13.8471 N   0  0  0  0  0  0  0  0  0  0  0  0
   -6.4930   -7.3809   15.0535 C   0  0  0  0  0  0  0  0  0  0  0  0
   -6.1764   -5.4839   13.5848 C   0  0  0  0  0  0  0  0  0  0  0  0
   -5.7868   -4.9645   12.3843 C   0  0  0  0  0  0  0  0  0  0  0  0
   -5.2804   -5.6942   11.2935 C   0  0  0  0  0  0  0  0  0  0  0  0
   -4.9161   -5.2755   10.1957 O   0  0  0  0  0  0  0  0  0  0  0  0
   -5.9961   -3.5955   12.4806 N   0  0  0  0  0  0  0  0  0  0  0  0
   -6.4944   -3.3816   13.7215 C   0  0  0  0  0  0  0  0  0  0  0  0
   -6.6230   -4.4713   14.4266 N   0  0  0  0  0  0  0  0  0  0  0  0
  1  2  1  0  0  0  0
  2  9  1  0  0  0  0
  2  3  1  0  0  0  0
  3  5  1  0  0  0  0
  3  4  2  0  0  0  0
  5  6  1  0  0  0  0
  5  7  1  0  0  0  0
  7  8  2  0  0  0  0
  7 13  1  0  0  0  0
  8  9  1  0  0  0  0
  8 11  1  0  0  0  0
  9 10  2  0  0  0  0
 11 12  1  0  0  0  0
 12 13  2  0  0  0  0
M  END
>  <CHROM.1>
-5.75216046,-6.06442647,12.65808294,-0.76391224,1.19057026,-0.31947420

>  <Name>
1eht cryst

>  <RI>
0

>  <Rbt.Current_Directory>
/home/itssahil/PROJECTS/Mol_Feturizer/New_Systems/rnas/1eht

>  <Rbt.Executable>
rbdock ($Id: //depot/dev/client3/rdock/2013.1/src/exe/rbdock.cxx#4 $)

>  <Rbt.Library>
libRbt.so (2013.1, Build901 2013/11/27)

>  <Rbt.Parameter_File>
/export/apps/rDock/src/rDock_2013.1_src/data/scripts/dock_solv.prm

>  <Rbt.Receptor>
prm/pocket_docking_8.prm

>  <SCORE>
-39.1779

>  <SCORE.INTER>
-39.1779

>  <SCORE.INTER.CONST>
1

>  <SCORE.INTER.POLAR>
-1.93794

>  <SCORE.INTER.ROT>
0

>  <SCORE.INTER.SOLV>
9.79478

>  <SCORE.INTER.VDW>
-26.5237

>  <SCORE.INTER.norm>
-3.01369

>  <SCORE.INTRA>
0

>  <SCORE.INTRA.DIHEDRAL>
0

>  <SCORE.INTRA.DIHEDRAL.0>
0

>  <SCORE.INTRA.POLAR>
0

>  <SCORE.INTRA.POLAR.0>
0

>  <SCORE.INTRA.REPUL>
0

>  <SCORE.INTRA.REPUL.0>
0

>  <SCORE.INTRA.SOLV>
0

>  <SCORE.INTRA.SOLV.lig_0>
-12.9768

>  <SCORE.INTRA.VDW>
0

>  <SCORE.INTRA.VDW.0>
0

>  <SCORE.INTRA.norm>
0

>  <SCORE.RESTR>
0

>  <SCORE.RESTR.CAVITY>
0

>  <SCORE.RESTR.norm>
0

>  <SCORE.SYSTEM>
0

>  <SCORE.SYSTEM.CONST>
0

>  <SCORE.SYSTEM.DIHEDRAL>
0

>  <SCORE.SYSTEM.SOLV>
0

>  <SCORE.SYSTEM.norm>
0

>  <SCORE.heavy>
13

>  <SCORE.norm>
-3.01369

>  <RMSD>
0.737

$$$$
1eht cryst
 OpenBabel11021811383D
libRbt.so/2013.1/901 2013/11/27
 13 14  0  0  0  0  0  0  0  0999 V2000
   -4.7521   -7.8814   10.6129 C   0  0  0  0  0  0  0  0  0  0  0  0
   -5.2281   -7.0148   11.5926 N   0  0  0  0  0  0  0  0  0  0  0  0
   -5.6186   -7.5482   12.7937 C   0  0  0  0  0  0  0  0  0  0  0  0
   -5.5206   -8.7715   12.9091 O   0  0  0  0  0  0  0  0  0  0  0  0
   -6.1066   -6.8194   13.8486 N   0  0  0  0  0  0  0  0  0  0  0  0
   -6.4938   -7.3811   15.0542 C   0  0  0  0  0  0  0  0  0  0  0  0
   -6.1730   -5.4824   13.5886 C   0  0  0  0  0  0  0  0  0  0  0  0
   -5.7826   -4.9621   12.3887 C   0  0  0  0  0  0  0  0  0  0  0  0
   -5.2790   -5.6913   11.2964 C   0  0  0  0  0  0  0  0  0  0  0  0
   -4.9141   -5.2718   10.1991 O   0  0  0  0  0  0  0  0  0  0  0  0
   -5.9881   -3.5926   12.4875 N   0  0  0  0  0  0  0  0  0  0  0  0
   -6.4851   -3.3795   13.7290 C   0  0  0  0  0  0  0  0  0  0  0  0
   -6.6162   -4.4700   14.4324 N   0  0  0  0  0  0  0  0  0  0  0  0
  1  2  1  0  0  0  0
  2  9  1  0  0  0  0
  2  3  1  0  0  0  0
  3  5  1  0  0  0  0
  3  4  2  0  0  0  0
  5  6  1  0  0  0  0
  5  7  1  0  0  0  0
  7  8  2  0  0  0  0
  7 13  1  0  0  0  0
  8  9  1  0  0  0  0
  8 11  1  0  0  0  0
  9 10  2  0  0  0  0
 11 12  1  0  0  0  0
 12 13  2  0  0  0  0
M  END
>  <CHROM.1>
-5.75087255,-6.06254329,12.66059330,-0.77044866,1.19202000,-0.31170795

>  <Name>
1eht cryst

>  <RI>
0

>  <Rbt.Current_Directory>
/home/itssahil/PROJECTS/Mol_Feturizer/New_Systems/rnas/1eht

>  <Rbt.Executable>
rbdock ($Id: //depot/dev/client3/rdock/2013.1/src/exe/rbdock.cxx#4 $)

>  <Rbt.Library>
libRbt.so (2013.1, Build901 2013/11/27)

>  <Rbt.Parameter_File>
/export/apps/rDock/src/rDock_2013.1_src/data/scripts/dock_solv.prm

>  <Rbt.Receptor>
prm/pocket_docking_8.prm

>  <SCORE>
-39.1703

>  <SCORE.INTER>
-39.1703

>  <SCORE.INTER.CONST>
1

>  <SCORE.INTER.POLAR>
-1.93346

>  <SCORE.INTER.ROT>
0

>  <SCORE.INTER.SOLV>
9.80347

>  <SCORE.INTER.VDW>
-26.5365

>  <SCORE.INTER.norm>
-3.0131

>  <SCORE.INTRA>
0

>  <SCORE.INTRA.DIHEDRAL>
0

>  <SCORE.INTRA.DIHEDRAL.0>
0

>  <SCORE.INTRA.POLAR>
0

>  <SCORE.INTRA.POLAR.0>
0

>  <SCORE.INTRA.REPUL>
0

>  <SCORE.INTRA.REPUL.0>
0

>  <SCORE.INTRA.SOLV>
0

>  <SCORE.INTRA.SOLV.lig_0>
-12.9768

>  <SCORE.INTRA.VDW>
0

>  <SCORE.INTRA.VDW.0>
0

>  <SCORE.INTRA.norm>
0

>  <SCORE.RESTR>
0

>  <SCORE.RESTR.CAVITY>
0

>  <SCORE.RESTR.norm>
0

>  <SCORE.SYSTEM>
0

>  <SCORE.SYSTEM.CONST>
0

>  <SCORE.SYSTEM.DIHEDRAL>
0

>  <SCORE.SYSTEM.SOLV>
0

>  <SCORE.SYSTEM.norm>
0

>  <SCORE.heavy>
13

>  <SCORE.norm>
-3.0131

>  <RMSD>
0.737

$$$$
1eht cryst
 OpenBabel11021811383D
libRbt.so/2013.1/901 2013/11/27
 13 14  0  0  0  0  0  0  0  0999 V2000
   -4.7622   -7.8851   10.6131 C   0  0  0  0  0  0  0  0  0  0  0  0
   -5.2362   -7.0174   11.5929 N   0  0  0  0  0  0  0  0  0  0  0  0
   -5.6259   -7.5497   12.7947 C   0  0  0  0  0  0  0  0  0  0  0  0
   -5.5291   -8.7730   12.9107 O   0  0  0  0  0  0  0  0  0  0  0  0
   -6.1120   -6.8197   13.8497 N   0  0  0  0  0  0  0  0  0  0  0  0
   -6.4985   -7.3804   15.0561 C   0  0  0  0  0  0  0  0  0  0  0  0
   -6.1772   -5.4829   13.5890 C   0  0  0  0  0  0  0  0  0  0  0  0
   -5.7876   -4.9636   12.3884 C   0  0  0  0  0  0  0  0  0  0  0  0
   -5.2860   -5.6940   11.2960 C   0  0  0  0  0  0  0  0  0  0  0  0
   -4.9219   -5.2755   10.1980 O   0  0  0  0  0  0  0  0  0  0  0  0
   -5.9916   -3.5939   12.4866 N   0  0  0  0  0  0  0  0  0  0  0  0
   -6.4869   -3.3796   13.7285 C   0  0  0  0  0  0  0  0  0  0  0  0
   -6.6185   -4.4695   14.4327 N   0  0  0  0  0  0  0  0  0  0  0  0
  1  2  1  0  0  0  0
  2  9  1  0  0  0  0
  2  3  1  0  0  0  0
  3  5  1  0  0  0  0
  3  4  2  0  0  0  0
  5  6  1  0  0  0  0
  5  7  1  0  0  0  0
  7  8  2  0  0  0  0
  7 13  1  0  0  0  0
  8  9  1  0  0  0  0
  8 11  1  0  0  0  0
  9 10  2  0  0  0  0
 11 12  1  0  0  0  0
 12 13  2  0  0  0  0
M  END
>  <CHROM.1>
-5.75676751,-6.06397776,12.66089379,-0.77227885,1.19338558,-0.31057750

>  <Name>
1eht cryst

>  <RI>
0

>  <Rbt.Current_Directory>
/home/itssahil/PROJECTS/Mol_Feturizer/New_Systems/rnas/1eht

>  <Rbt.Executable>
rbdock ($Id: //depot/dev/client3/rdock/2013.1/src/exe/rbdock.cxx#4 $)

>  <Rbt.Library>
libRbt.so (2013.1, Build901 2013/11/27)

>  <Rbt.Parameter_File>
/export/apps/rDock/src/rDock_2013.1_src/data/scripts/dock_solv.prm

>  <Rbt.Receptor>
prm/blind_docking_40.prm

>  <SCORE>
-39.1677

>  <SCORE.INTER>
-39.1677

>  <SCORE.INTER.CONST>
1

>  <SCORE.INTER.POLAR>
-1.93389

>  <SCORE.INTER.ROT>
0

>  <SCORE.INTER.SOLV>
9.79806

>  <SCORE.INTER.VDW>
-26.5315

>  <SCORE.INTER.norm>
-3.0129

>  <SCORE.INTRA>
0

>  <SCORE.INTRA.DIHEDRAL>
0

>  <SCORE.INTRA.DIHEDRAL.0>
0

>  <SCORE.INTRA.POLAR>
0

>  <SCORE.INTRA.POLAR.0>
0

>  <SCORE.INTRA.REPUL>
0

>  <SCORE.INTRA.REPUL.0>
0

>  <SCORE.INTRA.SOLV>
0

>  <SCORE.INTRA.SOLV.lig_0>
-12.9768

>  <SCORE.INTRA.VDW>
0

>  <SCORE.INTRA.VDW.0>
0

>  <SCORE.INTRA.norm>
0

>  <SCORE.RESTR>
0

>  <SCORE.RESTR.CAVITY>
0

>  <SCORE.RESTR.norm>
0

>  <SCORE.SYSTEM>
0

>  <SCORE.SYSTEM.CONST>
0

>  <SCORE.SYSTEM.DIHEDRAL>
0

>  <SCORE.SYSTEM.SOLV>
0

>  <SCORE.SYSTEM.norm>
0

>  <SCORE.heavy>
13

>  <SCORE.norm>
-3.0129

>  <RMSD>
0.738

$$$$
1eht cryst
 OpenBabel11021811383D
libRbt.so/2013.1/901 2013/11/27
 13 14  0  0  0  0  0  0  0  0999 V2000
   -4.7478   -7.8852   10.6154 C   0  0  0  0  0  0  0  0  0  0  0  0
   -5.2272   -7.0178   11.5929 N   0  0  0  0  0  0  0  0  0  0  0  0
   -5.6179   -7.5499   12.7945 C   0  0  0  0  0  0  0  0  0  0  0  0
   -5.5172   -8.7726   12.9124 O   0  0  0  0  0  0  0  0  0  0  0  0
   -6.1092   -6.8202   13.8473 N   0  0  0  0  0  0  0  0  0  0  0  0
   -6.4966   -7.3805   15.0535 C   0  0  0  0  0  0  0  0  0  0  0  0
   -6.1784   -5.4839   13.5846 C   0  0  0  0  0  0  0  0  0  0  0  0
   -5.7878   -4.9649   12.3843 C   0  0  0  0  0  0  0  0  0  0  0  0
   -5.2809   -5.6950   11.2940 C   0  0  0  0  0  0  0  0  0  0  0  0
   -4.9157   -5.2767   10.1964 O   0  0  0  0  0  0  0  0  0  0  0  0
   -5.9968   -3.5958   12.4801 N   0  0  0  0  0  0  0  0  0  0  0  0
   -6.4959   -3.3815   13.7205 C   0  0  0  0  0  0  0  0  0  0  0  0
   -6.6253   -4.4710   14.4259 N   0  0  0  0  0  0  0  0  0  0  0  0
  1  2  1  0  0  0  0
  2  9  1  0  0  0  0
  2  3  1  0  0  0  0
  3  5  1  0  0  0  0
  3  4  2  0  0  0  0
  5  6  1  0  0  0  0
  5  7  1  0  0  0  0
  7  8  2  0  0  0  0
  7 13  1  0  0  0  0
  8  9  1  0  0  0  0
  8 11  1  0  0  0  0
  9 10  2  0  0  0  0
 11 12  1  0  0  0  0
 12 13  2  0  0  0  0
M  END
>  <CHROM.1>
-5.75372522,-6.06476718,12.65832502,-0.76523685,1.19001148,-0.31848363

>  <Name>
1eht cryst

>  <RI>
0

>  <Rbt.Current_Directory>
/home/itssahil/PROJECTS/Mol_Feturizer/New_Systems/rnas/1eht

>  <Rbt.Executable>
rbdock ($Id: //depot/dev/client3/rdock/2013.1/src/exe/rbdock.cxx#4 $)

>  <Rbt.Library>
libRbt.so (2013.1, Build901 2013/11/27)

>  <Rbt.Parameter_File>
/export/apps/rDock/src/rDock_2013.1_src/data/scripts/dock_solv.prm

>  <Rbt.Receptor>
prm/pocket_docking_3.prm

>  <SCORE>
-39.177

>  <SCORE.INTER>
-39.177

>  <SCORE.INTER.CONST>
1

>  <SCORE.INTER.POLAR>
-1.93879

>  <SCORE.INTER.ROT>
0

>  <SCORE.INTER.SOLV>
9.79424

>  <SCORE.INTER.VDW>
-26.5201

>  <SCORE.INTER.norm>
-3.01361

>  <SCORE.INTRA>
0

>  <SCORE.INTRA.DIHEDRAL>
0

>  <SCORE.INTRA.DIHEDRAL.0>
0

>  <SCORE.INTRA.POLAR>
0

>  <SCORE.INTRA.POLAR.0>
0

>  <SCORE.INTRA.REPUL>
0

>  <SCORE.INTRA.REPUL.0>
0

>  <SCORE.INTRA.SOLV>
0

>  <SCORE.INTRA.SOLV.lig_0>
-12.9768

>  <SCORE.INTRA.VDW>
0

>  <SCORE.INTRA.VDW.0>
0

>  <SCORE.INTRA.norm>
0

>  <SCORE.RESTR>
0

>  <SCORE.RESTR.CAVITY>
0

>  <SCORE.RESTR.norm>
0

>  <SCORE.SYSTEM>
0

>  <SCORE.SYSTEM.CONST>
0

>  <SCORE.SYSTEM.DIHEDRAL>
0

>  <SCORE.SYSTEM.SOLV>
0

>  <SCORE.SYSTEM.norm>
0

>  <SCORE.heavy>
13

>  <SCORE.norm>
-3.01361

>  <RMSD>
0.738

$$$$
1eht cryst
 OpenBabel11021811383D
libRbt.so/2013.1/901 2013/11/27
 13 14  0  0  0  0  0  0  0  0999 V2000
   -4.7520   -7.8721   10.6138 C   0  0  0  0  0  0  0  0  0  0  0  0
   -5.2275   -7.0042   11.5927 N   0  0  0  0  0  0  0  0  0  0  0  0
   -5.6160   -7.5360   12.7952 C   0  0  0  0  0  0  0  0  0  0  0  0
   -5.5168   -8.7589   12.9126 O   0  0  0  0  0  0  0  0  0  0  0  0
   -6.1034   -6.8058   13.8495 N   0  0  0  0  0  0  0  0  0  0  0  0
   -6.4886   -7.3658   15.0565 C   0  0  0  0  0  0  0  0  0  0  0  0
   -6.1713   -5.4693   13.5873 C   0  0  0  0  0  0  0  0  0  0  0  0
   -5.7830   -4.9506   12.3861 C   0  0  0  0  0  0  0  0  0  0  0  0
   -5.2800   -5.6813   11.2943 C   0  0  0  0  0  0  0  0  0  0  0  0
   -4.9169   -5.2632   10.1958 O   0  0  0  0  0  0  0  0  0  0  0  0
   -5.9896   -3.5812   12.4827 N   0  0  0  0  0  0  0  0  0  0  0  0
   -6.4852   -3.3665   13.7245 C   0  0  0  0  0  0  0  0  0  0  0  0
   -6.6145   -4.4559   14.4299 N   0  0  0  0  0  0  0  0  0  0  0  0
  1  2  1  0  0  0  0
  2  9  1  0  0  0  0
  2  3  1  0  0  0  0
  3  5  1  0  0  0  0
  3  4  2  0  0  0  0
  5  6  1  0  0  0  0
  5  7  1  0  0  0  0
  7  8  2  0  0  0  0
  7 13  1  0  0  0  0
  8  9  1  0  0  0  0
  8 11  1  0  0  0  0
  9 10  2  0  0  0  0
 11 12  1  0  0  0  0
 12 13  2  0  0  0  0
M  END
>  <CHROM.1>
-5.74985520,-6.05061570,12.65973240,-0.76701288,1.19292406,-0.31659968

>  <Name>
1eht cryst

>  <RI>
0

>  <Rbt.Current_Directory>
/home/itssahil/PROJECTS/Mol_Feturizer/New_Systems/rnas/1eht

>  <Rbt.Executable>
rbdock ($Id: //depot/dev/client3/rdock/2013.1/src/exe/rbdock.cxx#4 $)

>  <Rbt.Library>
libRbt.so (2013.1, Build901 2013/11/27)

>  <Rbt.Parameter_File>
/export/apps/rDock/src/rDock_2013.1_src/data/scripts/dock_solv.prm

>  <Rbt.Receptor>
prm/pocket_docking_4.prm

>  <SCORE>
-39.1773

>  <SCORE.INTER>
-39.1773

>  <SCORE.INTER.CONST>
1

>  <SCORE.INTER.POLAR>
-1.92693

>  <SCORE.INTER.ROT>
0

>  <SCORE.INTER.SOLV>
9.82508

>  <SCORE.INTER.VDW>
-26.5702

>  <SCORE.INTER.norm>
-3.01364

>  <SCORE.INTRA>
0

>  <SCORE.INTRA.DIHEDRAL>
0

>  <SCORE.INTRA.DIHEDRAL.0>
0

>  <SCORE.INTRA.POLAR>
0

>  <SCORE.INTRA.POLAR.0>
0

>  <SCORE.INTRA.REPUL>
0

>  <SCORE.INTRA.REPUL.0>
0

>  <SCORE.INTRA.SOLV>
0

>  <SCORE.INTRA.SOLV.lig_0>
-12.9768

>  <SCORE.INTRA.VDW>
0

>  <SCORE.INTRA.VDW.0>
0

>  <SCORE.INTRA.norm>
0

>  <SCORE.RESTR>
0

>  <SCORE.RESTR.CAVITY>
0

>  <SCORE.RESTR.norm>
0

>  <SCORE.SYSTEM>
0

>  <SCORE.SYSTEM.CONST>
0

>  <SCORE.SYSTEM.DIHEDRAL>
0

>  <SCORE.SYSTEM.SOLV>
0

>  <SCORE.SYSTEM.norm>
0

>  <SCORE.heavy>
13

>  <SCORE.norm>
-3.01364

>  <RMSD>
0.738

$$$$
1eht cryst
 OpenBabel11021811383D
libRbt.so/2013.1/901 2013/11/27
 13 14  0  0  0  0  0  0  0  0999 V2000
   -4.7551   -7.8870   10.6143 C   0  0  0  0  0  0  0  0  0  0  0  0
   -5.2306   -7.0189   11.5929 N   0  0  0  0  0  0  0  0  0  0  0  0
   -5.6175   -7.5502   12.7962 C   0  0  0  0  0  0  0  0  0  0  0  0
   -5.5169   -8.7729   12.9144 O   0  0  0  0  0  0  0  0  0  0  0  0
   -6.1047   -6.8197   13.8504 N   0  0  0  0  0  0  0  0  0  0  0  0
   -6.4882   -7.3792   15.0582 C   0  0  0  0  0  0  0  0  0  0  0  0
   -6.1742   -5.4835   13.5873 C   0  0  0  0  0  0  0  0  0  0  0  0
   -5.7875   -4.9653   12.3853 C   0  0  0  0  0  0  0  0  0  0  0  0
   -5.2847   -5.6962   11.2937 C   0  0  0  0  0  0  0  0  0  0  0  0
   -4.9231   -5.2786   10.1945 O   0  0  0  0  0  0  0  0  0  0  0  0
   -5.9954   -3.5961   12.4812 N   0  0  0  0  0  0  0  0  0  0  0  0
   -6.4901   -3.3809   13.7232 C   0  0  0  0  0  0  0  0  0  0  0  0
   -6.6176   -4.4700   14.4296 N   0  0  0  0  0  0  0  0  0  0  0  0
  1  2  1  0  0  0  0
  2  9  1  0  0  0  0
  2  3  1  0  0  0  0
  3  5  1  0  0  0  0
  3  4  2  0  0  0  0
  5  6  1  0  0  0  0
  5  7  1  0  0  0  0
  7  8  2  0  0  0  0
  7 13  1  0  0  0  0
  8  9  1  0  0  0  0
  8 11  1  0  0  0  0
  9 10  2  0  0  0  0
 11 12  1  0  0  0  0
 12 13  2  0  0  0  0
M  END
>  <CHROM.1>
-5.75297489,-6.06507123,12.65977470,-0.76360395,1.19347043,-0.32049280

>  <Name>
1eht cryst

>  <RI>
0

>  <Rbt.Current_Directory>
/home/itssahil/PROJECTS/Mol_Feturizer/New_Systems/rnas/1eht

>  <Rbt.Executable>
rbdock ($Id: //depot/dev/client3/rdock/2013.1/src/exe/rbdock.cxx#4 $)

>  <Rbt.Library>
libRbt.so (2013.1, Build901 2013/11/27)

>  <Rbt.Parameter_File>
/export/apps/rDock/src/rDock_2013.1_src/data/scripts/dock_solv.prm

>  <Rbt.Receptor>
prm/pocket_docking_4.prm

>  <SCORE>
-39.1717

>  <SCORE.INTER>
-39.1717

>  <SCORE.INTER.CONST>
1

>  <SCORE.INTER.POLAR>
-1.93476

>  <SCORE.INTER.ROT>
0

>  <SCORE.INTER.SOLV>
9.79048

>  <SCORE.INTER.VDW>
-26.5288

>  <SCORE.INTER.norm>
-3.01321

>  <SCORE.INTRA>
0

>  <SCORE.INTRA.DIHEDRAL>
0

>  <SCORE.INTRA.DIHEDRAL.0>
0

>  <SCORE.INTRA.POLAR>
0

>  <SCORE.INTRA.POLAR.0>
0

>  <SCORE.INTRA.REPUL>
0

>  <SCORE.INTRA.REPUL.0>
0

>  <SCORE.INTRA.SOLV>
0

>  <SCORE.INTRA.SOLV.lig_0>
-12.9768

>  <SCORE.INTRA.VDW>
0

>  <SCORE.INTRA.VDW.0>
0

>  <SCORE.INTRA.norm>
0

>  <SCORE.RESTR>
0

>  <SCORE.RESTR.CAVITY>
0

>  <SCORE.RESTR.norm>
0

>  <SCORE.SYSTEM>
0

>  <SCORE.SYSTEM.CONST>
0

>  <SCORE.SYSTEM.DIHEDRAL>
0

>  <SCORE.SYSTEM.SOLV>
0

>  <SCORE.SYSTEM.norm>
0

>  <SCORE.heavy>
13

>  <SCORE.norm>
-3.01321

>  <RMSD>
0.738

$$$$
1eht cryst
 OpenBabel11021811383D
libRbt.so/2013.1/901 2013/11/27
 13 14  0  0  0  0  0  0  0  0999 V2000
   -4.7492   -7.8850   10.6146 C   0  0  0  0  0  0  0  0  0  0  0  0
   -5.2267   -7.0176   11.5929 N   0  0  0  0  0  0  0  0  0  0  0  0
   -5.6151   -7.5496   12.7953 C   0  0  0  0  0  0  0  0  0  0  0  0
   -5.5141   -8.7723   12.9131 O   0  0  0  0  0  0  0  0  0  0  0  0
   -6.1044   -6.8198   13.8491 N   0  0  0  0  0  0  0  0  0  0  0  0
   -6.4894   -7.3800   15.0560 C   0  0  0  0  0  0  0  0  0  0  0  0
   -6.1742   -5.4835   13.5864 C   0  0  0  0  0  0  0  0  0  0  0  0
   -5.7859   -4.9646   12.3853 C   0  0  0  0  0  0  0  0  0  0  0  0
   -5.2811   -5.6948   11.2941 C   0  0  0  0  0  0  0  0  0  0  0  0
   -4.9180   -5.2765   10.1957 O   0  0  0  0  0  0  0  0  0  0  0  0
   -5.9947   -3.5955   12.4814 N   0  0  0  0  0  0  0  0  0  0  0  0
   -6.4914   -3.3811   13.7228 C   0  0  0  0  0  0  0  0  0  0  0  0
   -6.6194   -4.4706   14.4284 N   0  0  0  0  0  0  0  0  0  0  0  0
  1  2  1  0  0  0  0
  2  9  1  0  0  0  0
  2  3  1  0  0  0  0
  3  5  1  0  0  0  0
  3  4  2  0  0  0  0
  5  6  1  0  0  0  0
  5  7  1  0  0  0  0
  7  8  2  0  0  0  0
  7 13  1  0  0  0  0
  8  9  1  0  0  0  0
  8 11  1  0  0  0  0
  9 10  2  0  0  0  0
 11 12  1  0  0  0  0
 12 13  2  0  0  0  0
M  END
>  <CHROM.1>
-5.75122217,-6.06446913,12.65932868,-0.76356364,1.19183459,-0.32010519

>  <Name>
1eht cryst

>  <RI>
0

>  <Rbt.Current_Directory>
/home/itssahil/PROJECTS/Mol_Feturizer/New_Systems/rnas/1eht

>  <Rbt.Executable>
rbdock ($Id: //depot/dev/client3/rdock/2013.1/src/exe/rbdock.cxx#4 $)

>  <Rbt.Library>
libRbt.so (2013.1, Build901 2013/11/27)

>  <Rbt.Parameter_File>
/export/apps/rDock/src/rDock_2013.1_src/data/scripts/dock_solv.prm

>  <Rbt.Receptor>
prm/pocket_docking_5.prm

>  <SCORE>
-39.1751

>  <SCORE.INTER>
-39.1751

>  <SCORE.INTER.CONST>
1

>  <SCORE.INTER.POLAR>
-1.93594

>  <SCORE.INTER.ROT>
0

>  <SCORE.INTER.SOLV>
9.79369

>  <SCORE.INTER.VDW>
-26.5282

>  <SCORE.INTER.norm>
-3.01347

>  <SCORE.INTRA>
0

>  <SCORE.INTRA.DIHEDRAL>
0

>  <SCORE.INTRA.DIHEDRAL.0>
0

>  <SCORE.INTRA.POLAR>
0

>  <SCORE.INTRA.POLAR.0>
0

>  <SCORE.INTRA.REPUL>
0

>  <SCORE.INTRA.REPUL.0>
0

>  <SCORE.INTRA.SOLV>
0

>  <SCORE.INTRA.SOLV.lig_0>
-12.9768

>  <SCORE.INTRA.VDW>
0

>  <SCORE.INTRA.VDW.0>
0

>  <SCORE.INTRA.norm>
0

>  <SCORE.RESTR>
0

>  <SCORE.RESTR.CAVITY>
0

>  <SCORE.RESTR.norm>
0

>  <SCORE.SYSTEM>
0

>  <SCORE.SYSTEM.CONST>
0

>  <SCORE.SYSTEM.DIHEDRAL>
0

>  <SCORE.SYSTEM.SOLV>
0

>  <SCORE.SYSTEM.norm>
0

>  <SCORE.heavy>
13

>  <SCORE.norm>
-3.01347

>  <RMSD>
0.738

$$$$
1eht cryst
 OpenBabel11021811383D
libRbt.so/2013.1/901 2013/11/27
 13 14  0  0  0  0  0  0  0  0999 V2000
   -4.7542   -7.8871   10.6142 C   0  0  0  0  0  0  0  0  0  0  0  0
   -5.2312   -7.0191   11.5923 N   0  0  0  0  0  0  0  0  0  0  0  0
   -5.6202   -7.5507   12.7947 C   0  0  0  0  0  0  0  0  0  0  0  0
   -5.5202   -8.7735   12.9128 O   0  0  0  0  0  0  0  0  0  0  0  0
   -6.1090   -6.8203   13.8483 N   0  0  0  0  0  0  0  0  0  0  0  0
   -6.4947   -7.3800   15.0553 C   0  0  0  0  0  0  0  0  0  0  0  0
   -6.1776   -5.4840   13.5854 C   0  0  0  0  0  0  0  0  0  0  0  0
   -5.7887   -4.9656   12.3843 C   0  0  0  0  0  0  0  0  0  0  0  0
   -5.2844   -5.6964   11.2933 C   0  0  0  0  0  0  0  0  0  0  0  0
   -4.9208   -5.2786   10.1949 O   0  0  0  0  0  0  0  0  0  0  0  0
   -5.9965   -3.5963   12.4802 N   0  0  0  0  0  0  0  0  0  0  0  0
   -6.4932   -3.3814   13.7214 C   0  0  0  0  0  0  0  0  0  0  0  0
   -6.6222   -4.4706   14.4272 N   0  0  0  0  0  0  0  0  0  0  0  0
  1  2  1  0  0  0  0
  2  9  1  0  0  0  0
  2  3  1  0  0  0  0
  3  5  1  0  0  0  0
  3  4  2  0  0  0  0
  5  6  1  0  0  0  0
  5  7  1  0  0  0  0
  7  8  2  0  0  0  0
  7 13  1  0  0  0  0
  8  9  1  0  0  0  0
  8 11  1  0  0  0  0
  9 10  2  0  0  0  0
 11 12  1  0  0  0  0
 12 13  2  0  0  0  0
M  END
>  <CHROM.1>
-5.75503875,-6.06546203,12.65850010,-0.76579101,1.19195137,-0.31819647

>  <Name>
1eht cryst

>  <RI>
0

>  <Rbt.Current_Directory>
/home/itssahil/PROJECTS/Mol_Feturizer/New_Systems/rnas/1eht

>  <Rbt.Executable>
rbdock ($Id: //depot/dev/client3/rdock/2013.1/src/exe/rbdock.cxx#4 $)

>  <Rbt.Library>
libRbt.so (2013.1, Build901 2013/11/27)

>  <Rbt.Parameter_File>
/export/apps/rDock/src/rDock_2013.1_src/data/scripts/dock_solv.prm

>  <Rbt.Receptor>
prm/pocket_docking_6.prm

>  <SCORE>
-39.1739

>  <SCORE.INTER>
-39.1739

>  <SCORE.INTER.CONST>
1

>  <SCORE.INTER.POLAR>
-1.93721

>  <SCORE.INTER.ROT>
0

>  <SCORE.INTER.SOLV>
9.79141

>  <SCORE.INTER.VDW>
-26.5224

>  <SCORE.INTER.norm>
-3.01338

>  <SCORE.INTRA>
0

>  <SCORE.INTRA.DIHEDRAL>
0

>  <SCORE.INTRA.DIHEDRAL.0>
0

>  <SCORE.INTRA.POLAR>
0

>  <SCORE.INTRA.POLAR.0>
0

>  <SCORE.INTRA.REPUL>
0

>  <SCORE.INTRA.REPUL.0>
0

>  <SCORE.INTRA.SOLV>
0

>  <SCORE.INTRA.SOLV.lig_0>
-12.9768

>  <SCORE.INTRA.VDW>
0

>  <SCORE.INTRA.VDW.0>
0

>  <SCORE.INTRA.norm>
0

>  <SCORE.RESTR>
0

>  <SCORE.RESTR.CAVITY>
0

>  <SCORE.RESTR.norm>
0

>  <SCORE.SYSTEM>
0

>  <SCORE.SYSTEM.CONST>
0

>  <SCORE.SYSTEM.DIHEDRAL>
0

>  <SCORE.SYSTEM.SOLV>
0

>  <SCORE.SYSTEM.norm>
0

>  <SCORE.heavy>
13

>  <SCORE.norm>
-3.01338

>  <RMSD>
0.738

$$$$
1eht cryst
 OpenBabel11021811383D
libRbt.so/2013.1/901 2013/11/27
 13 14  0  0  0  0  0  0  0  0999 V2000
   -4.7538   -7.8851   10.6152 C   0  0  0  0  0  0  0  0  0  0  0  0
   -5.2299   -7.0175   11.5940 N   0  0  0  0  0  0  0  0  0  0  0  0
   -5.6188   -7.5496   12.7962 C   0  0  0  0  0  0  0  0  0  0  0  0
   -5.5194   -8.7726   12.9134 O   0  0  0  0  0  0  0  0  0  0  0  0
   -6.1067   -6.8198   13.8505 N   0  0  0  0  0  0  0  0  0  0  0  0
   -6.4922   -7.3801   15.0573 C   0  0  0  0  0  0  0  0  0  0  0  0
   -6.1748   -5.4832   13.5886 C   0  0  0  0  0  0  0  0  0  0  0  0
   -5.7861   -4.9642   12.3876 C   0  0  0  0  0  0  0  0  0  0  0  0
   -5.2825   -5.6946   11.2959 C   0  0  0  0  0  0  0  0  0  0  0  0
   -4.9191   -5.2762   10.1977 O   0  0  0  0  0  0  0  0  0  0  0  0
   -5.9930   -3.5949   12.4845 N   0  0  0  0  0  0  0  0  0  0  0  0
   -6.4891   -3.3805   13.7262 C   0  0  0  0  0  0  0  0  0  0  0  0
   -6.6184   -4.4701   14.4313 N   0  0  0  0  0  0  0  0  0  0  0  0
  1  2  1  0  0  0  0
  2  9  1  0  0  0  0
  2  3  1  0  0  0  0
  3  5  1  0  0  0  0
  3  4  2  0  0  0  0
  5  6  1  0  0  0  0
  5  7  1  0  0  0  0
  7  8  2  0  0  0  0
  7 13  1  0  0  0  0
  8  9  1  0  0  0  0
  8 11  1  0  0  0  0
  9 10  2  0  0  0  0
 11 12  1  0  0  0  0
 12 13  2  0  0  0  0
M  END
>  <CHROM.1>
-5.75285397,-6.06428656,12.66108670,-0.76683165,1.19249733,-0.31654098

>  <Name>
1eht cryst

>  <RI>
224

>  <Rbt.Current_Directory>
/home/itssahil/PROJECTS/Mol_Feturizer/New_Systems/rnas/1eht

>  <Rbt.Executable>
rbdock ($Id: //depot/dev/client3/rdock/2013.1/src/exe/rbdock.cxx#4 $)

>  <Rbt.Library>
libRbt.so (2013.1, Build901 2013/11/27)

>  <Rbt.Parameter_File>
/export/apps/rDock/src/rDock_2013.1_src/data/scripts/dock_solv.prm

>  <Rbt.Receptor>
prm/pocket_docking_7.prm

>  <SCORE>
-39.1727

>  <SCORE.INTER>
-39.1727

>  <SCORE.INTER.CONST>
1

>  <SCORE.INTER.POLAR>
-1.93457

>  <SCORE.INTER.ROT>
0

>  <SCORE.INTER.SOLV>
9.79526

>  <SCORE.INTER.VDW>
-26.5317

>  <SCORE.INTER.norm>
-3.01329

>  <SCORE.INTRA>
0

>  <SCORE.INTRA.DIHEDRAL>
0

>  <SCORE.INTRA.DIHEDRAL.0>
0

>  <SCORE.INTRA.POLAR>
0

>  <SCORE.INTRA.POLAR.0>
0

>  <SCORE.INTRA.REPUL>
0

>  <SCORE.INTRA.REPUL.0>
0

>  <SCORE.INTRA.SOLV>
0

>  <SCORE.INTRA.SOLV.lig_0>
-12.9768

>  <SCORE.INTRA.VDW>
0

>  <SCORE.INTRA.VDW.0>
0

>  <SCORE.INTRA.norm>
0

>  <SCORE.RESTR>
0

>  <SCORE.RESTR.CAVITY>
0

>  <SCORE.RESTR.norm>
0

>  <SCORE.SYSTEM>
0

>  <SCORE.SYSTEM.CONST>
0

>  <SCORE.SYSTEM.DIHEDRAL>
0

>  <SCORE.SYSTEM.SOLV>
0

>  <SCORE.SYSTEM.norm>
0

>  <SCORE.heavy>
13

>  <SCORE.norm>
-3.01329

>  <RMSD>
0.739

$$$$
1eht cryst
 OpenBabel11021811383D
libRbt.so/2013.1/901 2013/11/27
 13 14  0  0  0  0  0  0  0  0999 V2000
   -4.7610   -7.8733   10.6132 C   0  0  0  0  0  0  0  0  0  0  0  0
   -5.2343   -7.0048   11.5927 N   0  0  0  0  0  0  0  0  0  0  0  0
   -5.6229   -7.5363   12.7953 C   0  0  0  0  0  0  0  0  0  0  0  0
   -5.5260   -8.7594   12.9122 O   0  0  0  0  0  0  0  0  0  0  0  0
   -6.1083   -6.8055   13.8501 N   0  0  0  0  0  0  0  0  0  0  0  0
   -6.4937   -7.3652   15.0572 C   0  0  0  0  0  0  0  0  0  0  0  0
   -6.1738   -5.4688   13.5884 C   0  0  0  0  0  0  0  0  0  0  0  0
   -5.7853   -4.9505   12.3871 C   0  0  0  0  0  0  0  0  0  0  0  0
   -5.2845   -5.6817   11.2948 C   0  0  0  0  0  0  0  0  0  0  0  0
   -4.9214   -5.2640   10.1962 O   0  0  0  0  0  0  0  0  0  0  0  0
   -5.9893   -3.5807   12.4844 N   0  0  0  0  0  0  0  0  0  0  0  0
   -6.4836   -3.3654   13.7265 C   0  0  0  0  0  0  0  0  0  0  0  0
   -6.6145   -4.4548   14.4317 N   0  0  0  0  0  0  0  0  0  0  0  0
  1  2  1  0  0  0  0
  2  9  1  0  0  0  0
  2  3  1  0  0  0  0
  3  5  1  0  0  0  0
  3  4  2  0  0  0  0
  5  6  1  0  0  0  0
  5  7  1  0  0  0  0
  7  8  2  0  0  0  0
  7 13  1  0  0  0  0
  8  9  1  0  0  0  0
  8 11  1  0  0  0  0
  9 10  2  0  0  0  0
 11 12  1  0  0  0  0
 12 13  2  0  0  0  0
M  END
>  <CHROM.1>
-5.75408762,-6.05061395,12.66040114,-0.77132934,1.19415869,-0.31225335

>  <Name>
1eht cryst

>  <RI>
0

>  <Rbt.Current_Directory>
/home/itssahil/PROJECTS/Mol_Feturizer/New_Systems/rnas/1eht

>  <Rbt.Executable>
rbdock ($Id: //depot/dev/client3/rdock/2013.1/src/exe/rbdock.cxx#4 $)

>  <Rbt.Library>
libRbt.so (2013.1, Build901 2013/11/27)

>  <Rbt.Parameter_File>
/export/apps/rDock/src/rDock_2013.1_src/data/scripts/dock_solv.prm

>  <Rbt.Receptor>
prm/pocket_docking_8.prm

>  <SCORE>
-39.1736

>  <SCORE.INTER>
-39.1736

>  <SCORE.INTER.CONST>
1

>  <SCORE.INTER.POLAR>
-1.92602

>  <SCORE.INTER.ROT>
0

>  <SCORE.INTER.SOLV>
9.82516

>  <SCORE.INTER.VDW>
-26.5707

>  <SCORE.INTER.norm>
-3.01335

>  <SCORE.INTRA>
0

>  <SCORE.INTRA.DIHEDRAL>
0

>  <SCORE.INTRA.DIHEDRAL.0>
0

>  <SCORE.INTRA.POLAR>
0

>  <SCORE.INTRA.POLAR.0>
0

>  <SCORE.INTRA.REPUL>
0

>  <SCORE.INTRA.REPUL.0>
0

>  <SCORE.INTRA.SOLV>
0

>  <SCORE.INTRA.SOLV.lig_0>
-12.9768

>  <SCORE.INTRA.VDW>
0

>  <SCORE.INTRA.VDW.0>
0

>  <SCORE.INTRA.norm>
0

>  <SCORE.RESTR>
0

>  <SCORE.RESTR.CAVITY>
0

>  <SCORE.RESTR.norm>
0

>  <SCORE.SYSTEM>
0

>  <SCORE.SYSTEM.CONST>
0

>  <SCORE.SYSTEM.DIHEDRAL>
0

>  <SCORE.SYSTEM.SOLV>
0

>  <SCORE.SYSTEM.norm>
0

>  <SCORE.heavy>
13

>  <SCORE.norm>
-3.01335

>  <RMSD>
0.739

$$$$
1eht cryst
 OpenBabel11021811383D
libRbt.so/2013.1/901 2013/11/27
 13 14  0  0  0  0  0  0  0  0999 V2000
   -4.7582   -7.8738   10.6151 C   0  0  0  0  0  0  0  0  0  0  0  0
   -5.2324   -7.0051   11.5938 N   0  0  0  0  0  0  0  0  0  0  0  0
   -5.6221   -7.5361   12.7962 C   0  0  0  0  0  0  0  0  0  0  0  0
   -5.5252   -8.7592   12.9137 O   0  0  0  0  0  0  0  0  0  0  0  0
   -6.1084   -6.8050   13.8504 N   0  0  0  0  0  0  0  0  0  0  0  0
   -6.4948   -7.3643   15.0574 C   0  0  0  0  0  0  0  0  0  0  0  0
   -6.1738   -5.4684   13.5882 C   0  0  0  0  0  0  0  0  0  0  0  0
   -5.7842   -4.9505   12.3871 C   0  0  0  0  0  0  0  0  0  0  0  0
   -5.2823   -5.6821   11.2954 C   0  0  0  0  0  0  0  0  0  0  0  0
   -4.9183   -5.2647   10.1970 O   0  0  0  0  0  0  0  0  0  0  0  0
   -5.9883   -3.5807   12.4837 N   0  0  0  0  0  0  0  0  0  0  0  0
   -6.4838   -3.3650   13.7253 C   0  0  0  0  0  0  0  0  0  0  0  0
   -6.6152   -4.4542   14.4307 N   0  0  0  0  0  0  0  0  0  0  0  0
  1  2  1  0  0  0  0
  2  9  1  0  0  0  0
  2  3  1  0  0  0  0
  3  5  1  0  0  0  0
  3  4  2  0  0  0  0
  5  6  1  0  0  0  0
  5  7  1  0  0  0  0
  7  8  2  0  0  0  0
  7 13  1  0  0  0  0
  8  9  1  0  0  0  0
  8 11  1  0  0  0  0
  9 10  2  0  0  0  0
 11 12  1  0  0  0  0
 12 13  2  0  0  0  0
M  END
>  <CHROM.1>
-5.75316742,-6.05052154,12.66075535,-0.77196283,1.19328896,-0.31200455

>  <Name>
1eht cryst

>  <RI>
0

>  <Rbt.Current_Directory>
/home/itssahil/PROJECTS/Mol_Feturizer/New_Systems/rnas/1eht

>  <Rbt.Executable>
rbdock ($Id: //depot/dev/client3/rdock/2013.1/src/exe/rbdock.cxx#4 $)

>  <Rbt.Library>
libRbt.so (2013.1, Build901 2013/11/27)

>  <Rbt.Parameter_File>
/export/apps/rDock/src/rDock_2013.1_src/data/scripts/dock_solv.prm

>  <Rbt.Receptor>
prm/pocket_docking_2.prm

>  <SCORE>
-39.1777

>  <SCORE.INTER>
-39.1777

>  <SCORE.INTER.CONST>
1

>  <SCORE.INTER.POLAR>
-1.92732

>  <SCORE.INTER.ROT>
0

>  <SCORE.INTER.SOLV>
9.82621

>  <SCORE.INTER.VDW>
-26.5694

>  <SCORE.INTER.norm>
-3.01367

>  <SCORE.INTRA>
0

>  <SCORE.INTRA.DIHEDRAL>
0

>  <SCORE.INTRA.DIHEDRAL.0>
0

>  <SCORE.INTRA.POLAR>
0

>  <SCORE.INTRA.POLAR.0>
0

>  <SCORE.INTRA.REPUL>
0

>  <SCORE.INTRA.REPUL.0>
0

>  <SCORE.INTRA.SOLV>
0

>  <SCORE.INTRA.SOLV.lig_0>
-12.9768

>  <SCORE.INTRA.VDW>
0

>  <SCORE.INTRA.VDW.0>
0

>  <SCORE.INTRA.norm>
0

>  <SCORE.RESTR>
0

>  <SCORE.RESTR.CAVITY>
0

>  <SCORE.RESTR.norm>
0

>  <SCORE.SYSTEM>
0

>  <SCORE.SYSTEM.CONST>
0

>  <SCORE.SYSTEM.DIHEDRAL>
0

>  <SCORE.SYSTEM.SOLV>
0

>  <SCORE.SYSTEM.norm>
0

>  <SCORE.heavy>
13

>  <SCORE.norm>
-3.01367

>  <RMSD>
0.740

$$$$
1eht cryst
 OpenBabel11021811383D
libRbt.so/2013.1/901 2013/11/27
 13 14  0  0  0  0  0  0  0  0999 V2000
   -4.7856   -7.9157   10.5994 C   0  0  0  0  0  0  0  0  0  0  0  0
   -5.2578   -7.0376   11.5707 N   0  0  0  0  0  0  0  0  0  0  0  0
   -5.6374   -7.5562   12.7818 C   0  0  0  0  0  0  0  0  0  0  0  0
   -5.5340   -8.7774   12.9130 O   0  0  0  0  0  0  0  0  0  0  0  0
   -6.1206   -6.8149   13.8303 N   0  0  0  0  0  0  0  0  0  0  0  0
   -6.4968   -7.3617   15.0462 C   0  0  0  0  0  0  0  0  0  0  0  0
   -6.1940   -5.4819   13.5526 C   0  0  0  0  0  0  0  0  0  0  0  0
   -5.8144   -4.9764   12.3430 C   0  0  0  0  0  0  0  0  0  0  0  0
   -5.3159   -5.7185   11.2570 C   0  0  0  0  0  0  0  0  0  0  0  0
   -4.9607   -5.3125   10.1515 O   0  0  0  0  0  0  0  0  0  0  0  0
   -6.0245   -3.6065   12.4247 N   0  0  0  0  0  0  0  0  0  0  0  0
   -6.5132   -3.3785   13.6668 C   0  0  0  0  0  0  0  0  0  0  0  0
   -6.6350   -4.4598   14.3859 N   0  0  0  0  0  0  0  0  0  0  0  0
  1  2  1  0  0  0  0
  2  9  1  0  0  0  0
  2  3  1  0  0  0  0
  3  5  1  0  0  0  0
  3  4  2  0  0  0  0
  5  6  1  0  0  0  0
  5  7  1  0  0  0  0
  7  8  2  0  0  0  0
  7 13  1  0  0  0  0
  8  9  1  0  0  0  0
  8 11  1  0  0  0  0
  9 10  2  0  0  0  0
 11 12  1  0  0  0  0
 12 13  2  0  0  0  0
M  END
>  <CHROM.1>
-5.77643843,-6.07295453,12.62952969,-0.75425999,1.19771966,-0.34032157

>  <Name>
1eht cryst

>  <RI>
0

>  <Rbt.Current_Directory>
/home/itssahil/PROJECTS/Mol_Feturizer/New_Systems/rnas/1eht

>  <Rbt.Executable>
rbdock ($Id: //depot/dev/client3/rdock/2013.1/src/exe/rbdock.cxx#4 $)

>  <Rbt.Library>
libRbt.so (2013.1, Build901 2013/11/27)

>  <Rbt.Parameter_File>
/export/apps/rDock/src/rDock_2013.1_src/data/scripts/dock_solv.prm

>  <Rbt.Receptor>
prm/pocket_docking_3.prm

>  <SCORE>
-39.1371

>  <SCORE.INTER>
-39.1371

>  <SCORE.INTER.CONST>
1

>  <SCORE.INTER.POLAR>
-1.94961

>  <SCORE.INTER.ROT>
0

>  <SCORE.INTER.SOLV>
9.75063

>  <SCORE.INTER.VDW>
-26.4429

>  <SCORE.INTER.norm>
-3.01055

>  <SCORE.INTRA>
0

>  <SCORE.INTRA.DIHEDRAL>
0

>  <SCORE.INTRA.DIHEDRAL.0>
0

>  <SCORE.INTRA.POLAR>
0

>  <SCORE.INTRA.POLAR.0>
0

>  <SCORE.INTRA.REPUL>
0

>  <SCORE.INTRA.REPUL.0>
0

>  <SCORE.INTRA.SOLV>
0

>  <SCORE.INTRA.SOLV.lig_0>
-12.9768

>  <SCORE.INTRA.VDW>
0

>  <SCORE.INTRA.VDW.0>
0

>  <SCORE.INTRA.norm>
0

>  <SCORE.RESTR>
0

>  <SCORE.RESTR.CAVITY>
0

>  <SCORE.RESTR.norm>
0

>  <SCORE.SYSTEM>
0

>  <SCORE.SYSTEM.CONST>
0

>  <SCORE.SYSTEM.DIHEDRAL>
0

>  <SCORE.SYSTEM.SOLV>
0

>  <SCORE.SYSTEM.norm>
0

>  <SCORE.heavy>
13

>  <SCORE.norm>
-3.01055

>  <RMSD>
0.740

$$$$
1eht cryst
 OpenBabel11021811383D
libRbt.so/2013.1/901 2013/11/27
 13 14  0  0  0  0  0  0  0  0999 V2000
   -4.7773   -7.8511   10.6180 C   0  0  0  0  0  0  0  0  0  0  0  0
   -5.2574   -6.9863   11.5973 N   0  0  0  0  0  0  0  0  0  0  0  0
   -5.6301   -7.5191   12.8043 C   0  0  0  0  0  0  0  0  0  0  0  0
   -5.5137   -8.7402   12.9251 O   0  0  0  0  0  0  0  0  0  0  0  0
   -6.1197   -6.7919   13.8597 N   0  0  0  0  0  0  0  0  0  0  0  0
   -6.4886   -7.3528   15.0713 C   0  0  0  0  0  0  0  0  0  0  0  0
   -6.2073   -5.4573   13.5935 C   0  0  0  0  0  0  0  0  0  0  0  0
   -5.8346   -4.9377   12.3878 C   0  0  0  0  0  0  0  0  0  0  0  0
   -5.3297   -5.6653   11.2949 C   0  0  0  0  0  0  0  0  0  0  0  0
   -4.9802   -5.2462   10.1924 O   0  0  0  0  0  0  0  0  0  0  0  0
   -6.0588   -3.5708   12.4814 N   0  0  0  0  0  0  0  0  0  0  0  0
   -6.5483   -3.3584   13.7260 C   0  0  0  0  0  0  0  0  0  0  0  0
   -6.6579   -4.4471   14.4359 N   0  0  0  0  0  0  0  0  0  0  0  0
  1  2  1  0  0  0  0
  2  9  1  0  0  0  0
  2  3  1  0  0  0  0
  3  5  1  0  0  0  0
  3  4  2  0  0  0  0
  5  6  1  0  0  0  0
  5  7  1  0  0  0  0
  7  8  2  0  0  0  0
  7 13  1  0  0  0  0
  8  9  1  0  0  0  0
  8 11  1  0  0  0  0
  9 10  2  0  0  0  0
 11 12  1  0  0  0  0
 12 13  2  0  0  0  0
M  END
>  <CHROM.1>
-5.78479715,-6.03615997,12.66490894,-0.72624822,1.19530064,-0.35789486

>  <Name>
1eht cryst

>  <RI>
0

>  <Rbt.Current_Directory>
/home/itssahil/PROJECTS/Mol_Feturizer/New_Systems/rnas/1eht

>  <Rbt.Executable>
rbdock ($Id: //depot/dev/client3/rdock/2013.1/src/exe/rbdock.cxx#4 $)

>  <Rbt.Library>
libRbt.so (2013.1, Build901 2013/11/27)

>  <Rbt.Parameter_File>
/export/apps/rDock/src/rDock_2013.1_src/data/scripts/dock_solv.prm

>  <Rbt.Receptor>
prm/pocket_docking_5.prm

>  <SCORE>
-39.1596

>  <SCORE.INTER>
-39.1596

>  <SCORE.INTER.CONST>
1

>  <SCORE.INTER.POLAR>
-1.88878

>  <SCORE.INTER.ROT>
0

>  <SCORE.INTER.SOLV>
9.81158

>  <SCORE.INTER.VDW>
-26.681

>  <SCORE.INTER.norm>
-3.01228

>  <SCORE.INTRA>
0

>  <SCORE.INTRA.DIHEDRAL>
0

>  <SCORE.INTRA.DIHEDRAL.0>
0

>  <SCORE.INTRA.POLAR>
0

>  <SCORE.INTRA.POLAR.0>
0

>  <SCORE.INTRA.REPUL>
0

>  <SCORE.INTRA.REPUL.0>
0

>  <SCORE.INTRA.SOLV>
0

>  <SCORE.INTRA.SOLV.lig_0>
-12.9768

>  <SCORE.INTRA.VDW>
0

>  <SCORE.INTRA.VDW.0>
0

>  <SCORE.INTRA.norm>
0

>  <SCORE.RESTR>
0

>  <SCORE.RESTR.CAVITY>
0

>  <SCORE.RESTR.norm>
0

>  <SCORE.SYSTEM>
0

>  <SCORE.SYSTEM.CONST>
0

>  <SCORE.SYSTEM.DIHEDRAL>
0

>  <SCORE.SYSTEM.SOLV>
0

>  <SCORE.SYSTEM.norm>
0

>  <SCORE.heavy>
13

>  <SCORE.norm>
-3.01228

>  <RMSD>
0.740

$$$$
1eht cryst
 OpenBabel11021811383D
libRbt.so/2013.1/901 2013/11/27
 13 14  0  0  0  0  0  0  0  0999 V2000
   -4.7533   -7.8766   10.6239 C   0  0  0  0  0  0  0  0  0  0  0  0
   -5.2362   -7.0134   11.6032 N   0  0  0  0  0  0  0  0  0  0  0  0
   -5.6345   -7.5510   12.7999 C   0  0  0  0  0  0  0  0  0  0  0  0
   -5.5369   -8.7745   12.9119 O   0  0  0  0  0  0  0  0  0  0  0  0
   -6.1300   -6.8258   13.8539 N   0  0  0  0  0  0  0  0  0  0  0  0
   -6.5250   -7.3916   15.0550 C   0  0  0  0  0  0  0  0  0  0  0  0
   -6.1951   -5.4879   13.5979 C   0  0  0  0  0  0  0  0  0  0  0  0
   -5.7969   -4.9635   12.4024 C   0  0  0  0  0  0  0  0  0  0  0  0
   -5.2856   -5.6890   11.3111 C   0  0  0  0  0  0  0  0  0  0  0  0
   -4.9136   -5.2656   10.2176 O   0  0  0  0  0  0  0  0  0  0  0  0
   -6.0036   -3.5945   12.5043 N   0  0  0  0  0  0  0  0  0  0  0  0
   -6.5089   -3.3857   13.7431 C   0  0  0  0  0  0  0  0  0  0  0  0
   -6.6444   -4.4785   14.4420 N   0  0  0  0  0  0  0  0  0  0  0  0
  1  2  1  0  0  0  0
  2  9  1  0  0  0  0
  2  3  1  0  0  0  0
  3  5  1  0  0  0  0
  3  4  2  0  0  0  0
  5  6  1  0  0  0  0
  5  7  1  0  0  0  0
  7  8  2  0  0  0  0
  7 13  1  0  0  0  0
  8  9  1  0  0  0  0
  8 11  1  0  0  0  0
  9 10  2  0  0  0  0
 11 12  1  0  0  0  0
 12 13  2  0  0  0  0
M  END
>  <CHROM.1>
-5.76653131,-6.06487217,12.67082175,-0.77495004,1.18549663,-0.30422531

>  <Name>
1eht cryst

>  <RI>
0

>  <Rbt.Current_Directory>
/home/itssahil/PROJECTS/Mol_Feturizer/New_Systems/rnas/1eht

>  <Rbt.Executable>
rbdock ($Id: //depot/dev/client3/rdock/2013.1/src/exe/rbdock.cxx#4 $)

>  <Rbt.Library>
libRbt.so (2013.1, Build901 2013/11/27)

>  <Rbt.Parameter_File>
/export/apps/rDock/src/rDock_2013.1_src/data/scripts/dock_solv.prm

>  <Rbt.Receptor>
prm/blind_docking_40.prm

>  <SCORE>
-39.1636

>  <SCORE.INTER>
-39.1636

>  <SCORE.INTER.CONST>
1

>  <SCORE.INTER.POLAR>
-1.93428

>  <SCORE.INTER.ROT>
0

>  <SCORE.INTER.SOLV>
9.80457

>  <SCORE.INTER.VDW>
-26.5296

>  <SCORE.INTER.norm>
-3.01258

>  <SCORE.INTRA>
0

>  <SCORE.INTRA.DIHEDRAL>
0

>  <SCORE.INTRA.DIHEDRAL.0>
0

>  <SCORE.INTRA.POLAR>
0

>  <SCORE.INTRA.POLAR.0>
0

>  <SCORE.INTRA.REPUL>
0

>  <SCORE.INTRA.REPUL.0>
0

>  <SCORE.INTRA.SOLV>
0

>  <SCORE.INTRA.SOLV.lig_0>
-12.9768

>  <SCORE.INTRA.VDW>
0

>  <SCORE.INTRA.VDW.0>
0

>  <SCORE.INTRA.norm>
0

>  <SCORE.RESTR>
0

>  <SCORE.RESTR.CAVITY>
0

>  <SCORE.RESTR.norm>
0

>  <SCORE.SYSTEM>
0

>  <SCORE.SYSTEM.CONST>
0

>  <SCORE.SYSTEM.DIHEDRAL>
0

>  <SCORE.SYSTEM.SOLV>
0

>  <SCORE.SYSTEM.norm>
0

>  <SCORE.heavy>
13

>  <SCORE.norm>
-3.01258

>  <RMSD>
0.741

$$$$
1eht cryst
 OpenBabel11021811383D
libRbt.so/2013.1/901 2013/11/27
 13 14  0  0  0  0  0  0  0  0999 V2000
   -4.7559   -7.8739   10.6167 C   0  0  0  0  0  0  0  0  0  0  0  0
   -5.2311   -7.0051   11.5949 N   0  0  0  0  0  0  0  0  0  0  0  0
   -5.6220   -7.5360   12.7969 C   0  0  0  0  0  0  0  0  0  0  0  0
   -5.5253   -8.7592   12.9145 O   0  0  0  0  0  0  0  0  0  0  0  0
   -6.1094   -6.8049   13.8505 N   0  0  0  0  0  0  0  0  0  0  0  0
   -6.4971   -7.3641   15.0571 C   0  0  0  0  0  0  0  0  0  0  0  0
   -6.1745   -5.4683   13.5882 C   0  0  0  0  0  0  0  0  0  0  0  0
   -5.7837   -4.9504   12.3874 C   0  0  0  0  0  0  0  0  0  0  0  0
   -5.2807   -5.6821   11.2963 C   0  0  0  0  0  0  0  0  0  0  0  0
   -4.9155   -5.2648   10.1983 O   0  0  0  0  0  0  0  0  0  0  0  0
   -5.9879   -3.5806   12.4838 N   0  0  0  0  0  0  0  0  0  0  0  0
   -6.4846   -3.3649   13.7249 C   0  0  0  0  0  0  0  0  0  0  0  0
   -6.6168   -4.4540   14.4302 N   0  0  0  0  0  0  0  0  0  0  0  0
  1  2  1  0  0  0  0
  2  9  1  0  0  0  0
  2  3  1  0  0  0  0
  3  5  1  0  0  0  0
  3  4  2  0  0  0  0
  5  6  1  0  0  0  0
  5  7  1  0  0  0  0
  7  8  2  0  0  0  0
  7 13  1  0  0  0  0
  8  9  1  0  0  0  0
  8 11  1  0  0  0  0
  9 10  2  0  0  0  0
 11 12  1  0  0  0  0
 12 13  2  0  0  0  0
M  END
>  <CHROM.1>
-5.75296053,-6.05045178,12.66120353,-0.77285931,1.19231406,-0.31122389

>  <Name>
1eht cryst

>  <RI>
0

>  <Rbt.Current_Directory>
/home/itssahil/PROJECTS/Mol_Feturizer/New_Systems/rnas/1eht

>  <Rbt.Executable>
rbdock ($Id: //depot/dev/client3/rdock/2013.1/src/exe/rbdock.cxx#4 $)

>  <Rbt.Library>
libRbt.so (2013.1, Build901 2013/11/27)

>  <Rbt.Parameter_File>
/export/apps/rDock/src/rDock_2013.1_src/data/scripts/dock_solv.prm

>  <Rbt.Receptor>
prm/pocket_docking_2.prm

>  <SCORE>
-39.178

>  <SCORE.INTER>
-39.178

>  <SCORE.INTER.CONST>
1

>  <SCORE.INTER.POLAR>
-1.92792

>  <SCORE.INTER.ROT>
0

>  <SCORE.INTER.SOLV>
9.82741

>  <SCORE.INTER.VDW>
-26.5681

>  <SCORE.INTER.norm>
-3.01369

>  <SCORE.INTRA>
0

>  <SCORE.INTRA.DIHEDRAL>
0

>  <SCORE.INTRA.DIHEDRAL.0>
0

>  <SCORE.INTRA.POLAR>
0

>  <SCORE.INTRA.POLAR.0>
0

>  <SCORE.INTRA.REPUL>
0

>  <SCORE.INTRA.REPUL.0>
0

>  <SCORE.INTRA.SOLV>
0

>  <SCORE.INTRA.SOLV.lig_0>
-12.9768

>  <SCORE.INTRA.VDW>
0

>  <SCORE.INTRA.VDW.0>
0

>  <SCORE.INTRA.norm>
0

>  <SCORE.RESTR>
0

>  <SCORE.RESTR.CAVITY>
0

>  <SCORE.RESTR.norm>
0

>  <SCORE.SYSTEM>
0

>  <SCORE.SYSTEM.CONST>
0

>  <SCORE.SYSTEM.DIHEDRAL>
0

>  <SCORE.SYSTEM.SOLV>
0

>  <SCORE.SYSTEM.norm>
0

>  <SCORE.heavy>
13

>  <SCORE.norm>
-3.01369

>  <RMSD>
0.741

$$$$
1eht cryst
 OpenBabel11021811383D
libRbt.so/2013.1/901 2013/11/27
 13 14  0  0  0  0  0  0  0  0999 V2000
   -4.7619   -7.8775   10.6150 C   0  0  0  0  0  0  0  0  0  0  0  0
   -5.2350   -7.0075   11.5931 N   0  0  0  0  0  0  0  0  0  0  0  0
   -5.6231   -7.5370   12.7967 C   0  0  0  0  0  0  0  0  0  0  0  0
   -5.5259   -8.7600   12.9157 O   0  0  0  0  0  0  0  0  0  0  0  0
   -6.1083   -6.8046   13.8506 N   0  0  0  0  0  0  0  0  0  0  0  0
   -6.4931   -7.3624   15.0587 C   0  0  0  0  0  0  0  0  0  0  0  0
   -6.1742   -5.4684   13.5866 C   0  0  0  0  0  0  0  0  0  0  0  0
   -5.7862   -4.9520   12.3843 C   0  0  0  0  0  0  0  0  0  0  0  0
   -5.2856   -5.6849   11.2931 C   0  0  0  0  0  0  0  0  0  0  0  0
   -4.9229   -5.2690   10.1936 O   0  0  0  0  0  0  0  0  0  0  0  0
   -5.9904   -3.5821   12.4794 N   0  0  0  0  0  0  0  0  0  0  0  0
   -6.4844   -3.3649   13.7214 C   0  0  0  0  0  0  0  0  0  0  0  0
   -6.6147   -4.4531   14.4284 N   0  0  0  0  0  0  0  0  0  0  0  0
  1  2  1  0  0  0  0
  2  9  1  0  0  0  0
  2  3  1  0  0  0  0
  3  5  1  0  0  0  0
  3  4  2  0  0  0  0
  5  6  1  0  0  0  0
  5  7  1  0  0  0  0
  7  8  2  0  0  0  0
  7 13  1  0  0  0  0
  8  9  1  0  0  0  0
  8 11  1  0  0  0  0
  9 10  2  0  0  0  0
 11 12  1  0  0  0  0
 12 13  2  0  0  0  0
M  END
>  <CHROM.1>
-5.75463366,-6.05164825,12.65945195,-0.77048752,1.19442693,-0.31470005

>  <Name>
1eht cryst

>  <RI>
0

>  <Rbt.Current_Directory>
/home/itssahil/PROJECTS/Mol_Feturizer/New_Systems/rnas/1eht

>  <Rbt.Executable>
rbdock ($Id: //depot/dev/client3/rdock/2013.1/src/exe/rbdock.cxx#4 $)

>  <Rbt.Library>
libRbt.so (2013.1, Build901 2013/11/27)

>  <Rbt.Parameter_File>
/export/apps/rDock/src/rDock_2013.1_src/data/scripts/dock_solv.prm

>  <Rbt.Receptor>
prm/pocket_docking_3.prm

>  <SCORE>
-39.1748

>  <SCORE.INTER>
-39.1748

>  <SCORE.INTER.CONST>
1

>  <SCORE.INTER.POLAR>
-1.92747

>  <SCORE.INTER.ROT>
0

>  <SCORE.INTER.SOLV>
9.82048

>  <SCORE.INTER.VDW>
-26.5651

>  <SCORE.INTER.norm>
-3.01345

>  <SCORE.INTRA>
0

>  <SCORE.INTRA.DIHEDRAL>
0

>  <SCORE.INTRA.DIHEDRAL.0>
0

>  <SCORE.INTRA.POLAR>
0

>  <SCORE.INTRA.POLAR.0>
0

>  <SCORE.INTRA.REPUL>
0

>  <SCORE.INTRA.REPUL.0>
0

>  <SCORE.INTRA.SOLV>
0

>  <SCORE.INTRA.SOLV.lig_0>
-12.9768

>  <SCORE.INTRA.VDW>
0

>  <SCORE.INTRA.VDW.0>
0

>  <SCORE.INTRA.norm>
0

>  <SCORE.RESTR>
0

>  <SCORE.RESTR.CAVITY>
0

>  <SCORE.RESTR.norm>
0

>  <SCORE.SYSTEM>
0

>  <SCORE.SYSTEM.CONST>
0

>  <SCORE.SYSTEM.DIHEDRAL>
0

>  <SCORE.SYSTEM.SOLV>
0

>  <SCORE.SYSTEM.norm>
0

>  <SCORE.heavy>
13

>  <SCORE.norm>
-3.01345

>  <RMSD>
0.741

$$$$
1eht cryst
 OpenBabel11021811383D
libRbt.so/2013.1/901 2013/11/27
 13 14  0  0  0  0  0  0  0  0999 V2000
   -4.7667   -7.8795   10.6147 C   0  0  0  0  0  0  0  0  0  0  0  0
   -5.2384   -7.0088   11.5929 N   0  0  0  0  0  0  0  0  0  0  0  0
   -5.6258   -7.5376   12.7970 C   0  0  0  0  0  0  0  0  0  0  0  0
   -5.5292   -8.7606   12.9164 O   0  0  0  0  0  0  0  0  0  0  0  0
   -6.1096   -6.8044   13.8510 N   0  0  0  0  0  0  0  0  0  0  0  0
   -6.4937   -7.3614   15.0597 C   0  0  0  0  0  0  0  0  0  0  0  0
   -6.1749   -5.4682   13.5865 C   0  0  0  0  0  0  0  0  0  0  0  0
   -5.7877   -4.9526   12.3836 C   0  0  0  0  0  0  0  0  0  0  0  0
   -5.2885   -5.6863   11.2922 C   0  0  0  0  0  0  0  0  0  0  0  0
   -4.9266   -5.2711   10.1923 O   0  0  0  0  0  0  0  0  0  0  0  0
   -5.9911   -3.5826   12.4783 N   0  0  0  0  0  0  0  0  0  0  0  0
   -6.4838   -3.3645   13.7206 C   0  0  0  0  0  0  0  0  0  0  0  0
   -6.6142   -4.4524   14.4282 N   0  0  0  0  0  0  0  0  0  0  0  0
  1  2  1  0  0  0  0
  2  9  1  0  0  0  0
  2  3  1  0  0  0  0
  3  5  1  0  0  0  0
  3  4  2  0  0  0  0
  5  6  1  0  0  0  0
  5  7  1  0  0  0  0
  7  8  2  0  0  0  0
  7 13  1  0  0  0  0
  8  9  1  0  0  0  0
  8 11  1  0  0  0  0
  9 10  2  0  0  0  0
 11 12  1  0  0  0  0
 12 13  2  0  0  0  0
M  END
>  <CHROM.1>
-5.75657400,-6.05218795,12.65920223,-0.77127325,1.19544806,-0.31441565

>  <Name>
1eht cryst

>  <RI>
0

>  <Rbt.Current_Directory>
/home/itssahil/PROJECTS/Mol_Feturizer/New_Systems/rnas/1eht

>  <Rbt.Executable>
rbdock ($Id: //depot/dev/client3/rdock/2013.1/src/exe/rbdock.cxx#4 $)

>  <Rbt.Library>
libRbt.so (2013.1, Build901 2013/11/27)

>  <Rbt.Parameter_File>
/export/apps/rDock/src/rDock_2013.1_src/data/scripts/dock_solv.prm

>  <Rbt.Receptor>
prm/pocket_docking_5.prm

>  <SCORE>
-39.1714

>  <SCORE.INTER>
-39.1714

>  <SCORE.INTER.CONST>
1

>  <SCORE.INTER.POLAR>
-1.92706

>  <SCORE.INTER.ROT>
0

>  <SCORE.INTER.SOLV>
9.81813

>  <SCORE.INTER.VDW>
-26.5635

>  <SCORE.INTER.norm>
-3.01319

>  <SCORE.INTRA>
0

>  <SCORE.INTRA.DIHEDRAL>
0

>  <SCORE.INTRA.DIHEDRAL.0>
0

>  <SCORE.INTRA.POLAR>
0

>  <SCORE.INTRA.POLAR.0>
0

>  <SCORE.INTRA.REPUL>
0

>  <SCORE.INTRA.REPUL.0>
0

>  <SCORE.INTRA.SOLV>
0

>  <SCORE.INTRA.SOLV.lig_0>
-12.9768

>  <SCORE.INTRA.VDW>
0

>  <SCORE.INTRA.VDW.0>
0

>  <SCORE.INTRA.norm>
0

>  <SCORE.RESTR>
0

>  <SCORE.RESTR.CAVITY>
0

>  <SCORE.RESTR.norm>
0

>  <SCORE.SYSTEM>
0

>  <SCORE.SYSTEM.CONST>
0

>  <SCORE.SYSTEM.DIHEDRAL>
0

>  <SCORE.SYSTEM.SOLV>
0

>  <SCORE.SYSTEM.norm>
0

>  <SCORE.heavy>
13

>  <SCORE.norm>
-3.01319

>  <RMSD>
0.741

$$$$
1eht cryst
 OpenBabel11021811383D
libRbt.so/2013.1/901 2013/11/27
 13 14  0  0  0  0  0  0  0  0999 V2000
   -4.7522   -7.8781   10.6237 C   0  0  0  0  0  0  0  0  0  0  0  0
   -5.2358   -7.0143   11.6023 N   0  0  0  0  0  0  0  0  0  0  0  0
   -5.6339   -7.5511   12.7993 C   0  0  0  0  0  0  0  0  0  0  0  0
   -5.5356   -8.7745   12.9125 O   0  0  0  0  0  0  0  0  0  0  0  0
   -6.1300   -6.8253   13.8527 N   0  0  0  0  0  0  0  0  0  0  0  0
   -6.5248   -7.3904   15.0542 C   0  0  0  0  0  0  0  0  0  0  0  0
   -6.1958   -5.4878   13.5955 C   0  0  0  0  0  0  0  0  0  0  0  0
   -5.7978   -4.9641   12.3996 C   0  0  0  0  0  0  0  0  0  0  0  0
   -5.2859   -5.6902   11.3089 C   0  0  0  0  0  0  0  0  0  0  0  0
   -4.9140   -5.2676   10.2152 O   0  0  0  0  0  0  0  0  0  0  0  0
   -6.0054   -3.5952   12.5003 N   0  0  0  0  0  0  0  0  0  0  0  0
   -6.5110   -3.3856   13.7388 C   0  0  0  0  0  0  0  0  0  0  0  0
   -6.6459   -4.4779   14.4386 N   0  0  0  0  0  0  0  0  0  0  0  0
  1  2  1  0  0  0  0
  2  9  1  0  0  0  0
  2  3  1  0  0  0  0
  3  5  1  0  0  0  0
  3  4  2  0  0  0  0
  5  6  1  0  0  0  0
  5  7  1  0  0  0  0
  7  8  2  0  0  0  0
  7 13  1  0  0  0  0
  8  9  1  0  0  0  0
  8 11  1  0  0  0  0
  9 10  2  0  0  0  0
 11 12  1  0  0  0  0
 12 13  2  0  0  0  0
M  END
>  <CHROM.1>
-5.76681941,-6.06523658,12.66897197,-0.77349170,1.18517764,-0.30644169

>  <Name>
1eht cryst

>  <RI>
0

>  <Rbt.Current_Directory>
/home/itssahil/PROJECTS/Mol_Feturizer/New_Systems/rnas/1eht

>  <Rbt.Executable>
rbdock ($Id: //depot/dev/client3/rdock/2013.1/src/exe/rbdock.cxx#4 $)

>  <Rbt.Library>
libRbt.so (2013.1, Build901 2013/11/27)

>  <Rbt.Parameter_File>
/export/apps/rDock/src/rDock_2013.1_src/data/scripts/dock_solv.prm

>  <Rbt.Receptor>
prm/blind_docking_20.prm

>  <SCORE>
-39.1632

>  <SCORE.INTER>
-39.1632

>  <SCORE.INTER.CONST>
1

>  <SCORE.INTER.POLAR>
-1.93587

>  <SCORE.INTER.ROT>
0

>  <SCORE.INTER.SOLV>
9.80184

>  <SCORE.INTER.VDW>
-26.5232

>  <SCORE.INTER.norm>
-3.01256

>  <SCORE.INTRA>
0

>  <SCORE.INTRA.DIHEDRAL>
0

>  <SCORE.INTRA.DIHEDRAL.0>
0

>  <SCORE.INTRA.POLAR>
0

>  <SCORE.INTRA.POLAR.0>
0

>  <SCORE.INTRA.REPUL>
0

>  <SCORE.INTRA.REPUL.0>
0

>  <SCORE.INTRA.SOLV>
0

>  <SCORE.INTRA.SOLV.lig_0>
-12.9768

>  <SCORE.INTRA.VDW>
0

>  <SCORE.INTRA.VDW.0>
0

>  <SCORE.INTRA.norm>
0

>  <SCORE.RESTR>
0

>  <SCORE.RESTR.CAVITY>
0

>  <SCORE.RESTR.norm>
0

>  <SCORE.SYSTEM>
0

>  <SCORE.SYSTEM.CONST>
0

>  <SCORE.SYSTEM.DIHEDRAL>
0

>  <SCORE.SYSTEM.SOLV>
0

>  <SCORE.SYSTEM.norm>
0

>  <SCORE.heavy>
13

>  <SCORE.norm>
-3.01256

>  <RMSD>
0.742

$$$$
1eht cryst
 OpenBabel11021811383D
libRbt.so/2013.1/901 2013/11/27
 13 14  0  0  0  0  0  0  0  0999 V2000
   -4.7710   -7.8784   10.6155 C   0  0  0  0  0  0  0  0  0  0  0  0
   -5.2415   -7.0079   11.5944 N   0  0  0  0  0  0  0  0  0  0  0  0
   -5.6285   -7.5369   12.7986 C   0  0  0  0  0  0  0  0  0  0  0  0
   -5.5327   -8.7600   12.9173 O   0  0  0  0  0  0  0  0  0  0  0  0
   -6.1111   -6.8039   13.8531 N   0  0  0  0  0  0  0  0  0  0  0  0
   -6.4948   -7.3611   15.0619 C   0  0  0  0  0  0  0  0  0  0  0  0
   -6.1756   -5.4675   13.5894 C   0  0  0  0  0  0  0  0  0  0  0  0
   -5.7888   -4.9516   12.3865 C   0  0  0  0  0  0  0  0  0  0  0  0
   -5.2908   -5.6852   11.2944 C   0  0  0  0  0  0  0  0  0  0  0  0
   -4.9292   -5.2697   10.1945 O   0  0  0  0  0  0  0  0  0  0  0  0
   -5.9910   -3.5815   12.4819 N   0  0  0  0  0  0  0  0  0  0  0  0
   -6.4828   -3.3636   13.7246 C   0  0  0  0  0  0  0  0  0  0  0  0
   -6.6136   -4.4517   14.4318 N   0  0  0  0  0  0  0  0  0  0  0  0
  1  2  1  0  0  0  0
  2  9  1  0  0  0  0
  2  3  1  0  0  0  0
  3  5  1  0  0  0  0
  3  4  2  0  0  0  0
  5  6  1  0  0  0  0
  5  7  1  0  0  0  0
  7  8  2  0  0  0  0
  7 13  1  0  0  0  0
  8  9  1  0  0  0  0
  8 11  1  0  0  0  0
  9 10  2  0  0  0  0
 11 12  1  0  0  0  0
 12 13  2  0  0  0  0
M  END
>  <CHROM.1>
-5.75825446,-6.05133658,12.66151998,-0.77264671,1.19627106,-0.31266396

>  <Name>
1eht cryst

>  <RI>
0

>  <Rbt.Current_Directory>
/home/itssahil/PROJECTS/Mol_Feturizer/New_Systems/rnas/1eht

>  <Rbt.Executable>
rbdock ($Id: //depot/dev/client3/rdock/2013.1/src/exe/rbdock.cxx#4 $)

>  <Rbt.Library>
libRbt.so (2013.1, Build901 2013/11/27)

>  <Rbt.Parameter_File>
/export/apps/rDock/src/rDock_2013.1_src/data/scripts/dock_solv.prm

>  <Rbt.Receptor>
prm/blind_docking_60.prm

>  <SCORE>
-39.1656

>  <SCORE.INTER>
-39.1656

>  <SCORE.INTER.CONST>
1

>  <SCORE.INTER.POLAR>
-1.92475

>  <SCORE.INTER.ROT>
0

>  <SCORE.INTER.SOLV>
9.81967

>  <SCORE.INTER.VDW>
-26.5678

>  <SCORE.INTER.norm>
-3.01274

>  <SCORE.INTRA>
0

>  <SCORE.INTRA.DIHEDRAL>
0

>  <SCORE.INTRA.DIHEDRAL.0>
0

>  <SCORE.INTRA.POLAR>
0

>  <SCORE.INTRA.POLAR.0>
0

>  <SCORE.INTRA.REPUL>
0

>  <SCORE.INTRA.REPUL.0>
0

>  <SCORE.INTRA.SOLV>
0

>  <SCORE.INTRA.SOLV.lig_0>
-12.9768

>  <SCORE.INTRA.VDW>
0

>  <SCORE.INTRA.VDW.0>
0

>  <SCORE.INTRA.norm>
0

>  <SCORE.RESTR>
0

>  <SCORE.RESTR.CAVITY>
0

>  <SCORE.RESTR.norm>
0

>  <SCORE.SYSTEM>
0

>  <SCORE.SYSTEM.CONST>
0

>  <SCORE.SYSTEM.DIHEDRAL>
0

>  <SCORE.SYSTEM.SOLV>
0

>  <SCORE.SYSTEM.norm>
0

>  <SCORE.heavy>
13

>  <SCORE.norm>
-3.01274

>  <RMSD>
0.742

$$$$
1eht cryst
 OpenBabel11021811383D
libRbt.so/2013.1/901 2013/11/27
 13 14  0  0  0  0  0  0  0  0999 V2000
   -4.8204   -7.8800   10.5970 C   0  0  0  0  0  0  0  0  0  0  0  0
   -5.2803   -7.0023   11.5745 N   0  0  0  0  0  0  0  0  0  0  0  0
   -5.6654   -7.5238   12.7825 C   0  0  0  0  0  0  0  0  0  0  0  0
   -5.5775   -8.7470   12.9058 O   0  0  0  0  0  0  0  0  0  0  0  0
   -6.1381   -6.7832   13.8363 N   0  0  0  0  0  0  0  0  0  0  0  0
   -6.5201   -7.3330   15.0491 C   0  0  0  0  0  0  0  0  0  0  0  0
   -6.1946   -5.4475   13.5674 C   0  0  0  0  0  0  0  0  0  0  0  0
   -5.8098   -4.9391   12.3607 C   0  0  0  0  0  0  0  0  0  0  0  0
   -5.3218   -5.6805   11.2694 C   0  0  0  0  0  0  0  0  0  0  0  0
   -4.9625   -5.2719   10.1661 O   0  0  0  0  0  0  0  0  0  0  0  0
   -6.0022   -3.5673   12.4515 N   0  0  0  0  0  0  0  0  0  0  0  0
   -6.4867   -3.3410   13.6956 C   0  0  0  0  0  0  0  0  0  0  0  0
   -6.6217   -4.4253   14.4077 N   0  0  0  0  0  0  0  0  0  0  0  0
  1  2  1  0  0  0  0
  2  9  1  0  0  0  0
  2  3  1  0  0  0  0
  3  5  1  0  0  0  0
  3  4  2  0  0  0  0
  5  6  1  0  0  0  0
  5  7  1  0  0  0  0
  7  8  2  0  0  0  0
  7 13  1  0  0  0  0
  8  9  1  0  0  0  0
  8 11  1  0  0  0  0
  9 10  2  0  0  0  0
 11 12  1  0  0  0  0
 12 13  2  0  0  0  0
M  END
>  <CHROM.1>
-5.78555340,-6.03792059,12.64008223,-0.78691339,1.20273023,-0.30340125

>  <Name>
1eht cryst

>  <RI>
0

>  <Rbt.Current_Directory>
/home/itssahil/PROJECTS/Mol_Feturizer/New_Systems/rnas/1eht

>  <Rbt.Executable>
rbdock ($Id: //depot/dev/client3/rdock/2013.1/src/exe/rbdock.cxx#4 $)

>  <Rbt.Library>
libRbt.so (2013.1, Build901 2013/11/27)

>  <Rbt.Parameter_File>
/export/apps/rDock/src/rDock_2013.1_src/data/scripts/dock_solv.prm

>  <Rbt.Receptor>
prm/pocket_docking_2.prm

>  <SCORE>
-39.1379

>  <SCORE.INTER>
-39.1379

>  <SCORE.INTER.CONST>
1

>  <SCORE.INTER.POLAR>
-1.92384

>  <SCORE.INTER.ROT>
0

>  <SCORE.INTER.SOLV>
9.83837

>  <SCORE.INTER.VDW>
-26.5586

>  <SCORE.INTER.norm>
-3.01061

>  <SCORE.INTRA>
0

>  <SCORE.INTRA.DIHEDRAL>
0

>  <SCORE.INTRA.DIHEDRAL.0>
0

>  <SCORE.INTRA.POLAR>
0

>  <SCORE.INTRA.POLAR.0>
0

>  <SCORE.INTRA.REPUL>
0

>  <SCORE.INTRA.REPUL.0>
0

>  <SCORE.INTRA.SOLV>
0

>  <SCORE.INTRA.SOLV.lig_0>
-12.9768

>  <SCORE.INTRA.VDW>
0

>  <SCORE.INTRA.VDW.0>
0

>  <SCORE.INTRA.norm>
0

>  <SCORE.RESTR>
0

>  <SCORE.RESTR.CAVITY>
0

>  <SCORE.RESTR.norm>
0

>  <SCORE.SYSTEM>
0

>  <SCORE.SYSTEM.CONST>
0

>  <SCORE.SYSTEM.DIHEDRAL>
0

>  <SCORE.SYSTEM.SOLV>
0

>  <SCORE.SYSTEM.norm>
0

>  <SCORE.heavy>
13

>  <SCORE.norm>
-3.01061

>  <RMSD>
0.742

$$$$
1eht cryst
 OpenBabel11021811383D
libRbt.so/2013.1/901 2013/11/27
 13 14  0  0  0  0  0  0  0  0999 V2000
   -4.7558   -7.8709   10.6198 C   0  0  0  0  0  0  0  0  0  0  0  0
   -5.2318   -7.0028   11.5982 N   0  0  0  0  0  0  0  0  0  0  0  0
   -5.6255   -7.5348   12.7989 C   0  0  0  0  0  0  0  0  0  0  0  0
   -5.5302   -8.7581   12.9152 O   0  0  0  0  0  0  0  0  0  0  0  0
   -6.1139   -6.8043   13.8526 N   0  0  0  0  0  0  0  0  0  0  0  0
   -6.5044   -7.3645   15.0578 C   0  0  0  0  0  0  0  0  0  0  0  0
   -6.1771   -5.4673   13.5917 C   0  0  0  0  0  0  0  0  0  0  0  0
   -5.7835   -4.9485   12.3922 C   0  0  0  0  0  0  0  0  0  0  0  0
   -5.2794   -5.6794   11.3012 C   0  0  0  0  0  0  0  0  0  0  0  0
   -4.9118   -5.2612   10.2043 O   0  0  0  0  0  0  0  0  0  0  0  0
   -5.9864   -3.5786   12.4898 N   0  0  0  0  0  0  0  0  0  0  0  0
   -6.4851   -3.3637   13.7303 C   0  0  0  0  0  0  0  0  0  0  0  0
   -6.6198   -4.4536   14.4341 N   0  0  0  0  0  0  0  0  0  0  0  0
  1  2  1  0  0  0  0
  2  9  1  0  0  0  0
  2  3  1  0  0  0  0
  3  5  1  0  0  0  0
  3  4  2  0  0  0  0
  5  6  1  0  0  0  0
  5  7  1  0  0  0  0
  7  8  2  0  0  0  0
  7 13  1  0  0  0  0
  8  9  1  0  0  0  0
  8 11  1  0  0  0  0
  9 10  2  0  0  0  0
 11 12  1  0  0  0  0
 12 13  2  0  0  0  0
M  END
>  <CHROM.1>
-5.75451960,-6.04885579,12.66475239,-0.77713071,1.19095187,-0.30606734

>  <Name>
1eht cryst

>  <RI>
0

>  <Rbt.Current_Directory>
/home/itssahil/PROJECTS/Mol_Feturizer/New_Systems/rnas/1eht

>  <Rbt.Executable>
rbdock ($Id: //depot/dev/client3/rdock/2013.1/src/exe/rbdock.cxx#4 $)

>  <Rbt.Library>
libRbt.so (2013.1, Build901 2013/11/27)

>  <Rbt.Parameter_File>
/export/apps/rDock/src/rDock_2013.1_src/data/scripts/dock_solv.prm

>  <Rbt.Receptor>
prm/pocket_docking_2.prm

>  <SCORE>
-39.1763

>  <SCORE.INTER>
-39.1763

>  <SCORE.INTER.CONST>
1

>  <SCORE.INTER.POLAR>
-1.92739

>  <SCORE.INTER.ROT>
0

>  <SCORE.INTER.SOLV>
9.83419

>  <SCORE.INTER.VDW>
-26.571

>  <SCORE.INTER.norm>
-3.01356

>  <SCORE.INTRA>
0

>  <SCORE.INTRA.DIHEDRAL>
0

>  <SCORE.INTRA.DIHEDRAL.0>
0

>  <SCORE.INTRA.POLAR>
0

>  <SCORE.INTRA.POLAR.0>
0

>  <SCORE.INTRA.REPUL>
0

>  <SCORE.INTRA.REPUL.0>
0

>  <SCORE.INTRA.SOLV>
0

>  <SCORE.INTRA.SOLV.lig_0>
-12.9768

>  <SCORE.INTRA.VDW>
0

>  <SCORE.INTRA.VDW.0>
0

>  <SCORE.INTRA.norm>
0

>  <SCORE.RESTR>
0

>  <SCORE.RESTR.CAVITY>
0

>  <SCORE.RESTR.norm>
0

>  <SCORE.SYSTEM>
0

>  <SCORE.SYSTEM.CONST>
0

>  <SCORE.SYSTEM.DIHEDRAL>
0

>  <SCORE.SYSTEM.SOLV>
0

>  <SCORE.SYSTEM.norm>
0

>  <SCORE.heavy>
13

>  <SCORE.norm>
-3.01356

>  <RMSD>
0.742

$$$$
1eht cryst
 OpenBabel11021811383D
libRbt.so/2013.1/901 2013/11/27
 13 14  0  0  0  0  0  0  0  0999 V2000
   -4.7516   -7.8819   10.6165 C   0  0  0  0  0  0  0  0  0  0  0  0
   -5.2279   -7.0109   11.5922 N   0  0  0  0  0  0  0  0  0  0  0  0
   -5.6137   -7.5383   12.7975 C   0  0  0  0  0  0  0  0  0  0  0  0
   -5.5117   -8.7605   12.9201 O   0  0  0  0  0  0  0  0  0  0  0  0
   -6.1015   -6.8046   13.8492 N   0  0  0  0  0  0  0  0  0  0  0  0
   -6.4839   -7.3602   15.0591 C   0  0  0  0  0  0  0  0  0  0  0  0
   -6.1727   -5.4694   13.5813 C   0  0  0  0  0  0  0  0  0  0  0  0
   -5.7870   -4.9551   12.3773 C   0  0  0  0  0  0  0  0  0  0  0  0
   -5.2837   -5.6894   11.2881 C   0  0  0  0  0  0  0  0  0  0  0  0
   -4.9230   -5.2753   10.1874 O   0  0  0  0  0  0  0  0  0  0  0  0
   -5.9966   -3.5858   12.4683 N   0  0  0  0  0  0  0  0  0  0  0  0
   -6.4911   -3.3667   13.7097 C   0  0  0  0  0  0  0  0  0  0  0  0
   -6.6171   -4.4534   14.4200 N   0  0  0  0  0  0  0  0  0  0  0  0
  1  2  1  0  0  0  0
  2  9  1  0  0  0  0
  2  3  1  0  0  0  0
  3  5  1  0  0  0  0
  3  4  2  0  0  0  0
  5  6  1  0  0  0  0
  5  7  1  0  0  0  0
  7  8  2  0  0  0  0
  7 13  1  0  0  0  0
  8  9  1  0  0  0  0
  8 11  1  0  0  0  0
  9 10  2  0  0  0  0
 11 12  1  0  0  0  0
 12 13  2  0  0  0  0
M  END
>  <CHROM.1>
-5.75108533,-6.05382818,12.65573682,-0.76019242,1.19339165,-0.32728862

>  <Name>
1eht cryst

>  <RI>
0

>  <Rbt.Current_Directory>
/home/itssahil/PROJECTS/Mol_Feturizer/New_Systems/rnas/1eht

>  <Rbt.Executable>
rbdock ($Id: //depot/dev/client3/rdock/2013.1/src/exe/rbdock.cxx#4 $)

>  <Rbt.Library>
libRbt.so (2013.1, Build901 2013/11/27)

>  <Rbt.Parameter_File>
/export/apps/rDock/src/rDock_2013.1_src/data/scripts/dock_solv.prm

>  <Rbt.Receptor>
prm/pocket_docking_6.prm

>  <SCORE>
-39.1779

>  <SCORE.INTER>
-39.1779

>  <SCORE.INTER.CONST>
1

>  <SCORE.INTER.POLAR>
-1.93092

>  <SCORE.INTER.ROT>
0

>  <SCORE.INTER.SOLV>
9.80935

>  <SCORE.INTER.VDW>
-26.552

>  <SCORE.INTER.norm>
-3.01368

>  <SCORE.INTRA>
0

>  <SCORE.INTRA.DIHEDRAL>
0

>  <SCORE.INTRA.DIHEDRAL.0>
0

>  <SCORE.INTRA.POLAR>
0

>  <SCORE.INTRA.POLAR.0>
0

>  <SCORE.INTRA.REPUL>
0

>  <SCORE.INTRA.REPUL.0>
0

>  <SCORE.INTRA.SOLV>
0

>  <SCORE.INTRA.SOLV.lig_0>
-12.9768

>  <SCORE.INTRA.VDW>
0

>  <SCORE.INTRA.VDW.0>
0

>  <SCORE.INTRA.norm>
0

>  <SCORE.RESTR>
0

>  <SCORE.RESTR.CAVITY>
0

>  <SCORE.RESTR.norm>
0

>  <SCORE.SYSTEM>
0

>  <SCORE.SYSTEM.CONST>
0

>  <SCORE.SYSTEM.DIHEDRAL>
0

>  <SCORE.SYSTEM.SOLV>
0

>  <SCORE.SYSTEM.norm>
0

>  <SCORE.heavy>
13

>  <SCORE.norm>
-3.01368

>  <RMSD>
0.742

$$$$
1eht cryst
 OpenBabel11021811383D
libRbt.so/2013.1/901 2013/11/27
 13 14  0  0  0  0  0  0  0  0999 V2000
   -4.7614   -7.8743   10.6255 C   0  0  0  0  0  0  0  0  0  0  0  0
   -5.2411   -7.0120   11.6072 N   0  0  0  0  0  0  0  0  0  0  0  0
   -5.6401   -7.5513   12.8029 C   0  0  0  0  0  0  0  0  0  0  0  0
   -5.5459   -8.7754   12.9120 O   0  0  0  0  0  0  0  0  0  0  0  0
   -6.1328   -6.8271   13.8589 N   0  0  0  0  0  0  0  0  0  0  0  0
   -6.5286   -7.3946   15.0590 C   0  0  0  0  0  0  0  0  0  0  0  0
   -6.1942   -5.4885   13.6061 C   0  0  0  0  0  0  0  0  0  0  0  0
   -5.7954   -4.9624   12.4116 C   0  0  0  0  0  0  0  0  0  0  0  0
   -5.2870   -5.6868   11.3182 C   0  0  0  0  0  0  0  0  0  0  0  0
   -4.9145   -5.2620   10.2254 O   0  0  0  0  0  0  0  0  0  0  0  0
   -5.9981   -3.5931   12.5168 N   0  0  0  0  0  0  0  0  0  0  0  0
   -6.5020   -3.3857   13.7565 C   0  0  0  0  0  0  0  0  0  0  0  0
   -6.6400   -4.4798   14.4529 N   0  0  0  0  0  0  0  0  0  0  0  0
  1  2  1  0  0  0  0
  2  9  1  0  0  0  0
  2  3  1  0  0  0  0
  3  5  1  0  0  0  0
  3  4  2  0  0  0  0
  5  6  1  0  0  0  0
  5  7  1  0  0  0  0
  7  8  2  0  0  0  0
  7 13  1  0  0  0  0
  8  9  1  0  0  0  0
  8 11  1  0  0  0  0
  9 10  2  0  0  0  0
 11 12  1  0  0  0  0
 12 13  2  0  0  0  0
M  END
>  <CHROM.1>
-5.76798888,-6.06450392,12.67738882,-0.78164974,1.18702348,-0.29567178

>  <Name>
1eht cryst

>  <RI>
224

>  <Rbt.Current_Directory>
/home/itssahil/PROJECTS/Mol_Feturizer/New_Systems/rnas/1eht

>  <Rbt.Executable>
rbdock ($Id: //depot/dev/client3/rdock/2013.1/src/exe/rbdock.cxx#4 $)

>  <Rbt.Library>
libRbt.so (2013.1, Build901 2013/11/27)

>  <Rbt.Parameter_File>
/export/apps/rDock/src/rDock_2013.1_src/data/scripts/dock_solv.prm

>  <Rbt.Receptor>
prm/pocket_docking_7.prm

>  <SCORE>
-39.1595

>  <SCORE.INTER>
-39.1595

>  <SCORE.INTER.CONST>
1

>  <SCORE.INTER.POLAR>
-1.92954

>  <SCORE.INTER.ROT>
0

>  <SCORE.INTER.SOLV>
9.81118

>  <SCORE.INTER.VDW>
-26.5449

>  <SCORE.INTER.norm>
-3.01227

>  <SCORE.INTRA>
0

>  <SCORE.INTRA.DIHEDRAL>
0

>  <SCORE.INTRA.DIHEDRAL.0>
0

>  <SCORE.INTRA.POLAR>
0

>  <SCORE.INTRA.POLAR.0>
0

>  <SCORE.INTRA.REPUL>
0

>  <SCORE.INTRA.REPUL.0>
0

>  <SCORE.INTRA.SOLV>
0

>  <SCORE.INTRA.SOLV.lig_0>
-12.9768

>  <SCORE.INTRA.VDW>
0

>  <SCORE.INTRA.VDW.0>
0

>  <SCORE.INTRA.norm>
0

>  <SCORE.RESTR>
0

>  <SCORE.RESTR.CAVITY>
0

>  <SCORE.RESTR.norm>
0

>  <SCORE.SYSTEM>
0

>  <SCORE.SYSTEM.CONST>
0

>  <SCORE.SYSTEM.DIHEDRAL>
0

>  <SCORE.SYSTEM.SOLV>
0

>  <SCORE.SYSTEM.norm>
0

>  <SCORE.heavy>
13

>  <SCORE.norm>
-3.01227

>  <RMSD>
0.742

$$$$
1eht cryst
 OpenBabel11021811383D
libRbt.so/2013.1/901 2013/11/27
 13 14  0  0  0  0  0  0  0  0999 V2000
   -4.7672   -7.8736   10.6173 C   0  0  0  0  0  0  0  0  0  0  0  0
   -5.2394   -7.0042   11.5964 N   0  0  0  0  0  0  0  0  0  0  0  0
   -5.6308   -7.5349   12.7984 C   0  0  0  0  0  0  0  0  0  0  0  0
   -5.5370   -8.7584   12.9152 O   0  0  0  0  0  0  0  0  0  0  0  0
   -6.1156   -6.8032   13.8528 N   0  0  0  0  0  0  0  0  0  0  0  0
   -6.5037   -7.3621   15.0594 C   0  0  0  0  0  0  0  0  0  0  0  0
   -6.1775   -5.4663   13.5913 C   0  0  0  0  0  0  0  0  0  0  0  0
   -5.7863   -4.9487   12.3906 C   0  0  0  0  0  0  0  0  0  0  0  0
   -5.2860   -5.6809   11.2987 C   0  0  0  0  0  0  0  0  0  0  0  0
   -4.9206   -5.2639   10.2006 O   0  0  0  0  0  0  0  0  0  0  0  0
   -5.9870   -3.5784   12.4879 N   0  0  0  0  0  0  0  0  0  0  0  0
   -6.4823   -3.3622   13.7295 C   0  0  0  0  0  0  0  0  0  0  0  0
   -6.6166   -4.4514   14.4342 N   0  0  0  0  0  0  0  0  0  0  0  0
  1  2  1  0  0  0  0
  2  9  1  0  0  0  0
  2  3  1  0  0  0  0
  3  5  1  0  0  0  0
  3  4  2  0  0  0  0
  5  6  1  0  0  0  0
  5  7  1  0  0  0  0
  7  8  2  0  0  0  0
  7 13  1  0  0  0  0
  8  9  1  0  0  0  0
  8 11  1  0  0  0  0
  9 10  2  0  0  0  0
 11 12  1  0  0  0  0
 12 13  2  0  0  0  0
M  END
>  <CHROM.1>
-5.75812701,-6.04893887,12.66366333,-0.77867779,1.19378702,-0.30522583

>  <Name>
1eht cryst

>  <RI>
0

>  <Rbt.Current_Directory>
/home/itssahil/PROJECTS/Mol_Feturizer/New_Systems/rnas/1eht

>  <Rbt.Executable>
rbdock ($Id: //depot/dev/client3/rdock/2013.1/src/exe/rbdock.cxx#4 $)

>  <Rbt.Library>
libRbt.so (2013.1, Build901 2013/11/27)

>  <Rbt.Parameter_File>
/export/apps/rDock/src/rDock_2013.1_src/data/scripts/dock_solv.prm

>  <Rbt.Receptor>
prm/pocket_docking_2.prm

>  <SCORE>
-39.1686

>  <SCORE.INTER>
-39.1686

>  <SCORE.INTER.CONST>
1

>  <SCORE.INTER.POLAR>
-1.92555

>  <SCORE.INTER.ROT>
0

>  <SCORE.INTER.SOLV>
9.83089

>  <SCORE.INTER.VDW>
-26.5708

>  <SCORE.INTER.norm>
-3.01297

>  <SCORE.INTRA>
0

>  <SCORE.INTRA.DIHEDRAL>
0

>  <SCORE.INTRA.DIHEDRAL.0>
0

>  <SCORE.INTRA.POLAR>
0

>  <SCORE.INTRA.POLAR.0>
0

>  <SCORE.INTRA.REPUL>
0

>  <SCORE.INTRA.REPUL.0>
0

>  <SCORE.INTRA.SOLV>
0

>  <SCORE.INTRA.SOLV.lig_0>
-12.9768

>  <SCORE.INTRA.VDW>
0

>  <SCORE.INTRA.VDW.0>
0

>  <SCORE.INTRA.norm>
0

>  <SCORE.RESTR>
0

>  <SCORE.RESTR.CAVITY>
0

>  <SCORE.RESTR.norm>
0

>  <SCORE.SYSTEM>
0

>  <SCORE.SYSTEM.CONST>
0

>  <SCORE.SYSTEM.DIHEDRAL>
0

>  <SCORE.SYSTEM.SOLV>
0

>  <SCORE.SYSTEM.norm>
0

>  <SCORE.heavy>
13

>  <SCORE.norm>
-3.01297

>  <RMSD>
0.743

$$$$
1eht cryst
 OpenBabel11021811383D
libRbt.so/2013.1/901 2013/11/27
 13 14  0  0  0  0  0  0  0  0999 V2000
   -4.7544   -7.8798   10.6208 C   0  0  0  0  0  0  0  0  0  0  0  0
   -5.2315   -7.0092   11.5964 N   0  0  0  0  0  0  0  0  0  0  0  0
   -5.6218   -7.5377   12.7998 C   0  0  0  0  0  0  0  0  0  0  0  0
   -5.5226   -8.7602   12.9208 O   0  0  0  0  0  0  0  0  0  0  0  0
   -6.1109   -6.8045   13.8513 N   0  0  0  0  0  0  0  0  0  0  0  0
   -6.4978   -7.3612   15.0593 C   0  0  0  0  0  0  0  0  0  0  0  0
   -6.1785   -5.4688   13.5852 C   0  0  0  0  0  0  0  0  0  0  0  0
   -5.7884   -4.9535   12.3831 C   0  0  0  0  0  0  0  0  0  0  0  0
   -5.2837   -5.6872   11.2942 C   0  0  0  0  0  0  0  0  0  0  0  0
   -4.9190   -5.2722   10.1951 O   0  0  0  0  0  0  0  0  0  0  0  0
   -5.9954   -3.5839   12.4756 N   0  0  0  0  0  0  0  0  0  0  0  0
   -6.4929   -3.3656   13.7160 C   0  0  0  0  0  0  0  0  0  0  0  0
   -6.6231   -4.4531   14.4243 N   0  0  0  0  0  0  0  0  0  0  0  0
  1  2  1  0  0  0  0
  2  9  1  0  0  0  0
  2  3  1  0  0  0  0
  3  5  1  0  0  0  0
  3  4  2  0  0  0  0
  5  6  1  0  0  0  0
  5  7  1  0  0  0  0
  7  8  2  0  0  0  0
  7 13  1  0  0  0  0
  8  9  1  0  0  0  0
  8 11  1  0  0  0  0
  9 10  2  0  0  0  0
 11 12  1  0  0  0  0
 12 13  2  0  0  0  0
M  END
>  <CHROM.1>
-5.75559624,-6.05270733,12.65996717,-0.76797240,1.19143512,-0.31854045

>  <Name>
1eht cryst

>  <RI>
0

>  <Rbt.Current_Directory>
/home/itssahil/PROJECTS/Mol_Feturizer/New_Systems/rnas/1eht

>  <Rbt.Executable>
rbdock ($Id: //depot/dev/client3/rdock/2013.1/src/exe/rbdock.cxx#4 $)

>  <Rbt.Library>
libRbt.so (2013.1, Build901 2013/11/27)

>  <Rbt.Parameter_File>
/export/apps/rDock/src/rDock_2013.1_src/data/scripts/dock_solv.prm

>  <Rbt.Receptor>
prm/blind_docking_20.prm

>  <SCORE>
-39.1798

>  <SCORE.INTER>
-39.1798

>  <SCORE.INTER.CONST>
1

>  <SCORE.INTER.POLAR>
-1.93114

>  <SCORE.INTER.ROT>
0

>  <SCORE.INTER.SOLV>
9.81648

>  <SCORE.INTER.VDW>
-26.5549

>  <SCORE.INTER.norm>
-3.01383

>  <SCORE.INTRA>
0

>  <SCORE.INTRA.DIHEDRAL>
0

>  <SCORE.INTRA.DIHEDRAL.0>
0

>  <SCORE.INTRA.POLAR>
0

>  <SCORE.INTRA.POLAR.0>
0

>  <SCORE.INTRA.REPUL>
0

>  <SCORE.INTRA.REPUL.0>
0

>  <SCORE.INTRA.SOLV>
0

>  <SCORE.INTRA.SOLV.lig_0>
-12.9768

>  <SCORE.INTRA.VDW>
0

>  <SCORE.INTRA.VDW.0>
0

>  <SCORE.INTRA.norm>
0

>  <SCORE.RESTR>
0

>  <SCORE.RESTR.CAVITY>
0

>  <SCORE.RESTR.norm>
0

>  <SCORE.SYSTEM>
0

>  <SCORE.SYSTEM.CONST>
0

>  <SCORE.SYSTEM.DIHEDRAL>
0

>  <SCORE.SYSTEM.SOLV>
0

>  <SCORE.SYSTEM.norm>
0

>  <SCORE.heavy>
13

>  <SCORE.norm>
-3.01383

>  <RMSD>
0.744

$$$$
1eht cryst
 OpenBabel11021811383D
libRbt.so/2013.1/901 2013/11/27
 13 14  0  0  0  0  0  0  0  0999 V2000
   -4.7532   -7.8741   10.6215 C   0  0  0  0  0  0  0  0  0  0  0  0
   -5.2287   -7.0048   11.5991 N   0  0  0  0  0  0  0  0  0  0  0  0
   -5.6191   -7.5351   12.8016 C   0  0  0  0  0  0  0  0  0  0  0  0
   -5.5216   -8.7580   12.9202 O   0  0  0  0  0  0  0  0  0  0  0  0
   -6.1068   -6.8034   13.8548 N   0  0  0  0  0  0  0  0  0  0  0  0
   -6.4939   -7.3619   15.0619 C   0  0  0  0  0  0  0  0  0  0  0  0
   -6.1727   -5.4670   13.5914 C   0  0  0  0  0  0  0  0  0  0  0  0
   -5.7824   -4.9499   12.3902 C   0  0  0  0  0  0  0  0  0  0  0  0
   -5.2792   -5.6821   11.2996 C   0  0  0  0  0  0  0  0  0  0  0  0
   -4.9145   -5.2654   10.2011 O   0  0  0  0  0  0  0  0  0  0  0  0
   -5.9874   -3.5801   12.4855 N   0  0  0  0  0  0  0  0  0  0  0  0
   -6.4841   -3.3637   13.7265 C   0  0  0  0  0  0  0  0  0  0  0  0
   -6.6154   -4.4524   14.4327 N   0  0  0  0  0  0  0  0  0  0  0  0
  1  2  1  0  0  0  0
  2  9  1  0  0  0  0
  2  3  1  0  0  0  0
  3  5  1  0  0  0  0
  3  4  2  0  0  0  0
  5  6  1  0  0  0  0
  5  7  1  0  0  0  0
  7  8  2  0  0  0  0
  7 13  1  0  0  0  0
  8  9  1  0  0  0  0
  8 11  1  0  0  0  0
  9 10  2  0  0  0  0
 11 12  1  0  0  0  0
 12 13  2  0  0  0  0
M  END
>  <CHROM.1>
-5.75098233,-6.04967216,12.66480589,-0.77115394,1.19230825,-0.31358646

>  <Name>
1eht cryst

>  <RI>
0

>  <Rbt.Current_Directory>
/home/itssahil/PROJECTS/Mol_Feturizer/New_Systems/rnas/1eht

>  <Rbt.Executable>
rbdock ($Id: //depot/dev/client3/rdock/2013.1/src/exe/rbdock.cxx#4 $)

>  <Rbt.Library>
libRbt.so (2013.1, Build901 2013/11/27)

>  <Rbt.Parameter_File>
/export/apps/rDock/src/rDock_2013.1_src/data/scripts/dock_solv.prm

>  <Rbt.Receptor>
prm/pocket_docking_2.prm

>  <SCORE>
-39.1747

>  <SCORE.INTER>
-39.1747

>  <SCORE.INTER.CONST>
1

>  <SCORE.INTER.POLAR>
-1.92604

>  <SCORE.INTER.ROT>
0

>  <SCORE.INTER.SOLV>
9.82761

>  <SCORE.INTER.VDW>
-26.5722

>  <SCORE.INTER.norm>
-3.01344

>  <SCORE.INTRA>
0

>  <SCORE.INTRA.DIHEDRAL>
0

>  <SCORE.INTRA.DIHEDRAL.0>
0

>  <SCORE.INTRA.POLAR>
0

>  <SCORE.INTRA.POLAR.0>
0

>  <SCORE.INTRA.REPUL>
0

>  <SCORE.INTRA.REPUL.0>
0

>  <SCORE.INTRA.SOLV>
0

>  <SCORE.INTRA.SOLV.lig_0>
-12.9768

>  <SCORE.INTRA.VDW>
0

>  <SCORE.INTRA.VDW.0>
0

>  <SCORE.INTRA.norm>
0

>  <SCORE.RESTR>
0

>  <SCORE.RESTR.CAVITY>
0

>  <SCORE.RESTR.norm>
0

>  <SCORE.SYSTEM>
0

>  <SCORE.SYSTEM.CONST>
0

>  <SCORE.SYSTEM.DIHEDRAL>
0

>  <SCORE.SYSTEM.SOLV>
0

>  <SCORE.SYSTEM.norm>
0

>  <SCORE.heavy>
13

>  <SCORE.norm>
-3.01344

>  <RMSD>
0.744

$$$$
1eht cryst
 OpenBabel11021811383D
libRbt.so/2013.1/901 2013/11/27
 13 14  0  0  0  0  0  0  0  0999 V2000
   -4.7532   -7.8802   10.6205 C   0  0  0  0  0  0  0  0  0  0  0  0
   -5.2301   -7.0093   11.5960 N   0  0  0  0  0  0  0  0  0  0  0  0
   -5.6195   -7.5372   12.7999 C   0  0  0  0  0  0  0  0  0  0  0  0
   -5.5198   -8.7597   12.9215 O   0  0  0  0  0  0  0  0  0  0  0  0
   -6.1082   -6.8036   13.8513 N   0  0  0  0  0  0  0  0  0  0  0  0
   -6.4943   -7.3597   15.0598 C   0  0  0  0  0  0  0  0  0  0  0  0
   -6.1765   -5.4681   13.5845 C   0  0  0  0  0  0  0  0  0  0  0  0
   -5.7872   -4.9533   12.3819 C   0  0  0  0  0  0  0  0  0  0  0  0
   -5.2829   -5.6874   11.2931 C   0  0  0  0  0  0  0  0  0  0  0  0
   -4.9189   -5.2729   10.1936 O   0  0  0  0  0  0  0  0  0  0  0  0
   -5.9946   -3.5837   12.4738 N   0  0  0  0  0  0  0  0  0  0  0  0
   -6.4914   -3.3649   13.7143 C   0  0  0  0  0  0  0  0  0  0  0  0
   -6.6209   -4.4521   14.4233 N   0  0  0  0  0  0  0  0  0  0  0  0
  1  2  1  0  0  0  0
  2  9  1  0  0  0  0
  2  3  1  0  0  0  0
  3  5  1  0  0  0  0
  3  4  2  0  0  0  0
  5  6  1  0  0  0  0
  5  7  1  0  0  0  0
  7  8  2  0  0  0  0
  7 13  1  0  0  0  0
  8  9  1  0  0  0  0
  8 11  1  0  0  0  0
  9 10  2  0  0  0  0
 11 12  1  0  0  0  0
 12 13  2  0  0  0  0
M  END
>  <CHROM.1>
-5.75385783,-6.05233387,12.65933629,-0.76665519,1.19187647,-0.32030040

>  <Name>
1eht cryst

>  <RI>
0

>  <Rbt.Current_Directory>
/home/itssahil/PROJECTS/Mol_Feturizer/New_Systems/rnas/1eht

>  <Rbt.Executable>
rbdock ($Id: //depot/dev/client3/rdock/2013.1/src/exe/rbdock.cxx#4 $)

>  <Rbt.Library>
libRbt.so (2013.1, Build901 2013/11/27)

>  <Rbt.Parameter_File>
/export/apps/rDock/src/rDock_2013.1_src/data/scripts/dock_solv.prm

>  <Rbt.Receptor>
prm/pocket_docking_3.prm

>  <SCORE>
-39.1782

>  <SCORE.INTER>
-39.1782

>  <SCORE.INTER.CONST>
1

>  <SCORE.INTER.POLAR>
-1.93058

>  <SCORE.INTER.ROT>
0

>  <SCORE.INTER.SOLV>
9.81651

>  <SCORE.INTER.VDW>
-26.5557

>  <SCORE.INTER.norm>
-3.0137

>  <SCORE.INTRA>
0

>  <SCORE.INTRA.DIHEDRAL>
0

>  <SCORE.INTRA.DIHEDRAL.0>
0

>  <SCORE.INTRA.POLAR>
0

>  <SCORE.INTRA.POLAR.0>
0

>  <SCORE.INTRA.REPUL>
0

>  <SCORE.INTRA.REPUL.0>
0

>  <SCORE.INTRA.SOLV>
0

>  <SCORE.INTRA.SOLV.lig_0>
-12.9768

>  <SCORE.INTRA.VDW>
0

>  <SCORE.INTRA.VDW.0>
0

>  <SCORE.INTRA.norm>
0

>  <SCORE.RESTR>
0

>  <SCORE.RESTR.CAVITY>
0

>  <SCORE.RESTR.norm>
0

>  <SCORE.SYSTEM>
0

>  <SCORE.SYSTEM.CONST>
0

>  <SCORE.SYSTEM.DIHEDRAL>
0

>  <SCORE.SYSTEM.SOLV>
0

>  <SCORE.SYSTEM.norm>
0

>  <SCORE.heavy>
13

>  <SCORE.norm>
-3.0137

>  <RMSD>
0.744

$$$$
1eht cryst
 OpenBabel11021811383D
libRbt.so/2013.1/901 2013/11/27
 13 14  0  0  0  0  0  0  0  0999 V2000
   -4.7546   -7.8821   10.6205 C   0  0  0  0  0  0  0  0  0  0  0  0
   -5.2317   -7.0108   11.5956 N   0  0  0  0  0  0  0  0  0  0  0  0
   -5.6206   -7.5383   12.7999 C   0  0  0  0  0  0  0  0  0  0  0  0
   -5.5204   -8.7607   12.9221 O   0  0  0  0  0  0  0  0  0  0  0  0
   -6.1094   -6.8044   13.8510 N   0  0  0  0  0  0  0  0  0  0  0  0
   -6.4950   -7.3601   15.0599 C   0  0  0  0  0  0  0  0  0  0  0  0
   -6.1783   -5.4690   13.5835 C   0  0  0  0  0  0  0  0  0  0  0  0
   -5.7895   -4.9547   12.3806 C   0  0  0  0  0  0  0  0  0  0  0  0
   -5.2851   -5.6891   11.2921 C   0  0  0  0  0  0  0  0  0  0  0  0
   -4.9216   -5.2750   10.1923 O   0  0  0  0  0  0  0  0  0  0  0  0
   -5.9974   -3.5851   12.4718 N   0  0  0  0  0  0  0  0  0  0  0  0
   -6.4941   -3.3660   13.7124 C   0  0  0  0  0  0  0  0  0  0  0  0
   -6.6229   -4.4527   14.4219 N   0  0  0  0  0  0  0  0  0  0  0  0
  1  2  1  0  0  0  0
  2  9  1  0  0  0  0
  2  3  1  0  0  0  0
  3  5  1  0  0  0  0
  3  4  2  0  0  0  0
  5  6  1  0  0  0  0
  5  7  1  0  0  0  0
  7  8  2  0  0  0  0
  7 13  1  0  0  0  0
  8  9  1  0  0  0  0
  8 11  1  0  0  0  0
  9 10  2  0  0  0  0
 11 12  1  0  0  0  0
 12 13  2  0  0  0  0
M  END
>  <CHROM.1>
-5.75562581,-6.05357074,12.65858759,-0.76538434,1.19194946,-0.32199626

>  <Name>
1eht cryst

>  <RI>
0

>  <Rbt.Current_Directory>
/home/itssahil/PROJECTS/Mol_Feturizer/New_Systems/rnas/1eht

>  <Rbt.Executable>
rbdock ($Id: //depot/dev/client3/rdock/2013.1/src/exe/rbdock.cxx#4 $)

>  <Rbt.Library>
libRbt.so (2013.1, Build901 2013/11/27)

>  <Rbt.Parameter_File>
/export/apps/rDock/src/rDock_2013.1_src/data/scripts/dock_solv.prm

>  <Rbt.Receptor>
prm/pocket_docking_4.prm

>  <SCORE>
-39.1788

>  <SCORE.INTER>
-39.1788

>  <SCORE.INTER.CONST>
1

>  <SCORE.INTER.POLAR>
-1.93167

>  <SCORE.INTER.ROT>
0

>  <SCORE.INTER.SOLV>
9.81196

>  <SCORE.INTER.VDW>
-26.551

>  <SCORE.INTER.norm>
-3.01375

>  <SCORE.INTRA>
0

>  <SCORE.INTRA.DIHEDRAL>
0

>  <SCORE.INTRA.DIHEDRAL.0>
0

>  <SCORE.INTRA.POLAR>
0

>  <SCORE.INTRA.POLAR.0>
0

>  <SCORE.INTRA.REPUL>
0

>  <SCORE.INTRA.REPUL.0>
0

>  <SCORE.INTRA.SOLV>
0

>  <SCORE.INTRA.SOLV.lig_0>
-12.9768

>  <SCORE.INTRA.VDW>
0

>  <SCORE.INTRA.VDW.0>
0

>  <SCORE.INTRA.norm>
0

>  <SCORE.RESTR>
0

>  <SCORE.RESTR.CAVITY>
0

>  <SCORE.RESTR.norm>
0

>  <SCORE.SYSTEM>
0

>  <SCORE.SYSTEM.CONST>
0

>  <SCORE.SYSTEM.DIHEDRAL>
0

>  <SCORE.SYSTEM.SOLV>
0

>  <SCORE.SYSTEM.norm>
0

>  <SCORE.heavy>
13

>  <SCORE.norm>
-3.01375

>  <RMSD>
0.744

$$$$
1eht cryst
 OpenBabel11021811383D
libRbt.so/2013.1/901 2013/11/27
 13 14  0  0  0  0  0  0  0  0999 V2000
   -4.7491   -7.8823   10.6202 C   0  0  0  0  0  0  0  0  0  0  0  0
   -5.2275   -7.0111   11.5947 N   0  0  0  0  0  0  0  0  0  0  0  0
   -5.6156   -7.5382   12.7993 C   0  0  0  0  0  0  0  0  0  0  0  0
   -5.5136   -8.7604   12.9224 O   0  0  0  0  0  0  0  0  0  0  0  0
   -6.1056   -6.8043   13.8499 N   0  0  0  0  0  0  0  0  0  0  0  0
   -6.4903   -7.3597   15.0592 C   0  0  0  0  0  0  0  0  0  0  0  0
   -6.1764   -5.4692   13.5815 C   0  0  0  0  0  0  0  0  0  0  0  0
   -5.7883   -4.9552   12.3782 C   0  0  0  0  0  0  0  0  0  0  0  0
   -5.2828   -5.6897   11.2902 C   0  0  0  0  0  0  0  0  0  0  0  0
   -4.9199   -5.2758   10.1901 O   0  0  0  0  0  0  0  0  0  0  0  0
   -5.9983   -3.5859   12.4684 N   0  0  0  0  0  0  0  0  0  0  0  0
   -6.4953   -3.3666   13.7087 C   0  0  0  0  0  0  0  0  0  0  0  0
   -6.6226   -4.4530   14.4191 N   0  0  0  0  0  0  0  0  0  0  0  0
  1  2  1  0  0  0  0
  2  9  1  0  0  0  0
  2  3  1  0  0  0  0
  3  5  1  0  0  0  0
  3  4  2  0  0  0  0
  5  6  1  0  0  0  0
  5  7  1  0  0  0  0
  7  8  2  0  0  0  0
  7 13  1  0  0  0  0
  8  9  1  0  0  0  0
  8 11  1  0  0  0  0
  9 10  2  0  0  0  0
 11 12  1  0  0  0  0
 12 13  2  0  0  0  0
M  END
>  <CHROM.1>
-5.75286447,-6.05383480,12.65693411,-0.76163254,1.19144571,-0.32620249

>  <Name>
1eht cryst

>  <RI>
224

>  <Rbt.Current_Directory>
/home/itssahil/PROJECTS/Mol_Feturizer/New_Systems/rnas/1eht

>  <Rbt.Executable>
rbdock ($Id: //depot/dev/client3/rdock/2013.1/src/exe/rbdock.cxx#4 $)

>  <Rbt.Library>
libRbt.so (2013.1, Build901 2013/11/27)

>  <Rbt.Parameter_File>
/export/apps/rDock/src/rDock_2013.1_src/data/scripts/dock_solv.prm

>  <Rbt.Receptor>
prm/pocket_docking_7.prm

>  <SCORE>
-39.1811

>  <SCORE.INTER>
-39.1811

>  <SCORE.INTER.CONST>
1

>  <SCORE.INTER.POLAR>
-1.93278

>  <SCORE.INTER.ROT>
0

>  <SCORE.INTER.SOLV>
9.81012

>  <SCORE.INTER.VDW>
-26.5482

>  <SCORE.INTER.norm>
-3.01393

>  <SCORE.INTRA>
0

>  <SCORE.INTRA.DIHEDRAL>
0

>  <SCORE.INTRA.DIHEDRAL.0>
0

>  <SCORE.INTRA.POLAR>
0

>  <SCORE.INTRA.POLAR.0>
0

>  <SCORE.INTRA.REPUL>
0

>  <SCORE.INTRA.REPUL.0>
0

>  <SCORE.INTRA.SOLV>
0

>  <SCORE.INTRA.SOLV.lig_0>
-12.9768

>  <SCORE.INTRA.VDW>
0

>  <SCORE.INTRA.VDW.0>
0

>  <SCORE.INTRA.norm>
0

>  <SCORE.RESTR>
0

>  <SCORE.RESTR.CAVITY>
0

>  <SCORE.RESTR.norm>
0

>  <SCORE.SYSTEM>
0

>  <SCORE.SYSTEM.CONST>
0

>  <SCORE.SYSTEM.DIHEDRAL>
0

>  <SCORE.SYSTEM.SOLV>
0

>  <SCORE.SYSTEM.norm>
0

>  <SCORE.heavy>
13

>  <SCORE.norm>
-3.01393

>  <RMSD>
0.744

$$$$
1eht cryst
 OpenBabel11021811383D
libRbt.so/2013.1/901 2013/11/27
 13 14  0  0  0  0  0  0  0  0999 V2000
   -4.7494   -7.8803   10.6232 C   0  0  0  0  0  0  0  0  0  0  0  0
   -5.2284   -7.0094   11.5977 N   0  0  0  0  0  0  0  0  0  0  0  0
   -5.6199   -7.5375   12.8009 C   0  0  0  0  0  0  0  0  0  0  0  0
   -5.5201   -8.7599   12.9227 O   0  0  0  0  0  0  0  0  0  0  0  0
   -6.1109   -6.8041   13.8513 N   0  0  0  0  0  0  0  0  0  0  0  0
   -6.4990   -7.3603   15.0591 C   0  0  0  0  0  0  0  0  0  0  0  0
   -6.1790   -5.4685   13.5844 C   0  0  0  0  0  0  0  0  0  0  0  0
   -5.7876   -4.9536   12.3825 C   0  0  0  0  0  0  0  0  0  0  0  0
   -5.2810   -5.6876   11.2947 C   0  0  0  0  0  0  0  0  0  0  0  0
   -4.9151   -5.2730   10.1959 O   0  0  0  0  0  0  0  0  0  0  0  0
   -5.9956   -3.5841   12.4740 N   0  0  0  0  0  0  0  0  0  0  0  0
   -6.4949   -3.3655   13.7136 C   0  0  0  0  0  0  0  0  0  0  0  0
   -6.6253   -4.4527   14.4223 N   0  0  0  0  0  0  0  0  0  0  0  0
  1  2  1  0  0  0  0
  2  9  1  0  0  0  0
  2  3  1  0  0  0  0
  3  5  1  0  0  0  0
  3  4  2  0  0  0  0
  5  6  1  0  0  0  0
  5  7  1  0  0  0  0
  7  8  2  0  0  0  0
  7 13  1  0  0  0  0
  8  9  1  0  0  0  0
  8 11  1  0  0  0  0
  9 10  2  0  0  0  0
 11 12  1  0  0  0  0
 12 13  2  0  0  0  0
M  END
>  <CHROM.1>
-5.75447819,-6.05267851,12.66002988,-0.76747715,1.18997573,-0.31953930

>  <Name>
1eht cryst

>  <RI>
0

>  <Rbt.Current_Directory>
/home/itssahil/PROJECTS/Mol_Feturizer/New_Systems/rnas/1eht

>  <Rbt.Executable>
rbdock ($Id: //depot/dev/client3/rdock/2013.1/src/exe/rbdock.cxx#4 $)

>  <Rbt.Library>
libRbt.so (2013.1, Build901 2013/11/27)

>  <Rbt.Parameter_File>
/export/apps/rDock/src/rDock_2013.1_src/data/scripts/dock_solv.prm

>  <Rbt.Receptor>
prm/blind_docking_40.prm

>  <SCORE>
-39.1814

>  <SCORE.INTER>
-39.1814

>  <SCORE.INTER.CONST>
1

>  <SCORE.INTER.POLAR>
-1.93254

>  <SCORE.INTER.ROT>
0

>  <SCORE.INTER.SOLV>
9.81699

>  <SCORE.INTER.VDW>
-26.5515

>  <SCORE.INTER.norm>
-3.01396

>  <SCORE.INTRA>
0

>  <SCORE.INTRA.DIHEDRAL>
0

>  <SCORE.INTRA.DIHEDRAL.0>
0

>  <SCORE.INTRA.POLAR>
0

>  <SCORE.INTRA.POLAR.0>
0

>  <SCORE.INTRA.REPUL>
0

>  <SCORE.INTRA.REPUL.0>
0

>  <SCORE.INTRA.SOLV>
0

>  <SCORE.INTRA.SOLV.lig_0>
-12.9768

>  <SCORE.INTRA.VDW>
0

>  <SCORE.INTRA.VDW.0>
0

>  <SCORE.INTRA.norm>
0

>  <SCORE.RESTR>
0

>  <SCORE.RESTR.CAVITY>
0

>  <SCORE.RESTR.norm>
0

>  <SCORE.SYSTEM>
0

>  <SCORE.SYSTEM.CONST>
0

>  <SCORE.SYSTEM.DIHEDRAL>
0

>  <SCORE.SYSTEM.SOLV>
0

>  <SCORE.SYSTEM.norm>
0

>  <SCORE.heavy>
13

>  <SCORE.norm>
-3.01396

>  <RMSD>
0.745

$$$$
1eht cryst
 OpenBabel11021811383D
libRbt.so/2013.1/901 2013/11/27
 13 14  0  0  0  0  0  0  0  0999 V2000
   -4.7578   -7.8774   10.6219 C   0  0  0  0  0  0  0  0  0  0  0  0
   -5.2340   -7.0072   11.5984 N   0  0  0  0  0  0  0  0  0  0  0  0
   -5.6268   -7.5365   12.8005 C   0  0  0  0  0  0  0  0  0  0  0  0
   -5.5307   -8.7595   12.9197 O   0  0  0  0  0  0  0  0  0  0  0  0
   -6.1154   -6.8039   13.8526 N   0  0  0  0  0  0  0  0  0  0  0  0
   -6.5050   -7.3615   15.0593 C   0  0  0  0  0  0  0  0  0  0  0  0
   -6.1796   -5.4676   13.5885 C   0  0  0  0  0  0  0  0  0  0  0  0
   -5.7869   -4.9514   12.3876 C   0  0  0  0  0  0  0  0  0  0  0  0
   -5.2827   -5.6845   11.2981 C   0  0  0  0  0  0  0  0  0  0  0  0
   -4.9159   -5.2687   10.2001 O   0  0  0  0  0  0  0  0  0  0  0  0
   -5.9908   -3.5814   12.4820 N   0  0  0  0  0  0  0  0  0  0  0  0
   -6.4891   -3.3639   13.7222 C   0  0  0  0  0  0  0  0  0  0  0  0
   -6.6227   -4.4521   14.4286 N   0  0  0  0  0  0  0  0  0  0  0  0
  1  2  1  0  0  0  0
  2  9  1  0  0  0  0
  2  3  1  0  0  0  0
  3  5  1  0  0  0  0
  3  4  2  0  0  0  0
  5  6  1  0  0  0  0
  5  7  1  0  0  0  0
  7  8  2  0  0  0  0
  7 13  1  0  0  0  0
  8  9  1  0  0  0  0
  8 11  1  0  0  0  0
  9 10  2  0  0  0  0
 11 12  1  0  0  0  0
 12 13  2  0  0  0  0
M  END
>  <CHROM.1>
-5.75701358,-6.05106080,12.66280488,-0.77496279,1.19111569,-0.31050032

>  <Name>
1eht cryst

>  <RI>
0

>  <Rbt.Current_Directory>
/home/itssahil/PROJECTS/Mol_Feturizer/New_Systems/rnas/1eht

>  <Rbt.Executable>
rbdock ($Id: //depot/dev/client3/rdock/2013.1/src/exe/rbdock.cxx#4 $)

>  <Rbt.Library>
libRbt.so (2013.1, Build901 2013/11/27)

>  <Rbt.Parameter_File>
/export/apps/rDock/src/rDock_2013.1_src/data/scripts/dock_solv.prm

>  <Rbt.Receptor>
prm/blind_docking_60.prm

>  <SCORE>
-39.1756

>  <SCORE.INTER>
-39.1756

>  <SCORE.INTER.CONST>
1

>  <SCORE.INTER.POLAR>
-1.92952

>  <SCORE.INTER.ROT>
0

>  <SCORE.INTER.SOLV>
9.82468

>  <SCORE.INTER.VDW>
-26.5602

>  <SCORE.INTER.norm>
-3.01351

>  <SCORE.INTRA>
0

>  <SCORE.INTRA.DIHEDRAL>
0

>  <SCORE.INTRA.DIHEDRAL.0>
0

>  <SCORE.INTRA.POLAR>
0

>  <SCORE.INTRA.POLAR.0>
0

>  <SCORE.INTRA.REPUL>
0

>  <SCORE.INTRA.REPUL.0>
0

>  <SCORE.INTRA.SOLV>
0

>  <SCORE.INTRA.SOLV.lig_0>
-12.9768

>  <SCORE.INTRA.VDW>
0

>  <SCORE.INTRA.VDW.0>
0

>  <SCORE.INTRA.norm>
0

>  <SCORE.RESTR>
0

>  <SCORE.RESTR.CAVITY>
0

>  <SCORE.RESTR.norm>
0

>  <SCORE.SYSTEM>
0

>  <SCORE.SYSTEM.CONST>
0

>  <SCORE.SYSTEM.DIHEDRAL>
0

>  <SCORE.SYSTEM.SOLV>
0

>  <SCORE.SYSTEM.norm>
0

>  <SCORE.heavy>
13

>  <SCORE.norm>
-3.01351

>  <RMSD>
0.745

$$$$
1eht cryst
 OpenBabel11021811383D
libRbt.so/2013.1/901 2013/11/27
 13 14  0  0  0  0  0  0  0  0999 V2000
   -4.7684   -7.8798   10.6192 C   0  0  0  0  0  0  0  0  0  0  0  0
   -5.2409   -7.0085   11.5964 N   0  0  0  0  0  0  0  0  0  0  0  0
   -5.6305   -7.5367   12.8001 C   0  0  0  0  0  0  0  0  0  0  0  0
   -5.5351   -8.7597   12.9200 O   0  0  0  0  0  0  0  0  0  0  0  0
   -6.1153   -6.8028   13.8532 N   0  0  0  0  0  0  0  0  0  0  0  0
   -6.5016   -7.3592   15.0615 C   0  0  0  0  0  0  0  0  0  0  0  0
   -6.1791   -5.4667   13.5883 C   0  0  0  0  0  0  0  0  0  0  0  0
   -5.7896   -4.9516   12.3859 C   0  0  0  0  0  0  0  0  0  0  0  0
   -5.2894   -5.6860   11.2954 C   0  0  0  0  0  0  0  0  0  0  0  0
   -4.9255   -5.2713   10.1959 O   0  0  0  0  0  0  0  0  0  0  0  0
   -5.9920   -3.5814   12.4799 N   0  0  0  0  0  0  0  0  0  0  0  0
   -6.4864   -3.3626   13.7214 C   0  0  0  0  0  0  0  0  0  0  0  0
   -6.6187   -4.4502   14.4290 N   0  0  0  0  0  0  0  0  0  0  0  0
  1  2  1  0  0  0  0
  2  9  1  0  0  0  0
  2  3  1  0  0  0  0
  3  5  1  0  0  0  0
  3  4  2  0  0  0  0
  5  6  1  0  0  0  0
  5  7  1  0  0  0  0
  7  8  2  0  0  0  0
  7 13  1  0  0  0  0
  8  9  1  0  0  0  0
  8 11  1  0  0  0  0
  9 10  2  0  0  0  0
 11 12  1  0  0  0  0
 12 13  2  0  0  0  0
M  END
>  <CHROM.1>
-5.75981380,-6.05116468,12.66176236,-0.77468459,1.19426481,-0.31148263

>  <Name>
1eht cryst

>  <RI>
0

>  <Rbt.Current_Directory>
/home/itssahil/PROJECTS/Mol_Feturizer/New_Systems/rnas/1eht

>  <Rbt.Executable>
rbdock ($Id: //depot/dev/client3/rdock/2013.1/src/exe/rbdock.cxx#4 $)

>  <Rbt.Library>
libRbt.so (2013.1, Build901 2013/11/27)

>  <Rbt.Parameter_File>
/export/apps/rDock/src/rDock_2013.1_src/data/scripts/dock_solv.prm

>  <Rbt.Receptor>
prm/blind_docking_60.prm

>  <SCORE>
-39.1685

>  <SCORE.INTER>
-39.1685

>  <SCORE.INTER.CONST>
1

>  <SCORE.INTER.POLAR>
-1.92737

>  <SCORE.INTER.ROT>
0

>  <SCORE.INTER.SOLV>
9.82084

>  <SCORE.INTER.VDW>
-26.5614

>  <SCORE.INTER.norm>
-3.01296

>  <SCORE.INTRA>
0

>  <SCORE.INTRA.DIHEDRAL>
0

>  <SCORE.INTRA.DIHEDRAL.0>
0

>  <SCORE.INTRA.POLAR>
0

>  <SCORE.INTRA.POLAR.0>
0

>  <SCORE.INTRA.REPUL>
0

>  <SCORE.INTRA.REPUL.0>
0

>  <SCORE.INTRA.SOLV>
0

>  <SCORE.INTRA.SOLV.lig_0>
-12.9768

>  <SCORE.INTRA.VDW>
0

>  <SCORE.INTRA.VDW.0>
0

>  <SCORE.INTRA.norm>
0

>  <SCORE.RESTR>
0

>  <SCORE.RESTR.CAVITY>
0

>  <SCORE.RESTR.norm>
0

>  <SCORE.SYSTEM>
0

>  <SCORE.SYSTEM.CONST>
0

>  <SCORE.SYSTEM.DIHEDRAL>
0

>  <SCORE.SYSTEM.SOLV>
0

>  <SCORE.SYSTEM.norm>
0

>  <SCORE.heavy>
13

>  <SCORE.norm>
-3.01296

>  <RMSD>
0.745

$$$$
1eht cryst
 OpenBabel11021811383D
libRbt.so/2013.1/901 2013/11/27
 13 14  0  0  0  0  0  0  0  0999 V2000
   -4.7652   -7.8666   10.6335 C   0  0  0  0  0  0  0  0  0  0  0  0
   -5.2404   -7.0067   11.6195 N   0  0  0  0  0  0  0  0  0  0  0  0
   -5.6374   -7.5493   12.8144 C   0  0  0  0  0  0  0  0  0  0  0  0
   -5.5456   -8.7740   12.9189 O   0  0  0  0  0  0  0  0  0  0  0  0
   -6.1256   -6.8279   13.8743 N   0  0  0  0  0  0  0  0  0  0  0  0
   -6.5195   -7.3988   15.0734 C   0  0  0  0  0  0  0  0  0  0  0  0
   -6.1848   -5.4883   13.6264 C   0  0  0  0  0  0  0  0  0  0  0  0
   -5.7879   -4.9588   12.4327 C   0  0  0  0  0  0  0  0  0  0  0  0
   -5.2840   -5.6804   11.3354 C   0  0  0  0  0  0  0  0  0  0  0  0
   -4.9135   -5.2525   10.2432 O   0  0  0  0  0  0  0  0  0  0  0  0
   -5.9873   -3.5894   12.5434 N   0  0  0  0  0  0  0  0  0  0  0  0
   -6.4875   -3.3853   13.7851 C   0  0  0  0  0  0  0  0  0  0  0  0
   -6.6261   -4.4816   14.4780 N   0  0  0  0  0  0  0  0  0  0  0  0
  1  2  1  0  0  0  0
  2  9  1  0  0  0  0
  2  3  1  0  0  0  0
  3  5  1  0  0  0  0
  3  4  2  0  0  0  0
  5  6  1  0  0  0  0
  5  7  1  0  0  0  0
  7  8  2  0  0  0  0
  7 13  1  0  0  0  0
  8  9  1  0  0  0  0
  8 11  1  0  0  0  0
  9 10  2  0  0  0  0
 11 12  1  0  0  0  0
 12 13  2  0  0  0  0
M  END
>  <CHROM.1>
-5.76227701,-6.06187061,12.69452543,-0.78526242,1.19021387,-0.28874977

>  <Name>
1eht cryst

>  <RI>
0

>  <Rbt.Current_Directory>
/home/itssahil/PROJECTS/Mol_Feturizer/New_Systems/rnas/1eht

>  <Rbt.Executable>
rbdock ($Id: //depot/dev/client3/rdock/2013.1/src/exe/rbdock.cxx#4 $)

>  <Rbt.Library>
libRbt.so (2013.1, Build901 2013/11/27)

>  <Rbt.Parameter_File>
/export/apps/rDock/src/rDock_2013.1_src/data/scripts/dock_solv.prm

>  <Rbt.Receptor>
prm/pocket_docking_4.prm

>  <SCORE>
-39.1603

>  <SCORE.INTER>
-39.1603

>  <SCORE.INTER.CONST>
1

>  <SCORE.INTER.POLAR>
-1.91453

>  <SCORE.INTER.ROT>
0

>  <SCORE.INTER.SOLV>
9.82458

>  <SCORE.INTER.VDW>
-26.5999

>  <SCORE.INTER.norm>
-3.01233

>  <SCORE.INTRA>
0

>  <SCORE.INTRA.DIHEDRAL>
0

>  <SCORE.INTRA.DIHEDRAL.0>
0

>  <SCORE.INTRA.POLAR>
0

>  <SCORE.INTRA.POLAR.0>
0

>  <SCORE.INTRA.REPUL>
0

>  <SCORE.INTRA.REPUL.0>
0

>  <SCORE.INTRA.SOLV>
0

>  <SCORE.INTRA.SOLV.lig_0>
-12.9768

>  <SCORE.INTRA.VDW>
0

>  <SCORE.INTRA.VDW.0>
0

>  <SCORE.INTRA.norm>
0

>  <SCORE.RESTR>
0

>  <SCORE.RESTR.CAVITY>
0

>  <SCORE.RESTR.norm>
0

>  <SCORE.SYSTEM>
0

>  <SCORE.SYSTEM.CONST>
0

>  <SCORE.SYSTEM.DIHEDRAL>
0

>  <SCORE.SYSTEM.SOLV>
0

>  <SCORE.SYSTEM.norm>
0

>  <SCORE.heavy>
13

>  <SCORE.norm>
-3.01233

>  <RMSD>
0.745

$$$$
1eht cryst
 OpenBabel11021811383D
libRbt.so/2013.1/901 2013/11/27
 13 14  0  0  0  0  0  0  0  0999 V2000
   -4.7635   -7.8819   10.6216 C   0  0  0  0  0  0  0  0  0  0  0  0
   -5.2383   -7.0103   11.5975 N   0  0  0  0  0  0  0  0  0  0  0  0
   -5.6291   -7.5379   12.8011 C   0  0  0  0  0  0  0  0  0  0  0  0
   -5.5325   -8.7607   12.9220 O   0  0  0  0  0  0  0  0  0  0  0  0
   -6.1161   -6.8038   13.8528 N   0  0  0  0  0  0  0  0  0  0  0  0
   -6.5036   -7.3596   15.0610 C   0  0  0  0  0  0  0  0  0  0  0  0
   -6.1811   -5.4679   13.5868 C   0  0  0  0  0  0  0  0  0  0  0  0
   -5.7905   -4.9534   12.3845 C   0  0  0  0  0  0  0  0  0  0  0  0
   -5.2878   -5.6882   11.2953 C   0  0  0  0  0  0  0  0  0  0  0  0
   -4.9228   -5.2739   10.1960 O   0  0  0  0  0  0  0  0  0  0  0  0
   -5.9944   -3.5833   12.4771 N   0  0  0  0  0  0  0  0  0  0  0  0
   -6.4909   -3.3641   13.7177 C   0  0  0  0  0  0  0  0  0  0  0  0
   -6.6230   -4.4513   14.4261 N   0  0  0  0  0  0  0  0  0  0  0  0
  1  2  1  0  0  0  0
  2  9  1  0  0  0  0
  2  3  1  0  0  0  0
  3  5  1  0  0  0  0
  3  4  2  0  0  0  0
  5  6  1  0  0  0  0
  5  7  1  0  0  0  0
  7  8  2  0  0  0  0
  7 13  1  0  0  0  0
  8  9  1  0  0  0  0
  8 11  1  0  0  0  0
  9 10  2  0  0  0  0
 11 12  1  0  0  0  0
 12 13  2  0  0  0  0
M  END
>  <CHROM.1>
-5.75983119,-6.05269080,12.66131122,-0.77303531,1.19257961,-0.31382281

>  <Name>
1eht cryst

>  <RI>
0

>  <Rbt.Current_Directory>
/home/itssahil/PROJECTS/Mol_Feturizer/New_Systems/rnas/1eht

>  <Rbt.Executable>
rbdock ($Id: //depot/dev/client3/rdock/2013.1/src/exe/rbdock.cxx#4 $)

>  <Rbt.Library>
libRbt.so (2013.1, Build901 2013/11/27)

>  <Rbt.Parameter_File>
/export/apps/rDock/src/rDock_2013.1_src/data/scripts/dock_solv.prm

>  <Rbt.Receptor>
prm/blind_docking_100.prm

>  <SCORE>
-39.1731

>  <SCORE.INTER>
-39.1731

>  <SCORE.INTER.CONST>
1

>  <SCORE.INTER.POLAR>
-1.93007

>  <SCORE.INTER.ROT>
0

>  <SCORE.INTER.SOLV>
9.81689

>  <SCORE.INTER.VDW>
-26.5542

>  <SCORE.INTER.norm>
-3.01332

>  <SCORE.INTRA>
0

>  <SCORE.INTRA.DIHEDRAL>
0

>  <SCORE.INTRA.DIHEDRAL.0>
0

>  <SCORE.INTRA.POLAR>
0

>  <SCORE.INTRA.POLAR.0>
0

>  <SCORE.INTRA.REPUL>
0

>  <SCORE.INTRA.REPUL.0>
0

>  <SCORE.INTRA.SOLV>
0

>  <SCORE.INTRA.SOLV.lig_0>
-12.9768

>  <SCORE.INTRA.VDW>
0

>  <SCORE.INTRA.VDW.0>
0

>  <SCORE.INTRA.norm>
0

>  <SCORE.RESTR>
0

>  <SCORE.RESTR.CAVITY>
0

>  <SCORE.RESTR.norm>
0

>  <SCORE.SYSTEM>
0

>  <SCORE.SYSTEM.CONST>
0

>  <SCORE.SYSTEM.DIHEDRAL>
0

>  <SCORE.SYSTEM.SOLV>
0

>  <SCORE.SYSTEM.norm>
0

>  <SCORE.heavy>
13

>  <SCORE.norm>
-3.01332

>  <RMSD>
0.746

$$$$
1eht cryst
 OpenBabel11021811383D
libRbt.so/2013.1/901 2013/11/27
 13 14  0  0  0  0  0  0  0  0999 V2000
   -4.7629   -7.8800   10.6222 C   0  0  0  0  0  0  0  0  0  0  0  0
   -5.2366   -7.0088   11.5990 N   0  0  0  0  0  0  0  0  0  0  0  0
   -5.6255   -7.5367   12.8030 C   0  0  0  0  0  0  0  0  0  0  0  0
   -5.5283   -8.7595   12.9236 O   0  0  0  0  0  0  0  0  0  0  0  0
   -6.1113   -6.8030   13.8556 N   0  0  0  0  0  0  0  0  0  0  0  0
   -6.4969   -7.3592   15.0643 C   0  0  0  0  0  0  0  0  0  0  0  0
   -6.1770   -5.4671   13.5899 C   0  0  0  0  0  0  0  0  0  0  0  0
   -5.7883   -4.9522   12.3872 C   0  0  0  0  0  0  0  0  0  0  0  0
   -5.2870   -5.6866   11.2972 C   0  0  0  0  0  0  0  0  0  0  0  0
   -4.9237   -5.2720   10.1975 O   0  0  0  0  0  0  0  0  0  0  0  0
   -5.9926   -3.5822   12.4804 N   0  0  0  0  0  0  0  0  0  0  0  0
   -6.4873   -3.3634   13.7218 C   0  0  0  0  0  0  0  0  0  0  0  0
   -6.6181   -4.4507   14.4301 N   0  0  0  0  0  0  0  0  0  0  0  0
  1  2  1  0  0  0  0
  2  9  1  0  0  0  0
  2  3  1  0  0  0  0
  3  5  1  0  0  0  0
  3  4  2  0  0  0  0
  5  6  1  0  0  0  0
  5  7  1  0  0  0  0
  7  8  2  0  0  0  0
  7 13  1  0  0  0  0
  8  9  1  0  0  0  0
  8 11  1  0  0  0  0
  9 10  2  0  0  0  0
 11 12  1  0  0  0  0
 12 13  2  0  0  0  0
M  END
>  <CHROM.1>
-5.75693273,-6.05152900,12.66375218,-0.77100628,1.19383393,-0.31550471

>  <Name>
1eht cryst

>  <RI>
0

>  <Rbt.Current_Directory>
/home/itssahil/PROJECTS/Mol_Feturizer/New_Systems/rnas/1eht

>  <Rbt.Executable>
rbdock ($Id: //depot/dev/client3/rdock/2013.1/src/exe/rbdock.cxx#4 $)

>  <Rbt.Library>
libRbt.so (2013.1, Build901 2013/11/27)

>  <Rbt.Parameter_File>
/export/apps/rDock/src/rDock_2013.1_src/data/scripts/dock_solv.prm

>  <Rbt.Receptor>
prm/pocket_docking_2.prm

>  <SCORE>
-39.1704

>  <SCORE.INTER>
-39.1704

>  <SCORE.INTER.CONST>
1

>  <SCORE.INTER.POLAR>
-1.92671

>  <SCORE.INTER.ROT>
0

>  <SCORE.INTER.SOLV>
9.81835

>  <SCORE.INTER.VDW>
-26.564

>  <SCORE.INTER.norm>
-3.01311

>  <SCORE.INTRA>
0

>  <SCORE.INTRA.DIHEDRAL>
0

>  <SCORE.INTRA.DIHEDRAL.0>
0

>  <SCORE.INTRA.POLAR>
0

>  <SCORE.INTRA.POLAR.0>
0

>  <SCORE.INTRA.REPUL>
0

>  <SCORE.INTRA.REPUL.0>
0

>  <SCORE.INTRA.SOLV>
0

>  <SCORE.INTRA.SOLV.lig_0>
-12.9768

>  <SCORE.INTRA.VDW>
0

>  <SCORE.INTRA.VDW.0>
0

>  <SCORE.INTRA.norm>
0

>  <SCORE.RESTR>
0

>  <SCORE.RESTR.CAVITY>
0

>  <SCORE.RESTR.norm>
0

>  <SCORE.SYSTEM>
0

>  <SCORE.SYSTEM.CONST>
0

>  <SCORE.SYSTEM.DIHEDRAL>
0

>  <SCORE.SYSTEM.SOLV>
0

>  <SCORE.SYSTEM.norm>
0

>  <SCORE.heavy>
13

>  <SCORE.norm>
-3.01311

>  <RMSD>
0.746

$$$$
1eht cryst
 OpenBabel11021811383D
libRbt.so/2013.1/901 2013/11/27
 13 14  0  0  0  0  0  0  0  0999 V2000
   -4.7842   -7.8828   10.6197 C   0  0  0  0  0  0  0  0  0  0  0  0
   -5.2528   -7.0103   11.5978 N   0  0  0  0  0  0  0  0  0  0  0  0
   -5.6429   -7.5376   12.8017 C   0  0  0  0  0  0  0  0  0  0  0  0
   -5.5514   -8.7609   12.9210 O   0  0  0  0  0  0  0  0  0  0  0  0
   -6.1242   -6.8025   13.8555 N   0  0  0  0  0  0  0  0  0  0  0  0
   -6.5112   -7.3580   15.0640 C   0  0  0  0  0  0  0  0  0  0  0  0
   -6.1839   -5.4660   13.5911 C   0  0  0  0  0  0  0  0  0  0  0  0
   -5.7940   -4.9519   12.3885 C   0  0  0  0  0  0  0  0  0  0  0  0
   -5.2972   -5.6875   11.2973 C   0  0  0  0  0  0  0  0  0  0  0  0
   -4.9331   -5.2737   10.1976 O   0  0  0  0  0  0  0  0  0  0  0  0
   -5.9917   -3.5810   12.4832 N   0  0  0  0  0  0  0  0  0  0  0  0
   -6.4841   -3.3610   13.7253 C   0  0  0  0  0  0  0  0  0  0  0  0
   -6.6193   -4.4484   14.4327 N   0  0  0  0  0  0  0  0  0  0  0  0
  1  2  1  0  0  0  0
  2  9  1  0  0  0  0
  2  3  1  0  0  0  0
  3  5  1  0  0  0  0
  3  4  2  0  0  0  0
  5  6  1  0  0  0  0
  5  7  1  0  0  0  0
  7  8  2  0  0  0  0
  7 13  1  0  0  0  0
  8  9  1  0  0  0  0
  8 11  1  0  0  0  0
  9 10  2  0  0  0  0
 11 12  1  0  0  0  0
 12 13  2  0  0  0  0
M  END
>  <CHROM.1>
-5.76749059,-6.05159794,12.66397355,-0.78240448,1.19623596,-0.30394682

>  <Name>
1eht cryst

>  <RI>
0

>  <Rbt.Current_Directory>
/home/itssahil/PROJECTS/Mol_Feturizer/New_Systems/rnas/1eht

>  <Rbt.Executable>
rbdock ($Id: //depot/dev/client3/rdock/2013.1/src/exe/rbdock.cxx#4 $)

>  <Rbt.Library>
libRbt.so (2013.1, Build901 2013/11/27)

>  <Rbt.Parameter_File>
/export/apps/rDock/src/rDock_2013.1_src/data/scripts/dock_solv.prm

>  <Rbt.Receptor>
prm/pocket_docking_5.prm

>  <SCORE>
-39.1553

>  <SCORE.INTER>
-39.1553

>  <SCORE.INTER.CONST>
1

>  <SCORE.INTER.POLAR>
-1.9257

>  <SCORE.INTER.ROT>
0

>  <SCORE.INTER.SOLV>
9.82006

>  <SCORE.INTER.VDW>
-26.5579

>  <SCORE.INTER.norm>
-3.01194

>  <SCORE.INTRA>
0

>  <SCORE.INTRA.DIHEDRAL>
0

>  <SCORE.INTRA.DIHEDRAL.0>
0

>  <SCORE.INTRA.POLAR>
0

>  <SCORE.INTRA.POLAR.0>
0

>  <SCORE.INTRA.REPUL>
0

>  <SCORE.INTRA.REPUL.0>
0

>  <SCORE.INTRA.SOLV>
0

>  <SCORE.INTRA.SOLV.lig_0>
-12.9768

>  <SCORE.INTRA.VDW>
0

>  <SCORE.INTRA.VDW.0>
0

>  <SCORE.INTRA.norm>
0

>  <SCORE.RESTR>
0

>  <SCORE.RESTR.CAVITY>
0

>  <SCORE.RESTR.norm>
0

>  <SCORE.SYSTEM>
0

>  <SCORE.SYSTEM.CONST>
0

>  <SCORE.SYSTEM.DIHEDRAL>
0

>  <SCORE.SYSTEM.SOLV>
0

>  <SCORE.SYSTEM.norm>
0

>  <SCORE.heavy>
13

>  <SCORE.norm>
-3.01194

>  <RMSD>
0.747

$$$$
1eht cryst
 OpenBabel11021811383D
libRbt.so/2013.1/901 2013/11/27
 13 14  0  0  0  0  0  0  0  0999 V2000
   -4.7508   -7.8834   10.6249 C   0  0  0  0  0  0  0  0  0  0  0  0
   -5.2300   -7.0116   11.5985 N   0  0  0  0  0  0  0  0  0  0  0  0
   -5.6204   -7.5382   12.8026 C   0  0  0  0  0  0  0  0  0  0  0  0
   -5.5194   -8.7604   12.9261 O   0  0  0  0  0  0  0  0  0  0  0  0
   -6.1114   -6.8038   13.8523 N   0  0  0  0  0  0  0  0  0  0  0  0
   -6.4984   -7.3586   15.0611 C   0  0  0  0  0  0  0  0  0  0  0  0
   -6.1810   -5.4687   13.5835 C   0  0  0  0  0  0  0  0  0  0  0  0
   -5.7907   -4.9552   12.3807 C   0  0  0  0  0  0  0  0  0  0  0  0
   -5.2840   -5.6902   11.2936 C   0  0  0  0  0  0  0  0  0  0  0  0
   -4.9192   -5.2769   10.1940 O   0  0  0  0  0  0  0  0  0  0  0  0
   -5.9999   -3.5857   12.4703 N   0  0  0  0  0  0  0  0  0  0  0  0
   -6.4987   -3.3658   13.7099 C   0  0  0  0  0  0  0  0  0  0  0  0
   -6.6277   -4.4520   14.4202 N   0  0  0  0  0  0  0  0  0  0  0  0
  1  2  1  0  0  0  0
  2  9  1  0  0  0  0
  2  3  1  0  0  0  0
  3  5  1  0  0  0  0
  3  4  2  0  0  0  0
  5  6  1  0  0  0  0
  5  7  1  0  0  0  0
  7  8  2  0  0  0  0
  7 13  1  0  0  0  0
  8  9  1  0  0  0  0
  8 11  1  0  0  0  0
  9 10  2  0  0  0  0
 11 12  1  0  0  0  0
 12 13  2  0  0  0  0
M  END
>  <CHROM.1>
-5.75640051,-6.05377823,12.65974643,-0.76466232,1.19022592,-0.32359275

>  <Name>
1eht cryst

>  <RI>
0

>  <Rbt.Current_Directory>
/home/itssahil/PROJECTS/Mol_Feturizer/New_Systems/rnas/1eht

>  <Rbt.Executable>
rbdock ($Id: //depot/dev/client3/rdock/2013.1/src/exe/rbdock.cxx#4 $)

>  <Rbt.Library>
libRbt.so (2013.1, Build901 2013/11/27)

>  <Rbt.Parameter_File>
/export/apps/rDock/src/rDock_2013.1_src/data/scripts/dock_solv.prm

>  <Rbt.Receptor>
prm/pocket_docking_6.prm

>  <SCORE>
-39.1782

>  <SCORE.INTER>
-39.1782

>  <SCORE.INTER.CONST>
1

>  <SCORE.INTER.POLAR>
-1.93313

>  <SCORE.INTER.ROT>
0

>  <SCORE.INTER.SOLV>
9.81052

>  <SCORE.INTER.VDW>
-26.5452

>  <SCORE.INTER.norm>
-3.01371

>  <SCORE.INTRA>
0

>  <SCORE.INTRA.DIHEDRAL>
0

>  <SCORE.INTRA.DIHEDRAL.0>
0

>  <SCORE.INTRA.POLAR>
0

>  <SCORE.INTRA.POLAR.0>
0

>  <SCORE.INTRA.REPUL>
0

>  <SCORE.INTRA.REPUL.0>
0

>  <SCORE.INTRA.SOLV>
0

>  <SCORE.INTRA.SOLV.lig_0>
-12.9768

>  <SCORE.INTRA.VDW>
0

>  <SCORE.INTRA.VDW.0>
0

>  <SCORE.INTRA.norm>
0

>  <SCORE.RESTR>
0

>  <SCORE.RESTR.CAVITY>
0

>  <SCORE.RESTR.norm>
0

>  <SCORE.SYSTEM>
0

>  <SCORE.SYSTEM.CONST>
0

>  <SCORE.SYSTEM.DIHEDRAL>
0

>  <SCORE.SYSTEM.SOLV>
0

>  <SCORE.SYSTEM.norm>
0

>  <SCORE.heavy>
13

>  <SCORE.norm>
-3.01371

>  <RMSD>
0.747

$$$$
1eht cryst
 OpenBabel11021811383D
libRbt.so/2013.1/901 2013/11/27
 13 14  0  0  0  0  0  0  0  0999 V2000
   -4.7795   -7.8817   10.6226 C   0  0  0  0  0  0  0  0  0  0  0  0
   -5.2492   -7.0095   11.6004 N   0  0  0  0  0  0  0  0  0  0  0  0
   -5.6396   -7.5370   12.8041 C   0  0  0  0  0  0  0  0  0  0  0  0
   -5.5471   -8.7603   12.9236 O   0  0  0  0  0  0  0  0  0  0  0  0
   -6.1219   -6.8022   13.8576 N   0  0  0  0  0  0  0  0  0  0  0  0
   -6.5090   -7.3580   15.0660 C   0  0  0  0  0  0  0  0  0  0  0  0
   -6.1825   -5.4659   13.5931 C   0  0  0  0  0  0  0  0  0  0  0  0
   -5.7924   -4.9515   12.3907 C   0  0  0  0  0  0  0  0  0  0  0  0
   -5.2946   -5.6868   11.2997 C   0  0  0  0  0  0  0  0  0  0  0  0
   -4.9302   -5.2727   10.2002 O   0  0  0  0  0  0  0  0  0  0  0  0
   -5.9913   -3.5808   12.4852 N   0  0  0  0  0  0  0  0  0  0  0  0
   -6.4845   -3.3611   13.7270 C   0  0  0  0  0  0  0  0  0  0  0  0
   -6.6192   -4.4485   14.4344 N   0  0  0  0  0  0  0  0  0  0  0  0
  1  2  1  0  0  0  0
  2  9  1  0  0  0  0
  2  3  1  0  0  0  0
  3  5  1  0  0  0  0
  3  4  2  0  0  0  0
  5  6  1  0  0  0  0
  5  7  1  0  0  0  0
  7  8  2  0  0  0  0
  7 13  1  0  0  0  0
  8  9  1  0  0  0  0
  8 11  1  0  0  0  0
  9 10  2  0  0  0  0
 11 12  1  0  0  0  0
 12 13  2  0  0  0  0
M  END
>  <CHROM.1>
-5.76521260,-6.05116244,12.66623550,-0.78076400,1.19552926,-0.30554897

>  <Name>
1eht cryst

>  <RI>
0

>  <Rbt.Current_Directory>
/home/itssahil/PROJECTS/Mol_Feturizer/New_Systems/rnas/1eht

>  <Rbt.Executable>
rbdock ($Id: //depot/dev/client3/rdock/2013.1/src/exe/rbdock.cxx#4 $)

>  <Rbt.Library>
libRbt.so (2013.1, Build901 2013/11/27)

>  <Rbt.Parameter_File>
/export/apps/rDock/src/rDock_2013.1_src/data/scripts/dock_solv.prm

>  <Rbt.Receptor>
prm/pocket_docking_2.prm

>  <SCORE>
-39.1586

>  <SCORE.INTER>
-39.1586

>  <SCORE.INTER.CONST>
1

>  <SCORE.INTER.POLAR>
-1.92509

>  <SCORE.INTER.ROT>
0

>  <SCORE.INTER.SOLV>
9.82152

>  <SCORE.INTER.VDW>
-26.5626

>  <SCORE.INTER.norm>
-3.0122

>  <SCORE.INTRA>
0

>  <SCORE.INTRA.DIHEDRAL>
0

>  <SCORE.INTRA.DIHEDRAL.0>
0

>  <SCORE.INTRA.POLAR>
0

>  <SCORE.INTRA.POLAR.0>
0

>  <SCORE.INTRA.REPUL>
0

>  <SCORE.INTRA.REPUL.0>
0

>  <SCORE.INTRA.SOLV>
0

>  <SCORE.INTRA.SOLV.lig_0>
-12.9768

>  <SCORE.INTRA.VDW>
0

>  <SCORE.INTRA.VDW.0>
0

>  <SCORE.INTRA.norm>
0

>  <SCORE.RESTR>
0

>  <SCORE.RESTR.CAVITY>
0

>  <SCORE.RESTR.norm>
0

>  <SCORE.SYSTEM>
0

>  <SCORE.SYSTEM.CONST>
0

>  <SCORE.SYSTEM.DIHEDRAL>
0

>  <SCORE.SYSTEM.SOLV>
0

>  <SCORE.SYSTEM.norm>
0

>  <SCORE.heavy>
13

>  <SCORE.norm>
-3.0122

>  <RMSD>
0.748

$$$$
1eht cryst
 OpenBabel11021811383D
libRbt.so/2013.1/901 2013/11/27
 13 14  0  0  0  0  0  0  0  0999 V2000
   -4.7832   -7.9175   10.6116 C   0  0  0  0  0  0  0  0  0  0  0  0
   -5.2581   -7.0362   11.5787 N   0  0  0  0  0  0  0  0  0  0  0  0
   -5.6386   -7.5505   12.7913 C   0  0  0  0  0  0  0  0  0  0  0  0
   -5.5334   -8.7710   12.9277 O   0  0  0  0  0  0  0  0  0  0  0  0
   -6.1244   -6.8058   13.8362 N   0  0  0  0  0  0  0  0  0  0  0  0
   -6.5014   -7.3482   15.0538 C   0  0  0  0  0  0  0  0  0  0  0  0
   -6.1994   -5.4740   13.5531 C   0  0  0  0  0  0  0  0  0  0  0  0
   -5.8190   -4.9728   12.3420 C   0  0  0  0  0  0  0  0  0  0  0  0
   -5.3178   -5.7185   11.2597 C   0  0  0  0  0  0  0  0  0  0  0  0
   -4.9617   -5.3164   10.1530 O   0  0  0  0  0  0  0  0  0  0  0  0
   -6.0312   -3.6029   12.4179 N   0  0  0  0  0  0  0  0  0  0  0  0
   -6.5220   -3.3706   13.6584 C   0  0  0  0  0  0  0  0  0  0  0  0
   -6.6431   -4.4492   14.3817 N   0  0  0  0  0  0  0  0  0  0  0  0
  1  2  1  0  0  0  0
  2  9  1  0  0  0  0
  2  3  1  0  0  0  0
  3  5  1  0  0  0  0
  3  4  2  0  0  0  0
  5  6  1  0  0  0  0
  5  7  1  0  0  0  0
  7  8  2  0  0  0  0
  7 13  1  0  0  0  0
  8  9  1  0  0  0  0
  8 11  1  0  0  0  0
  9 10  2  0  0  0  0
 11 12  1  0  0  0  0
 12 13  2  0  0  0  0
M  END
>  <CHROM.1>
-5.77969235,-6.06811156,12.63297622,-0.75154213,1.19592067,-0.34686910

>  <Name>
1eht cryst

>  <RI>
0

>  <Rbt.Current_Directory>
/home/itssahil/PROJECTS/Mol_Feturizer/New_Systems/rnas/1eht

>  <Rbt.Executable>
rbdock ($Id: //depot/dev/client3/rdock/2013.1/src/exe/rbdock.cxx#4 $)

>  <Rbt.Library>
libRbt.so (2013.1, Build901 2013/11/27)

>  <Rbt.Parameter_File>
/export/apps/rDock/src/rDock_2013.1_src/data/scripts/dock_solv.prm

>  <Rbt.Receptor>
prm/blind_docking_100.prm

>  <SCORE>
-39.1502

>  <SCORE.INTER>
-39.1502

>  <SCORE.INTER.CONST>
1

>  <SCORE.INTER.POLAR>
-1.94914

>  <SCORE.INTER.ROT>
0

>  <SCORE.INTER.SOLV>
9.75453

>  <SCORE.INTER.VDW>
-26.4545

>  <SCORE.INTER.norm>
-3.01155

>  <SCORE.INTRA>
0

>  <SCORE.INTRA.DIHEDRAL>
0

>  <SCORE.INTRA.DIHEDRAL.0>
0

>  <SCORE.INTRA.POLAR>
0

>  <SCORE.INTRA.POLAR.0>
0

>  <SCORE.INTRA.REPUL>
0

>  <SCORE.INTRA.REPUL.0>
0

>  <SCORE.INTRA.SOLV>
0

>  <SCORE.INTRA.SOLV.lig_0>
-12.9768

>  <SCORE.INTRA.VDW>
0

>  <SCORE.INTRA.VDW.0>
0

>  <SCORE.INTRA.norm>
0

>  <SCORE.RESTR>
0

>  <SCORE.RESTR.CAVITY>
0

>  <SCORE.RESTR.norm>
0

>  <SCORE.SYSTEM>
0

>  <SCORE.SYSTEM.CONST>
0

>  <SCORE.SYSTEM.DIHEDRAL>
0

>  <SCORE.SYSTEM.SOLV>
0

>  <SCORE.SYSTEM.norm>
0

>  <SCORE.heavy>
13

>  <SCORE.norm>
-3.01155

>  <RMSD>
0.749

$$$$
1eht cryst
 OpenBabel11021811383D
libRbt.so/2013.1/901 2013/11/27
 13 14  0  0  0  0  0  0  0  0999 V2000
   -4.7538   -7.8816   10.6289 C   0  0  0  0  0  0  0  0  0  0  0  0
   -5.2328   -7.0100   11.6028 N   0  0  0  0  0  0  0  0  0  0  0  0
   -5.6263   -7.5373   12.8056 C   0  0  0  0  0  0  0  0  0  0  0  0
   -5.5282   -8.7599   12.9277 O   0  0  0  0  0  0  0  0  0  0  0  0
   -6.1176   -6.8031   13.8553 N   0  0  0  0  0  0  0  0  0  0  0  0
   -6.5078   -7.3587   15.0628 C   0  0  0  0  0  0  0  0  0  0  0  0
   -6.1838   -5.4676   13.5881 C   0  0  0  0  0  0  0  0  0  0  0  0
   -5.7904   -4.9534   12.3866 C   0  0  0  0  0  0  0  0  0  0  0  0
   -5.2835   -5.6881   11.2995 C   0  0  0  0  0  0  0  0  0  0  0  0
   -4.9158   -5.2742   10.2010 O   0  0  0  0  0  0  0  0  0  0  0  0
   -5.9967   -3.5835   12.4776 N   0  0  0  0  0  0  0  0  0  0  0  0
   -6.4972   -3.3641   13.7166 C   0  0  0  0  0  0  0  0  0  0  0  0
   -6.6298   -4.4510   14.4254 N   0  0  0  0  0  0  0  0  0  0  0  0
  1  2  1  0  0  0  0
  2  9  1  0  0  0  0
  2  3  1  0  0  0  0
  3  5  1  0  0  0  0
  3  4  2  0  0  0  0
  5  6  1  0  0  0  0
  5  7  1  0  0  0  0
  7  8  2  0  0  0  0
  7 13  1  0  0  0  0
  8  9  1  0  0  0  0
  8 11  1  0  0  0  0
  9 10  2  0  0  0  0
 11 12  1  0  0  0  0
 12 13  2  0  0  0  0
M  END
>  <CHROM.1>
-5.75892699,-6.05238416,12.66434454,-0.77160923,1.18929440,-0.31588203

>  <Name>
1eht cryst

>  <RI>
0

>  <Rbt.Current_Directory>
/home/itssahil/PROJECTS/Mol_Feturizer/New_Systems/rnas/1eht

>  <Rbt.Executable>
rbdock ($Id: //depot/dev/client3/rdock/2013.1/src/exe/rbdock.cxx#4 $)

>  <Rbt.Library>
libRbt.so (2013.1, Build901 2013/11/27)

>  <Rbt.Parameter_File>
/export/apps/rDock/src/rDock_2013.1_src/data/scripts/dock_solv.prm

>  <Rbt.Receptor>
prm/blind_docking_20.prm

>  <SCORE>
-39.176

>  <SCORE.INTER>
-39.176

>  <SCORE.INTER.CONST>
1

>  <SCORE.INTER.POLAR>
-1.93208

>  <SCORE.INTER.ROT>
0

>  <SCORE.INTER.SOLV>
9.8177

>  <SCORE.INTER.VDW>
-26.5497

>  <SCORE.INTER.norm>
-3.01354

>  <SCORE.INTRA>
0

>  <SCORE.INTRA.DIHEDRAL>
0

>  <SCORE.INTRA.DIHEDRAL.0>
0

>  <SCORE.INTRA.POLAR>
0

>  <SCORE.INTRA.POLAR.0>
0

>  <SCORE.INTRA.REPUL>
0

>  <SCORE.INTRA.REPUL.0>
0

>  <SCORE.INTRA.SOLV>
0

>  <SCORE.INTRA.SOLV.lig_0>
-12.9768

>  <SCORE.INTRA.VDW>
0

>  <SCORE.INTRA.VDW.0>
0

>  <SCORE.INTRA.norm>
0

>  <SCORE.RESTR>
0

>  <SCORE.RESTR.CAVITY>
0

>  <SCORE.RESTR.norm>
0

>  <SCORE.SYSTEM>
0

>  <SCORE.SYSTEM.CONST>
0

>  <SCORE.SYSTEM.DIHEDRAL>
0

>  <SCORE.SYSTEM.SOLV>
0

>  <SCORE.SYSTEM.norm>
0

>  <SCORE.heavy>
13

>  <SCORE.norm>
-3.01354

>  <RMSD>
0.749

$$$$
1eht cryst
 OpenBabel11021811383D
libRbt.so/2013.1/901 2013/11/27
 13 14  0  0  0  0  0  0  0  0999 V2000
   -4.7599   -7.8768   10.6282 C   0  0  0  0  0  0  0  0  0  0  0  0
   -5.2372   -7.0065   11.6041 N   0  0  0  0  0  0  0  0  0  0  0  0
   -5.6336   -7.5359   12.8050 C   0  0  0  0  0  0  0  0  0  0  0  0
   -5.5395   -8.7591   12.9238 O   0  0  0  0  0  0  0  0  0  0  0  0
   -6.1237   -6.8032   13.8563 N   0  0  0  0  0  0  0  0  0  0  0  0
   -6.5169   -7.3609   15.0618 C   0  0  0  0  0  0  0  0  0  0  0  0
   -6.1853   -5.4666   13.5928 C   0  0  0  0  0  0  0  0  0  0  0  0
   -5.7891   -4.9503   12.3932 C   0  0  0  0  0  0  0  0  0  0  0  0
   -5.2833   -5.6836   11.3045 C   0  0  0  0  0  0  0  0  0  0  0  0
   -4.9133   -5.2677   10.2075 O   0  0  0  0  0  0  0  0  0  0  0  0
   -5.9912   -3.5801   12.4878 N   0  0  0  0  0  0  0  0  0  0  0  0
   -6.4922   -3.3626   13.7269 C   0  0  0  0  0  0  0  0  0  0  0  0
   -6.6289   -4.4510   14.4324 N   0  0  0  0  0  0  0  0  0  0  0  0
  1  2  1  0  0  0  0
  2  9  1  0  0  0  0
  2  3  1  0  0  0  0
  3  5  1  0  0  0  0
  3  4  2  0  0  0  0
  5  6  1  0  0  0  0
  5  7  1  0  0  0  0
  7  8  2  0  0  0  0
  7 13  1  0  0  0  0
  8  9  1  0  0  0  0
  8 11  1  0  0  0  0
  9 10  2  0  0  0  0
 11 12  1  0  0  0  0
 12 13  2  0  0  0  0
M  END
>  <CHROM.1>
-5.76136447,-6.05020302,12.66779120,-0.78055203,1.18928397,-0.30475677

>  <Name>
1eht cryst

>  <RI>
0

>  <Rbt.Current_Directory>
/home/itssahil/PROJECTS/Mol_Feturizer/New_Systems/rnas/1eht

>  <Rbt.Executable>
rbdock ($Id: //depot/dev/client3/rdock/2013.1/src/exe/rbdock.cxx#4 $)

>  <Rbt.Library>
libRbt.so (2013.1, Build901 2013/11/27)

>  <Rbt.Parameter_File>
/export/apps/rDock/src/rDock_2013.1_src/data/scripts/dock_solv.prm

>  <Rbt.Receptor>
prm/blind_docking_40.prm

>  <SCORE>
-39.1693

>  <SCORE.INTER>
-39.1693

>  <SCORE.INTER.CONST>
1

>  <SCORE.INTER.POLAR>
-1.9298

>  <SCORE.INTER.ROT>
0

>  <SCORE.INTER.SOLV>
9.8303

>  <SCORE.INTER.VDW>
-26.557

>  <SCORE.INTER.norm>
-3.01303

>  <SCORE.INTRA>
0

>  <SCORE.INTRA.DIHEDRAL>
0

>  <SCORE.INTRA.DIHEDRAL.0>
0

>  <SCORE.INTRA.POLAR>
0

>  <SCORE.INTRA.POLAR.0>
0

>  <SCORE.INTRA.REPUL>
0

>  <SCORE.INTRA.REPUL.0>
0

>  <SCORE.INTRA.SOLV>
0

>  <SCORE.INTRA.SOLV.lig_0>
-12.9768

>  <SCORE.INTRA.VDW>
0

>  <SCORE.INTRA.VDW.0>
0

>  <SCORE.INTRA.norm>
0

>  <SCORE.RESTR>
0

>  <SCORE.RESTR.CAVITY>
0

>  <SCORE.RESTR.norm>
0

>  <SCORE.SYSTEM>
0

>  <SCORE.SYSTEM.CONST>
0

>  <SCORE.SYSTEM.DIHEDRAL>
0

>  <SCORE.SYSTEM.SOLV>
0

>  <SCORE.SYSTEM.norm>
0

>  <SCORE.heavy>
13

>  <SCORE.norm>
-3.01303

>  <RMSD>
0.749

$$$$
1eht cryst
 OpenBabel11021811383D
libRbt.so/2013.1/901 2013/11/27
 13 14  0  0  0  0  0  0  0  0999 V2000
   -4.7724   -7.8742   10.6269 C   0  0  0  0  0  0  0  0  0  0  0  0
   -5.2469   -7.0047   11.6048 N   0  0  0  0  0  0  0  0  0  0  0  0
   -5.6439   -7.5355   12.8049 C   0  0  0  0  0  0  0  0  0  0  0  0
   -5.5527   -8.7592   12.9212 O   0  0  0  0  0  0  0  0  0  0  0  0
   -6.1314   -6.8036   13.8580 N   0  0  0  0  0  0  0  0  0  0  0  0
   -6.5252   -7.3628   15.0626 C   0  0  0  0  0  0  0  0  0  0  0  0
   -6.1899   -5.4665   13.5972 C   0  0  0  0  0  0  0  0  0  0  0  0
   -5.7932   -4.9487   12.3984 C   0  0  0  0  0  0  0  0  0  0  0  0
   -5.2899   -5.6811   11.3079 C   0  0  0  0  0  0  0  0  0  0  0  0
   -4.9195   -5.2639   10.2115 O   0  0  0  0  0  0  0  0  0  0  0  0
   -5.9918   -3.5782   12.4959 N   0  0  0  0  0  0  0  0  0  0  0  0
   -6.4914   -3.3619   13.7357 C   0  0  0  0  0  0  0  0  0  0  0  0
   -6.6305   -4.4514   14.4392 N   0  0  0  0  0  0  0  0  0  0  0  0
  1  2  1  0  0  0  0
  2  9  1  0  0  0  0
  2  3  1  0  0  0  0
  3  5  1  0  0  0  0
  3  4  2  0  0  0  0
  5  6  1  0  0  0  0
  5  7  1  0  0  0  0
  7  8  2  0  0  0  0
  7 13  1  0  0  0  0
  8  9  1  0  0  0  0
  8 11  1  0  0  0  0
  9 10  2  0  0  0  0
 11 12  1  0  0  0  0
 12 13  2  0  0  0  0
M  END
>  <CHROM.1>
-5.76801305,-6.04921857,12.67078293,-0.78643519,1.19063699,-0.29729648

>  <Name>
1eht cryst

>  <RI>
224

>  <Rbt.Current_Directory>
/home/itssahil/PROJECTS/Mol_Feturizer/New_Systems/rnas/1eht

>  <Rbt.Executable>
rbdock ($Id: //depot/dev/client3/rdock/2013.1/src/exe/rbdock.cxx#4 $)

>  <Rbt.Library>
libRbt.so (2013.1, Build901 2013/11/27)

>  <Rbt.Parameter_File>
/export/apps/rDock/src/rDock_2013.1_src/data/scripts/dock_solv.prm

>  <Rbt.Receptor>
prm/pocket_docking_7.prm

>  <SCORE>
-39.1468

>  <SCORE.INTER>
-39.1468

>  <SCORE.INTER.CONST>
1

>  <SCORE.INTER.POLAR>
-1.92559

>  <SCORE.INTER.ROT>
0

>  <SCORE.INTER.SOLV>
9.83479

>  <SCORE.INTER.VDW>
-26.5575

>  <SCORE.INTER.norm>
-3.01129

>  <SCORE.INTRA>
0

>  <SCORE.INTRA.DIHEDRAL>
0

>  <SCORE.INTRA.DIHEDRAL.0>
0

>  <SCORE.INTRA.POLAR>
0

>  <SCORE.INTRA.POLAR.0>
0

>  <SCORE.INTRA.REPUL>
0

>  <SCORE.INTRA.REPUL.0>
0

>  <SCORE.INTRA.SOLV>
0

>  <SCORE.INTRA.SOLV.lig_0>
-12.9768

>  <SCORE.INTRA.VDW>
0

>  <SCORE.INTRA.VDW.0>
0

>  <SCORE.INTRA.norm>
0

>  <SCORE.RESTR>
0

>  <SCORE.RESTR.CAVITY>
0

>  <SCORE.RESTR.norm>
0

>  <SCORE.SYSTEM>
0

>  <SCORE.SYSTEM.CONST>
0

>  <SCORE.SYSTEM.DIHEDRAL>
0

>  <SCORE.SYSTEM.SOLV>
0

>  <SCORE.SYSTEM.norm>
0

>  <SCORE.heavy>
13

>  <SCORE.norm>
-3.01129

>  <RMSD>
0.749

$$$$
1eht cryst
 OpenBabel11021811383D
libRbt.so/2013.1/901 2013/11/27
 13 14  0  0  0  0  0  0  0  0999 V2000
   -4.7557   -7.8795   10.6230 C   0  0  0  0  0  0  0  0  0  0  0  0
   -5.2347   -7.0047   11.5940 N   0  0  0  0  0  0  0  0  0  0  0  0
   -5.6278   -7.5280   12.7987 C   0  0  0  0  0  0  0  0  0  0  0  0
   -5.5293   -8.7501   12.9250 O   0  0  0  0  0  0  0  0  0  0  0  0
   -6.1190   -6.7904   13.8461 N   0  0  0  0  0  0  0  0  0  0  0  0
   -6.5088   -7.3418   15.0555 C   0  0  0  0  0  0  0  0  0  0  0  0
   -6.1857   -5.4557   13.5743 C   0  0  0  0  0  0  0  0  0  0  0  0
   -5.7928   -4.9456   12.3709 C   0  0  0  0  0  0  0  0  0  0  0  0
   -5.2859   -5.6839   11.2862 C   0  0  0  0  0  0  0  0  0  0  0  0
   -4.9186   -5.2736   10.1862 O   0  0  0  0  0  0  0  0  0  0  0  0
   -5.9995   -3.5755   12.4572 N   0  0  0  0  0  0  0  0  0  0  0  0
   -6.4997   -3.3520   13.6956 C   0  0  0  0  0  0  0  0  0  0  0  0
   -6.6318   -4.4364   14.4081 N   0  0  0  0  0  0  0  0  0  0  0  0
  1  2  1  0  0  0  0
  2  9  1  0  0  0  0
  2  3  1  0  0  0  0
  3  5  1  0  0  0  0
  3  4  2  0  0  0  0
  5  6  1  0  0  0  0
  5  7  1  0  0  0  0
  7  8  2  0  0  0  0
  7 13  1  0  0  0  0
  8  9  1  0  0  0  0
  8 11  1  0  0  0  0
  9 10  2  0  0  0  0
 11 12  1  0  0  0  0
 12 13  2  0  0  0  0
M  END
>  <CHROM.1>
-5.76089110,-6.04361204,12.65239414,-0.77058610,1.18943073,-0.32027770

>  <Name>
1eht cryst

>  <RI>
0

>  <Rbt.Current_Directory>
/home/itssahil/PROJECTS/Mol_Feturizer/New_Systems/rnas/1eht

>  <Rbt.Executable>
rbdock ($Id: //depot/dev/client3/rdock/2013.1/src/exe/rbdock.cxx#4 $)

>  <Rbt.Library>
libRbt.so (2013.1, Build901 2013/11/27)

>  <Rbt.Parameter_File>
/export/apps/rDock/src/rDock_2013.1_src/data/scripts/dock_solv.prm

>  <Rbt.Receptor>
prm/pocket_docking_8.prm

>  <SCORE>
-39.1605

>  <SCORE.INTER>
-39.1605

>  <SCORE.INTER.CONST>
1

>  <SCORE.INTER.POLAR>
-1.93237

>  <SCORE.INTER.ROT>
0

>  <SCORE.INTER.SOLV>
9.83207

>  <SCORE.INTER.VDW>
-26.5431

>  <SCORE.INTER.norm>
-3.01235

>  <SCORE.INTRA>
0

>  <SCORE.INTRA.DIHEDRAL>
0

>  <SCORE.INTRA.DIHEDRAL.0>
0

>  <SCORE.INTRA.POLAR>
0

>  <SCORE.INTRA.POLAR.0>
0

>  <SCORE.INTRA.REPUL>
0

>  <SCORE.INTRA.REPUL.0>
0

>  <SCORE.INTRA.SOLV>
0

>  <SCORE.INTRA.SOLV.lig_0>
-12.9768

>  <SCORE.INTRA.VDW>
0

>  <SCORE.INTRA.VDW.0>
0

>  <SCORE.INTRA.norm>
0

>  <SCORE.RESTR>
0

>  <SCORE.RESTR.CAVITY>
0

>  <SCORE.RESTR.norm>
0

>  <SCORE.SYSTEM>
0

>  <SCORE.SYSTEM.CONST>
0

>  <SCORE.SYSTEM.DIHEDRAL>
0

>  <SCORE.SYSTEM.SOLV>
0

>  <SCORE.SYSTEM.norm>
0

>  <SCORE.heavy>
13

>  <SCORE.norm>
-3.01235

>  <RMSD>
0.749

$$$$
1eht cryst
 OpenBabel11021811383D
libRbt.so/2013.1/901 2013/11/27
 13 14  0  0  0  0  0  0  0  0999 V2000
   -4.7572   -7.8815   10.6285 C   0  0  0  0  0  0  0  0  0  0  0  0
   -5.2346   -7.0097   11.6030 N   0  0  0  0  0  0  0  0  0  0  0  0
   -5.6278   -7.5370   12.8060 C   0  0  0  0  0  0  0  0  0  0  0  0
   -5.5309   -8.7597   12.9276 O   0  0  0  0  0  0  0  0  0  0  0  0
   -6.1176   -6.8026   13.8563 N   0  0  0  0  0  0  0  0  0  0  0  0
   -6.5075   -7.3582   15.0639 C   0  0  0  0  0  0  0  0  0  0  0  0
   -6.1825   -5.4669   13.5895 C   0  0  0  0  0  0  0  0  0  0  0  0
   -5.7895   -4.9527   12.3879 C   0  0  0  0  0  0  0  0  0  0  0  0
   -5.2841   -5.6877   11.3002 C   0  0  0  0  0  0  0  0  0  0  0  0
   -4.9168   -5.2738   10.2016 O   0  0  0  0  0  0  0  0  0  0  0  0
   -5.9944   -3.5827   12.4795 N   0  0  0  0  0  0  0  0  0  0  0  0
   -6.4936   -3.3632   13.7189 C   0  0  0  0  0  0  0  0  0  0  0  0
   -6.6269   -4.4501   14.4274 N   0  0  0  0  0  0  0  0  0  0  0  0
  1  2  1  0  0  0  0
  2  9  1  0  0  0  0
  2  3  1  0  0  0  0
  3  5  1  0  0  0  0
  3  4  2  0  0  0  0
  5  6  1  0  0  0  0
  5  7  1  0  0  0  0
  7  8  2  0  0  0  0
  7 13  1  0  0  0  0
  8  9  1  0  0  0  0
  8 11  1  0  0  0  0
  9 10  2  0  0  0  0
 11 12  1  0  0  0  0
 12 13  2  0  0  0  0
M  END
>  <CHROM.1>
-5.75896640,-6.05189222,12.66527457,-0.77366697,1.19030351,-0.31364965

>  <Name>
1eht cryst

>  <RI>
0

>  <Rbt.Current_Directory>
/home/itssahil/PROJECTS/Mol_Feturizer/New_Systems/rnas/1eht

>  <Rbt.Executable>
rbdock ($Id: //depot/dev/client3/rdock/2013.1/src/exe/rbdock.cxx#4 $)

>  <Rbt.Library>
libRbt.so (2013.1, Build901 2013/11/27)

>  <Rbt.Parameter_File>
/export/apps/rDock/src/rDock_2013.1_src/data/scripts/dock_solv.prm

>  <Rbt.Receptor>
prm/blind_docking_20.prm

>  <SCORE>
-39.1736

>  <SCORE.INTER>
-39.1736

>  <SCORE.INTER.CONST>
1

>  <SCORE.INTER.POLAR>
-1.93041

>  <SCORE.INTER.ROT>
0

>  <SCORE.INTER.SOLV>
9.81974

>  <SCORE.INTER.VDW>
-26.5543

>  <SCORE.INTER.norm>
-3.01335

>  <SCORE.INTRA>
0

>  <SCORE.INTRA.DIHEDRAL>
0

>  <SCORE.INTRA.DIHEDRAL.0>
0

>  <SCORE.INTRA.POLAR>
0

>  <SCORE.INTRA.POLAR.0>
0

>  <SCORE.INTRA.REPUL>
0

>  <SCORE.INTRA.REPUL.0>
0

>  <SCORE.INTRA.SOLV>
0

>  <SCORE.INTRA.SOLV.lig_0>
-12.9768

>  <SCORE.INTRA.VDW>
0

>  <SCORE.INTRA.VDW.0>
0

>  <SCORE.INTRA.norm>
0

>  <SCORE.RESTR>
0

>  <SCORE.RESTR.CAVITY>
0

>  <SCORE.RESTR.norm>
0

>  <SCORE.SYSTEM>
0

>  <SCORE.SYSTEM.CONST>
0

>  <SCORE.SYSTEM.DIHEDRAL>
0

>  <SCORE.SYSTEM.SOLV>
0

>  <SCORE.SYSTEM.norm>
0

>  <SCORE.heavy>
13

>  <SCORE.norm>
-3.01335

>  <RMSD>
0.750

$$$$
1eht cryst
 OpenBabel11021811383D
libRbt.so/2013.1/901 2013/11/27
 13 14  0  0  0  0  0  0  0  0999 V2000
   -4.8019   -7.8881   10.6307 C   0  0  0  0  0  0  0  0  0  0  0  0
   -5.2611   -7.0202   11.6173 N   0  0  0  0  0  0  0  0  0  0  0  0
   -5.6501   -7.5543   12.8186 C   0  0  0  0  0  0  0  0  0  0  0  0
   -5.5661   -8.7791   12.9281 O   0  0  0  0  0  0  0  0  0  0  0  0
   -6.1226   -6.8243   13.8799 N   0  0  0  0  0  0  0  0  0  0  0  0
   -6.5086   -7.3867   15.0855 C   0  0  0  0  0  0  0  0  0  0  0  0
   -6.1746   -5.4855   13.6261 C   0  0  0  0  0  0  0  0  0  0  0  0
   -5.7859   -4.9646   12.4260 C   0  0  0  0  0  0  0  0  0  0  0  0
   -5.2981   -5.6949   11.3272 C   0  0  0  0  0  0  0  0  0  0  0  0
   -4.9354   -5.2749   10.2294 O   0  0  0  0  0  0  0  0  0  0  0  0
   -5.9744   -3.5932   12.5321 N   0  0  0  0  0  0  0  0  0  0  0  0
   -6.4607   -3.3797   13.7777 C   0  0  0  0  0  0  0  0  0  0  0  0
   -6.6003   -4.4717   14.4772 N   0  0  0  0  0  0  0  0  0  0  0  0
  1  2  1  0  0  0  0
  2  9  1  0  0  0  0
  2  3  1  0  0  0  0
  3  5  1  0  0  0  0
  3  4  2  0  0  0  0
  5  6  1  0  0  0  0
  5  7  1  0  0  0  0
  7  8  2  0  0  0  0
  7 13  1  0  0  0  0
  8  9  1  0  0  0  0
  8 11  1  0  0  0  0
  9 10  2  0  0  0  0
 11 12  1  0  0  0  0
 12 13  2  0  0  0  0
M  END
>  <CHROM.1>
-5.76554776,-6.06653585,12.69286097,-0.79644821,1.20175510,-0.28311124

>  <Name>
1eht cryst

>  <RI>
0

>  <Rbt.Current_Directory>
/home/itssahil/PROJECTS/Mol_Feturizer/New_Systems/rnas/1eht

>  <Rbt.Executable>
rbdock ($Id: //depot/dev/client3/rdock/2013.1/src/exe/rbdock.cxx#4 $)

>  <Rbt.Library>
libRbt.so (2013.1, Build901 2013/11/27)

>  <Rbt.Parameter_File>
/export/apps/rDock/src/rDock_2013.1_src/data/scripts/dock_solv.prm

>  <Rbt.Receptor>
prm/pocket_docking_2.prm

>  <SCORE>
-39.1597

>  <SCORE.INTER>
-39.1597

>  <SCORE.INTER.CONST>
1

>  <SCORE.INTER.POLAR>
-1.9146

>  <SCORE.INTER.ROT>
0

>  <SCORE.INTER.SOLV>
9.80728

>  <SCORE.INTER.VDW>
-26.5936

>  <SCORE.INTER.norm>
-3.01229

>  <SCORE.INTRA>
0

>  <SCORE.INTRA.DIHEDRAL>
0

>  <SCORE.INTRA.DIHEDRAL.0>
0

>  <SCORE.INTRA.POLAR>
0

>  <SCORE.INTRA.POLAR.0>
0

>  <SCORE.INTRA.REPUL>
0

>  <SCORE.INTRA.REPUL.0>
0

>  <SCORE.INTRA.SOLV>
0

>  <SCORE.INTRA.SOLV.lig_0>
-12.9768

>  <SCORE.INTRA.VDW>
0

>  <SCORE.INTRA.VDW.0>
0

>  <SCORE.INTRA.norm>
0

>  <SCORE.RESTR>
0

>  <SCORE.RESTR.CAVITY>
0

>  <SCORE.RESTR.norm>
0

>  <SCORE.SYSTEM>
0

>  <SCORE.SYSTEM.CONST>
0

>  <SCORE.SYSTEM.DIHEDRAL>
0

>  <SCORE.SYSTEM.SOLV>
0

>  <SCORE.SYSTEM.norm>
0

>  <SCORE.heavy>
13

>  <SCORE.norm>
-3.01229

>  <RMSD>
0.751

$$$$
1eht cryst
 OpenBabel11021811383D
libRbt.so/2013.1/901 2013/11/27
 13 14  0  0  0  0  0  0  0  0999 V2000
   -4.7962   -7.9139   10.6153 C   0  0  0  0  0  0  0  0  0  0  0  0
   -5.2722   -7.0330   11.5822 N   0  0  0  0  0  0  0  0  0  0  0  0
   -5.6600   -7.5485   12.7919 C   0  0  0  0  0  0  0  0  0  0  0  0
   -5.5598   -8.7696   12.9262 O   0  0  0  0  0  0  0  0  0  0  0  0
   -6.1479   -6.8042   13.8362 N   0  0  0  0  0  0  0  0  0  0  0  0
   -6.5323   -7.3479   15.0509 C   0  0  0  0  0  0  0  0  0  0  0  0
   -6.2169   -5.4715   13.5556 C   0  0  0  0  0  0  0  0  0  0  0  0
   -5.8292   -4.9692   12.3473 C   0  0  0  0  0  0  0  0  0  0  0  0
   -5.3258   -5.7144   11.2656 C   0  0  0  0  0  0  0  0  0  0  0  0
   -4.9633   -5.3112   10.1614 O   0  0  0  0  0  0  0  0  0  0  0  0
   -6.0369   -3.5987   12.4251 N   0  0  0  0  0  0  0  0  0  0  0  0
   -6.5325   -3.3673   13.6639 C   0  0  0  0  0  0  0  0  0  0  0  0
   -6.6607   -4.4470   14.3843 N   0  0  0  0  0  0  0  0  0  0  0  0
  1  2  1  0  0  0  0
  2  9  1  0  0  0  0
  2  3  1  0  0  0  0
  3  5  1  0  0  0  0
  3  4  2  0  0  0  0
  5  6  1  0  0  0  0
  5  7  1  0  0  0  0
  7  8  2  0  0  0  0
  7 13  1  0  0  0  0
  8  9  1  0  0  0  0
  8 11  1  0  0  0  0
  9 10  2  0  0  0  0
 11 12  1  0  0  0  0
 12 13  2  0  0  0  0
M  END
>  <CHROM.1>
-5.79513902,-6.06526557,12.63607508,-0.76475825,1.19285168,-0.33247320

>  <Name>
1eht cryst

>  <RI>
0

>  <Rbt.Current_Directory>
/home/itssahil/PROJECTS/Mol_Feturizer/New_Systems/rnas/1eht

>  <Rbt.Executable>
rbdock ($Id: //depot/dev/client3/rdock/2013.1/src/exe/rbdock.cxx#4 $)

>  <Rbt.Library>
libRbt.so (2013.1, Build901 2013/11/27)

>  <Rbt.Parameter_File>
/export/apps/rDock/src/rDock_2013.1_src/data/scripts/dock_solv.prm

>  <Rbt.Receptor>
prm/pocket_docking_4.prm

>  <SCORE>
-39.1467

>  <SCORE.INTER>
-39.1467

>  <SCORE.INTER.CONST>
1

>  <SCORE.INTER.POLAR>
-1.94932

>  <SCORE.INTER.ROT>
0

>  <SCORE.INTER.SOLV>
9.76533

>  <SCORE.INTER.VDW>
-26.4552

>  <SCORE.INTER.norm>
-3.01128

>  <SCORE.INTRA>
0

>  <SCORE.INTRA.DIHEDRAL>
0

>  <SCORE.INTRA.DIHEDRAL.0>
0

>  <SCORE.INTRA.POLAR>
0

>  <SCORE.INTRA.POLAR.0>
0

>  <SCORE.INTRA.REPUL>
0

>  <SCORE.INTRA.REPUL.0>
0

>  <SCORE.INTRA.SOLV>
0

>  <SCORE.INTRA.SOLV.lig_0>
-12.9768

>  <SCORE.INTRA.VDW>
0

>  <SCORE.INTRA.VDW.0>
0

>  <SCORE.INTRA.norm>
0

>  <SCORE.RESTR>
0

>  <SCORE.RESTR.CAVITY>
0

>  <SCORE.RESTR.norm>
0

>  <SCORE.SYSTEM>
0

>  <SCORE.SYSTEM.CONST>
0

>  <SCORE.SYSTEM.DIHEDRAL>
0

>  <SCORE.SYSTEM.SOLV>
0

>  <SCORE.SYSTEM.norm>
0

>  <SCORE.heavy>
13

>  <SCORE.norm>
-3.01128

>  <RMSD>
0.753

$$$$
1eht cryst
 OpenBabel11021811383D
libRbt.so/2013.1/901 2013/11/27
 13 14  0  0  0  0  0  0  0  0999 V2000
   -4.7305   -7.8776   10.6347 C   0  0  0  0  0  0  0  0  0  0  0  0
   -5.2234   -7.0034   11.5992 N   0  0  0  0  0  0  0  0  0  0  0  0
   -5.6266   -7.5265   12.8007 C   0  0  0  0  0  0  0  0  0  0  0  0
   -5.5240   -8.7479   12.9301 O   0  0  0  0  0  0  0  0  0  0  0  0
   -6.1319   -6.7893   13.8416 N   0  0  0  0  0  0  0  0  0  0  0  0
   -6.5317   -7.3405   15.0479 C   0  0  0  0  0  0  0  0  0  0  0  0
   -6.2016   -5.4554   13.5669 C   0  0  0  0  0  0  0  0  0  0  0  0
   -5.7985   -4.9455   12.3668 C   0  0  0  0  0  0  0  0  0  0  0  0
   -5.2772   -5.6834   11.2887 C   0  0  0  0  0  0  0  0  0  0  0  0
   -4.9004   -5.2732   10.1918 O   0  0  0  0  0  0  0  0  0  0  0  0
   -6.0122   -3.5762   12.4487 N   0  0  0  0  0  0  0  0  0  0  0  0
   -6.5261   -3.3529   13.6814 C   0  0  0  0  0  0  0  0  0  0  0  0
   -6.6608   -4.4367   14.3944 N   0  0  0  0  0  0  0  0  0  0  0  0
  1  2  1  0  0  0  0
  2  9  1  0  0  0  0
  2  3  1  0  0  0  0
  3  5  1  0  0  0  0
  3  4  2  0  0  0  0
  5  6  1  0  0  0  0
  5  7  1  0  0  0  0
  7  8  2  0  0  0  0
  7 13  1  0  0  0  0
  8  9  1  0  0  0  0
  8 11  1  0  0  0  0
  9 10  2  0  0  0  0
 11 12  1  0  0  0  0
 12 13  2  0  0  0  0
M  END
>  <CHROM.1>
-5.76469802,-6.04290956,12.65048170,-0.76817964,1.17822921,-0.32416525

>  <Name>
1eht cryst

>  <RI>
0

>  <Rbt.Current_Directory>
/home/itssahil/PROJECTS/Mol_Feturizer/New_Systems/rnas/1eht

>  <Rbt.Executable>
rbdock ($Id: //depot/dev/client3/rdock/2013.1/src/exe/rbdock.cxx#4 $)

>  <Rbt.Library>
libRbt.so (2013.1, Build901 2013/11/27)

>  <Rbt.Parameter_File>
/export/apps/rDock/src/rDock_2013.1_src/data/scripts/dock_solv.prm

>  <Rbt.Receptor>
prm/pocket_docking_6.prm

>  <SCORE>
-39.1397

>  <SCORE.INTER>
-39.1397

>  <SCORE.INTER.CONST>
1

>  <SCORE.INTER.POLAR>
-1.94499

>  <SCORE.INTER.ROT>
0

>  <SCORE.INTER.SOLV>
9.83438

>  <SCORE.INTER.VDW>
-26.488

>  <SCORE.INTER.norm>
-3.01075

>  <SCORE.INTRA>
0

>  <SCORE.INTRA.DIHEDRAL>
0

>  <SCORE.INTRA.DIHEDRAL.0>
0

>  <SCORE.INTRA.POLAR>
0

>  <SCORE.INTRA.POLAR.0>
0

>  <SCORE.INTRA.REPUL>
0

>  <SCORE.INTRA.REPUL.0>
0

>  <SCORE.INTRA.SOLV>
0

>  <SCORE.INTRA.SOLV.lig_0>
-12.9768

>  <SCORE.INTRA.VDW>
0

>  <SCORE.INTRA.VDW.0>
0

>  <SCORE.INTRA.norm>
0

>  <SCORE.RESTR>
0

>  <SCORE.RESTR.CAVITY>
0

>  <SCORE.RESTR.norm>
0

>  <SCORE.SYSTEM>
0

>  <SCORE.SYSTEM.CONST>
0

>  <SCORE.SYSTEM.DIHEDRAL>
0

>  <SCORE.SYSTEM.SOLV>
0

>  <SCORE.SYSTEM.norm>
0

>  <SCORE.heavy>
13

>  <SCORE.norm>
-3.01075

>  <RMSD>
0.755

$$$$
1eht cryst
 OpenBabel11021811383D
libRbt.so/2013.1/901 2013/11/27
 13 14  0  0  0  0  0  0  0  0999 V2000
   -4.7535   -7.8779   10.6336 C   0  0  0  0  0  0  0  0  0  0  0  0
   -5.2370   -7.0017   11.6011 N   0  0  0  0  0  0  0  0  0  0  0  0
   -5.6359   -7.5234   12.8046 C   0  0  0  0  0  0  0  0  0  0  0  0
   -5.5382   -8.7453   12.9330 O   0  0  0  0  0  0  0  0  0  0  0  0
   -6.1319   -6.7842   13.8486 N   0  0  0  0  0  0  0  0  0  0  0  0
   -6.5275   -7.3341   15.0570 C   0  0  0  0  0  0  0  0  0  0  0  0
   -6.1970   -5.4500   13.5748 C   0  0  0  0  0  0  0  0  0  0  0  0
   -5.7983   -4.9414   12.3726 C   0  0  0  0  0  0  0  0  0  0  0  0
   -5.2864   -5.6813   11.2913 C   0  0  0  0  0  0  0  0  0  0  0  0
   -4.9139   -5.2726   10.1925 O   0  0  0  0  0  0  0  0  0  0  0  0
   -6.0052   -3.5712   12.4562 N   0  0  0  0  0  0  0  0  0  0  0  0
   -6.5112   -3.3460   13.6918 C   0  0  0  0  0  0  0  0  0  0  0  0
   -6.6469   -4.4295   14.4052 N   0  0  0  0  0  0  0  0  0  0  0  0
  1  2  1  0  0  0  0
  2  9  1  0  0  0  0
  2  3  1  0  0  0  0
  3  5  1  0  0  0  0
  3  4  2  0  0  0  0
  5  6  1  0  0  0  0
  5  7  1  0  0  0  0
  7  8  2  0  0  0  0
  7 13  1  0  0  0  0
  8  9  1  0  0  0  0
  8 11  1  0  0  0  0
  9 10  2  0  0  0  0
 11 12  1  0  0  0  0
 12 13  2  0  0  0  0
M  END
>  <CHROM.1>
-5.76797143,-6.03913145,12.65571718,-0.77505002,1.18498271,-0.31745572

>  <Name>
1eht cryst

>  <RI>
0

>  <Rbt.Current_Directory>
/home/itssahil/PROJECTS/Mol_Feturizer/New_Systems/rnas/1eht

>  <Rbt.Executable>
rbdock ($Id: //depot/dev/client3/rdock/2013.1/src/exe/rbdock.cxx#4 $)

>  <Rbt.Library>
libRbt.so (2013.1, Build901 2013/11/27)

>  <Rbt.Parameter_File>
/export/apps/rDock/src/rDock_2013.1_src/data/scripts/dock_solv.prm

>  <Rbt.Receptor>
prm/blind_docking_100.prm

>  <SCORE>
-39.1765

>  <SCORE.INTER>
-39.1765

>  <SCORE.INTER.CONST>
1

>  <SCORE.INTER.POLAR>
-1.9349

>  <SCORE.INTER.ROT>
0

>  <SCORE.INTER.SOLV>
9.8411

>  <SCORE.INTER.VDW>
-26.5484

>  <SCORE.INTER.norm>
-3.01358

>  <SCORE.INTRA>
0

>  <SCORE.INTRA.DIHEDRAL>
0

>  <SCORE.INTRA.DIHEDRAL.0>
0

>  <SCORE.INTRA.POLAR>
0

>  <SCORE.INTRA.POLAR.0>
0

>  <SCORE.INTRA.REPUL>
0

>  <SCORE.INTRA.REPUL.0>
0

>  <SCORE.INTRA.SOLV>
0

>  <SCORE.INTRA.SOLV.lig_0>
-12.9768

>  <SCORE.INTRA.VDW>
0

>  <SCORE.INTRA.VDW.0>
0

>  <SCORE.INTRA.norm>
0

>  <SCORE.RESTR>
0

>  <SCORE.RESTR.CAVITY>
0

>  <SCORE.RESTR.norm>
0

>  <SCORE.SYSTEM>
0

>  <SCORE.SYSTEM.CONST>
0

>  <SCORE.SYSTEM.DIHEDRAL>
0

>  <SCORE.SYSTEM.SOLV>
0

>  <SCORE.SYSTEM.norm>
0

>  <SCORE.heavy>
13

>  <SCORE.norm>
-3.01358

>  <RMSD>
0.756

$$$$
1eht cryst
 OpenBabel11021811383D
libRbt.so/2013.1/901 2013/11/27
 13 14  0  0  0  0  0  0  0  0999 V2000
   -4.7780   -7.9128   10.6195 C   0  0  0  0  0  0  0  0  0  0  0  0
   -5.2565   -7.0280   11.5815 N   0  0  0  0  0  0  0  0  0  0  0  0
   -5.6403   -7.5375   12.7951 C   0  0  0  0  0  0  0  0  0  0  0  0
   -5.5346   -8.7573   12.9368 O   0  0  0  0  0  0  0  0  0  0  0  0
   -6.1299   -6.7888   13.8353 N   0  0  0  0  0  0  0  0  0  0  0  0
   -6.5103   -7.3265   15.0540 C   0  0  0  0  0  0  0  0  0  0  0  0
   -6.2051   -5.4582   13.5465 C   0  0  0  0  0  0  0  0  0  0  0  0
   -5.8213   -4.9618   12.3345 C   0  0  0  0  0  0  0  0  0  0  0  0
   -5.3162   -5.7116   11.2568 C   0  0  0  0  0  0  0  0  0  0  0  0
   -4.9570   -5.3138   10.1495 O   0  0  0  0  0  0  0  0  0  0  0  0
   -6.0348   -3.5918   12.4040 N   0  0  0  0  0  0  0  0  0  0  0  0
   -6.5296   -3.3547   13.6421 C   0  0  0  0  0  0  0  0  0  0  0  0
   -6.6521   -4.4304   14.3694 N   0  0  0  0  0  0  0  0  0  0  0  0
  1  2  1  0  0  0  0
  2  9  1  0  0  0  0
  2  3  1  0  0  0  0
  3  5  1  0  0  0  0
  3  4  2  0  0  0  0
  5  6  1  0  0  0  0
  5  7  1  0  0  0  0
  7  8  2  0  0  0  0
  7 13  1  0  0  0  0
  8  9  1  0  0  0  0
  8 11  1  0  0  0  0
  9 10  2  0  0  0  0
 11 12  1  0  0  0  0
 12 13  2  0  0  0  0
M  END
>  <CHROM.1>
-5.78205581,-6.05587590,12.63010193,-0.75242498,1.19275836,-0.35020610

>  <Name>
1eht cryst

>  <RI>
0

>  <Rbt.Current_Directory>
/home/itssahil/PROJECTS/Mol_Feturizer/New_Systems/rnas/1eht

>  <Rbt.Executable>
rbdock ($Id: //depot/dev/client3/rdock/2013.1/src/exe/rbdock.cxx#4 $)

>  <Rbt.Library>
libRbt.so (2013.1, Build901 2013/11/27)

>  <Rbt.Parameter_File>
/export/apps/rDock/src/rDock_2013.1_src/data/scripts/dock_solv.prm

>  <Rbt.Receptor>
prm/blind_docking_40.prm

>  <SCORE>
-39.1487

>  <SCORE.INTER>
-39.1487

>  <SCORE.INTER.CONST>
1

>  <SCORE.INTER.POLAR>
-1.94786

>  <SCORE.INTER.ROT>
0

>  <SCORE.INTER.SOLV>
9.7768

>  <SCORE.INTER.VDW>
-26.4652

>  <SCORE.INTER.norm>
-3.01144

>  <SCORE.INTRA>
0

>  <SCORE.INTRA.DIHEDRAL>
0

>  <SCORE.INTRA.DIHEDRAL.0>
0

>  <SCORE.INTRA.POLAR>
0

>  <SCORE.INTRA.POLAR.0>
0

>  <SCORE.INTRA.REPUL>
0

>  <SCORE.INTRA.REPUL.0>
0

>  <SCORE.INTRA.SOLV>
0

>  <SCORE.INTRA.SOLV.lig_0>
-12.9768

>  <SCORE.INTRA.VDW>
0

>  <SCORE.INTRA.VDW.0>
0

>  <SCORE.INTRA.norm>
0

>  <SCORE.RESTR>
0

>  <SCORE.RESTR.CAVITY>
0

>  <SCORE.RESTR.norm>
0

>  <SCORE.SYSTEM>
0

>  <SCORE.SYSTEM.CONST>
0

>  <SCORE.SYSTEM.DIHEDRAL>
0

>  <SCORE.SYSTEM.SOLV>
0

>  <SCORE.SYSTEM.norm>
0

>  <SCORE.heavy>
13

>  <SCORE.norm>
-3.01144

>  <RMSD>
0.757

$$$$
1eht cryst
 OpenBabel11021811383D
libRbt.so/2013.1/901 2013/11/27
 13 14  0  0  0  0  0  0  0  0999 V2000
   -4.7682   -7.8680   10.6428 C   0  0  0  0  0  0  0  0  0  0  0  0
   -5.2496   -6.9985   11.6174 N   0  0  0  0  0  0  0  0  0  0  0  0
   -5.6546   -7.5294   12.8148 C   0  0  0  0  0  0  0  0  0  0  0  0
   -5.5639   -8.7531   12.9318 O   0  0  0  0  0  0  0  0  0  0  0  0
   -6.1495   -6.7976   13.8645 N   0  0  0  0  0  0  0  0  0  0  0  0
   -6.5513   -7.3568   15.0665 C   0  0  0  0  0  0  0  0  0  0  0  0
   -6.2066   -5.4605   13.6033 C   0  0  0  0  0  0  0  0  0  0  0  0
   -5.8018   -4.9427   12.4071 C   0  0  0  0  0  0  0  0  0  0  0  0
   -5.2910   -5.6750   11.3201 C   0  0  0  0  0  0  0  0  0  0  0  0
   -4.9133   -5.2577   10.2263 O   0  0  0  0  0  0  0  0  0  0  0  0
   -6.0015   -3.5722   12.5032 N   0  0  0  0  0  0  0  0  0  0  0  0
   -6.5096   -3.3560   13.7396 C   0  0  0  0  0  0  0  0  0  0  0  0
   -6.6531   -4.4455   14.4422 N   0  0  0  0  0  0  0  0  0  0  0  0
  1  2  1  0  0  0  0
  2  9  1  0  0  0  0
  2  3  1  0  0  0  0
  3  5  1  0  0  0  0
  3  4  2  0  0  0  0
  5  6  1  0  0  0  0
  5  7  1  0  0  0  0
  7  8  2  0  0  0  0
  7 13  1  0  0  0  0
  8  9  1  0  0  0  0
  8 11  1  0  0  0  0
  9 10  2  0  0  0  0
 11 12  1  0  0  0  0
 12 13  2  0  0  0  0
M  END
>  <CHROM.1>
-5.77820327,-6.04317140,12.67976380,-0.79098251,1.18404806,-0.29312589

>  <Name>
1eht cryst

>  <RI>
224

>  <Rbt.Current_Directory>
/home/itssahil/PROJECTS/Mol_Feturizer/New_Systems/rnas/1eht

>  <Rbt.Executable>
rbdock ($Id: //depot/dev/client3/rdock/2013.1/src/exe/rbdock.cxx#4 $)

>  <Rbt.Library>
libRbt.so (2013.1, Build901 2013/11/27)

>  <Rbt.Parameter_File>
/export/apps/rDock/src/rDock_2013.1_src/data/scripts/dock_solv.prm

>  <Rbt.Receptor>
prm/pocket_docking_7.prm

>  <SCORE>
-39.217

>  <SCORE.INTER>
-39.217

>  <SCORE.INTER.CONST>
1

>  <SCORE.INTER.POLAR>
-1.92282

>  <SCORE.INTER.ROT>
0

>  <SCORE.INTER.SOLV>
9.8515

>  <SCORE.INTER.VDW>
-26.6191

>  <SCORE.INTER.norm>
-3.01669

>  <SCORE.INTRA>
0

>  <SCORE.INTRA.DIHEDRAL>
0

>  <SCORE.INTRA.DIHEDRAL.0>
0

>  <SCORE.INTRA.POLAR>
0

>  <SCORE.INTRA.POLAR.0>
0

>  <SCORE.INTRA.REPUL>
0

>  <SCORE.INTRA.REPUL.0>
0

>  <SCORE.INTRA.SOLV>
0

>  <SCORE.INTRA.SOLV.lig_0>
-12.9768

>  <SCORE.INTRA.VDW>
0

>  <SCORE.INTRA.VDW.0>
0

>  <SCORE.INTRA.norm>
0

>  <SCORE.RESTR>
0

>  <SCORE.RESTR.CAVITY>
0

>  <SCORE.RESTR.norm>
0

>  <SCORE.SYSTEM>
0

>  <SCORE.SYSTEM.CONST>
0

>  <SCORE.SYSTEM.DIHEDRAL>
0

>  <SCORE.SYSTEM.SOLV>
0

>  <SCORE.SYSTEM.norm>
0

>  <SCORE.heavy>
13

>  <SCORE.norm>
-3.01669

>  <RMSD>
0.758

$$$$
1eht cryst
 OpenBabel11021811383D
libRbt.so/2013.1/901 2013/11/27
 13 14  0  0  0  0  0  0  0  0999 V2000
   -4.7639   -7.8747   10.6452 C   0  0  0  0  0  0  0  0  0  0  0  0
   -5.2474   -7.0033   11.6171 N   0  0  0  0  0  0  0  0  0  0  0  0
   -5.6437   -7.5306   12.8190 C   0  0  0  0  0  0  0  0  0  0  0  0
   -5.5438   -8.7529   12.9422 O   0  0  0  0  0  0  0  0  0  0  0  0
   -6.1394   -6.7967   13.8668 N   0  0  0  0  0  0  0  0  0  0  0  0
   -6.5323   -7.3521   15.0734 C   0  0  0  0  0  0  0  0  0  0  0  0
   -6.2071   -5.4614   13.5986 C   0  0  0  0  0  0  0  0  0  0  0  0
   -5.8110   -4.9472   12.3980 C   0  0  0  0  0  0  0  0  0  0  0  0
   -5.2994   -5.6818   11.3128 C   0  0  0  0  0  0  0  0  0  0  0  0
   -4.9292   -5.2678   10.2152 O   0  0  0  0  0  0  0  0  0  0  0  0
   -6.0200   -3.5777   12.4875 N   0  0  0  0  0  0  0  0  0  0  0  0
   -6.5246   -3.3584   13.7248 C   0  0  0  0  0  0  0  0  0  0  0  0
   -6.6574   -4.4451   14.4338 N   0  0  0  0  0  0  0  0  0  0  0  0
  1  2  1  0  0  0  0
  2  9  1  0  0  0  0
  2  3  1  0  0  0  0
  3  5  1  0  0  0  0
  3  4  2  0  0  0  0
  5  6  1  0  0  0  0
  5  7  1  0  0  0  0
  7  8  2  0  0  0  0
  7 13  1  0  0  0  0
  8  9  1  0  0  0  0
  8 11  1  0  0  0  0
  9 10  2  0  0  0  0
 11 12  1  0  0  0  0
 12 13  2  0  0  0  0
M  END
>  <CHROM.1>
-5.77842813,-6.04601946,12.67644083,-0.76969746,1.18585237,-0.31826454

>  <Name>
1eht cryst

>  <RI>
0

>  <Rbt.Current_Directory>
/home/itssahil/PROJECTS/Mol_Feturizer/New_Systems/rnas/1eht

>  <Rbt.Executable>
rbdock ($Id: //depot/dev/client3/rdock/2013.1/src/exe/rbdock.cxx#4 $)

>  <Rbt.Library>
libRbt.so (2013.1, Build901 2013/11/27)

>  <Rbt.Parameter_File>
/export/apps/rDock/src/rDock_2013.1_src/data/scripts/dock_solv.prm

>  <Rbt.Receptor>
prm/blind_docking_100.prm

>  <SCORE>
-39.2124

>  <SCORE.INTER>
-39.2124

>  <SCORE.INTER.CONST>
1

>  <SCORE.INTER.POLAR>
-1.91979

>  <SCORE.INTER.ROT>
0

>  <SCORE.INTER.SOLV>
9.82568

>  <SCORE.INTER.VDW>
-26.6175

>  <SCORE.INTER.norm>
-3.01634

>  <SCORE.INTRA>
0

>  <SCORE.INTRA.DIHEDRAL>
0

>  <SCORE.INTRA.DIHEDRAL.0>
0

>  <SCORE.INTRA.POLAR>
0

>  <SCORE.INTRA.POLAR.0>
0

>  <SCORE.INTRA.REPUL>
0

>  <SCORE.INTRA.REPUL.0>
0

>  <SCORE.INTRA.SOLV>
0

>  <SCORE.INTRA.SOLV.lig_0>
-12.9768

>  <SCORE.INTRA.VDW>
0

>  <SCORE.INTRA.VDW.0>
0

>  <SCORE.INTRA.norm>
0

>  <SCORE.RESTR>
0

>  <SCORE.RESTR.CAVITY>
0

>  <SCORE.RESTR.norm>
0

>  <SCORE.SYSTEM>
0

>  <SCORE.SYSTEM.CONST>
0

>  <SCORE.SYSTEM.DIHEDRAL>
0

>  <SCORE.SYSTEM.SOLV>
0

>  <SCORE.SYSTEM.norm>
0

>  <SCORE.heavy>
13

>  <SCORE.norm>
-3.01634

>  <RMSD>
0.759

$$$$
1eht cryst
 OpenBabel11021811383D
libRbt.so/2013.1/901 2013/11/27
 13 14  0  0  0  0  0  0  0  0999 V2000
   -4.7198   -7.8773   10.6588 C   0  0  0  0  0  0  0  0  0  0  0  0
   -5.2106   -7.0139   11.6341 N   0  0  0  0  0  0  0  0  0  0  0  0
   -5.6206   -7.5516   12.8268 C   0  0  0  0  0  0  0  0  0  0  0  0
   -5.5254   -8.7753   12.9392 O   0  0  0  0  0  0  0  0  0  0  0  0
   -6.1248   -6.8263   13.8766 N   0  0  0  0  0  0  0  0  0  0  0  0
   -6.5315   -7.3923   15.0738 C   0  0  0  0  0  0  0  0  0  0  0  0
   -6.1859   -5.4883   13.6207 C   0  0  0  0  0  0  0  0  0  0  0  0
   -5.7762   -4.9638   12.4292 C   0  0  0  0  0  0  0  0  0  0  0  0
   -5.2558   -5.6893   11.3422 C   0  0  0  0  0  0  0  0  0  0  0  0
   -4.8733   -5.2659   10.2524 O   0  0  0  0  0  0  0  0  0  0  0  0
   -5.9822   -3.5946   12.5298 N   0  0  0  0  0  0  0  0  0  0  0  0
   -6.4986   -3.3857   13.7641 C   0  0  0  0  0  0  0  0  0  0  0  0
   -6.6418   -4.4788   14.4612 N   0  0  0  0  0  0  0  0  0  0  0  0
  1  2  1  0  0  0  0
  2  9  1  0  0  0  0
  2  3  1  0  0  0  0
  3  5  1  0  0  0  0
  3  4  2  0  0  0  0
  5  6  1  0  0  0  0
  5  7  1  0  0  0  0
  7  8  2  0  0  0  0
  7 13  1  0  0  0  0
  8  9  1  0  0  0  0
  8 11  1  0  0  0  0
  9 10  2  0  0  0  0
 11 12  1  0  0  0  0
 12 13  2  0  0  0  0
M  END
>  <CHROM.1>
-5.74961426,-6.06528944,12.69731553,-0.78504781,1.17709090,-0.29439109

>  <Name>
1eht cryst

>  <RI>
0

>  <Rbt.Current_Directory>
/home/itssahil/PROJECTS/Mol_Feturizer/New_Systems/rnas/1eht

>  <Rbt.Executable>
rbdock ($Id: //depot/dev/client3/rdock/2013.1/src/exe/rbdock.cxx#4 $)

>  <Rbt.Library>
libRbt.so (2013.1, Build901 2013/11/27)

>  <Rbt.Parameter_File>
/export/apps/rDock/src/rDock_2013.1_src/data/scripts/dock_solv.prm

>  <Rbt.Receptor>
prm/blind_docking_20.prm

>  <SCORE>
-39.1436

>  <SCORE.INTER>
-39.1436

>  <SCORE.INTER.CONST>
1

>  <SCORE.INTER.POLAR>
-1.93589

>  <SCORE.INTER.ROT>
0

>  <SCORE.INTER.SOLV>
9.82614

>  <SCORE.INTER.VDW>
-26.5181

>  <SCORE.INTER.norm>
-3.01104

>  <SCORE.INTRA>
0

>  <SCORE.INTRA.DIHEDRAL>
0

>  <SCORE.INTRA.DIHEDRAL.0>
0

>  <SCORE.INTRA.POLAR>
0

>  <SCORE.INTRA.POLAR.0>
0

>  <SCORE.INTRA.REPUL>
0

>  <SCORE.INTRA.REPUL.0>
0

>  <SCORE.INTRA.SOLV>
0

>  <SCORE.INTRA.SOLV.lig_0>
-12.9768

>  <SCORE.INTRA.VDW>
0

>  <SCORE.INTRA.VDW.0>
0

>  <SCORE.INTRA.norm>
0

>  <SCORE.RESTR>
0

>  <SCORE.RESTR.CAVITY>
0

>  <SCORE.RESTR.norm>
0

>  <SCORE.SYSTEM>
0

>  <SCORE.SYSTEM.CONST>
0

>  <SCORE.SYSTEM.DIHEDRAL>
0

>  <SCORE.SYSTEM.SOLV>
0

>  <SCORE.SYSTEM.norm>
0

>  <SCORE.heavy>
13

>  <SCORE.norm>
-3.01104

>  <RMSD>
0.759

$$$$
1eht cryst
 OpenBabel11021811383D
libRbt.so/2013.1/901 2013/11/27
 13 14  0  0  0  0  0  0  0  0999 V2000
   -4.7644   -7.8751   10.6468 C   0  0  0  0  0  0  0  0  0  0  0  0
   -5.2477   -7.0035   11.6186 N   0  0  0  0  0  0  0  0  0  0  0  0
   -5.6436   -7.5305   12.8208 C   0  0  0  0  0  0  0  0  0  0  0  0
   -5.5436   -8.7528   12.9442 O   0  0  0  0  0  0  0  0  0  0  0  0
   -6.1390   -6.7962   13.8685 N   0  0  0  0  0  0  0  0  0  0  0  0
   -6.5316   -7.3514   15.0754 C   0  0  0  0  0  0  0  0  0  0  0  0
   -6.2068   -5.4610   13.5999 C   0  0  0  0  0  0  0  0  0  0  0  0
   -5.8110   -4.9472   12.3991 C   0  0  0  0  0  0  0  0  0  0  0  0
   -5.2998   -5.6820   11.3140 C   0  0  0  0  0  0  0  0  0  0  0  0
   -4.9299   -5.2684   10.2161 O   0  0  0  0  0  0  0  0  0  0  0  0
   -6.0201   -3.5776   12.4883 N   0  0  0  0  0  0  0  0  0  0  0  0
   -6.5243   -3.3580   13.7257 C   0  0  0  0  0  0  0  0  0  0  0  0
   -6.6569   -4.4445   14.4350 N   0  0  0  0  0  0  0  0  0  0  0  0
  1  2  1  0  0  0  0
  2  9  1  0  0  0  0
  2  3  1  0  0  0  0
  3  5  1  0  0  0  0
  3  4  2  0  0  0  0
  5  6  1  0  0  0  0
  5  7  1  0  0  0  0
  7  8  2  0  0  0  0
  7 13  1  0  0  0  0
  8  9  1  0  0  0  0
  8 11  1  0  0  0  0
  9 10  2  0  0  0  0
 11 12  1  0  0  0  0
 12 13  2  0  0  0  0
M  END
>  <CHROM.1>
-5.77839052,-6.04591449,12.67784531,-0.76940531,1.18611514,-0.31880171

>  <Name>
1eht cryst

>  <RI>
0

>  <Rbt.Current_Directory>
/home/itssahil/PROJECTS/Mol_Feturizer/New_Systems/rnas/1eht

>  <Rbt.Executable>
rbdock ($Id: //depot/dev/client3/rdock/2013.1/src/exe/rbdock.cxx#4 $)

>  <Rbt.Library>
libRbt.so (2013.1, Build901 2013/11/27)

>  <Rbt.Parameter_File>
/export/apps/rDock/src/rDock_2013.1_src/data/scripts/dock_solv.prm

>  <Rbt.Receptor>
prm/blind_docking_100.prm

>  <SCORE>
-39.2116

>  <SCORE.INTER>
-39.2116

>  <SCORE.INTER.CONST>
1

>  <SCORE.INTER.POLAR>
-1.91877

>  <SCORE.INTER.ROT>
0

>  <SCORE.INTER.SOLV>
9.82554

>  <SCORE.INTER.VDW>
-26.6203

>  <SCORE.INTER.norm>
-3.01627

>  <SCORE.INTRA>
0

>  <SCORE.INTRA.DIHEDRAL>
0

>  <SCORE.INTRA.DIHEDRAL.0>
0

>  <SCORE.INTRA.POLAR>
0

>  <SCORE.INTRA.POLAR.0>
0

>  <SCORE.INTRA.REPUL>
0

>  <SCORE.INTRA.REPUL.0>
0

>  <SCORE.INTRA.SOLV>
0

>  <SCORE.INTRA.SOLV.lig_0>
-12.9768

>  <SCORE.INTRA.VDW>
0

>  <SCORE.INTRA.VDW.0>
0

>  <SCORE.INTRA.norm>
0

>  <SCORE.RESTR>
0

>  <SCORE.RESTR.CAVITY>
0

>  <SCORE.RESTR.norm>
0

>  <SCORE.SYSTEM>
0

>  <SCORE.SYSTEM.CONST>
0

>  <SCORE.SYSTEM.DIHEDRAL>
0

>  <SCORE.SYSTEM.SOLV>
0

>  <SCORE.SYSTEM.norm>
0

>  <SCORE.heavy>
13

>  <SCORE.norm>
-3.01627

>  <RMSD>
0.760

$$$$
1eht cryst
 OpenBabel11021811383D
libRbt.so/2013.1/901 2013/11/27
 13 14  0  0  0  0  0  0  0  0999 V2000
   -4.7393   -7.8680   10.6453 C   0  0  0  0  0  0  0  0  0  0  0  0
   -5.2330   -6.9956   11.6110 N   0  0  0  0  0  0  0  0  0  0  0  0
   -5.6356   -7.5207   12.8117 C   0  0  0  0  0  0  0  0  0  0  0  0
   -5.5318   -8.7422   12.9394 O   0  0  0  0  0  0  0  0  0  0  0  0
   -6.1416   -6.7854   13.8537 N   0  0  0  0  0  0  0  0  0  0  0  0
   -6.5408   -7.3387   15.0593 C   0  0  0  0  0  0  0  0  0  0  0  0
   -6.2126   -5.4513   13.5809 C   0  0  0  0  0  0  0  0  0  0  0  0
   -5.8101   -4.9393   12.3815 C   0  0  0  0  0  0  0  0  0  0  0  0
   -5.2880   -5.6752   11.3022 C   0  0  0  0  0  0  0  0  0  0  0  0
   -4.9117   -5.2632   10.2059 O   0  0  0  0  0  0  0  0  0  0  0  0
   -6.0251   -3.5703   12.4652 N   0  0  0  0  0  0  0  0  0  0  0  0
   -6.5392   -3.3492   13.6983 C   0  0  0  0  0  0  0  0  0  0  0  0
   -6.6728   -4.4341   14.4097 N   0  0  0  0  0  0  0  0  0  0  0  0
  1  2  1  0  0  0  0
  2  9  1  0  0  0  0
  2  3  1  0  0  0  0
  3  5  1  0  0  0  0
  3  4  2  0  0  0  0
  5  6  1  0  0  0  0
  5  7  1  0  0  0  0
  7  8  2  0  0  0  0
  7 13  1  0  0  0  0
  8  9  1  0  0  0  0
  8 11  1  0  0  0  0
  9 10  2  0  0  0  0
 11 12  1  0  0  0  0
 12 13  2  0  0  0  0
M  END
>  <CHROM.1>
-5.77517584,-6.03707069,12.66359294,-0.76571800,1.17795384,-0.32506193

>  <Name>
1eht cryst

>  <RI>
0

>  <Rbt.Current_Directory>
/home/itssahil/PROJECTS/Mol_Feturizer/New_Systems/rnas/1eht

>  <Rbt.Executable>
rbdock ($Id: //depot/dev/client3/rdock/2013.1/src/exe/rbdock.cxx#4 $)

>  <Rbt.Library>
libRbt.so (2013.1, Build901 2013/11/27)

>  <Rbt.Parameter_File>
/export/apps/rDock/src/rDock_2013.1_src/data/scripts/dock_solv.prm

>  <Rbt.Receptor>
prm/blind_docking_40.prm

>  <SCORE>
-39.1623

>  <SCORE.INTER>
-39.1623

>  <SCORE.INTER.CONST>
1

>  <SCORE.INTER.POLAR>
-1.92952

>  <SCORE.INTER.ROT>
0

>  <SCORE.INTER.SOLV>
9.8413

>  <SCORE.INTER.VDW>
-26.5569

>  <SCORE.INTER.norm>
-3.01249

>  <SCORE.INTRA>
0

>  <SCORE.INTRA.DIHEDRAL>
0

>  <SCORE.INTRA.DIHEDRAL.0>
0

>  <SCORE.INTRA.POLAR>
0

>  <SCORE.INTRA.POLAR.0>
0

>  <SCORE.INTRA.REPUL>
0

>  <SCORE.INTRA.REPUL.0>
0

>  <SCORE.INTRA.SOLV>
0

>  <SCORE.INTRA.SOLV.lig_0>
-12.9768

>  <SCORE.INTRA.VDW>
0

>  <SCORE.INTRA.VDW.0>
0

>  <SCORE.INTRA.norm>
0

>  <SCORE.RESTR>
0

>  <SCORE.RESTR.CAVITY>
0

>  <SCORE.RESTR.norm>
0

>  <SCORE.SYSTEM>
0

>  <SCORE.SYSTEM.CONST>
0

>  <SCORE.SYSTEM.DIHEDRAL>
0

>  <SCORE.SYSTEM.SOLV>
0

>  <SCORE.SYSTEM.norm>
0

>  <SCORE.heavy>
13

>  <SCORE.norm>
-3.01249

>  <RMSD>
0.760

$$$$
1eht cryst
 OpenBabel11021811383D
libRbt.so/2013.1/901 2013/11/27
 13 14  0  0  0  0  0  0  0  0999 V2000
   -4.7601   -7.8714   10.6467 C   0  0  0  0  0  0  0  0  0  0  0  0
   -5.2444   -7.0006   11.6187 N   0  0  0  0  0  0  0  0  0  0  0  0
   -5.6420   -7.5287   12.8199 C   0  0  0  0  0  0  0  0  0  0  0  0
   -5.5426   -8.7511   12.9423 O   0  0  0  0  0  0  0  0  0  0  0  0
   -6.1387   -6.7953   13.8677 N   0  0  0  0  0  0  0  0  0  0  0  0
   -6.5330   -7.3516   15.0735 C   0  0  0  0  0  0  0  0  0  0  0  0
   -6.2058   -5.4598   13.6003 C   0  0  0  0  0  0  0  0  0  0  0  0
   -5.8082   -4.9449   12.4005 C   0  0  0  0  0  0  0  0  0  0  0  0
   -5.2957   -5.6788   11.3154 C   0  0  0  0  0  0  0  0  0  0  0  0
   -4.9242   -5.2642   10.2184 O   0  0  0  0  0  0  0  0  0  0  0  0
   -6.0170   -3.5754   12.4908 N   0  0  0  0  0  0  0  0  0  0  0  0
   -6.5228   -3.3569   13.7278 C   0  0  0  0  0  0  0  0  0  0  0  0
   -6.6567   -4.4440   14.4358 N   0  0  0  0  0  0  0  0  0  0  0  0
  1  2  1  0  0  0  0
  2  9  1  0  0  0  0
  2  3  1  0  0  0  0
  3  5  1  0  0  0  0
  3  4  2  0  0  0  0
  5  6  1  0  0  0  0
  5  7  1  0  0  0  0
  7  8  2  0  0  0  0
  7 13  1  0  0  0  0
  8  9  1  0  0  0  0
  8 11  1  0  0  0  0
  9 10  2  0  0  0  0
 11 12  1  0  0  0  0
 12 13  2  0  0  0  0
M  END
>  <CHROM.1>
-5.77624424,-6.04392863,12.67822431,-0.77123772,1.18493216,-0.31611316

>  <Name>
1eht cryst

>  <RI>
0

>  <Rbt.Current_Directory>
/home/itssahil/PROJECTS/Mol_Feturizer/New_Systems/rnas/1eht

>  <Rbt.Executable>
rbdock ($Id: //depot/dev/client3/rdock/2013.1/src/exe/rbdock.cxx#4 $)

>  <Rbt.Library>
libRbt.so (2013.1, Build901 2013/11/27)

>  <Rbt.Parameter_File>
/export/apps/rDock/src/rDock_2013.1_src/data/scripts/dock_solv.prm

>  <Rbt.Receptor>
prm/pocket_docking_2.prm

>  <SCORE>
-39.215

>  <SCORE.INTER>
-39.215

>  <SCORE.INTER.CONST>
1

>  <SCORE.INTER.POLAR>
-1.91883

>  <SCORE.INTER.ROT>
0

>  <SCORE.INTER.SOLV>
9.83366

>  <SCORE.INTER.VDW>
-26.6251

>  <SCORE.INTER.norm>
-3.01654

>  <SCORE.INTRA>
0

>  <SCORE.INTRA.DIHEDRAL>
0

>  <SCORE.INTRA.DIHEDRAL.0>
0

>  <SCORE.INTRA.POLAR>
0

>  <SCORE.INTRA.POLAR.0>
0

>  <SCORE.INTRA.REPUL>
0

>  <SCORE.INTRA.REPUL.0>
0

>  <SCORE.INTRA.SOLV>
0

>  <SCORE.INTRA.SOLV.lig_0>
-12.9768

>  <SCORE.INTRA.VDW>
0

>  <SCORE.INTRA.VDW.0>
0

>  <SCORE.INTRA.norm>
0

>  <SCORE.RESTR>
0

>  <SCORE.RESTR.CAVITY>
0

>  <SCORE.RESTR.norm>
0

>  <SCORE.SYSTEM>
0

>  <SCORE.SYSTEM.CONST>
0

>  <SCORE.SYSTEM.DIHEDRAL>
0

>  <SCORE.SYSTEM.SOLV>
0

>  <SCORE.SYSTEM.norm>
0

>  <SCORE.heavy>
13

>  <SCORE.norm>
-3.01654

>  <RMSD>
0.760

$$$$
1eht cryst
 OpenBabel11021811383D
libRbt.so/2013.1/901 2013/11/27
 13 14  0  0  0  0  0  0  0  0999 V2000
   -4.7623   -7.8737   10.6473 C   0  0  0  0  0  0  0  0  0  0  0  0
   -5.2462   -7.0023   11.6188 N   0  0  0  0  0  0  0  0  0  0  0  0
   -5.6390   -7.5290   12.8222 C   0  0  0  0  0  0  0  0  0  0  0  0
   -5.5358   -8.7509   12.9468 O   0  0  0  0  0  0  0  0  0  0  0  0
   -6.1347   -6.7949   13.8699 N   0  0  0  0  0  0  0  0  0  0  0  0
   -6.5240   -7.3497   15.0780 C   0  0  0  0  0  0  0  0  0  0  0  0
   -6.2063   -5.4601   13.6000 C   0  0  0  0  0  0  0  0  0  0  0  0
   -5.8136   -4.9465   12.3980 C   0  0  0  0  0  0  0  0  0  0  0  0
   -5.3022   -5.6812   11.3130 C   0  0  0  0  0  0  0  0  0  0  0  0
   -4.9349   -5.2678   10.2141 O   0  0  0  0  0  0  0  0  0  0  0  0
   -6.0259   -3.5774   12.4861 N   0  0  0  0  0  0  0  0  0  0  0  0
   -6.5288   -3.3578   13.7241 C   0  0  0  0  0  0  0  0  0  0  0  0
   -6.6576   -4.4438   14.4348 N   0  0  0  0  0  0  0  0  0  0  0  0
  1  2  1  0  0  0  0
  2  9  1  0  0  0  0
  2  3  1  0  0  0  0
  3  5  1  0  0  0  0
  3  4  2  0  0  0  0
  5  6  1  0  0  0  0
  5  7  1  0  0  0  0
  7  8  2  0  0  0  0
  7 13  1  0  0  0  0
  8  9  1  0  0  0  0
  8 11  1  0  0  0  0
  9 10  2  0  0  0  0
 11 12  1  0  0  0  0
 12 13  2  0  0  0  0
M  END
>  <CHROM.1>
-5.77776987,-6.04488245,12.67790787,-0.76177516,1.18676531,-0.32692790

>  <Name>
1eht cryst

>  <RI>
0

>  <Rbt.Current_Directory>
/home/itssahil/PROJECTS/Mol_Feturizer/New_Systems/rnas/1eht

>  <Rbt.Executable>
rbdock ($Id: //depot/dev/client3/rdock/2013.1/src/exe/rbdock.cxx#4 $)

>  <Rbt.Library>
libRbt.so (2013.1, Build901 2013/11/27)

>  <Rbt.Parameter_File>
/export/apps/rDock/src/rDock_2013.1_src/data/scripts/dock_solv.prm

>  <Rbt.Receptor>
prm/pocket_docking_2.prm

>  <SCORE>
-39.1994

>  <SCORE.INTER>
-39.1994

>  <SCORE.INTER.CONST>
1

>  <SCORE.INTER.POLAR>
-1.91496

>  <SCORE.INTER.ROT>
0

>  <SCORE.INTER.SOLV>
9.8219

>  <SCORE.INTER.VDW>
-26.6237

>  <SCORE.INTER.norm>
-3.01534

>  <SCORE.INTRA>
0

>  <SCORE.INTRA.DIHEDRAL>
0

>  <SCORE.INTRA.DIHEDRAL.0>
0

>  <SCORE.INTRA.POLAR>
0

>  <SCORE.INTRA.POLAR.0>
0

>  <SCORE.INTRA.REPUL>
0

>  <SCORE.INTRA.REPUL.0>
0

>  <SCORE.INTRA.SOLV>
0

>  <SCORE.INTRA.SOLV.lig_0>
-12.9768

>  <SCORE.INTRA.VDW>
0

>  <SCORE.INTRA.VDW.0>
0

>  <SCORE.INTRA.norm>
0

>  <SCORE.RESTR>
0

>  <SCORE.RESTR.CAVITY>
0

>  <SCORE.RESTR.norm>
0

>  <SCORE.SYSTEM>
0

>  <SCORE.SYSTEM.CONST>
0

>  <SCORE.SYSTEM.DIHEDRAL>
0

>  <SCORE.SYSTEM.SOLV>
0

>  <SCORE.SYSTEM.norm>
0

>  <SCORE.heavy>
13

>  <SCORE.norm>
-3.01534

>  <RMSD>
0.760

$$$$
1eht cryst
 OpenBabel11021811383D
libRbt.so/2013.1/901 2013/11/27
 13 14  0  0  0  0  0  0  0  0999 V2000
   -4.7685   -7.8956   10.6366 C   0  0  0  0  0  0  0  0  0  0  0  0
   -5.2444   -7.0164   11.6051 N   0  0  0  0  0  0  0  0  0  0  0  0
   -5.6321   -7.5339   12.8140 C   0  0  0  0  0  0  0  0  0  0  0  0
   -5.5319   -8.7553   12.9461 O   0  0  0  0  0  0  0  0  0  0  0  0
   -6.1197   -6.7914   13.8596 N   0  0  0  0  0  0  0  0  0  0  0  0
   -6.5040   -7.3372   15.0734 C   0  0  0  0  0  0  0  0  0  0  0  0
   -6.1887   -5.4583   13.5814 C   0  0  0  0  0  0  0  0  0  0  0  0
   -5.8012   -4.9538   12.3738 C   0  0  0  0  0  0  0  0  0  0  0  0
   -5.2980   -5.6972   11.2908 C   0  0  0  0  0  0  0  0  0  0  0  0
   -4.9357   -5.2921   10.1872 O   0  0  0  0  0  0  0  0  0  0  0  0
   -6.0089   -3.5835   12.4541 N   0  0  0  0  0  0  0  0  0  0  0  0
   -6.5042   -3.3542   13.6933 C   0  0  0  0  0  0  0  0  0  0  0  0
   -6.6324   -4.4351   14.4119 N   0  0  0  0  0  0  0  0  0  0  0  0
  1  2  1  0  0  0  0
  2  9  1  0  0  0  0
  2  3  1  0  0  0  0
  3  5  1  0  0  0  0
  3  4  2  0  0  0  0
  5  6  1  0  0  0  0
  5  7  1  0  0  0  0
  7  8  2  0  0  0  0
  7 13  1  0  0  0  0
  8  9  1  0  0  0  0
  8 11  1  0  0  0  0
  9 10  2  0  0  0  0
 11 12  1  0  0  0  0
 12 13  2  0  0  0  0
M  END
>  <CHROM.1>
-5.76714686,-6.05040876,12.66074392,-0.76474328,1.19300618,-0.33075713

>  <Name>
1eht cryst

>  <RI>
0

>  <Rbt.Current_Directory>
/home/itssahil/PROJECTS/Mol_Feturizer/New_Systems/rnas/1eht

>  <Rbt.Executable>
rbdock ($Id: //depot/dev/client3/rdock/2013.1/src/exe/rbdock.cxx#4 $)

>  <Rbt.Library>
libRbt.so (2013.1, Build901 2013/11/27)

>  <Rbt.Parameter_File>
/export/apps/rDock/src/rDock_2013.1_src/data/scripts/dock_solv.prm

>  <Rbt.Receptor>
prm/pocket_docking_3.prm

>  <SCORE>
-39.1495

>  <SCORE.INTER>
-39.1495

>  <SCORE.INTER.CONST>
1

>  <SCORE.INTER.POLAR>
-1.93073

>  <SCORE.INTER.ROT>
0

>  <SCORE.INTER.SOLV>
9.80291

>  <SCORE.INTER.VDW>
-26.5316

>  <SCORE.INTER.norm>
-3.0115

>  <SCORE.INTRA>
0

>  <SCORE.INTRA.DIHEDRAL>
0

>  <SCORE.INTRA.DIHEDRAL.0>
0

>  <SCORE.INTRA.POLAR>
0

>  <SCORE.INTRA.POLAR.0>
0

>  <SCORE.INTRA.REPUL>
0

>  <SCORE.INTRA.REPUL.0>
0

>  <SCORE.INTRA.SOLV>
0

>  <SCORE.INTRA.SOLV.lig_0>
-12.9768

>  <SCORE.INTRA.VDW>
0

>  <SCORE.INTRA.VDW.0>
0

>  <SCORE.INTRA.norm>
0

>  <SCORE.RESTR>
0

>  <SCORE.RESTR.CAVITY>
0

>  <SCORE.RESTR.norm>
0

>  <SCORE.SYSTEM>
0

>  <SCORE.SYSTEM.CONST>
0

>  <SCORE.SYSTEM.DIHEDRAL>
0

>  <SCORE.SYSTEM.SOLV>
0

>  <SCORE.SYSTEM.norm>
0

>  <SCORE.heavy>
13

>  <SCORE.norm>
-3.0115

>  <RMSD>
0.760

$$$$
1eht cryst
 OpenBabel11021811383D
libRbt.so/2013.1/901 2013/11/27
 13 14  0  0  0  0  0  0  0  0999 V2000
   -4.7624   -7.8756   10.6469 C   0  0  0  0  0  0  0  0  0  0  0  0
   -5.2465   -7.0039   11.6182 N   0  0  0  0  0  0  0  0  0  0  0  0
   -5.6418   -7.5306   12.8207 C   0  0  0  0  0  0  0  0  0  0  0  0
   -5.5405   -8.7527   12.9450 O   0  0  0  0  0  0  0  0  0  0  0  0
   -6.1379   -6.7962   13.8680 N   0  0  0  0  0  0  0  0  0  0  0  0
   -6.5298   -7.3510   15.0753 C   0  0  0  0  0  0  0  0  0  0  0  0
   -6.2072   -5.4612   13.5986 C   0  0  0  0  0  0  0  0  0  0  0  0
   -5.8120   -4.9477   12.3974 C   0  0  0  0  0  0  0  0  0  0  0  0
   -5.3001   -5.6827   11.3127 C   0  0  0  0  0  0  0  0  0  0  0  0
   -4.9307   -5.2693   10.2146 O   0  0  0  0  0  0  0  0  0  0  0  0
   -6.0225   -3.5783   12.4858 N   0  0  0  0  0  0  0  0  0  0  0  0
   -6.5269   -3.3585   13.7231 C   0  0  0  0  0  0  0  0  0  0  0  0
   -6.6583   -4.4446   14.4331 N   0  0  0  0  0  0  0  0  0  0  0  0
  1  2  1  0  0  0  0
  2  9  1  0  0  0  0
  2  3  1  0  0  0  0
  3  5  1  0  0  0  0
  3  4  2  0  0  0  0
  5  6  1  0  0  0  0
  5  7  1  0  0  0  0
  7  8  2  0  0  0  0
  7 13  1  0  0  0  0
  8  9  1  0  0  0  0
  8 11  1  0  0  0  0
  9 10  2  0  0  0  0
 11 12  1  0  0  0  0
 12 13  2  0  0  0  0
M  END
>  <CHROM.1>
-5.77818844,-6.04623265,12.67686505,-0.76664592,1.18585903,-0.32200118

>  <Name>
1eht cryst

>  <RI>
0

>  <Rbt.Current_Directory>
/home/itssahil/PROJECTS/Mol_Feturizer/New_Systems/rnas/1eht

>  <Rbt.Executable>
rbdock ($Id: //depot/dev/client3/rdock/2013.1/src/exe/rbdock.cxx#4 $)

>  <Rbt.Library>
libRbt.so (2013.1, Build901 2013/11/27)

>  <Rbt.Parameter_File>
/export/apps/rDock/src/rDock_2013.1_src/data/scripts/dock_solv.prm

>  <Rbt.Receptor>
prm/pocket_docking_4.prm

>  <SCORE>
-39.2096

>  <SCORE.INTER>
-39.2096

>  <SCORE.INTER.CONST>
1

>  <SCORE.INTER.POLAR>
-1.91912

>  <SCORE.INTER.ROT>
0

>  <SCORE.INTER.SOLV>
9.82261

>  <SCORE.INTER.VDW>
-26.6169

>  <SCORE.INTER.norm>
-3.01612

>  <SCORE.INTRA>
0

>  <SCORE.INTRA.DIHEDRAL>
0

>  <SCORE.INTRA.DIHEDRAL.0>
0

>  <SCORE.INTRA.POLAR>
0

>  <SCORE.INTRA.POLAR.0>
0

>  <SCORE.INTRA.REPUL>
0

>  <SCORE.INTRA.REPUL.0>
0

>  <SCORE.INTRA.SOLV>
0

>  <SCORE.INTRA.SOLV.lig_0>
-12.9768

>  <SCORE.INTRA.VDW>
0

>  <SCORE.INTRA.VDW.0>
0

>  <SCORE.INTRA.norm>
0

>  <SCORE.RESTR>
0

>  <SCORE.RESTR.CAVITY>
0

>  <SCORE.RESTR.norm>
0

>  <SCORE.SYSTEM>
0

>  <SCORE.SYSTEM.CONST>
0

>  <SCORE.SYSTEM.DIHEDRAL>
0

>  <SCORE.SYSTEM.SOLV>
0

>  <SCORE.SYSTEM.norm>
0

>  <SCORE.heavy>
13

>  <SCORE.norm>
-3.01612

>  <RMSD>
0.760

$$$$
1eht cryst
 OpenBabel11021811383D
libRbt.so/2013.1/901 2013/11/27
 13 14  0  0  0  0  0  0  0  0999 V2000
   -4.7626   -7.8741   10.6457 C   0  0  0  0  0  0  0  0  0  0  0  0
   -5.2469   -7.0034   11.6177 N   0  0  0  0  0  0  0  0  0  0  0  0
   -5.6471   -7.5318   12.8178 C   0  0  0  0  0  0  0  0  0  0  0  0
   -5.5497   -8.7544   12.9394 O   0  0  0  0  0  0  0  0  0  0  0  0
   -6.1441   -6.7985   13.8655 N   0  0  0  0  0  0  0  0  0  0  0  0
   -6.5410   -7.3551   15.0703 C   0  0  0  0  0  0  0  0  0  0  0  0
   -6.2088   -5.4627   13.5991 C   0  0  0  0  0  0  0  0  0  0  0  0
   -5.8088   -4.9474   12.4003 C   0  0  0  0  0  0  0  0  0  0  0  0
   -5.2959   -5.6813   11.3153 C   0  0  0  0  0  0  0  0  0  0  0  0
   -4.9222   -5.2663   10.2192 O   0  0  0  0  0  0  0  0  0  0  0  0
   -6.0156   -3.5777   12.4913 N   0  0  0  0  0  0  0  0  0  0  0  0
   -6.5229   -3.3594   13.7277 C   0  0  0  0  0  0  0  0  0  0  0  0
   -6.6594   -4.4468   14.4348 N   0  0  0  0  0  0  0  0  0  0  0  0
  1  2  1  0  0  0  0
  2  9  1  0  0  0  0
  2  3  1  0  0  0  0
  3  5  1  0  0  0  0
  3  4  2  0  0  0  0
  5  6  1  0  0  0  0
  5  7  1  0  0  0  0
  7  8  2  0  0  0  0
  7 13  1  0  0  0  0
  8  9  1  0  0  0  0
  8 11  1  0  0  0  0
  9 10  2  0  0  0  0
 11 12  1  0  0  0  0
 12 13  2  0  0  0  0
M  END
>  <CHROM.1>
-5.77888543,-6.04670932,12.67717054,-0.77617909,1.18405594,-0.31076457

>  <Name>
1eht cryst

>  <RI>
0

>  <Rbt.Current_Directory>
/home/itssahil/PROJECTS/Mol_Feturizer/New_Systems/rnas/1eht

>  <Rbt.Executable>
rbdock ($Id: //depot/dev/client3/rdock/2013.1/src/exe/rbdock.cxx#4 $)

>  <Rbt.Library>
libRbt.so (2013.1, Build901 2013/11/27)

>  <Rbt.Parameter_File>
/export/apps/rDock/src/rDock_2013.1_src/data/scripts/dock_solv.prm

>  <Rbt.Receptor>
prm/pocket_docking_5.prm

>  <SCORE>
-39.2164

>  <SCORE.INTER>
-39.2164

>  <SCORE.INTER.CONST>
1

>  <SCORE.INTER.POLAR>
-1.92327

>  <SCORE.INTER.ROT>
0

>  <SCORE.INTER.SOLV>
9.83082

>  <SCORE.INTER.VDW>
-26.6103

>  <SCORE.INTER.norm>
-3.01665

>  <SCORE.INTRA>
0

>  <SCORE.INTRA.DIHEDRAL>
0

>  <SCORE.INTRA.DIHEDRAL.0>
0

>  <SCORE.INTRA.POLAR>
0

>  <SCORE.INTRA.POLAR.0>
0

>  <SCORE.INTRA.REPUL>
0

>  <SCORE.INTRA.REPUL.0>
0

>  <SCORE.INTRA.SOLV>
0

>  <SCORE.INTRA.SOLV.lig_0>
-12.9768

>  <SCORE.INTRA.VDW>
0

>  <SCORE.INTRA.VDW.0>
0

>  <SCORE.INTRA.norm>
0

>  <SCORE.RESTR>
0

>  <SCORE.RESTR.CAVITY>
0

>  <SCORE.RESTR.norm>
0

>  <SCORE.SYSTEM>
0

>  <SCORE.SYSTEM.CONST>
0

>  <SCORE.SYSTEM.DIHEDRAL>
0

>  <SCORE.SYSTEM.SOLV>
0

>  <SCORE.SYSTEM.norm>
0

>  <SCORE.heavy>
13

>  <SCORE.norm>
-3.01665

>  <RMSD>
0.760

$$$$
1eht cryst
 OpenBabel11021811383D
libRbt.so/2013.1/901 2013/11/27
 13 14  0  0  0  0  0  0  0  0999 V2000
   -4.7618   -7.8754   10.6467 C   0  0  0  0  0  0  0  0  0  0  0  0
   -5.2461   -7.0038   11.6179 N   0  0  0  0  0  0  0  0  0  0  0  0
   -5.6442   -7.5308   12.8193 C   0  0  0  0  0  0  0  0  0  0  0  0
   -5.5452   -8.7532   12.9426 O   0  0  0  0  0  0  0  0  0  0  0  0
   -6.1409   -6.7965   13.8665 N   0  0  0  0  0  0  0  0  0  0  0  0
   -6.5357   -7.3518   15.0726 C   0  0  0  0  0  0  0  0  0  0  0  0
   -6.2074   -5.4612   13.5981 C   0  0  0  0  0  0  0  0  0  0  0  0
   -5.8094   -4.9473   12.3981 C   0  0  0  0  0  0  0  0  0  0  0  0
   -5.2969   -5.6821   11.3136 C   0  0  0  0  0  0  0  0  0  0  0  0
   -4.9250   -5.2684   10.2164 O   0  0  0  0  0  0  0  0  0  0  0  0
   -6.0177   -3.5776   12.4873 N   0  0  0  0  0  0  0  0  0  0  0  0
   -6.5238   -3.3581   13.7240 C   0  0  0  0  0  0  0  0  0  0  0  0
   -6.6582   -4.4446   14.4328 N   0  0  0  0  0  0  0  0  0  0  0  0
  1  2  1  0  0  0  0
  2  9  1  0  0  0  0
  2  3  1  0  0  0  0
  3  5  1  0  0  0  0
  3  4  2  0  0  0  0
  5  6  1  0  0  0  0
  5  7  1  0  0  0  0
  7  8  2  0  0  0  0
  7 13  1  0  0  0  0
  8  9  1  0  0  0  0
  8 11  1  0  0  0  0
  9 10  2  0  0  0  0
 11 12  1  0  0  0  0
 12 13  2  0  0  0  0
M  END
>  <CHROM.1>
-5.77789354,-6.04611030,12.67657757,-0.77229106,1.18480910,-0.31586264

>  <Name>
1eht cryst

>  <RI>
224

>  <Rbt.Current_Directory>
/home/itssahil/PROJECTS/Mol_Feturizer/New_Systems/rnas/1eht

>  <Rbt.Executable>
rbdock ($Id: //depot/dev/client3/rdock/2013.1/src/exe/rbdock.cxx#4 $)

>  <Rbt.Library>
libRbt.so (2013.1, Build901 2013/11/27)

>  <Rbt.Parameter_File>
/export/apps/rDock/src/rDock_2013.1_src/data/scripts/dock_solv.prm

>  <Rbt.Receptor>
prm/pocket_docking_7.prm

>  <SCORE>
-39.2173

>  <SCORE.INTER>
-39.2173

>  <SCORE.INTER.CONST>
1

>  <SCORE.INTER.POLAR>
-1.92207

>  <SCORE.INTER.ROT>
0

>  <SCORE.INTER.SOLV>
9.82791

>  <SCORE.INTER.VDW>
-26.6139

>  <SCORE.INTER.norm>
-3.01672

>  <SCORE.INTRA>
0

>  <SCORE.INTRA.DIHEDRAL>
0

>  <SCORE.INTRA.DIHEDRAL.0>
0

>  <SCORE.INTRA.POLAR>
0

>  <SCORE.INTRA.POLAR.0>
0

>  <SCORE.INTRA.REPUL>
0

>  <SCORE.INTRA.REPUL.0>
0

>  <SCORE.INTRA.SOLV>
0

>  <SCORE.INTRA.SOLV.lig_0>
-12.9768

>  <SCORE.INTRA.VDW>
0

>  <SCORE.INTRA.VDW.0>
0

>  <SCORE.INTRA.norm>
0

>  <SCORE.RESTR>
0

>  <SCORE.RESTR.CAVITY>
0

>  <SCORE.RESTR.norm>
0

>  <SCORE.SYSTEM>
0

>  <SCORE.SYSTEM.CONST>
0

>  <SCORE.SYSTEM.DIHEDRAL>
0

>  <SCORE.SYSTEM.SOLV>
0

>  <SCORE.SYSTEM.norm>
0

>  <SCORE.heavy>
13

>  <SCORE.norm>
-3.01672

>  <RMSD>
0.760

$$$$
1eht cryst
 OpenBabel11021811383D
libRbt.so/2013.1/901 2013/11/27
 13 14  0  0  0  0  0  0  0  0999 V2000
   -4.7672   -7.8838   10.6351 C   0  0  0  0  0  0  0  0  0  0  0  0
   -5.2453   -7.0050   11.6029 N   0  0  0  0  0  0  0  0  0  0  0  0
   -5.6403   -7.5237   12.8090 C   0  0  0  0  0  0  0  0  0  0  0  0
   -5.5442   -8.7456   12.9393 O   0  0  0  0  0  0  0  0  0  0  0  0
   -6.1309   -6.7817   13.8535 N   0  0  0  0  0  0  0  0  0  0  0  0
   -6.5227   -7.3285   15.0645 C   0  0  0  0  0  0  0  0  0  0  0  0
   -6.1948   -5.4478   13.5774 C   0  0  0  0  0  0  0  0  0  0  0  0
   -5.8000   -4.9423   12.3727 C   0  0  0  0  0  0  0  0  0  0  0  0
   -5.2936   -5.6851   11.2908 C   0  0  0  0  0  0  0  0  0  0  0  0
   -4.9248   -5.2791   10.1897 O   0  0  0  0  0  0  0  0  0  0  0  0
   -6.0041   -3.5716   12.4544 N   0  0  0  0  0  0  0  0  0  0  0  0
   -6.5049   -3.3431   13.6917 C   0  0  0  0  0  0  0  0  0  0  0  0
   -6.6396   -4.4250   14.4076 N   0  0  0  0  0  0  0  0  0  0  0  0
  1  2  1  0  0  0  0
  2  9  1  0  0  0  0
  2  3  1  0  0  0  0
  3  5  1  0  0  0  0
  3  4  2  0  0  0  0
  5  6  1  0  0  0  0
  5  7  1  0  0  0  0
  7  8  2  0  0  0  0
  7 13  1  0  0  0  0
  8  9  1  0  0  0  0
  8 11  1  0  0  0  0
  9 10  2  0  0  0  0
 11 12  1  0  0  0  0
 12 13  2  0  0  0  0
M  END
>  <CHROM.1>
-5.77041646,-6.03950781,12.65774001,-0.77617876,1.18929395,-0.31830665

>  <Name>
1eht cryst

>  <RI>
0

>  <Rbt.Current_Directory>
/home/itssahil/PROJECTS/Mol_Feturizer/New_Systems/rnas/1eht

>  <Rbt.Executable>
rbdock ($Id: //depot/dev/client3/rdock/2013.1/src/exe/rbdock.cxx#4 $)

>  <Rbt.Library>
libRbt.so (2013.1, Build901 2013/11/27)

>  <Rbt.Parameter_File>
/export/apps/rDock/src/rDock_2013.1_src/data/scripts/dock_solv.prm

>  <Rbt.Receptor>
prm/pocket_docking_8.prm

>  <SCORE>
-39.1699

>  <SCORE.INTER>
-39.1699

>  <SCORE.INTER.CONST>
1

>  <SCORE.INTER.POLAR>
-1.93027

>  <SCORE.INTER.ROT>
0

>  <SCORE.INTER.SOLV>
9.83478

>  <SCORE.INTER.VDW>
-26.5573

>  <SCORE.INTER.norm>
-3.01307

>  <SCORE.INTRA>
0

>  <SCORE.INTRA.DIHEDRAL>
0

>  <SCORE.INTRA.DIHEDRAL.0>
0

>  <SCORE.INTRA.POLAR>
0

>  <SCORE.INTRA.POLAR.0>
0

>  <SCORE.INTRA.REPUL>
0

>  <SCORE.INTRA.REPUL.0>
0

>  <SCORE.INTRA.SOLV>
0

>  <SCORE.INTRA.SOLV.lig_0>
-12.9768

>  <SCORE.INTRA.VDW>
0

>  <SCORE.INTRA.VDW.0>
0

>  <SCORE.INTRA.norm>
0

>  <SCORE.RESTR>
0

>  <SCORE.RESTR.CAVITY>
0

>  <SCORE.RESTR.norm>
0

>  <SCORE.SYSTEM>
0

>  <SCORE.SYSTEM.CONST>
0

>  <SCORE.SYSTEM.DIHEDRAL>
0

>  <SCORE.SYSTEM.SOLV>
0

>  <SCORE.SYSTEM.norm>
0

>  <SCORE.heavy>
13

>  <SCORE.norm>
-3.01307

>  <RMSD>
0.760

$$$$
1eht cryst
 OpenBabel11021811383D
libRbt.so/2013.1/901 2013/11/27
 13 14  0  0  0  0  0  0  0  0999 V2000
   -4.7627   -7.8747   10.6470 C   0  0  0  0  0  0  0  0  0  0  0  0
   -5.2464   -7.0033   11.6188 N   0  0  0  0  0  0  0  0  0  0  0  0
   -5.6490   -7.5313   12.8183 C   0  0  0  0  0  0  0  0  0  0  0  0
   -5.5542   -8.7543   12.9395 O   0  0  0  0  0  0  0  0  0  0  0  0
   -6.1457   -6.7974   13.8657 N   0  0  0  0  0  0  0  0  0  0  0  0
   -6.5451   -7.3537   15.0698 C   0  0  0  0  0  0  0  0  0  0  0  0
   -6.2073   -5.4614   13.5997 C   0  0  0  0  0  0  0  0  0  0  0  0
   -5.8049   -4.9465   12.4015 C   0  0  0  0  0  0  0  0  0  0  0  0
   -5.2923   -5.6810   11.3168 C   0  0  0  0  0  0  0  0  0  0  0  0
   -4.9165   -5.2664   10.2213 O   0  0  0  0  0  0  0  0  0  0  0  0
   -6.0091   -3.5764   12.4929 N   0  0  0  0  0  0  0  0  0  0  0  0
   -6.5172   -3.3575   13.7288 C   0  0  0  0  0  0  0  0  0  0  0  0
   -6.6568   -4.4450   14.4353 N   0  0  0  0  0  0  0  0  0  0  0  0
  1  2  1  0  0  0  0
  2  9  1  0  0  0  0
  2  3  1  0  0  0  0
  3  5  1  0  0  0  0
  3  4  2  0  0  0  0
  5  6  1  0  0  0  0
  5  7  1  0  0  0  0
  7  8  2  0  0  0  0
  7 13  1  0  0  0  0
  8  9  1  0  0  0  0
  8 11  1  0  0  0  0
  9 10  2  0  0  0  0
 11 12  1  0  0  0  0
 12 13  2  0  0  0  0
M  END
>  <CHROM.1>
-5.77756291,-6.04596241,12.67802825,-0.78224644,1.18359964,-0.30475864

>  <Name>
1eht cryst

>  <RI>
0

>  <Rbt.Current_Directory>
/home/itssahil/PROJECTS/Mol_Feturizer/New_Systems/rnas/1eht

>  <Rbt.Executable>
rbdock ($Id: //depot/dev/client3/rdock/2013.1/src/exe/rbdock.cxx#4 $)

>  <Rbt.Library>
libRbt.so (2013.1, Build901 2013/11/27)

>  <Rbt.Parameter_File>
/export/apps/rDock/src/rDock_2013.1_src/data/scripts/dock_solv.prm

>  <Rbt.Receptor>
prm/blind_docking_100.prm

>  <SCORE>
-39.2261

>  <SCORE.INTER>
-39.2261

>  <SCORE.INTER.CONST>
1

>  <SCORE.INTER.POLAR>
-1.92535

>  <SCORE.INTER.ROT>
0

>  <SCORE.INTER.SOLV>
9.83722

>  <SCORE.INTER.VDW>
-26.612

>  <SCORE.INTER.norm>
-3.01739

>  <SCORE.INTRA>
0

>  <SCORE.INTRA.DIHEDRAL>
0

>  <SCORE.INTRA.DIHEDRAL.0>
0

>  <SCORE.INTRA.POLAR>
0

>  <SCORE.INTRA.POLAR.0>
0

>  <SCORE.INTRA.REPUL>
0

>  <SCORE.INTRA.REPUL.0>
0

>  <SCORE.INTRA.SOLV>
0

>  <SCORE.INTRA.SOLV.lig_0>
-12.9768

>  <SCORE.INTRA.VDW>
0

>  <SCORE.INTRA.VDW.0>
0

>  <SCORE.INTRA.norm>
0

>  <SCORE.RESTR>
0

>  <SCORE.RESTR.CAVITY>
0

>  <SCORE.RESTR.norm>
0

>  <SCORE.SYSTEM>
0

>  <SCORE.SYSTEM.CONST>
0

>  <SCORE.SYSTEM.DIHEDRAL>
0

>  <SCORE.SYSTEM.SOLV>
0

>  <SCORE.SYSTEM.norm>
0

>  <SCORE.heavy>
13

>  <SCORE.norm>
-3.01739

>  <RMSD>
0.761

$$$$
1eht cryst
 OpenBabel11021811383D
libRbt.so/2013.1/901 2013/11/27
 13 14  0  0  0  0  0  0  0  0999 V2000
   -4.7638   -7.8757   10.6474 C   0  0  0  0  0  0  0  0  0  0  0  0
   -5.2473   -7.0041   11.6190 N   0  0  0  0  0  0  0  0  0  0  0  0
   -5.6493   -7.5317   12.8188 C   0  0  0  0  0  0  0  0  0  0  0  0
   -5.5542   -8.7545   12.9406 O   0  0  0  0  0  0  0  0  0  0  0  0
   -6.1458   -6.7974   13.8661 N   0  0  0  0  0  0  0  0  0  0  0  0
   -6.5446   -7.3533   15.0706 C   0  0  0  0  0  0  0  0  0  0  0  0
   -6.2079   -5.4615   13.5996 C   0  0  0  0  0  0  0  0  0  0  0  0
   -5.8061   -4.9471   12.4010 C   0  0  0  0  0  0  0  0  0  0  0  0
   -5.2936   -5.6818   11.3165 C   0  0  0  0  0  0  0  0  0  0  0  0
   -4.9184   -5.2676   10.2207 O   0  0  0  0  0  0  0  0  0  0  0  0
   -6.0105   -3.5769   12.4919 N   0  0  0  0  0  0  0  0  0  0  0  0
   -6.5183   -3.3576   13.7279 C   0  0  0  0  0  0  0  0  0  0  0  0
   -6.6573   -4.4448   14.4349 N   0  0  0  0  0  0  0  0  0  0  0  0
  1  2  1  0  0  0  0
  2  9  1  0  0  0  0
  2  3  1  0  0  0  0
  3  5  1  0  0  0  0
  3  4  2  0  0  0  0
  5  6  1  0  0  0  0
  5  7  1  0  0  0  0
  7  8  2  0  0  0  0
  7 13  1  0  0  0  0
  8  9  1  0  0  0  0
  8 11  1  0  0  0  0
  9 10  2  0  0  0  0
 11 12  1  0  0  0  0
 12 13  2  0  0  0  0
M  END
>  <CHROM.1>
-5.77832168,-6.04637425,12.67801551,-0.78133962,1.18387420,-0.30602179

>  <Name>
1eht cryst

>  <RI>
0

>  <Rbt.Current_Directory>
/home/itssahil/PROJECTS/Mol_Feturizer/New_Systems/rnas/1eht

>  <Rbt.Executable>
rbdock ($Id: //depot/dev/client3/rdock/2013.1/src/exe/rbdock.cxx#4 $)

>  <Rbt.Library>
libRbt.so (2013.1, Build901 2013/11/27)

>  <Rbt.Parameter_File>
/export/apps/rDock/src/rDock_2013.1_src/data/scripts/dock_solv.prm

>  <Rbt.Receptor>
prm/blind_docking_40.prm

>  <SCORE>
-39.224

>  <SCORE.INTER>
-39.224

>  <SCORE.INTER.CONST>
1

>  <SCORE.INTER.POLAR>
-1.92514

>  <SCORE.INTER.ROT>
0

>  <SCORE.INTER.SOLV>
9.83485

>  <SCORE.INTER.VDW>
-26.6105

>  <SCORE.INTER.norm>
-3.01723

>  <SCORE.INTRA>
0

>  <SCORE.INTRA.DIHEDRAL>
0

>  <SCORE.INTRA.DIHEDRAL.0>
0

>  <SCORE.INTRA.POLAR>
0

>  <SCORE.INTRA.POLAR.0>
0

>  <SCORE.INTRA.REPUL>
0

>  <SCORE.INTRA.REPUL.0>
0

>  <SCORE.INTRA.SOLV>
0

>  <SCORE.INTRA.SOLV.lig_0>
-12.9768

>  <SCORE.INTRA.VDW>
0

>  <SCORE.INTRA.VDW.0>
0

>  <SCORE.INTRA.norm>
0

>  <SCORE.RESTR>
0

>  <SCORE.RESTR.CAVITY>
0

>  <SCORE.RESTR.norm>
0

>  <SCORE.SYSTEM>
0

>  <SCORE.SYSTEM.CONST>
0

>  <SCORE.SYSTEM.DIHEDRAL>
0

>  <SCORE.SYSTEM.SOLV>
0

>  <SCORE.SYSTEM.norm>
0

>  <SCORE.heavy>
13

>  <SCORE.norm>
-3.01723

>  <RMSD>
0.761

$$$$
1eht cryst
 OpenBabel11021811383D
libRbt.so/2013.1/901 2013/11/27
 13 14  0  0  0  0  0  0  0  0999 V2000
   -4.7628   -7.8759   10.6463 C   0  0  0  0  0  0  0  0  0  0  0  0
   -5.2467   -7.0041   11.6176 N   0  0  0  0  0  0  0  0  0  0  0  0
   -5.6479   -7.5315   12.8179 C   0  0  0  0  0  0  0  0  0  0  0  0
   -5.5516   -8.7542   12.9402 O   0  0  0  0  0  0  0  0  0  0  0  0
   -6.1446   -6.7971   13.8650 N   0  0  0  0  0  0  0  0  0  0  0  0
   -6.5425   -7.3527   15.0699 C   0  0  0  0  0  0  0  0  0  0  0  0
   -6.2080   -5.4614   13.5978 C   0  0  0  0  0  0  0  0  0  0  0  0
   -5.8070   -4.9472   12.3988 C   0  0  0  0  0  0  0  0  0  0  0  0
   -5.2943   -5.6821   11.3144 C   0  0  0  0  0  0  0  0  0  0  0  0
   -4.9198   -5.2682   10.2183 O   0  0  0  0  0  0  0  0  0  0  0  0
   -6.0126   -3.5772   12.4890 N   0  0  0  0  0  0  0  0  0  0  0  0
   -6.5201   -3.3577   13.7251 C   0  0  0  0  0  0  0  0  0  0  0  0
   -6.6579   -4.4447   14.4327 N   0  0  0  0  0  0  0  0  0  0  0  0
  1  2  1  0  0  0  0
  2  9  1  0  0  0  0
  2  3  1  0  0  0  0
  3  5  1  0  0  0  0
  3  4  2  0  0  0  0
  5  6  1  0  0  0  0
  5  7  1  0  0  0  0
  7  8  2  0  0  0  0
  7 13  1  0  0  0  0
  8  9  1  0  0  0  0
  8 11  1  0  0  0  0
  9 10  2  0  0  0  0
 11 12  1  0  0  0  0
 12 13  2  0  0  0  0
M  END
>  <CHROM.1>
-5.77821361,-6.04636023,12.67634588,-0.77883235,1.18396190,-0.30887188

>  <Name>
1eht cryst

>  <RI>
0

>  <Rbt.Current_Directory>
/home/itssahil/PROJECTS/Mol_Feturizer/New_Systems/rnas/1eht

>  <Rbt.Executable>
rbdock ($Id: //depot/dev/client3/rdock/2013.1/src/exe/rbdock.cxx#4 $)

>  <Rbt.Library>
libRbt.so (2013.1, Build901 2013/11/27)

>  <Rbt.Parameter_File>
/export/apps/rDock/src/rDock_2013.1_src/data/scripts/dock_solv.prm

>  <Rbt.Receptor>
prm/blind_docking_40.prm

>  <SCORE>
-39.2229

>  <SCORE.INTER>
-39.2229

>  <SCORE.INTER.CONST>
1

>  <SCORE.INTER.POLAR>
-1.9253

>  <SCORE.INTER.ROT>
0

>  <SCORE.INTER.SOLV>
9.83252

>  <SCORE.INTER.VDW>
-26.6085

>  <SCORE.INTER.norm>
-3.01715

>  <SCORE.INTRA>
0

>  <SCORE.INTRA.DIHEDRAL>
0

>  <SCORE.INTRA.DIHEDRAL.0>
0

>  <SCORE.INTRA.POLAR>
0

>  <SCORE.INTRA.POLAR.0>
0

>  <SCORE.INTRA.REPUL>
0

>  <SCORE.INTRA.REPUL.0>
0

>  <SCORE.INTRA.SOLV>
0

>  <SCORE.INTRA.SOLV.lig_0>
-12.9768

>  <SCORE.INTRA.VDW>
0

>  <SCORE.INTRA.VDW.0>
0

>  <SCORE.INTRA.norm>
0

>  <SCORE.RESTR>
0

>  <SCORE.RESTR.CAVITY>
0

>  <SCORE.RESTR.norm>
0

>  <SCORE.SYSTEM>
0

>  <SCORE.SYSTEM.CONST>
0

>  <SCORE.SYSTEM.DIHEDRAL>
0

>  <SCORE.SYSTEM.SOLV>
0

>  <SCORE.SYSTEM.norm>
0

>  <SCORE.heavy>
13

>  <SCORE.norm>
-3.01715

>  <RMSD>
0.761

$$$$
1eht cryst
 OpenBabel11021811383D
libRbt.so/2013.1/901 2013/11/27
 13 14  0  0  0  0  0  0  0  0999 V2000
   -4.7592   -7.8746   10.6474 C   0  0  0  0  0  0  0  0  0  0  0  0
   -5.2446   -7.0026   11.6178 N   0  0  0  0  0  0  0  0  0  0  0  0
   -5.6403   -7.5287   12.8204 C   0  0  0  0  0  0  0  0  0  0  0  0
   -5.5384   -8.7507   12.9455 O   0  0  0  0  0  0  0  0  0  0  0  0
   -6.1377   -6.7940   13.8669 N   0  0  0  0  0  0  0  0  0  0  0  0
   -6.5300   -7.3483   15.0742 C   0  0  0  0  0  0  0  0  0  0  0  0
   -6.2076   -5.4593   13.5965 C   0  0  0  0  0  0  0  0  0  0  0  0
   -5.8120   -4.9463   12.3953 C   0  0  0  0  0  0  0  0  0  0  0  0
   -5.2988   -5.6816   11.3115 C   0  0  0  0  0  0  0  0  0  0  0  0
   -4.9289   -5.2687   10.2133 O   0  0  0  0  0  0  0  0  0  0  0  0
   -6.0234   -3.5770   12.4826 N   0  0  0  0  0  0  0  0  0  0  0  0
   -6.5288   -3.3567   13.7195 C   0  0  0  0  0  0  0  0  0  0  0  0
   -6.6600   -4.4424   14.4301 N   0  0  0  0  0  0  0  0  0  0  0  0
  1  2  1  0  0  0  0
  2  9  1  0  0  0  0
  2  3  1  0  0  0  0
  3  5  1  0  0  0  0
  3  4  2  0  0  0  0
  5  6  1  0  0  0  0
  5  7  1  0  0  0  0
  7  8  2  0  0  0  0
  7 13  1  0  0  0  0
  8  9  1  0  0  0  0
  8 11  1  0  0  0  0
  9 10  2  0  0  0  0
 11 12  1  0  0  0  0
 12 13  2  0  0  0  0
M  END
>  <CHROM.1>
-5.77760540,-6.04458472,12.67547090,-0.76559991,1.18499288,-0.32360343

>  <Name>
1eht cryst

>  <RI>
0

>  <Rbt.Current_Directory>
/home/itssahil/PROJECTS/Mol_Feturizer/New_Systems/rnas/1eht

>  <Rbt.Executable>
rbdock ($Id: //depot/dev/client3/rdock/2013.1/src/exe/rbdock.cxx#4 $)

>  <Rbt.Library>
libRbt.so (2013.1, Build901 2013/11/27)

>  <Rbt.Parameter_File>
/export/apps/rDock/src/rDock_2013.1_src/data/scripts/dock_solv.prm

>  <Rbt.Receptor>
prm/pocket_docking_2.prm

>  <SCORE>
-39.2059

>  <SCORE.INTER>
-39.2059

>  <SCORE.INTER.CONST>
1

>  <SCORE.INTER.POLAR>
-1.91972

>  <SCORE.INTER.ROT>
0

>  <SCORE.INTER.SOLV>
9.82515

>  <SCORE.INTER.VDW>
-26.6133

>  <SCORE.INTER.norm>
-3.01584

>  <SCORE.INTRA>
0

>  <SCORE.INTRA.DIHEDRAL>
0

>  <SCORE.INTRA.DIHEDRAL.0>
0

>  <SCORE.INTRA.POLAR>
0

>  <SCORE.INTRA.POLAR.0>
0

>  <SCORE.INTRA.REPUL>
0

>  <SCORE.INTRA.REPUL.0>
0

>  <SCORE.INTRA.SOLV>
0

>  <SCORE.INTRA.SOLV.lig_0>
-12.9768

>  <SCORE.INTRA.VDW>
0

>  <SCORE.INTRA.VDW.0>
0

>  <SCORE.INTRA.norm>
0

>  <SCORE.RESTR>
0

>  <SCORE.RESTR.CAVITY>
0

>  <SCORE.RESTR.norm>
0

>  <SCORE.SYSTEM>
0

>  <SCORE.SYSTEM.CONST>
0

>  <SCORE.SYSTEM.DIHEDRAL>
0

>  <SCORE.SYSTEM.SOLV>
0

>  <SCORE.SYSTEM.norm>
0

>  <SCORE.heavy>
13

>  <SCORE.norm>
-3.01584

>  <RMSD>
0.761

$$$$
1eht cryst
 OpenBabel11021811383D
libRbt.so/2013.1/901 2013/11/27
 13 14  0  0  0  0  0  0  0  0999 V2000
   -4.7646   -7.8770   10.6470 C   0  0  0  0  0  0  0  0  0  0  0  0
   -5.2479   -7.0052   11.6186 N   0  0  0  0  0  0  0  0  0  0  0  0
   -5.6512   -7.5329   12.8180 C   0  0  0  0  0  0  0  0  0  0  0  0
   -5.5574   -8.7559   12.9393 O   0  0  0  0  0  0  0  0  0  0  0  0
   -6.1477   -6.7985   13.8652 N   0  0  0  0  0  0  0  0  0  0  0  0
   -6.5478   -7.3544   15.0692 C   0  0  0  0  0  0  0  0  0  0  0  0
   -6.2082   -5.4625   13.5991 C   0  0  0  0  0  0  0  0  0  0  0  0
   -5.8050   -4.9480   12.4010 C   0  0  0  0  0  0  0  0  0  0  0  0
   -5.2926   -5.6829   11.3165 C   0  0  0  0  0  0  0  0  0  0  0  0
   -4.9162   -5.2686   10.2211 O   0  0  0  0  0  0  0  0  0  0  0  0
   -6.0080   -3.5776   12.4923 N   0  0  0  0  0  0  0  0  0  0  0  0
   -6.5164   -3.3583   13.7280 C   0  0  0  0  0  0  0  0  0  0  0  0
   -6.6570   -4.4456   14.4345 N   0  0  0  0  0  0  0  0  0  0  0  0
  1  2  1  0  0  0  0
  2  9  1  0  0  0  0
  2  3  1  0  0  0  0
  3  5  1  0  0  0  0
  3  4  2  0  0  0  0
  5  6  1  0  0  0  0
  5  7  1  0  0  0  0
  7  8  2  0  0  0  0
  7 13  1  0  0  0  0
  8  9  1  0  0  0  0
  8 11  1  0  0  0  0
  9 10  2  0  0  0  0
 11 12  1  0  0  0  0
 12 13  2  0  0  0  0
M  END
>  <CHROM.1>
-5.77858005,-6.04739396,12.67761576,-0.78450957,1.18355419,-0.30271506

>  <Name>
1eht cryst

>  <RI>
0

>  <Rbt.Current_Directory>
/home/itssahil/PROJECTS/Mol_Feturizer/New_Systems/rnas/1eht

>  <Rbt.Executable>
rbdock ($Id: //depot/dev/client3/rdock/2013.1/src/exe/rbdock.cxx#4 $)

>  <Rbt.Library>
libRbt.so (2013.1, Build901 2013/11/27)

>  <Rbt.Parameter_File>
/export/apps/rDock/src/rDock_2013.1_src/data/scripts/dock_solv.prm

>  <Rbt.Receptor>
prm/pocket_docking_2.prm

>  <SCORE>
-39.2282

>  <SCORE.INTER>
-39.2282

>  <SCORE.INTER.CONST>
1

>  <SCORE.INTER.POLAR>
-1.92745

>  <SCORE.INTER.ROT>
0

>  <SCORE.INTER.SOLV>
9.83494

>  <SCORE.INTER.VDW>
-26.6056

>  <SCORE.INTER.norm>
-3.01755

>  <SCORE.INTRA>
0

>  <SCORE.INTRA.DIHEDRAL>
0

>  <SCORE.INTRA.DIHEDRAL.0>
0

>  <SCORE.INTRA.POLAR>
0

>  <SCORE.INTRA.POLAR.0>
0

>  <SCORE.INTRA.REPUL>
0

>  <SCORE.INTRA.REPUL.0>
0

>  <SCORE.INTRA.SOLV>
0

>  <SCORE.INTRA.SOLV.lig_0>
-12.9768

>  <SCORE.INTRA.VDW>
0

>  <SCORE.INTRA.VDW.0>
0

>  <SCORE.INTRA.norm>
0

>  <SCORE.RESTR>
0

>  <SCORE.RESTR.CAVITY>
0

>  <SCORE.RESTR.norm>
0

>  <SCORE.SYSTEM>
0

>  <SCORE.SYSTEM.CONST>
0

>  <SCORE.SYSTEM.DIHEDRAL>
0

>  <SCORE.SYSTEM.SOLV>
0

>  <SCORE.SYSTEM.norm>
0

>  <SCORE.heavy>
13

>  <SCORE.norm>
-3.01755

>  <RMSD>
0.761

$$$$
1eht cryst
 OpenBabel11021811383D
libRbt.so/2013.1/901 2013/11/27
 13 14  0  0  0  0  0  0  0  0999 V2000
   -4.7632   -7.8706   10.6482 C   0  0  0  0  0  0  0  0  0  0  0  0
   -5.2461   -7.0000   11.6211 N   0  0  0  0  0  0  0  0  0  0  0  0
   -5.6497   -7.5292   12.8197 C   0  0  0  0  0  0  0  0  0  0  0  0
   -5.5564   -8.7524   12.9393 O   0  0  0  0  0  0  0  0  0  0  0  0
   -6.1459   -6.7962   13.8680 N   0  0  0  0  0  0  0  0  0  0  0  0
   -6.5462   -7.3536   15.0712 C   0  0  0  0  0  0  0  0  0  0  0  0
   -6.2058   -5.4597   13.6039 C   0  0  0  0  0  0  0  0  0  0  0  0
   -5.8025   -4.9436   12.4065 C   0  0  0  0  0  0  0  0  0  0  0  0
   -5.2904   -5.6772   11.3210 C   0  0  0  0  0  0  0  0  0  0  0  0
   -4.9138   -5.2615   10.2261 O   0  0  0  0  0  0  0  0  0  0  0  0
   -6.0050   -3.5734   12.4997 N   0  0  0  0  0  0  0  0  0  0  0  0
   -6.5132   -3.3556   13.7358 C   0  0  0  0  0  0  0  0  0  0  0  0
   -6.6543   -4.4439   14.4407 N   0  0  0  0  0  0  0  0  0  0  0  0
  1  2  1  0  0  0  0
  2  9  1  0  0  0  0
  2  3  1  0  0  0  0
  3  5  1  0  0  0  0
  3  4  2  0  0  0  0
  5  6  1  0  0  0  0
  5  7  1  0  0  0  0
  7  8  2  0  0  0  0
  7 13  1  0  0  0  0
  8  9  1  0  0  0  0
  8 11  1  0  0  0  0
  9 10  2  0  0  0  0
 11 12  1  0  0  0  0
 12 13  2  0  0  0  0
M  END
>  <CHROM.1>
-5.77647857,-6.04346877,12.68149916,-0.78550588,1.18367830,-0.30034954

>  <Name>
1eht cryst

>  <RI>
0

>  <Rbt.Current_Directory>
/home/itssahil/PROJECTS/Mol_Feturizer/New_Systems/rnas/1eht

>  <Rbt.Executable>
rbdock ($Id: //depot/dev/client3/rdock/2013.1/src/exe/rbdock.cxx#4 $)

>  <Rbt.Library>
libRbt.so (2013.1, Build901 2013/11/27)

>  <Rbt.Parameter_File>
/export/apps/rDock/src/rDock_2013.1_src/data/scripts/dock_solv.prm

>  <Rbt.Receptor>
prm/pocket_docking_4.prm

>  <SCORE>
-39.2234

>  <SCORE.INTER>
-39.2234

>  <SCORE.INTER.CONST>
1

>  <SCORE.INTER.POLAR>
-1.92214

>  <SCORE.INTER.ROT>
0

>  <SCORE.INTER.SOLV>
9.84683

>  <SCORE.INTER.VDW>
-26.6241

>  <SCORE.INTER.norm>
-3.01719

>  <SCORE.INTRA>
0

>  <SCORE.INTRA.DIHEDRAL>
0

>  <SCORE.INTRA.DIHEDRAL.0>
0

>  <SCORE.INTRA.POLAR>
0

>  <SCORE.INTRA.POLAR.0>
0

>  <SCORE.INTRA.REPUL>
0

>  <SCORE.INTRA.REPUL.0>
0

>  <SCORE.INTRA.SOLV>
0

>  <SCORE.INTRA.SOLV.lig_0>
-12.9768

>  <SCORE.INTRA.VDW>
0

>  <SCORE.INTRA.VDW.0>
0

>  <SCORE.INTRA.norm>
0

>  <SCORE.RESTR>
0

>  <SCORE.RESTR.CAVITY>
0

>  <SCORE.RESTR.norm>
0

>  <SCORE.SYSTEM>
0

>  <SCORE.SYSTEM.CONST>
0

>  <SCORE.SYSTEM.DIHEDRAL>
0

>  <SCORE.SYSTEM.SOLV>
0

>  <SCORE.SYSTEM.norm>
0

>  <SCORE.heavy>
13

>  <SCORE.norm>
-3.01719

>  <RMSD>
0.761

$$$$
1eht cryst
 OpenBabel11021811383D
libRbt.so/2013.1/901 2013/11/27
 13 14  0  0  0  0  0  0  0  0999 V2000
   -4.7667   -7.8762   10.6472 C   0  0  0  0  0  0  0  0  0  0  0  0
   -5.2493   -7.0046   11.6192 N   0  0  0  0  0  0  0  0  0  0  0  0
   -5.6494   -7.5321   12.8198 C   0  0  0  0  0  0  0  0  0  0  0  0
   -5.5535   -8.7548   12.9417 O   0  0  0  0  0  0  0  0  0  0  0  0
   -6.1447   -6.7978   13.8675 N   0  0  0  0  0  0  0  0  0  0  0  0
   -6.5415   -7.3535   15.0728 C   0  0  0  0  0  0  0  0  0  0  0  0
   -6.2078   -5.4620   13.6008 C   0  0  0  0  0  0  0  0  0  0  0  0
   -5.8079   -4.9476   12.4015 C   0  0  0  0  0  0  0  0  0  0  0  0
   -5.2966   -5.6825   11.3164 C   0  0  0  0  0  0  0  0  0  0  0  0
   -4.9231   -5.2684   10.2200 O   0  0  0  0  0  0  0  0  0  0  0  0
   -6.0128   -3.5776   12.4923 N   0  0  0  0  0  0  0  0  0  0  0  0
   -6.5189   -3.3582   13.7290 C   0  0  0  0  0  0  0  0  0  0  0  0
   -6.6564   -4.4453   14.4364 N   0  0  0  0  0  0  0  0  0  0  0  0
  1  2  1  0  0  0  0
  2  9  1  0  0  0  0
  2  3  1  0  0  0  0
  3  5  1  0  0  0  0
  3  4  2  0  0  0  0
  5  6  1  0  0  0  0
  5  7  1  0  0  0  0
  7  8  2  0  0  0  0
  7 13  1  0  0  0  0
  8  9  1  0  0  0  0
  8 11  1  0  0  0  0
  9 10  2  0  0  0  0
 11 12  1  0  0  0  0
 12 13  2  0  0  0  0
M  END
>  <CHROM.1>
-5.77922698,-6.04686197,12.67874057,-0.77905219,1.18509385,-0.30839811

>  <Name>
1eht cryst

>  <RI>
0

>  <Rbt.Current_Directory>
/home/itssahil/PROJECTS/Mol_Feturizer/New_Systems/rnas/1eht

>  <Rbt.Executable>
rbdock ($Id: //depot/dev/client3/rdock/2013.1/src/exe/rbdock.cxx#4 $)

>  <Rbt.Library>
libRbt.so (2013.1, Build901 2013/11/27)

>  <Rbt.Parameter_File>
/export/apps/rDock/src/rDock_2013.1_src/data/scripts/dock_solv.prm

>  <Rbt.Receptor>
prm/pocket_docking_5.prm

>  <SCORE>
-39.2209

>  <SCORE.INTER>
-39.2209

>  <SCORE.INTER.CONST>
1

>  <SCORE.INTER.POLAR>
-1.92287

>  <SCORE.INTER.ROT>
0

>  <SCORE.INTER.SOLV>
9.83121

>  <SCORE.INTER.VDW>
-26.6148

>  <SCORE.INTER.norm>
-3.01699

>  <SCORE.INTRA>
0

>  <SCORE.INTRA.DIHEDRAL>
0

>  <SCORE.INTRA.DIHEDRAL.0>
0

>  <SCORE.INTRA.POLAR>
0

>  <SCORE.INTRA.POLAR.0>
0

>  <SCORE.INTRA.REPUL>
0

>  <SCORE.INTRA.REPUL.0>
0

>  <SCORE.INTRA.SOLV>
0

>  <SCORE.INTRA.SOLV.lig_0>
-12.9768

>  <SCORE.INTRA.VDW>
0

>  <SCORE.INTRA.VDW.0>
0

>  <SCORE.INTRA.norm>
0

>  <SCORE.RESTR>
0

>  <SCORE.RESTR.CAVITY>
0

>  <SCORE.RESTR.norm>
0

>  <SCORE.SYSTEM>
0

>  <SCORE.SYSTEM.CONST>
0

>  <SCORE.SYSTEM.DIHEDRAL>
0

>  <SCORE.SYSTEM.SOLV>
0

>  <SCORE.SYSTEM.norm>
0

>  <SCORE.heavy>
13

>  <SCORE.norm>
-3.01699

>  <RMSD>
0.761

$$$$
1eht cryst
 OpenBabel11021811383D
libRbt.so/2013.1/901 2013/11/27
 13 14  0  0  0  0  0  0  0  0999 V2000
   -4.7640   -7.8787   10.6474 C   0  0  0  0  0  0  0  0  0  0  0  0
   -5.2479   -7.0061   11.6179 N   0  0  0  0  0  0  0  0  0  0  0  0
   -5.6476   -7.5321   12.8192 C   0  0  0  0  0  0  0  0  0  0  0  0
   -5.5502   -8.7546   12.9431 O   0  0  0  0  0  0  0  0  0  0  0  0
   -6.1443   -6.7968   13.8656 N   0  0  0  0  0  0  0  0  0  0  0  0
   -6.5407   -7.3511   15.0717 C   0  0  0  0  0  0  0  0  0  0  0  0
   -6.2091   -5.4615   13.5967 C   0  0  0  0  0  0  0  0  0  0  0  0
   -5.8095   -4.9486   12.3967 C   0  0  0  0  0  0  0  0  0  0  0  0
   -5.2970   -5.6845   11.3129 C   0  0  0  0  0  0  0  0  0  0  0  0
   -4.9237   -5.2717   10.2159 O   0  0  0  0  0  0  0  0  0  0  0  0
   -6.0163   -3.5787   12.4852 N   0  0  0  0  0  0  0  0  0  0  0  0
   -6.5231   -3.3580   13.7214 C   0  0  0  0  0  0  0  0  0  0  0  0
   -6.6593   -4.4441   14.4306 N   0  0  0  0  0  0  0  0  0  0  0  0
  1  2  1  0  0  0  0
  2  9  1  0  0  0  0
  2  3  1  0  0  0  0
  3  5  1  0  0  0  0
  3  4  2  0  0  0  0
  5  6  1  0  0  0  0
  5  7  1  0  0  0  0
  7  8  2  0  0  0  0
  7 13  1  0  0  0  0
  8  9  1  0  0  0  0
  8 11  1  0  0  0  0
  9 10  2  0  0  0  0
 11 12  1  0  0  0  0
 12 13  2  0  0  0  0
M  END
>  <CHROM.1>
-5.77947781,-6.04734150,12.67570763,-0.77585198,1.18442238,-0.31299448

>  <Name>
1eht cryst

>  <RI>
0

>  <Rbt.Current_Directory>
/home/itssahil/PROJECTS/Mol_Feturizer/New_Systems/rnas/1eht

>  <Rbt.Executable>
rbdock ($Id: //depot/dev/client3/rdock/2013.1/src/exe/rbdock.cxx#4 $)

>  <Rbt.Library>
libRbt.so (2013.1, Build901 2013/11/27)

>  <Rbt.Parameter_File>
/export/apps/rDock/src/rDock_2013.1_src/data/scripts/dock_solv.prm

>  <Rbt.Receptor>
prm/blind_docking_100.prm

>  <SCORE>
-39.2189

>  <SCORE.INTER>
-39.2189

>  <SCORE.INTER.CONST>
1

>  <SCORE.INTER.POLAR>
-1.92536

>  <SCORE.INTER.ROT>
0

>  <SCORE.INTER.SOLV>
9.82618

>  <SCORE.INTER.VDW>
-26.6035

>  <SCORE.INTER.norm>
-3.01684

>  <SCORE.INTRA>
0

>  <SCORE.INTRA.DIHEDRAL>
0

>  <SCORE.INTRA.DIHEDRAL.0>
0

>  <SCORE.INTRA.POLAR>
0

>  <SCORE.INTRA.POLAR.0>
0

>  <SCORE.INTRA.REPUL>
0

>  <SCORE.INTRA.REPUL.0>
0

>  <SCORE.INTRA.SOLV>
0

>  <SCORE.INTRA.SOLV.lig_0>
-12.9768

>  <SCORE.INTRA.VDW>
0

>  <SCORE.INTRA.VDW.0>
0

>  <SCORE.INTRA.norm>
0

>  <SCORE.RESTR>
0

>  <SCORE.RESTR.CAVITY>
0

>  <SCORE.RESTR.norm>
0

>  <SCORE.SYSTEM>
0

>  <SCORE.SYSTEM.CONST>
0

>  <SCORE.SYSTEM.DIHEDRAL>
0

>  <SCORE.SYSTEM.SOLV>
0

>  <SCORE.SYSTEM.norm>
0

>  <SCORE.heavy>
13

>  <SCORE.norm>
-3.01684

>  <RMSD>
0.762

$$$$
1eht cryst
 OpenBabel11021811383D
libRbt.so/2013.1/901 2013/11/27
 13 14  0  0  0  0  0  0  0  0999 V2000
   -4.7706   -7.8815   10.6483 C   0  0  0  0  0  0  0  0  0  0  0  0
   -5.2524   -7.0083   11.6193 N   0  0  0  0  0  0  0  0  0  0  0  0
   -5.6456   -7.5331   12.8233 C   0  0  0  0  0  0  0  0  0  0  0  0
   -5.5446   -8.7551   12.9490 O   0  0  0  0  0  0  0  0  0  0  0  0
   -6.1394   -6.7971   13.8706 N   0  0  0  0  0  0  0  0  0  0  0  0
   -6.5292   -7.3502   15.0794 C   0  0  0  0  0  0  0  0  0  0  0  0
   -6.2086   -5.4625   13.5995 C   0  0  0  0  0  0  0  0  0  0  0  0
   -5.8156   -4.9508   12.3969 C   0  0  0  0  0  0  0  0  0  0  0  0
   -5.3060   -5.6874   11.3122 C   0  0  0  0  0  0  0  0  0  0  0  0
   -4.9386   -5.2757   10.2128 O   0  0  0  0  0  0  0  0  0  0  0  0
   -6.0253   -3.5812   12.4838 N   0  0  0  0  0  0  0  0  0  0  0  0
   -6.5272   -3.3595   13.7218 C   0  0  0  0  0  0  0  0  0  0  0  0
   -6.6577   -4.4446   14.4335 N   0  0  0  0  0  0  0  0  0  0  0  0
  1  2  1  0  0  0  0
  2  9  1  0  0  0  0
  2  3  1  0  0  0  0
  3  5  1  0  0  0  0
  3  4  2  0  0  0  0
  5  6  1  0  0  0  0
  5  7  1  0  0  0  0
  7  8  2  0  0  0  0
  7 13  1  0  0  0  0
  8  9  1  0  0  0  0
  8 11  1  0  0  0  0
  9 10  2  0  0  0  0
 11 12  1  0  0  0  0
 12 13  2  0  0  0  0
M  END
>  <CHROM.1>
-5.78163176,-6.04893719,12.67773945,-0.76606899,1.18782225,-0.32387973

>  <Name>
1eht cryst

>  <RI>
0

>  <Rbt.Current_Directory>
/home/itssahil/PROJECTS/Mol_Feturizer/New_Systems/rnas/1eht

>  <Rbt.Executable>
rbdock ($Id: //depot/dev/client3/rdock/2013.1/src/exe/rbdock.cxx#4 $)

>  <Rbt.Library>
libRbt.so (2013.1, Build901 2013/11/27)

>  <Rbt.Parameter_File>
/export/apps/rDock/src/rDock_2013.1_src/data/scripts/dock_solv.prm

>  <Rbt.Receptor>
prm/blind_docking_100.prm

>  <SCORE>
-39.2038

>  <SCORE.INTER>
-39.2038

>  <SCORE.INTER.CONST>
1

>  <SCORE.INTER.POLAR>
-1.91864

>  <SCORE.INTER.ROT>
0

>  <SCORE.INTER.SOLV>
9.81248

>  <SCORE.INTER.VDW>
-26.6112

>  <SCORE.INTER.norm>
-3.01568

>  <SCORE.INTRA>
0

>  <SCORE.INTRA.DIHEDRAL>
0

>  <SCORE.INTRA.DIHEDRAL.0>
0

>  <SCORE.INTRA.POLAR>
0

>  <SCORE.INTRA.POLAR.0>
0

>  <SCORE.INTRA.REPUL>
0

>  <SCORE.INTRA.REPUL.0>
0

>  <SCORE.INTRA.SOLV>
0

>  <SCORE.INTRA.SOLV.lig_0>
-12.9768

>  <SCORE.INTRA.VDW>
0

>  <SCORE.INTRA.VDW.0>
0

>  <SCORE.INTRA.norm>
0

>  <SCORE.RESTR>
0

>  <SCORE.RESTR.CAVITY>
0

>  <SCORE.RESTR.norm>
0

>  <SCORE.SYSTEM>
0

>  <SCORE.SYSTEM.CONST>
0

>  <SCORE.SYSTEM.DIHEDRAL>
0

>  <SCORE.SYSTEM.SOLV>
0

>  <SCORE.SYSTEM.norm>
0

>  <SCORE.heavy>
13

>  <SCORE.norm>
-3.01568

>  <RMSD>
0.762

$$$$
1eht cryst
 OpenBabel11021811383D
libRbt.so/2013.1/901 2013/11/27
 13 14  0  0  0  0  0  0  0  0999 V2000
   -4.7692   -7.8792   10.6481 C   0  0  0  0  0  0  0  0  0  0  0  0
   -5.2511   -7.0069   11.6198 N   0  0  0  0  0  0  0  0  0  0  0  0
   -5.6522   -7.5337   12.8203 C   0  0  0  0  0  0  0  0  0  0  0  0
   -5.5578   -8.7566   12.9424 O   0  0  0  0  0  0  0  0  0  0  0  0
   -6.1471   -6.7987   13.8678 N   0  0  0  0  0  0  0  0  0  0  0  0
   -6.5450   -7.3538   15.0730 C   0  0  0  0  0  0  0  0  0  0  0  0
   -6.2085   -5.4629   13.6008 C   0  0  0  0  0  0  0  0  0  0  0  0
   -5.8076   -4.9492   12.4016 C   0  0  0  0  0  0  0  0  0  0  0  0
   -5.2968   -5.6847   11.3168 C   0  0  0  0  0  0  0  0  0  0  0  0
   -4.9224   -5.2712   10.2204 O   0  0  0  0  0  0  0  0  0  0  0  0
   -6.0110   -3.5789   12.4921 N   0  0  0  0  0  0  0  0  0  0  0  0
   -6.5173   -3.3587   13.7286 C   0  0  0  0  0  0  0  0  0  0  0  0
   -6.6563   -4.4455   14.4362 N   0  0  0  0  0  0  0  0  0  0  0  0
  1  2  1  0  0  0  0
  2  9  1  0  0  0  0
  2  3  1  0  0  0  0
  3  5  1  0  0  0  0
  3  4  2  0  0  0  0
  5  6  1  0  0  0  0
  5  7  1  0  0  0  0
  7  8  2  0  0  0  0
  7 13  1  0  0  0  0
  8  9  1  0  0  0  0
  8 11  1  0  0  0  0
  9 10  2  0  0  0  0
 11 12  1  0  0  0  0
 12 13  2  0  0  0  0
M  END
>  <CHROM.1>
-5.78032886,-6.04837764,12.67902978,-0.78225133,1.18509497,-0.30558536

>  <Name>
1eht cryst

>  <RI>
0

>  <Rbt.Current_Directory>
/home/itssahil/PROJECTS/Mol_Feturizer/New_Systems/rnas/1eht

>  <Rbt.Executable>
rbdock ($Id: //depot/dev/client3/rdock/2013.1/src/exe/rbdock.cxx#4 $)

>  <Rbt.Library>
libRbt.so (2013.1, Build901 2013/11/27)

>  <Rbt.Parameter_File>
/export/apps/rDock/src/rDock_2013.1_src/data/scripts/dock_solv.prm

>  <Rbt.Receptor>
prm/blind_docking_20.prm

>  <SCORE>
-39.2243

>  <SCORE.INTER>
-39.2243

>  <SCORE.INTER.CONST>
1

>  <SCORE.INTER.POLAR>
-1.92505

>  <SCORE.INTER.ROT>
0

>  <SCORE.INTER.SOLV>
9.82922

>  <SCORE.INTER.VDW>
-26.6091

>  <SCORE.INTER.norm>
-3.01726

>  <SCORE.INTRA>
0

>  <SCORE.INTRA.DIHEDRAL>
0

>  <SCORE.INTRA.DIHEDRAL.0>
0

>  <SCORE.INTRA.POLAR>
0

>  <SCORE.INTRA.POLAR.0>
0

>  <SCORE.INTRA.REPUL>
0

>  <SCORE.INTRA.REPUL.0>
0

>  <SCORE.INTRA.SOLV>
0

>  <SCORE.INTRA.SOLV.lig_0>
-12.9768

>  <SCORE.INTRA.VDW>
0

>  <SCORE.INTRA.VDW.0>
0

>  <SCORE.INTRA.norm>
0

>  <SCORE.RESTR>
0

>  <SCORE.RESTR.CAVITY>
0

>  <SCORE.RESTR.norm>
0

>  <SCORE.SYSTEM>
0

>  <SCORE.SYSTEM.CONST>
0

>  <SCORE.SYSTEM.DIHEDRAL>
0

>  <SCORE.SYSTEM.SOLV>
0

>  <SCORE.SYSTEM.norm>
0

>  <SCORE.heavy>
13

>  <SCORE.norm>
-3.01726

>  <RMSD>
0.762

$$$$
1eht cryst
 OpenBabel11021811383D
libRbt.so/2013.1/901 2013/11/27
 13 14  0  0  0  0  0  0  0  0999 V2000
   -4.7639   -7.8777   10.6469 C   0  0  0  0  0  0  0  0  0  0  0  0
   -5.2477   -7.0054   11.6177 N   0  0  0  0  0  0  0  0  0  0  0  0
   -5.6500   -7.5322   12.8179 C   0  0  0  0  0  0  0  0  0  0  0  0
   -5.5547   -8.7550   12.9405 O   0  0  0  0  0  0  0  0  0  0  0  0
   -6.1468   -6.7973   13.8645 N   0  0  0  0  0  0  0  0  0  0  0  0
   -6.5458   -7.3523   15.0693 C   0  0  0  0  0  0  0  0  0  0  0  0
   -6.2090   -5.4616   13.5970 C   0  0  0  0  0  0  0  0  0  0  0  0
   -5.8069   -4.9479   12.3982 C   0  0  0  0  0  0  0  0  0  0  0  0
   -5.2941   -5.6834   11.3143 C   0  0  0  0  0  0  0  0  0  0  0  0
   -4.9187   -5.2700   10.2182 O   0  0  0  0  0  0  0  0  0  0  0  0
   -6.0115   -3.5778   12.4880 N   0  0  0  0  0  0  0  0  0  0  0  0
   -6.5196   -3.3576   13.7238 C   0  0  0  0  0  0  0  0  0  0  0  0
   -6.6587   -4.4444   14.4315 N   0  0  0  0  0  0  0  0  0  0  0  0
  1  2  1  0  0  0  0
  2  9  1  0  0  0  0
  2  3  1  0  0  0  0
  3  5  1  0  0  0  0
  3  4  2  0  0  0  0
  5  6  1  0  0  0  0
  5  7  1  0  0  0  0
  7  8  2  0  0  0  0
  7 13  1  0  0  0  0
  8  9  1  0  0  0  0
  8 11  1  0  0  0  0
  9 10  2  0  0  0  0
 11 12  1  0  0  0  0
 12 13  2  0  0  0  0
M  END
>  <CHROM.1>
-5.77910782,-6.04704648,12.67596189,-0.78126057,1.18362073,-0.30681162

>  <Name>
1eht cryst

>  <RI>
0

>  <Rbt.Current_Directory>
/home/itssahil/PROJECTS/Mol_Feturizer/New_Systems/rnas/1eht

>  <Rbt.Executable>
rbdock ($Id: //depot/dev/client3/rdock/2013.1/src/exe/rbdock.cxx#4 $)

>  <Rbt.Library>
libRbt.so (2013.1, Build901 2013/11/27)

>  <Rbt.Parameter_File>
/export/apps/rDock/src/rDock_2013.1_src/data/scripts/dock_solv.prm

>  <Rbt.Receptor>
prm/blind_docking_60.prm

>  <SCORE>
-39.2233

>  <SCORE.INTER>
-39.2233

>  <SCORE.INTER.CONST>
1

>  <SCORE.INTER.POLAR>
-1.92735

>  <SCORE.INTER.ROT>
0

>  <SCORE.INTER.SOLV>
9.83195

>  <SCORE.INTER.VDW>
-26.6017

>  <SCORE.INTER.norm>
-3.01718

>  <SCORE.INTRA>
0

>  <SCORE.INTRA.DIHEDRAL>
0

>  <SCORE.INTRA.DIHEDRAL.0>
0

>  <SCORE.INTRA.POLAR>
0

>  <SCORE.INTRA.POLAR.0>
0

>  <SCORE.INTRA.REPUL>
0

>  <SCORE.INTRA.REPUL.0>
0

>  <SCORE.INTRA.SOLV>
0

>  <SCORE.INTRA.SOLV.lig_0>
-12.9768

>  <SCORE.INTRA.VDW>
0

>  <SCORE.INTRA.VDW.0>
0

>  <SCORE.INTRA.norm>
0

>  <SCORE.RESTR>
0

>  <SCORE.RESTR.CAVITY>
0

>  <SCORE.RESTR.norm>
0

>  <SCORE.SYSTEM>
0

>  <SCORE.SYSTEM.CONST>
0

>  <SCORE.SYSTEM.DIHEDRAL>
0

>  <SCORE.SYSTEM.SOLV>
0

>  <SCORE.SYSTEM.norm>
0

>  <SCORE.heavy>
13

>  <SCORE.norm>
-3.01718

>  <RMSD>
0.762

$$$$
1eht cryst
 OpenBabel11021811383D
libRbt.so/2013.1/901 2013/11/27
 13 14  0  0  0  0  0  0  0  0999 V2000
   -4.7951   -7.9254   10.6273 C   0  0  0  0  0  0  0  0  0  0  0  0
   -5.2717   -7.0407   11.5905 N   0  0  0  0  0  0  0  0  0  0  0  0
   -5.6585   -7.5512   12.8027 C   0  0  0  0  0  0  0  0  0  0  0  0
   -5.5570   -8.7716   12.9423 O   0  0  0  0  0  0  0  0  0  0  0  0
   -6.1467   -6.8028   13.8439 N   0  0  0  0  0  0  0  0  0  0  0  0
   -6.5300   -7.3415   15.0611 C   0  0  0  0  0  0  0  0  0  0  0  0
   -6.2172   -5.4715   13.5574 C   0  0  0  0  0  0  0  0  0  0  0  0
   -5.8305   -4.9740   12.3467 C   0  0  0  0  0  0  0  0  0  0  0  0
   -5.3268   -5.7235   11.2682 C   0  0  0  0  0  0  0  0  0  0  0  0
   -4.9652   -5.3249   10.1620 O   0  0  0  0  0  0  0  0  0  0  0  0
   -6.0396   -3.6035   12.4186 N   0  0  0  0  0  0  0  0  0  0  0  0
   -6.5349   -3.3671   13.6565 C   0  0  0  0  0  0  0  0  0  0  0  0
   -6.6617   -4.4437   14.3817 N   0  0  0  0  0  0  0  0  0  0  0  0
  1  2  1  0  0  0  0
  2  9  1  0  0  0  0
  2  3  1  0  0  0  0
  3  5  1  0  0  0  0
  3  4  2  0  0  0  0
  5  6  1  0  0  0  0
  5  7  1  0  0  0  0
  7  8  2  0  0  0  0
  7 13  1  0  0  0  0
  8  9  1  0  0  0  0
  8 11  1  0  0  0  0
  9 10  2  0  0  0  0
 11 12  1  0  0  0  0
 12 13  2  0  0  0  0
M  END
>  <CHROM.1>
-5.79519088,-6.06880910,12.64036768,-0.76174011,1.19290940,-0.33970336

>  <Name>
1eht cryst

>  <RI>
0

>  <Rbt.Current_Directory>
/home/itssahil/PROJECTS/Mol_Feturizer/New_Systems/rnas/1eht

>  <Rbt.Executable>
rbdock ($Id: //depot/dev/client3/rdock/2013.1/src/exe/rbdock.cxx#4 $)

>  <Rbt.Library>
libRbt.so (2013.1, Build901 2013/11/27)

>  <Rbt.Parameter_File>
/export/apps/rDock/src/rDock_2013.1_src/data/scripts/dock_solv.prm

>  <Rbt.Receptor>
prm/blind_docking_60.prm

>  <SCORE>
-39.1527

>  <SCORE.INTER>
-39.1527

>  <SCORE.INTER.CONST>
1

>  <SCORE.INTER.POLAR>
-1.9514

>  <SCORE.INTER.ROT>
0

>  <SCORE.INTER.SOLV>
9.75064

>  <SCORE.INTER.VDW>
-26.4473

>  <SCORE.INTER.norm>
-3.01174

>  <SCORE.INTRA>
0

>  <SCORE.INTRA.DIHEDRAL>
0

>  <SCORE.INTRA.DIHEDRAL.0>
0

>  <SCORE.INTRA.POLAR>
0

>  <SCORE.INTRA.POLAR.0>
0

>  <SCORE.INTRA.REPUL>
0

>  <SCORE.INTRA.REPUL.0>
0

>  <SCORE.INTRA.SOLV>
0

>  <SCORE.INTRA.SOLV.lig_0>
-12.9768

>  <SCORE.INTRA.VDW>
0

>  <SCORE.INTRA.VDW.0>
0

>  <SCORE.INTRA.norm>
0

>  <SCORE.RESTR>
0

>  <SCORE.RESTR.CAVITY>
0

>  <SCORE.RESTR.norm>
0

>  <SCORE.SYSTEM>
0

>  <SCORE.SYSTEM.CONST>
0

>  <SCORE.SYSTEM.DIHEDRAL>
0

>  <SCORE.SYSTEM.SOLV>
0

>  <SCORE.SYSTEM.norm>
0

>  <SCORE.heavy>
13

>  <SCORE.norm>
-3.01174

>  <RMSD>
0.762

$$$$
1eht cryst
 OpenBabel11021811383D
libRbt.so/2013.1/901 2013/11/27
 13 14  0  0  0  0  0  0  0  0999 V2000
   -4.7654   -7.8790   10.6471 C   0  0  0  0  0  0  0  0  0  0  0  0
   -5.2490   -7.0065   11.6178 N   0  0  0  0  0  0  0  0  0  0  0  0
   -5.6483   -7.5326   12.8192 C   0  0  0  0  0  0  0  0  0  0  0  0
   -5.5509   -8.7551   12.9430 O   0  0  0  0  0  0  0  0  0  0  0  0
   -6.1446   -6.7974   13.8659 N   0  0  0  0  0  0  0  0  0  0  0  0
   -6.5406   -7.3517   15.0720 C   0  0  0  0  0  0  0  0  0  0  0  0
   -6.2093   -5.4620   13.5971 C   0  0  0  0  0  0  0  0  0  0  0  0
   -5.8101   -4.9490   12.3970 C   0  0  0  0  0  0  0  0  0  0  0  0
   -5.2980   -5.6849   11.3130 C   0  0  0  0  0  0  0  0  0  0  0  0
   -4.9251   -5.2720   10.2159 O   0  0  0  0  0  0  0  0  0  0  0  0
   -6.0168   -3.5791   12.4857 N   0  0  0  0  0  0  0  0  0  0  0  0
   -6.5231   -3.3585   13.7221 C   0  0  0  0  0  0  0  0  0  0  0  0
   -6.6592   -4.4446   14.4312 N   0  0  0  0  0  0  0  0  0  0  0  0
  1  2  1  0  0  0  0
  2  9  1  0  0  0  0
  2  3  1  0  0  0  0
  3  5  1  0  0  0  0
  3  4  2  0  0  0  0
  5  6  1  0  0  0  0
  5  7  1  0  0  0  0
  7  8  2  0  0  0  0
  7 13  1  0  0  0  0
  8  9  1  0  0  0  0
  8 11  1  0  0  0  0
  9 10  2  0  0  0  0
 11 12  1  0  0  0  0
 12 13  2  0  0  0  0
M  END
>  <CHROM.1>
-5.78008609,-6.04780355,12.67592115,-0.77579466,1.18476385,-0.31296288

>  <Name>
1eht cryst

>  <RI>
0

>  <Rbt.Current_Directory>
/home/itssahil/PROJECTS/Mol_Feturizer/New_Systems/rnas/1eht

>  <Rbt.Executable>
rbdock ($Id: //depot/dev/client3/rdock/2013.1/src/exe/rbdock.cxx#4 $)

>  <Rbt.Library>
libRbt.so (2013.1, Build901 2013/11/27)

>  <Rbt.Parameter_File>
/export/apps/rDock/src/rDock_2013.1_src/data/scripts/dock_solv.prm

>  <Rbt.Receptor>
prm/pocket_docking_2.prm

>  <SCORE>
-39.2178

>  <SCORE.INTER>
-39.2178

>  <SCORE.INTER.CONST>
1

>  <SCORE.INTER.POLAR>
-1.925

>  <SCORE.INTER.ROT>
0

>  <SCORE.INTER.SOLV>
9.82485

>  <SCORE.INTER.VDW>
-26.6035

>  <SCORE.INTER.norm>
-3.01675

>  <SCORE.INTRA>
0

>  <SCORE.INTRA.DIHEDRAL>
0

>  <SCORE.INTRA.DIHEDRAL.0>
0

>  <SCORE.INTRA.POLAR>
0

>  <SCORE.INTRA.POLAR.0>
0

>  <SCORE.INTRA.REPUL>
0

>  <SCORE.INTRA.REPUL.0>
0

>  <SCORE.INTRA.SOLV>
0

>  <SCORE.INTRA.SOLV.lig_0>
-12.9768

>  <SCORE.INTRA.VDW>
0

>  <SCORE.INTRA.VDW.0>
0

>  <SCORE.INTRA.norm>
0

>  <SCORE.RESTR>
0

>  <SCORE.RESTR.CAVITY>
0

>  <SCORE.RESTR.norm>
0

>  <SCORE.SYSTEM>
0

>  <SCORE.SYSTEM.CONST>
0

>  <SCORE.SYSTEM.DIHEDRAL>
0

>  <SCORE.SYSTEM.SOLV>
0

>  <SCORE.SYSTEM.norm>
0

>  <SCORE.heavy>
13

>  <SCORE.norm>
-3.01675

>  <RMSD>
0.762

$$$$
1eht cryst
 OpenBabel11021811383D
libRbt.so/2013.1/901 2013/11/27
 13 14  0  0  0  0  0  0  0  0999 V2000
   -4.7901   -7.8799   10.6449 C   0  0  0  0  0  0  0  0  0  0  0  0
   -5.2653   -7.0076   11.6201 N   0  0  0  0  0  0  0  0  0  0  0  0
   -5.6653   -7.5354   12.8205 C   0  0  0  0  0  0  0  0  0  0  0  0
   -5.5761   -8.7590   12.9395 O   0  0  0  0  0  0  0  0  0  0  0  0
   -6.1539   -6.8007   13.8711 N   0  0  0  0  0  0  0  0  0  0  0  0
   -6.5508   -7.3568   15.0761 C   0  0  0  0  0  0  0  0  0  0  0  0
   -6.2100   -5.4639   13.6074 C   0  0  0  0  0  0  0  0  0  0  0  0
   -5.8102   -4.9492   12.4083 C   0  0  0  0  0  0  0  0  0  0  0  0
   -5.3059   -5.6846   11.3203 C   0  0  0  0  0  0  0  0  0  0  0  0
   -4.9327   -5.2702   10.2238 O   0  0  0  0  0  0  0  0  0  0  0  0
   -6.0071   -3.5782   12.5026 N   0  0  0  0  0  0  0  0  0  0  0  0
   -6.5088   -3.3587   13.7410 C   0  0  0  0  0  0  0  0  0  0  0  0
   -6.6507   -4.4465   14.4464 N   0  0  0  0  0  0  0  0  0  0  0  0
  1  2  1  0  0  0  0
  2  9  1  0  0  0  0
  2  3  1  0  0  0  0
  3  5  1  0  0  0  0
  3  4  2  0  0  0  0
  5  6  1  0  0  0  0
  5  7  1  0  0  0  0
  7  8  2  0  0  0  0
  7 13  1  0  0  0  0
  8  9  1  0  0  0  0
  8 11  1  0  0  0  0
  9 10  2  0  0  0  0
 11 12  1  0  0  0  0
 12 13  2  0  0  0  0
M  END
>  <CHROM.1>
-5.78709981,-6.04922413,12.68304097,-0.79157726,1.18918983,-0.29459496

>  <Name>
1eht cryst

>  <RI>
0

>  <Rbt.Current_Directory>
/home/itssahil/PROJECTS/Mol_Feturizer/New_Systems/rnas/1eht

>  <Rbt.Executable>
rbdock ($Id: //depot/dev/client3/rdock/2013.1/src/exe/rbdock.cxx#4 $)

>  <Rbt.Library>
libRbt.so (2013.1, Build901 2013/11/27)

>  <Rbt.Parameter_File>
/export/apps/rDock/src/rDock_2013.1_src/data/scripts/dock_solv.prm

>  <Rbt.Receptor>
prm/pocket_docking_4.prm

>  <SCORE>
-39.2066

>  <SCORE.INTER>
-39.2066

>  <SCORE.INTER.CONST>
1

>  <SCORE.INTER.POLAR>
-1.92

>  <SCORE.INTER.ROT>
0

>  <SCORE.INTER.SOLV>
9.83085

>  <SCORE.INTER.VDW>
-26.6147

>  <SCORE.INTER.norm>
-3.01589

>  <SCORE.INTRA>
0

>  <SCORE.INTRA.DIHEDRAL>
0

>  <SCORE.INTRA.DIHEDRAL.0>
0

>  <SCORE.INTRA.POLAR>
0

>  <SCORE.INTRA.POLAR.0>
0

>  <SCORE.INTRA.REPUL>
0

>  <SCORE.INTRA.REPUL.0>
0

>  <SCORE.INTRA.SOLV>
0

>  <SCORE.INTRA.SOLV.lig_0>
-12.9768

>  <SCORE.INTRA.VDW>
0

>  <SCORE.INTRA.VDW.0>
0

>  <SCORE.INTRA.norm>
0

>  <SCORE.RESTR>
0

>  <SCORE.RESTR.CAVITY>
0

>  <SCORE.RESTR.norm>
0

>  <SCORE.SYSTEM>
0

>  <SCORE.SYSTEM.CONST>
0

>  <SCORE.SYSTEM.DIHEDRAL>
0

>  <SCORE.SYSTEM.SOLV>
0

>  <SCORE.SYSTEM.norm>
0

>  <SCORE.heavy>
13

>  <SCORE.norm>
-3.01589

>  <RMSD>
0.762

$$$$
1eht cryst
 OpenBabel11021811383D
libRbt.so/2013.1/901 2013/11/27
 13 14  0  0  0  0  0  0  0  0999 V2000
   -4.7715   -7.8796   10.6469 C   0  0  0  0  0  0  0  0  0  0  0  0
   -5.2528   -7.0074   11.6191 N   0  0  0  0  0  0  0  0  0  0  0  0
   -5.6558   -7.5347   12.8187 C   0  0  0  0  0  0  0  0  0  0  0  0
   -5.5635   -8.7579   12.9397 O   0  0  0  0  0  0  0  0  0  0  0  0
   -6.1504   -6.8000   13.8665 N   0  0  0  0  0  0  0  0  0  0  0  0
   -6.5502   -7.3556   15.0708 C   0  0  0  0  0  0  0  0  0  0  0  0
   -6.2094   -5.4638   13.6008 C   0  0  0  0  0  0  0  0  0  0  0  0
   -5.8066   -4.9496   12.4024 C   0  0  0  0  0  0  0  0  0  0  0  0
   -5.2961   -5.6849   11.3174 C   0  0  0  0  0  0  0  0  0  0  0  0
   -4.9201   -5.2709   10.2217 O   0  0  0  0  0  0  0  0  0  0  0  0
   -6.0079   -3.5790   12.4941 N   0  0  0  0  0  0  0  0  0  0  0  0
   -6.5149   -3.3592   13.7304 C   0  0  0  0  0  0  0  0  0  0  0  0
   -6.6563   -4.4465   14.4367 N   0  0  0  0  0  0  0  0  0  0  0  0
  1  2  1  0  0  0  0
  2  9  1  0  0  0  0
  2  3  1  0  0  0  0
  3  5  1  0  0  0  0
  3  4  2  0  0  0  0
  5  6  1  0  0  0  0
  5  7  1  0  0  0  0
  7  8  2  0  0  0  0
  7 13  1  0  0  0  0
  8  9  1  0  0  0  0
  8 11  1  0  0  0  0
  9 10  2  0  0  0  0
 11 12  1  0  0  0  0
 12 13  2  0  0  0  0
M  END
>  <CHROM.1>
-5.78139215,-6.04908685,12.67878162,-0.78705297,1.18475972,-0.30015995

>  <Name>
1eht cryst

>  <RI>
0

>  <Rbt.Current_Directory>
/home/itssahil/PROJECTS/Mol_Feturizer/New_Systems/rnas/1eht

>  <Rbt.Executable>
rbdock ($Id: //depot/dev/client3/rdock/2013.1/src/exe/rbdock.cxx#4 $)

>  <Rbt.Library>
libRbt.so (2013.1, Build901 2013/11/27)

>  <Rbt.Parameter_File>
/export/apps/rDock/src/rDock_2013.1_src/data/scripts/dock_solv.prm

>  <Rbt.Receptor>
prm/pocket_docking_6.prm

>  <SCORE>
-39.2245

>  <SCORE.INTER>
-39.2245

>  <SCORE.INTER.CONST>
1

>  <SCORE.INTER.POLAR>
-1.92712

>  <SCORE.INTER.ROT>
0

>  <SCORE.INTER.SOLV>
9.83132

>  <SCORE.INTER.VDW>
-26.603

>  <SCORE.INTER.norm>
-3.01727

>  <SCORE.INTRA>
0

>  <SCORE.INTRA.DIHEDRAL>
0

>  <SCORE.INTRA.DIHEDRAL.0>
0

>  <SCORE.INTRA.POLAR>
0

>  <SCORE.INTRA.POLAR.0>
0

>  <SCORE.INTRA.REPUL>
0

>  <SCORE.INTRA.REPUL.0>
0

>  <SCORE.INTRA.SOLV>
0

>  <SCORE.INTRA.SOLV.lig_0>
-12.9768

>  <SCORE.INTRA.VDW>
0

>  <SCORE.INTRA.VDW.0>
0

>  <SCORE.INTRA.norm>
0

>  <SCORE.RESTR>
0

>  <SCORE.RESTR.CAVITY>
0

>  <SCORE.RESTR.norm>
0

>  <SCORE.SYSTEM>
0

>  <SCORE.SYSTEM.CONST>
0

>  <SCORE.SYSTEM.DIHEDRAL>
0

>  <SCORE.SYSTEM.SOLV>
0

>  <SCORE.SYSTEM.norm>
0

>  <SCORE.heavy>
13

>  <SCORE.norm>
-3.01727

>  <RMSD>
0.762

$$$$
1eht cryst
 OpenBabel11021811383D
libRbt.so/2013.1/901 2013/11/27
 13 14  0  0  0  0  0  0  0  0999 V2000
   -4.7704   -7.8809   10.6467 C   0  0  0  0  0  0  0  0  0  0  0  0
   -5.2522   -7.0084   11.6183 N   0  0  0  0  0  0  0  0  0  0  0  0
   -5.6568   -7.5355   12.8175 C   0  0  0  0  0  0  0  0  0  0  0  0
   -5.5655   -8.7587   12.9386 O   0  0  0  0  0  0  0  0  0  0  0  0
   -6.1521   -6.8004   13.8648 N   0  0  0  0  0  0  0  0  0  0  0  0
   -6.5536   -7.3558   15.0686 C   0  0  0  0  0  0  0  0  0  0  0  0
   -6.2099   -5.4642   13.5990 C   0  0  0  0  0  0  0  0  0  0  0  0
   -5.8055   -4.9502   12.4011 C   0  0  0  0  0  0  0  0  0  0  0  0
   -5.2943   -5.6859   11.3166 C   0  0  0  0  0  0  0  0  0  0  0  0
   -4.9168   -5.2722   10.2213 O   0  0  0  0  0  0  0  0  0  0  0  0
   -6.0059   -3.5795   12.4926 N   0  0  0  0  0  0  0  0  0  0  0  0
   -6.5141   -3.3595   13.7283 C   0  0  0  0  0  0  0  0  0  0  0  0
   -6.6570   -4.4467   14.4345 N   0  0  0  0  0  0  0  0  0  0  0  0
  1  2  1  0  0  0  0
  2  9  1  0  0  0  0
  2  3  1  0  0  0  0
  3  5  1  0  0  0  0
  3  4  2  0  0  0  0
  5  6  1  0  0  0  0
  5  7  1  0  0  0  0
  7  8  2  0  0  0  0
  7 13  1  0  0  0  0
  8  9  1  0  0  0  0
  8 11  1  0  0  0  0
  9 10  2  0  0  0  0
 11 12  1  0  0  0  0
 12 13  2  0  0  0  0
M  END
>  <CHROM.1>
-5.78127883,-6.04977105,12.67747222,-0.78959106,1.18392213,-0.29779334

>  <Name>
1eht cryst

>  <RI>
224

>  <Rbt.Current_Directory>
/home/itssahil/PROJECTS/Mol_Feturizer/New_Systems/rnas/1eht

>  <Rbt.Executable>
rbdock ($Id: //depot/dev/client3/rdock/2013.1/src/exe/rbdock.cxx#4 $)

>  <Rbt.Library>
libRbt.so (2013.1, Build901 2013/11/27)

>  <Rbt.Parameter_File>
/export/apps/rDock/src/rDock_2013.1_src/data/scripts/dock_solv.prm

>  <Rbt.Receptor>
prm/pocket_docking_7.prm

>  <SCORE>
-39.2276

>  <SCORE.INTER>
-39.2276

>  <SCORE.INTER.CONST>
1

>  <SCORE.INTER.POLAR>
-1.93029

>  <SCORE.INTER.ROT>
0

>  <SCORE.INTER.SOLV>
9.83174

>  <SCORE.INTER.VDW>
-26.5947

>  <SCORE.INTER.norm>
-3.01751

>  <SCORE.INTRA>
0

>  <SCORE.INTRA.DIHEDRAL>
0

>  <SCORE.INTRA.DIHEDRAL.0>
0

>  <SCORE.INTRA.POLAR>
0

>  <SCORE.INTRA.POLAR.0>
0

>  <SCORE.INTRA.REPUL>
0

>  <SCORE.INTRA.REPUL.0>
0

>  <SCORE.INTRA.SOLV>
0

>  <SCORE.INTRA.SOLV.lig_0>
-12.9768

>  <SCORE.INTRA.VDW>
0

>  <SCORE.INTRA.VDW.0>
0

>  <SCORE.INTRA.norm>
0

>  <SCORE.RESTR>
0

>  <SCORE.RESTR.CAVITY>
0

>  <SCORE.RESTR.norm>
0

>  <SCORE.SYSTEM>
0

>  <SCORE.SYSTEM.CONST>
0

>  <SCORE.SYSTEM.DIHEDRAL>
0

>  <SCORE.SYSTEM.SOLV>
0

>  <SCORE.SYSTEM.norm>
0

>  <SCORE.heavy>
13

>  <SCORE.norm>
-3.01751

>  <RMSD>
0.762

$$$$
1eht cryst
 OpenBabel11021811383D
libRbt.so/2013.1/901 2013/11/27
 13 14  0  0  0  0  0  0  0  0999 V2000
   -4.7703   -7.8790   10.6474 C   0  0  0  0  0  0  0  0  0  0  0  0
   -5.2518   -7.0069   11.6195 N   0  0  0  0  0  0  0  0  0  0  0  0
   -5.6566   -7.5345   12.8185 C   0  0  0  0  0  0  0  0  0  0  0  0
   -5.5655   -8.7578   12.9389 O   0  0  0  0  0  0  0  0  0  0  0  0
   -6.1516   -6.7999   13.8661 N   0  0  0  0  0  0  0  0  0  0  0  0
   -6.5532   -7.3558   15.0697 C   0  0  0  0  0  0  0  0  0  0  0  0
   -6.2091   -5.4635   13.6011 C   0  0  0  0  0  0  0  0  0  0  0  0
   -5.8046   -4.9490   12.4035 C   0  0  0  0  0  0  0  0  0  0  0  0
   -5.2936   -5.6842   11.3185 C   0  0  0  0  0  0  0  0  0  0  0  0
   -4.9160   -5.2700   10.2235 O   0  0  0  0  0  0  0  0  0  0  0  0
   -6.0046   -3.5783   12.4957 N   0  0  0  0  0  0  0  0  0  0  0  0
   -6.5127   -3.3588   13.7315 C   0  0  0  0  0  0  0  0  0  0  0  0
   -6.6559   -4.4463   14.4371 N   0  0  0  0  0  0  0  0  0  0  0  0
  1  2  1  0  0  0  0
  2  9  1  0  0  0  0
  2  3  1  0  0  0  0
  3  5  1  0  0  0  0
  3  4  2  0  0  0  0
  5  6  1  0  0  0  0
  5  7  1  0  0  0  0
  7  8  2  0  0  0  0
  7 13  1  0  0  0  0
  8  9  1  0  0  0  0
  8 11  1  0  0  0  0
  9 10  2  0  0  0  0
 11 12  1  0  0  0  0
 12 13  2  0  0  0  0
M  END
>  <CHROM.1>
-5.78063754,-6.04868968,12.67920635,-0.79025601,1.18402084,-0.29663065

>  <Name>
1eht cryst

>  <RI>
224

>  <Rbt.Current_Directory>
/home/itssahil/PROJECTS/Mol_Feturizer/New_Systems/rnas/1eht

>  <Rbt.Executable>
rbdock ($Id: //depot/dev/client3/rdock/2013.1/src/exe/rbdock.cxx#4 $)

>  <Rbt.Library>
libRbt.so (2013.1, Build901 2013/11/27)

>  <Rbt.Parameter_File>
/export/apps/rDock/src/rDock_2013.1_src/data/scripts/dock_solv.prm

>  <Rbt.Receptor>
prm/pocket_docking_7.prm

>  <SCORE>
-39.2273

>  <SCORE.INTER>
-39.2273

>  <SCORE.INTER.CONST>
1

>  <SCORE.INTER.POLAR>
-1.92847

>  <SCORE.INTER.ROT>
0

>  <SCORE.INTER.SOLV>
9.83536

>  <SCORE.INTER.VDW>
-26.6017

>  <SCORE.INTER.norm>
-3.01748

>  <SCORE.INTRA>
0

>  <SCORE.INTRA.DIHEDRAL>
0

>  <SCORE.INTRA.DIHEDRAL.0>
0

>  <SCORE.INTRA.POLAR>
0

>  <SCORE.INTRA.POLAR.0>
0

>  <SCORE.INTRA.REPUL>
0

>  <SCORE.INTRA.REPUL.0>
0

>  <SCORE.INTRA.SOLV>
0

>  <SCORE.INTRA.SOLV.lig_0>
-12.9768

>  <SCORE.INTRA.VDW>
0

>  <SCORE.INTRA.VDW.0>
0

>  <SCORE.INTRA.norm>
0

>  <SCORE.RESTR>
0

>  <SCORE.RESTR.CAVITY>
0

>  <SCORE.RESTR.norm>
0

>  <SCORE.SYSTEM>
0

>  <SCORE.SYSTEM.CONST>
0

>  <SCORE.SYSTEM.DIHEDRAL>
0

>  <SCORE.SYSTEM.SOLV>
0

>  <SCORE.SYSTEM.norm>
0

>  <SCORE.heavy>
13

>  <SCORE.norm>
-3.01748

>  <RMSD>
0.762

$$$$
1eht cryst
 OpenBabel11021811383D
libRbt.so/2013.1/901 2013/11/27
 13 14  0  0  0  0  0  0  0  0999 V2000
   -4.7695   -7.8767   10.6480 C   0  0  0  0  0  0  0  0  0  0  0  0
   -5.2512   -7.0050   11.6204 N   0  0  0  0  0  0  0  0  0  0  0  0
   -5.6516   -7.5325   12.8208 C   0  0  0  0  0  0  0  0  0  0  0  0
   -5.5567   -8.7554   12.9423 O   0  0  0  0  0  0  0  0  0  0  0  0
   -6.1462   -6.7982   13.8689 N   0  0  0  0  0  0  0  0  0  0  0  0
   -6.5434   -7.3540   15.0740 C   0  0  0  0  0  0  0  0  0  0  0  0
   -6.2082   -5.4623   13.6026 C   0  0  0  0  0  0  0  0  0  0  0  0
   -5.8080   -4.9478   12.4034 C   0  0  0  0  0  0  0  0  0  0  0  0
   -5.2975   -5.6827   11.3181 C   0  0  0  0  0  0  0  0  0  0  0  0
   -4.9238   -5.2686   10.2217 O   0  0  0  0  0  0  0  0  0  0  0  0
   -6.0118   -3.5776   12.4947 N   0  0  0  0  0  0  0  0  0  0  0  0
   -6.5176   -3.3583   13.7315 C   0  0  0  0  0  0  0  0  0  0  0  0
   -6.6560   -4.4455   14.4386 N   0  0  0  0  0  0  0  0  0  0  0  0
  1  2  1  0  0  0  0
  2  9  1  0  0  0  0
  2  3  1  0  0  0  0
  3  5  1  0  0  0  0
  3  4  2  0  0  0  0
  5  6  1  0  0  0  0
  5  7  1  0  0  0  0
  7  8  2  0  0  0  0
  7 13  1  0  0  0  0
  8  9  1  0  0  0  0
  8 11  1  0  0  0  0
  9 10  2  0  0  0  0
 11 12  1  0  0  0  0
 12 13  2  0  0  0  0
M  END
>  <CHROM.1>
-5.78026871,-6.04718158,12.68028973,-0.78102445,1.18544172,-0.30624432

>  <Name>
1eht cryst

>  <RI>
0

>  <Rbt.Current_Directory>
/home/itssahil/PROJECTS/Mol_Feturizer/New_Systems/rnas/1eht

>  <Rbt.Executable>
rbdock ($Id: //depot/dev/client3/rdock/2013.1/src/exe/rbdock.cxx#4 $)

>  <Rbt.Library>
libRbt.so (2013.1, Build901 2013/11/27)

>  <Rbt.Parameter_File>
/export/apps/rDock/src/rDock_2013.1_src/data/scripts/dock_solv.prm

>  <Rbt.Receptor>
prm/pocket_docking_8.prm

>  <SCORE>
-39.2191

>  <SCORE.INTER>
-39.2191

>  <SCORE.INTER.CONST>
1

>  <SCORE.INTER.POLAR>
-1.92227

>  <SCORE.INTER.ROT>
0

>  <SCORE.INTER.SOLV>
9.83162

>  <SCORE.INTER.VDW>
-26.6157

>  <SCORE.INTER.norm>
-3.01685

>  <SCORE.INTRA>
0

>  <SCORE.INTRA.DIHEDRAL>
0

>  <SCORE.INTRA.DIHEDRAL.0>
0

>  <SCORE.INTRA.POLAR>
0

>  <SCORE.INTRA.POLAR.0>
0

>  <SCORE.INTRA.REPUL>
0

>  <SCORE.INTRA.REPUL.0>
0

>  <SCORE.INTRA.SOLV>
0

>  <SCORE.INTRA.SOLV.lig_0>
-12.9768

>  <SCORE.INTRA.VDW>
0

>  <SCORE.INTRA.VDW.0>
0

>  <SCORE.INTRA.norm>
0

>  <SCORE.RESTR>
0

>  <SCORE.RESTR.CAVITY>
0

>  <SCORE.RESTR.norm>
0

>  <SCORE.SYSTEM>
0

>  <SCORE.SYSTEM.CONST>
0

>  <SCORE.SYSTEM.DIHEDRAL>
0

>  <SCORE.SYSTEM.SOLV>
0

>  <SCORE.SYSTEM.norm>
0

>  <SCORE.heavy>
13

>  <SCORE.norm>
-3.01685

>  <RMSD>
0.762

$$$$
1eht cryst
 OpenBabel11021811383D
libRbt.so/2013.1/901 2013/11/27
 13 14  0  0  0  0  0  0  0  0999 V2000
   -4.7702   -7.8805   10.6478 C   0  0  0  0  0  0  0  0  0  0  0  0
   -5.2521   -7.0078   11.6192 N   0  0  0  0  0  0  0  0  0  0  0  0
   -5.6542   -7.5342   12.8195 C   0  0  0  0  0  0  0  0  0  0  0  0
   -5.5605   -8.7571   12.9419 O   0  0  0  0  0  0  0  0  0  0  0  0
   -6.1492   -6.7988   13.8667 N   0  0  0  0  0  0  0  0  0  0  0  0
   -6.5481   -7.3535   15.0717 C   0  0  0  0  0  0  0  0  0  0  0  0
   -6.2098   -5.4630   13.5995 C   0  0  0  0  0  0  0  0  0  0  0  0
   -5.8079   -4.9497   12.4004 C   0  0  0  0  0  0  0  0  0  0  0  0
   -5.2970   -5.6857   11.3160 C   0  0  0  0  0  0  0  0  0  0  0  0
   -4.9217   -5.2725   10.2198 O   0  0  0  0  0  0  0  0  0  0  0  0
   -6.0106   -3.5792   12.4907 N   0  0  0  0  0  0  0  0  0  0  0  0
   -6.5174   -3.3586   13.7268 C   0  0  0  0  0  0  0  0  0  0  0  0
   -6.6574   -4.4453   14.4345 N   0  0  0  0  0  0  0  0  0  0  0  0
  1  2  1  0  0  0  0
  2  9  1  0  0  0  0
  2  3  1  0  0  0  0
  3  5  1  0  0  0  0
  3  4  2  0  0  0  0
  5  6  1  0  0  0  0
  5  7  1  0  0  0  0
  7  8  2  0  0  0  0
  7 13  1  0  0  0  0
  8  9  1  0  0  0  0
  8 11  1  0  0  0  0
  9 10  2  0  0  0  0
 11 12  1  0  0  0  0
 12 13  2  0  0  0  0
M  END
>  <CHROM.1>
-5.78139861,-6.04885330,12.67798847,-0.78411193,1.18475082,-0.30398983

>  <Name>
1eht cryst

>  <RI>
0

>  <Rbt.Current_Directory>
/home/itssahil/PROJECTS/Mol_Feturizer/New_Systems/rnas/1eht

>  <Rbt.Executable>
rbdock ($Id: //depot/dev/client3/rdock/2013.1/src/exe/rbdock.cxx#4 $)

>  <Rbt.Library>
libRbt.so (2013.1, Build901 2013/11/27)

>  <Rbt.Parameter_File>
/export/apps/rDock/src/rDock_2013.1_src/data/scripts/dock_solv.prm

>  <Rbt.Receptor>
prm/blind_docking_100.prm

>  <SCORE>
-39.2226

>  <SCORE.INTER>
-39.2226

>  <SCORE.INTER.CONST>
1

>  <SCORE.INTER.POLAR>
-1.92699

>  <SCORE.INTER.ROT>
0

>  <SCORE.INTER.SOLV>
9.82872

>  <SCORE.INTER.VDW>
-26.6014

>  <SCORE.INTER.norm>
-3.01712

>  <SCORE.INTRA>
0

>  <SCORE.INTRA.DIHEDRAL>
0

>  <SCORE.INTRA.DIHEDRAL.0>
0

>  <SCORE.INTRA.POLAR>
0

>  <SCORE.INTRA.POLAR.0>
0

>  <SCORE.INTRA.REPUL>
0

>  <SCORE.INTRA.REPUL.0>
0

>  <SCORE.INTRA.SOLV>
0

>  <SCORE.INTRA.SOLV.lig_0>
-12.9768

>  <SCORE.INTRA.VDW>
0

>  <SCORE.INTRA.VDW.0>
0

>  <SCORE.INTRA.norm>
0

>  <SCORE.RESTR>
0

>  <SCORE.RESTR.CAVITY>
0

>  <SCORE.RESTR.norm>
0

>  <SCORE.SYSTEM>
0

>  <SCORE.SYSTEM.CONST>
0

>  <SCORE.SYSTEM.DIHEDRAL>
0

>  <SCORE.SYSTEM.SOLV>
0

>  <SCORE.SYSTEM.norm>
0

>  <SCORE.heavy>
13

>  <SCORE.norm>
-3.01712

>  <RMSD>
0.763

$$$$
1eht cryst
 OpenBabel11021811383D
libRbt.so/2013.1/901 2013/11/27
 13 14  0  0  0  0  0  0  0  0999 V2000
   -4.7697   -7.8798   10.6483 C   0  0  0  0  0  0  0  0  0  0  0  0
   -5.2515   -7.0072   11.6199 N   0  0  0  0  0  0  0  0  0  0  0  0
   -5.6537   -7.5339   12.8201 C   0  0  0  0  0  0  0  0  0  0  0  0
   -5.5603   -8.7569   12.9421 O   0  0  0  0  0  0  0  0  0  0  0  0
   -6.1486   -6.7987   13.8674 N   0  0  0  0  0  0  0  0  0  0  0  0
   -6.5476   -7.3536   15.0723 C   0  0  0  0  0  0  0  0  0  0  0  0
   -6.2089   -5.4628   13.6006 C   0  0  0  0  0  0  0  0  0  0  0  0
   -5.8069   -4.9492   12.4017 C   0  0  0  0  0  0  0  0  0  0  0  0
   -5.2960   -5.6850   11.3171 C   0  0  0  0  0  0  0  0  0  0  0  0
   -4.9207   -5.2717   10.2210 O   0  0  0  0  0  0  0  0  0  0  0  0
   -6.0093   -3.5788   12.4923 N   0  0  0  0  0  0  0  0  0  0  0  0
   -6.5161   -3.3584   13.7285 C   0  0  0  0  0  0  0  0  0  0  0  0
   -6.6564   -4.4452   14.4358 N   0  0  0  0  0  0  0  0  0  0  0  0
  1  2  1  0  0  0  0
  2  9  1  0  0  0  0
  2  3  1  0  0  0  0
  3  5  1  0  0  0  0
  3  4  2  0  0  0  0
  5  6  1  0  0  0  0
  5  7  1  0  0  0  0
  7  8  2  0  0  0  0
  7 13  1  0  0  0  0
  8  9  1  0  0  0  0
  8 11  1  0  0  0  0
  9 10  2  0  0  0  0
 11 12  1  0  0  0  0
 12 13  2  0  0  0  0
M  END
>  <CHROM.1>
-5.78060296,-6.04849502,12.67895387,-0.78463604,1.18477214,-0.30323617

>  <Name>
1eht cryst

>  <RI>
0

>  <Rbt.Current_Directory>
/home/itssahil/PROJECTS/Mol_Feturizer/New_Systems/rnas/1eht

>  <Rbt.Executable>
rbdock ($Id: //depot/dev/client3/rdock/2013.1/src/exe/rbdock.cxx#4 $)

>  <Rbt.Library>
libRbt.so (2013.1, Build901 2013/11/27)

>  <Rbt.Parameter_File>
/export/apps/rDock/src/rDock_2013.1_src/data/scripts/dock_solv.prm

>  <Rbt.Receptor>
prm/blind_docking_100.prm

>  <SCORE>
-39.2254

>  <SCORE.INTER>
-39.2254

>  <SCORE.INTER.CONST>
1

>  <SCORE.INTER.POLAR>
-1.92637

>  <SCORE.INTER.ROT>
0

>  <SCORE.INTER.SOLV>
9.83052

>  <SCORE.INTER.VDW>
-26.6058

>  <SCORE.INTER.norm>
-3.01733

>  <SCORE.INTRA>
0

>  <SCORE.INTRA.DIHEDRAL>
0

>  <SCORE.INTRA.DIHEDRAL.0>
0

>  <SCORE.INTRA.POLAR>
0

>  <SCORE.INTRA.POLAR.0>
0

>  <SCORE.INTRA.REPUL>
0

>  <SCORE.INTRA.REPUL.0>
0

>  <SCORE.INTRA.SOLV>
0

>  <SCORE.INTRA.SOLV.lig_0>
-12.9768

>  <SCORE.INTRA.VDW>
0

>  <SCORE.INTRA.VDW.0>
0

>  <SCORE.INTRA.norm>
0

>  <SCORE.RESTR>
0

>  <SCORE.RESTR.CAVITY>
0

>  <SCORE.RESTR.norm>
0

>  <SCORE.SYSTEM>
0

>  <SCORE.SYSTEM.CONST>
0

>  <SCORE.SYSTEM.DIHEDRAL>
0

>  <SCORE.SYSTEM.SOLV>
0

>  <SCORE.SYSTEM.norm>
0

>  <SCORE.heavy>
13

>  <SCORE.norm>
-3.01733

>  <RMSD>
0.763

$$$$
1eht cryst
 OpenBabel11021811383D
libRbt.so/2013.1/901 2013/11/27
 13 14  0  0  0  0  0  0  0  0999 V2000
   -4.7723   -7.8789   10.6480 C   0  0  0  0  0  0  0  0  0  0  0  0
   -5.2531   -7.0066   11.6204 N   0  0  0  0  0  0  0  0  0  0  0  0
   -5.6545   -7.5338   12.8206 C   0  0  0  0  0  0  0  0  0  0  0  0
   -5.5613   -8.7568   12.9420 O   0  0  0  0  0  0  0  0  0  0  0  0
   -6.1485   -6.7990   13.8687 N   0  0  0  0  0  0  0  0  0  0  0  0
   -6.5467   -7.3544   15.0736 C   0  0  0  0  0  0  0  0  0  0  0  0
   -6.2087   -5.4629   13.6025 C   0  0  0  0  0  0  0  0  0  0  0  0
   -5.8074   -4.9489   12.4036 C   0  0  0  0  0  0  0  0  0  0  0  0
   -5.2976   -5.6843   11.3182 C   0  0  0  0  0  0  0  0  0  0  0  0
   -4.9230   -5.2705   10.2220 O   0  0  0  0  0  0  0  0  0  0  0  0
   -6.0094   -3.5784   12.4949 N   0  0  0  0  0  0  0  0  0  0  0  0
   -6.5153   -3.3585   13.7316 C   0  0  0  0  0  0  0  0  0  0  0  0
   -6.6553   -4.4456   14.4386 N   0  0  0  0  0  0  0  0  0  0  0  0
  1  2  1  0  0  0  0
  2  9  1  0  0  0  0
  2  3  1  0  0  0  0
  3  5  1  0  0  0  0
  3  4  2  0  0  0  0
  5  6  1  0  0  0  0
  5  7  1  0  0  0  0
  7  8  2  0  0  0  0
  7 13  1  0  0  0  0
  8  9  1  0  0  0  0
  8 11  1  0  0  0  0
  9 10  2  0  0  0  0
 11 12  1  0  0  0  0
 12 13  2  0  0  0  0
M  END
>  <CHROM.1>
-5.78120602,-6.04826765,12.68027024,-0.78463185,1.18556977,-0.30276865

>  <Name>
1eht cryst

>  <RI>
0

>  <Rbt.Current_Directory>
/home/itssahil/PROJECTS/Mol_Feturizer/New_Systems/rnas/1eht

>  <Rbt.Executable>
rbdock ($Id: //depot/dev/client3/rdock/2013.1/src/exe/rbdock.cxx#4 $)

>  <Rbt.Library>
libRbt.so (2013.1, Build901 2013/11/27)

>  <Rbt.Parameter_File>
/export/apps/rDock/src/rDock_2013.1_src/data/scripts/dock_solv.prm

>  <Rbt.Receptor>
prm/blind_docking_100.prm

>  <SCORE>
-39.2223

>  <SCORE.INTER>
-39.2223

>  <SCORE.INTER.CONST>
1

>  <SCORE.INTER.POLAR>
-1.92418

>  <SCORE.INTER.ROT>
0

>  <SCORE.INTER.SOLV>
9.831

>  <SCORE.INTER.VDW>
-26.6113

>  <SCORE.INTER.norm>
-3.0171

>  <SCORE.INTRA>
0

>  <SCORE.INTRA.DIHEDRAL>
0

>  <SCORE.INTRA.DIHEDRAL.0>
0

>  <SCORE.INTRA.POLAR>
0

>  <SCORE.INTRA.POLAR.0>
0

>  <SCORE.INTRA.REPUL>
0

>  <SCORE.INTRA.REPUL.0>
0

>  <SCORE.INTRA.SOLV>
0

>  <SCORE.INTRA.SOLV.lig_0>
-12.9768

>  <SCORE.INTRA.VDW>
0

>  <SCORE.INTRA.VDW.0>
0

>  <SCORE.INTRA.norm>
0

>  <SCORE.RESTR>
0

>  <SCORE.RESTR.CAVITY>
0

>  <SCORE.RESTR.norm>
0

>  <SCORE.SYSTEM>
0

>  <SCORE.SYSTEM.CONST>
0

>  <SCORE.SYSTEM.DIHEDRAL>
0

>  <SCORE.SYSTEM.SOLV>
0

>  <SCORE.SYSTEM.norm>
0

>  <SCORE.heavy>
13

>  <SCORE.norm>
-3.0171

>  <RMSD>
0.763

$$$$
1eht cryst
 OpenBabel11021811383D
libRbt.so/2013.1/901 2013/11/27
 13 14  0  0  0  0  0  0  0  0999 V2000
   -4.7777   -7.8864   10.6476 C   0  0  0  0  0  0  0  0  0  0  0  0
   -5.2578   -7.0125   11.6188 N   0  0  0  0  0  0  0  0  0  0  0  0
   -5.6533   -7.5371   12.8222 C   0  0  0  0  0  0  0  0  0  0  0  0
   -5.5559   -8.7594   12.9471 O   0  0  0  0  0  0  0  0  0  0  0  0
   -6.1458   -6.8004   13.8697 N   0  0  0  0  0  0  0  0  0  0  0  0
   -6.5380   -7.3531   15.0777 C   0  0  0  0  0  0  0  0  0  0  0  0
   -6.2109   -5.4654   13.5995 C   0  0  0  0  0  0  0  0  0  0  0  0
   -5.8155   -4.9539   12.3975 C   0  0  0  0  0  0  0  0  0  0  0  0
   -5.3073   -5.6913   11.3127 C   0  0  0  0  0  0  0  0  0  0  0  0
   -4.9379   -5.2798   10.2138 O   0  0  0  0  0  0  0  0  0  0  0  0
   -6.0214   -3.5838   12.4852 N   0  0  0  0  0  0  0  0  0  0  0  0
   -6.5235   -3.3615   13.7230 C   0  0  0  0  0  0  0  0  0  0  0  0
   -6.6576   -4.4468   14.4339 N   0  0  0  0  0  0  0  0  0  0  0  0
  1  2  1  0  0  0  0
  2  9  1  0  0  0  0
  2  3  1  0  0  0  0
  3  5  1  0  0  0  0
  3  4  2  0  0  0  0
  5  6  1  0  0  0  0
  5  7  1  0  0  0  0
  7  8  2  0  0  0  0
  7 13  1  0  0  0  0
  8  9  1  0  0  0  0
  8 11  1  0  0  0  0
  9 10  2  0  0  0  0
 11 12  1  0  0  0  0
 12 13  2  0  0  0  0
M  END
>  <CHROM.1>
-5.78497273,-6.05237223,12.67758585,-0.77401953,1.18804889,-0.31578833

>  <Name>
1eht cryst

>  <RI>
0

>  <Rbt.Current_Directory>
/home/itssahil/PROJECTS/Mol_Feturizer/New_Systems/rnas/1eht

>  <Rbt.Executable>
rbdock ($Id: //depot/dev/client3/rdock/2013.1/src/exe/rbdock.cxx#4 $)

>  <Rbt.Library>
libRbt.so (2013.1, Build901 2013/11/27)

>  <Rbt.Parameter_File>
/export/apps/rDock/src/rDock_2013.1_src/data/scripts/dock_solv.prm

>  <Rbt.Receptor>
prm/blind_docking_20.prm

>  <SCORE>
-39.2106

>  <SCORE.INTER>
-39.2106

>  <SCORE.INTER.CONST>
1

>  <SCORE.INTER.POLAR>
-1.92312

>  <SCORE.INTER.ROT>
0

>  <SCORE.INTER.SOLV>
9.80968

>  <SCORE.INTER.VDW>
-26.5999

>  <SCORE.INTER.norm>
-3.0162

>  <SCORE.INTRA>
0

>  <SCORE.INTRA.DIHEDRAL>
0

>  <SCORE.INTRA.DIHEDRAL.0>
0

>  <SCORE.INTRA.POLAR>
0

>  <SCORE.INTRA.POLAR.0>
0

>  <SCORE.INTRA.REPUL>
0

>  <SCORE.INTRA.REPUL.0>
0

>  <SCORE.INTRA.SOLV>
0

>  <SCORE.INTRA.SOLV.lig_0>
-12.9768

>  <SCORE.INTRA.VDW>
0

>  <SCORE.INTRA.VDW.0>
0

>  <SCORE.INTRA.norm>
0

>  <SCORE.RESTR>
0

>  <SCORE.RESTR.CAVITY>
0

>  <SCORE.RESTR.norm>
0

>  <SCORE.SYSTEM>
0

>  <SCORE.SYSTEM.CONST>
0

>  <SCORE.SYSTEM.DIHEDRAL>
0

>  <SCORE.SYSTEM.SOLV>
0

>  <SCORE.SYSTEM.norm>
0

>  <SCORE.heavy>
13

>  <SCORE.norm>
-3.0162

>  <RMSD>
0.763

$$$$
1eht cryst
 OpenBabel11021811383D
libRbt.so/2013.1/901 2013/11/27
 13 14  0  0  0  0  0  0  0  0999 V2000
   -4.7712   -7.8814   10.6475 C   0  0  0  0  0  0  0  0  0  0  0  0
   -5.2526   -7.0087   11.6191 N   0  0  0  0  0  0  0  0  0  0  0  0
   -5.6570   -7.5355   12.8186 C   0  0  0  0  0  0  0  0  0  0  0  0
   -5.5657   -8.7587   12.9398 O   0  0  0  0  0  0  0  0  0  0  0  0
   -6.1518   -6.8002   13.8658 N   0  0  0  0  0  0  0  0  0  0  0  0
   -6.5530   -7.3553   15.0699 C   0  0  0  0  0  0  0  0  0  0  0  0
   -6.2096   -5.4640   13.5999 C   0  0  0  0  0  0  0  0  0  0  0  0
   -5.8055   -4.9503   12.4017 C   0  0  0  0  0  0  0  0  0  0  0  0
   -5.2947   -5.6862   11.3172 C   0  0  0  0  0  0  0  0  0  0  0  0
   -4.9175   -5.2727   10.2217 O   0  0  0  0  0  0  0  0  0  0  0  0
   -6.0057   -3.5796   12.4931 N   0  0  0  0  0  0  0  0  0  0  0  0
   -6.5135   -3.3592   13.7289 C   0  0  0  0  0  0  0  0  0  0  0  0
   -6.6563   -4.4463   14.4353 N   0  0  0  0  0  0  0  0  0  0  0  0
  1  2  1  0  0  0  0
  2  9  1  0  0  0  0
  2  3  1  0  0  0  0
  3  5  1  0  0  0  0
  3  4  2  0  0  0  0
  5  6  1  0  0  0  0
  5  7  1  0  0  0  0
  7  8  2  0  0  0  0
  7 13  1  0  0  0  0
  8  9  1  0  0  0  0
  8 11  1  0  0  0  0
  9 10  2  0  0  0  0
 11 12  1  0  0  0  0
 12 13  2  0  0  0  0
M  END
>  <CHROM.1>
-5.78128148,-6.04979787,12.67828212,-0.78962086,1.18425829,-0.29793509

>  <Name>
1eht cryst

>  <RI>
0

>  <Rbt.Current_Directory>
/home/itssahil/PROJECTS/Mol_Feturizer/New_Systems/rnas/1eht

>  <Rbt.Executable>
rbdock ($Id: //depot/dev/client3/rdock/2013.1/src/exe/rbdock.cxx#4 $)

>  <Rbt.Library>
libRbt.so (2013.1, Build901 2013/11/27)

>  <Rbt.Parameter_File>
/export/apps/rDock/src/rDock_2013.1_src/data/scripts/dock_solv.prm

>  <Rbt.Receptor>
prm/blind_docking_40.prm

>  <SCORE>
-39.2287

>  <SCORE.INTER>
-39.2287

>  <SCORE.INTER.CONST>
1

>  <SCORE.INTER.POLAR>
-1.92967

>  <SCORE.INTER.ROT>
0

>  <SCORE.INTER.SOLV>
9.83144

>  <SCORE.INTER.VDW>
-26.5974

>  <SCORE.INTER.norm>
-3.0176

>  <SCORE.INTRA>
0

>  <SCORE.INTRA.DIHEDRAL>
0

>  <SCORE.INTRA.DIHEDRAL.0>
0

>  <SCORE.INTRA.POLAR>
0

>  <SCORE.INTRA.POLAR.0>
0

>  <SCORE.INTRA.REPUL>
0

>  <SCORE.INTRA.REPUL.0>
0

>  <SCORE.INTRA.SOLV>
0

>  <SCORE.INTRA.SOLV.lig_0>
-12.9768

>  <SCORE.INTRA.VDW>
0

>  <SCORE.INTRA.VDW.0>
0

>  <SCORE.INTRA.norm>
0

>  <SCORE.RESTR>
0

>  <SCORE.RESTR.CAVITY>
0

>  <SCORE.RESTR.norm>
0

>  <SCORE.SYSTEM>
0

>  <SCORE.SYSTEM.CONST>
0

>  <SCORE.SYSTEM.DIHEDRAL>
0

>  <SCORE.SYSTEM.SOLV>
0

>  <SCORE.SYSTEM.norm>
0

>  <SCORE.heavy>
13

>  <SCORE.norm>
-3.0176

>  <RMSD>
0.763

$$$$
1eht cryst
 OpenBabel11021811383D
libRbt.so/2013.1/901 2013/11/27
 13 14  0  0  0  0  0  0  0  0999 V2000
   -4.7757   -7.8838   10.6479 C   0  0  0  0  0  0  0  0  0  0  0  0
   -5.2559   -7.0104   11.6195 N   0  0  0  0  0  0  0  0  0  0  0  0
   -5.6541   -7.5358   12.8216 C   0  0  0  0  0  0  0  0  0  0  0  0
   -5.5587   -8.7584   12.9452 O   0  0  0  0  0  0  0  0  0  0  0  0
   -6.1471   -6.7997   13.8692 N   0  0  0  0  0  0  0  0  0  0  0  0
   -6.5420   -7.3533   15.0760 C   0  0  0  0  0  0  0  0  0  0  0  0
   -6.2098   -5.4642   13.6005 C   0  0  0  0  0  0  0  0  0  0  0  0
   -5.8118   -4.9519   12.3997 C   0  0  0  0  0  0  0  0  0  0  0  0
   -5.3031   -5.6887   11.3148 C   0  0  0  0  0  0  0  0  0  0  0  0
   -4.9313   -5.2765   10.2170 O   0  0  0  0  0  0  0  0  0  0  0  0
   -6.0158   -3.5816   12.4888 N   0  0  0  0  0  0  0  0  0  0  0  0
   -6.5195   -3.3600   13.7261 C   0  0  0  0  0  0  0  0  0  0  0  0
   -6.6563   -4.4460   14.4354 N   0  0  0  0  0  0  0  0  0  0  0  0
  1  2  1  0  0  0  0
  2  9  1  0  0  0  0
  2  3  1  0  0  0  0
  3  5  1  0  0  0  0
  3  4  2  0  0  0  0
  5  6  1  0  0  0  0
  5  7  1  0  0  0  0
  7  8  2  0  0  0  0
  7 13  1  0  0  0  0
  8  9  1  0  0  0  0
  8 11  1  0  0  0  0
  9 10  2  0  0  0  0
 11 12  1  0  0  0  0
 12 13  2  0  0  0  0
M  END
>  <CHROM.1>
-5.78334533,-6.05074955,12.67855461,-0.77906253,1.18704693,-0.30991230

>  <Name>
1eht cryst

>  <RI>
0

>  <Rbt.Current_Directory>
/home/itssahil/PROJECTS/Mol_Feturizer/New_Systems/rnas/1eht

>  <Rbt.Executable>
rbdock ($Id: //depot/dev/client3/rdock/2013.1/src/exe/rbdock.cxx#4 $)

>  <Rbt.Library>
libRbt.so (2013.1, Build901 2013/11/27)

>  <Rbt.Parameter_File>
/export/apps/rDock/src/rDock_2013.1_src/data/scripts/dock_solv.prm

>  <Rbt.Receptor>
prm/blind_docking_60.prm

>  <SCORE>
-39.2181

>  <SCORE.INTER>
-39.2181

>  <SCORE.INTER.CONST>
1

>  <SCORE.INTER.POLAR>
-1.92406

>  <SCORE.INTER.ROT>
0

>  <SCORE.INTER.SOLV>
9.81863

>  <SCORE.INTER.VDW>
-26.6048

>  <SCORE.INTER.norm>
-3.01678

>  <SCORE.INTRA>
0

>  <SCORE.INTRA.DIHEDRAL>
0

>  <SCORE.INTRA.DIHEDRAL.0>
0

>  <SCORE.INTRA.POLAR>
0

>  <SCORE.INTRA.POLAR.0>
0

>  <SCORE.INTRA.REPUL>
0

>  <SCORE.INTRA.REPUL.0>
0

>  <SCORE.INTRA.SOLV>
0

>  <SCORE.INTRA.SOLV.lig_0>
-12.9768

>  <SCORE.INTRA.VDW>
0

>  <SCORE.INTRA.VDW.0>
0

>  <SCORE.INTRA.norm>
0

>  <SCORE.RESTR>
0

>  <SCORE.RESTR.CAVITY>
0

>  <SCORE.RESTR.norm>
0

>  <SCORE.SYSTEM>
0

>  <SCORE.SYSTEM.CONST>
0

>  <SCORE.SYSTEM.DIHEDRAL>
0

>  <SCORE.SYSTEM.SOLV>
0

>  <SCORE.SYSTEM.norm>
0

>  <SCORE.heavy>
13

>  <SCORE.norm>
-3.01678

>  <RMSD>
0.763

$$$$
1eht cryst
 OpenBabel11021811383D
libRbt.so/2013.1/901 2013/11/27
 13 14  0  0  0  0  0  0  0  0999 V2000
   -4.7728   -7.8819   10.6483 C   0  0  0  0  0  0  0  0  0  0  0  0
   -5.2537   -7.0089   11.6199 N   0  0  0  0  0  0  0  0  0  0  0  0
   -5.6553   -7.5351   12.8205 C   0  0  0  0  0  0  0  0  0  0  0  0
   -5.5622   -8.7581   12.9428 O   0  0  0  0  0  0  0  0  0  0  0  0
   -6.1494   -6.7995   13.8679 N   0  0  0  0  0  0  0  0  0  0  0  0
   -6.5477   -7.3539   15.0732 C   0  0  0  0  0  0  0  0  0  0  0  0
   -6.2094   -5.4636   13.6007 C   0  0  0  0  0  0  0  0  0  0  0  0
   -5.8080   -4.9505   12.4014 C   0  0  0  0  0  0  0  0  0  0  0  0
   -5.2981   -5.6868   11.3167 C   0  0  0  0  0  0  0  0  0  0  0  0
   -4.9234   -5.2738   10.2202 O   0  0  0  0  0  0  0  0  0  0  0  0
   -6.0100   -3.5800   12.4918 N   0  0  0  0  0  0  0  0  0  0  0  0
   -6.5160   -3.3591   13.7282 C   0  0  0  0  0  0  0  0  0  0  0  0
   -6.6561   -4.4457   14.4360 N   0  0  0  0  0  0  0  0  0  0  0  0
  1  2  1  0  0  0  0
  2  9  1  0  0  0  0
  2  3  1  0  0  0  0
  3  5  1  0  0  0  0
  3  4  2  0  0  0  0
  5  6  1  0  0  0  0
  5  7  1  0  0  0  0
  7  8  2  0  0  0  0
  7 13  1  0  0  0  0
  8  9  1  0  0  0  0
  8 11  1  0  0  0  0
  9 10  2  0  0  0  0
 11 12  1  0  0  0  0
 12 13  2  0  0  0  0
M  END
>  <CHROM.1>
-5.78189040,-6.04970809,12.67899764,-0.78484672,1.18548008,-0.30332902

>  <Name>
1eht cryst

>  <RI>
0

>  <Rbt.Current_Directory>
/home/itssahil/PROJECTS/Mol_Feturizer/New_Systems/rnas/1eht

>  <Rbt.Executable>
rbdock ($Id: //depot/dev/client3/rdock/2013.1/src/exe/rbdock.cxx#4 $)

>  <Rbt.Library>
libRbt.so (2013.1, Build901 2013/11/27)

>  <Rbt.Parameter_File>
/export/apps/rDock/src/rDock_2013.1_src/data/scripts/dock_solv.prm

>  <Rbt.Receptor>
prm/blind_docking_60.prm

>  <SCORE>
-39.2247

>  <SCORE.INTER>
-39.2247

>  <SCORE.INTER.CONST>
1

>  <SCORE.INTER.POLAR>
-1.92653

>  <SCORE.INTER.ROT>
0

>  <SCORE.INTER.SOLV>
9.82698

>  <SCORE.INTER.VDW>
-26.6037

>  <SCORE.INTER.norm>
-3.01729

>  <SCORE.INTRA>
0

>  <SCORE.INTRA.DIHEDRAL>
0

>  <SCORE.INTRA.DIHEDRAL.0>
0

>  <SCORE.INTRA.POLAR>
0

>  <SCORE.INTRA.POLAR.0>
0

>  <SCORE.INTRA.REPUL>
0

>  <SCORE.INTRA.REPUL.0>
0

>  <SCORE.INTRA.SOLV>
0

>  <SCORE.INTRA.SOLV.lig_0>
-12.9768

>  <SCORE.INTRA.VDW>
0

>  <SCORE.INTRA.VDW.0>
0

>  <SCORE.INTRA.norm>
0

>  <SCORE.RESTR>
0

>  <SCORE.RESTR.CAVITY>
0

>  <SCORE.RESTR.norm>
0

>  <SCORE.SYSTEM>
0

>  <SCORE.SYSTEM.CONST>
0

>  <SCORE.SYSTEM.DIHEDRAL>
0

>  <SCORE.SYSTEM.SOLV>
0

>  <SCORE.SYSTEM.norm>
0

>  <SCORE.heavy>
13

>  <SCORE.norm>
-3.01729

>  <RMSD>
0.763

$$$$
1eht cryst
 OpenBabel11021811383D
libRbt.so/2013.1/901 2013/11/27
 13 14  0  0  0  0  0  0  0  0999 V2000
   -4.7714   -7.8811   10.6476 C   0  0  0  0  0  0  0  0  0  0  0  0
   -5.2527   -7.0084   11.6193 N   0  0  0  0  0  0  0  0  0  0  0  0
   -5.6570   -7.5352   12.8187 C   0  0  0  0  0  0  0  0  0  0  0  0
   -5.5656   -8.7584   12.9400 O   0  0  0  0  0  0  0  0  0  0  0  0
   -6.1517   -6.7999   13.8660 N   0  0  0  0  0  0  0  0  0  0  0  0
   -6.5528   -7.3550   15.0702 C   0  0  0  0  0  0  0  0  0  0  0  0
   -6.2096   -5.4637   13.6000 C   0  0  0  0  0  0  0  0  0  0  0  0
   -5.8056   -4.9500   12.4019 C   0  0  0  0  0  0  0  0  0  0  0  0
   -5.2949   -5.6859   11.3173 C   0  0  0  0  0  0  0  0  0  0  0  0
   -4.9178   -5.2724   10.2218 O   0  0  0  0  0  0  0  0  0  0  0  0
   -6.0059   -3.5793   12.4932 N   0  0  0  0  0  0  0  0  0  0  0  0
   -6.5136   -3.3589   13.7290 C   0  0  0  0  0  0  0  0  0  0  0  0
   -6.6563   -4.4460   14.4355 N   0  0  0  0  0  0  0  0  0  0  0  0
  1  2  1  0  0  0  0
  2  9  1  0  0  0  0
  2  3  1  0  0  0  0
  3  5  1  0  0  0  0
  3  4  2  0  0  0  0
  5  6  1  0  0  0  0
  5  7  1  0  0  0  0
  7  8  2  0  0  0  0
  7 13  1  0  0  0  0
  8  9  1  0  0  0  0
  8 11  1  0  0  0  0
  9 10  2  0  0  0  0
 11 12  1  0  0  0  0
 12 13  2  0  0  0  0
M  END
>  <CHROM.1>
-5.78134644,-6.04949976,12.67843069,-0.78945224,1.18432466,-0.29811091

>  <Name>
1eht cryst

>  <RI>
0

>  <Rbt.Current_Directory>
/home/itssahil/PROJECTS/Mol_Feturizer/New_Systems/rnas/1eht

>  <Rbt.Executable>
rbdock ($Id: //depot/dev/client3/rdock/2013.1/src/exe/rbdock.cxx#4 $)

>  <Rbt.Library>
libRbt.so (2013.1, Build901 2013/11/27)

>  <Rbt.Parameter_File>
/export/apps/rDock/src/rDock_2013.1_src/data/scripts/dock_solv.prm

>  <Rbt.Receptor>
prm/pocket_docking_2.prm

>  <SCORE>
-39.2276

>  <SCORE.INTER>
-39.2276

>  <SCORE.INTER.CONST>
1

>  <SCORE.INTER.POLAR>
-1.92924

>  <SCORE.INTER.ROT>
0

>  <SCORE.INTER.SOLV>
9.83188

>  <SCORE.INTER.VDW>
-26.5982

>  <SCORE.INTER.norm>
-3.01751

>  <SCORE.INTRA>
0

>  <SCORE.INTRA.DIHEDRAL>
0

>  <SCORE.INTRA.DIHEDRAL.0>
0

>  <SCORE.INTRA.POLAR>
0

>  <SCORE.INTRA.POLAR.0>
0

>  <SCORE.INTRA.REPUL>
0

>  <SCORE.INTRA.REPUL.0>
0

>  <SCORE.INTRA.SOLV>
0

>  <SCORE.INTRA.SOLV.lig_0>
-12.9768

>  <SCORE.INTRA.VDW>
0

>  <SCORE.INTRA.VDW.0>
0

>  <SCORE.INTRA.norm>
0

>  <SCORE.RESTR>
0

>  <SCORE.RESTR.CAVITY>
0

>  <SCORE.RESTR.norm>
0

>  <SCORE.SYSTEM>
0

>  <SCORE.SYSTEM.CONST>
0

>  <SCORE.SYSTEM.DIHEDRAL>
0

>  <SCORE.SYSTEM.SOLV>
0

>  <SCORE.SYSTEM.norm>
0

>  <SCORE.heavy>
13

>  <SCORE.norm>
-3.01751

>  <RMSD>
0.763

$$$$
1eht cryst
 OpenBabel11021811383D
libRbt.so/2013.1/901 2013/11/27
 13 14  0  0  0  0  0  0  0  0999 V2000
   -4.7724   -7.8811   10.6477 C   0  0  0  0  0  0  0  0  0  0  0  0
   -5.2534   -7.0084   11.6196 N   0  0  0  0  0  0  0  0  0  0  0  0
   -5.6573   -7.5353   12.8191 C   0  0  0  0  0  0  0  0  0  0  0  0
   -5.5660   -8.7585   12.9402 O   0  0  0  0  0  0  0  0  0  0  0  0
   -6.1517   -6.8001   13.8667 N   0  0  0  0  0  0  0  0  0  0  0  0
   -6.5525   -7.3553   15.0708 C   0  0  0  0  0  0  0  0  0  0  0  0
   -6.2095   -5.4639   13.6008 C   0  0  0  0  0  0  0  0  0  0  0  0
   -5.8058   -4.9500   12.4026 C   0  0  0  0  0  0  0  0  0  0  0  0
   -5.2954   -5.6859   11.3178 C   0  0  0  0  0  0  0  0  0  0  0  0
   -4.9186   -5.2723   10.2222 O   0  0  0  0  0  0  0  0  0  0  0  0
   -6.0059   -3.5793   12.4941 N   0  0  0  0  0  0  0  0  0  0  0  0
   -6.5132   -3.3591   13.7301 C   0  0  0  0  0  0  0  0  0  0  0  0
   -6.6558   -4.4462   14.4365 N   0  0  0  0  0  0  0  0  0  0  0  0
  1  2  1  0  0  0  0
  2  9  1  0  0  0  0
  2  3  1  0  0  0  0
  3  5  1  0  0  0  0
  3  4  2  0  0  0  0
  5  6  1  0  0  0  0
  5  7  1  0  0  0  0
  7  8  2  0  0  0  0
  7 13  1  0  0  0  0
  8  9  1  0  0  0  0
  8 11  1  0  0  0  0
  9 10  2  0  0  0  0
 11 12  1  0  0  0  0
 12 13  2  0  0  0  0
M  END
>  <CHROM.1>
-5.78155628,-6.04958417,12.67902338,-0.78950804,1.18462671,-0.29794634

>  <Name>
1eht cryst

>  <RI>
0

>  <Rbt.Current_Directory>
/home/itssahil/PROJECTS/Mol_Feturizer/New_Systems/rnas/1eht

>  <Rbt.Executable>
rbdock ($Id: //depot/dev/client3/rdock/2013.1/src/exe/rbdock.cxx#4 $)

>  <Rbt.Library>
libRbt.so (2013.1, Build901 2013/11/27)

>  <Rbt.Parameter_File>
/export/apps/rDock/src/rDock_2013.1_src/data/scripts/dock_solv.prm

>  <Rbt.Receptor>
prm/pocket_docking_2.prm

>  <SCORE>
-39.2273

>  <SCORE.INTER>
-39.2273

>  <SCORE.INTER.CONST>
1

>  <SCORE.INTER.POLAR>
-1.92855

>  <SCORE.INTER.ROT>
0

>  <SCORE.INTER.SOLV>
9.83171

>  <SCORE.INTER.VDW>
-26.6002

>  <SCORE.INTER.norm>
-3.01748

>  <SCORE.INTRA>
0

>  <SCORE.INTRA.DIHEDRAL>
0

>  <SCORE.INTRA.DIHEDRAL.0>
0

>  <SCORE.INTRA.POLAR>
0

>  <SCORE.INTRA.POLAR.0>
0

>  <SCORE.INTRA.REPUL>
0

>  <SCORE.INTRA.REPUL.0>
0

>  <SCORE.INTRA.SOLV>
0

>  <SCORE.INTRA.SOLV.lig_0>
-12.9768

>  <SCORE.INTRA.VDW>
0

>  <SCORE.INTRA.VDW.0>
0

>  <SCORE.INTRA.norm>
0

>  <SCORE.RESTR>
0

>  <SCORE.RESTR.CAVITY>
0

>  <SCORE.RESTR.norm>
0

>  <SCORE.SYSTEM>
0

>  <SCORE.SYSTEM.CONST>
0

>  <SCORE.SYSTEM.DIHEDRAL>
0

>  <SCORE.SYSTEM.SOLV>
0

>  <SCORE.SYSTEM.norm>
0

>  <SCORE.heavy>
13

>  <SCORE.norm>
-3.01748

>  <RMSD>
0.763

$$$$
1eht cryst
 OpenBabel11021811383D
libRbt.so/2013.1/901 2013/11/27
 13 14  0  0  0  0  0  0  0  0999 V2000
   -4.7708   -7.8802   10.6477 C   0  0  0  0  0  0  0  0  0  0  0  0
   -5.2524   -7.0074   11.6192 N   0  0  0  0  0  0  0  0  0  0  0  0
   -5.6524   -7.5336   12.8203 C   0  0  0  0  0  0  0  0  0  0  0  0
   -5.5572   -8.7563   12.9432 O   0  0  0  0  0  0  0  0  0  0  0  0
   -6.1469   -6.7982   13.8677 N   0  0  0  0  0  0  0  0  0  0  0  0
   -6.5436   -7.3526   15.0735 C   0  0  0  0  0  0  0  0  0  0  0  0
   -6.2093   -5.4625   13.5998 C   0  0  0  0  0  0  0  0  0  0  0  0
   -5.8095   -4.9495   12.4000 C   0  0  0  0  0  0  0  0  0  0  0  0
   -5.2991   -5.6855   11.3153 C   0  0  0  0  0  0  0  0  0  0  0  0
   -4.9257   -5.2726   10.2184 O   0  0  0  0  0  0  0  0  0  0  0  0
   -6.0135   -3.5792   12.4897 N   0  0  0  0  0  0  0  0  0  0  0  0
   -6.5191   -3.3585   13.7264 C   0  0  0  0  0  0  0  0  0  0  0  0
   -6.6570   -4.4449   14.4348 N   0  0  0  0  0  0  0  0  0  0  0  0
  1  2  1  0  0  0  0
  2  9  1  0  0  0  0
  2  3  1  0  0  0  0
  3  5  1  0  0  0  0
  3  4  2  0  0  0  0
  5  6  1  0  0  0  0
  5  7  1  0  0  0  0
  7  8  2  0  0  0  0
  7 13  1  0  0  0  0
  8  9  1  0  0  0  0
  8 11  1  0  0  0  0
  9 10  2  0  0  0  0
 11 12  1  0  0  0  0
 12 13  2  0  0  0  0
M  END
>  <CHROM.1>
-5.78141658,-6.04846094,12.67811195,-0.78029838,1.18562132,-0.30808675

>  <Name>
1eht cryst

>  <RI>
0

>  <Rbt.Current_Directory>
/home/itssahil/PROJECTS/Mol_Feturizer/New_Systems/rnas/1eht

>  <Rbt.Executable>
rbdock ($Id: //depot/dev/client3/rdock/2013.1/src/exe/rbdock.cxx#4 $)

>  <Rbt.Library>
libRbt.so (2013.1, Build901 2013/11/27)

>  <Rbt.Parameter_File>
/export/apps/rDock/src/rDock_2013.1_src/data/scripts/dock_solv.prm

>  <Rbt.Receptor>
prm/pocket_docking_3.prm

>  <SCORE>
-39.2194

>  <SCORE.INTER>
-39.2194

>  <SCORE.INTER.CONST>
1

>  <SCORE.INTER.POLAR>
-1.92454

>  <SCORE.INTER.ROT>
0

>  <SCORE.INTER.SOLV>
9.82617

>  <SCORE.INTER.VDW>
-26.6065

>  <SCORE.INTER.norm>
-3.01688

>  <SCORE.INTRA>
0

>  <SCORE.INTRA.DIHEDRAL>
0

>  <SCORE.INTRA.DIHEDRAL.0>
0

>  <SCORE.INTRA.POLAR>
0

>  <SCORE.INTRA.POLAR.0>
0

>  <SCORE.INTRA.REPUL>
0

>  <SCORE.INTRA.REPUL.0>
0

>  <SCORE.INTRA.SOLV>
0

>  <SCORE.INTRA.SOLV.lig_0>
-12.9768

>  <SCORE.INTRA.VDW>
0

>  <SCORE.INTRA.VDW.0>
0

>  <SCORE.INTRA.norm>
0

>  <SCORE.RESTR>
0

>  <SCORE.RESTR.CAVITY>
0

>  <SCORE.RESTR.norm>
0

>  <SCORE.SYSTEM>
0

>  <SCORE.SYSTEM.CONST>
0

>  <SCORE.SYSTEM.DIHEDRAL>
0

>  <SCORE.SYSTEM.SOLV>
0

>  <SCORE.SYSTEM.norm>
0

>  <SCORE.heavy>
13

>  <SCORE.norm>
-3.01688

>  <RMSD>
0.763

$$$$
1eht cryst
 OpenBabel11021811383D
libRbt.so/2013.1/901 2013/11/27
 13 14  0  0  0  0  0  0  0  0999 V2000
   -4.7718   -7.8835   10.6480 C   0  0  0  0  0  0  0  0  0  0  0  0
   -5.2534   -7.0101   11.6189 N   0  0  0  0  0  0  0  0  0  0  0  0
   -5.6532   -7.5356   12.8205 C   0  0  0  0  0  0  0  0  0  0  0  0
   -5.5579   -8.7582   12.9441 O   0  0  0  0  0  0  0  0  0  0  0  0
   -6.1476   -6.7995   13.8674 N   0  0  0  0  0  0  0  0  0  0  0  0
   -6.5442   -7.3532   15.0736 C   0  0  0  0  0  0  0  0  0  0  0  0
   -6.2101   -5.4641   13.5987 C   0  0  0  0  0  0  0  0  0  0  0  0
   -5.8105   -4.9517   12.3985 C   0  0  0  0  0  0  0  0  0  0  0  0
   -5.3002   -5.6884   11.3142 C   0  0  0  0  0  0  0  0  0  0  0  0
   -4.9269   -5.2762   10.2170 O   0  0  0  0  0  0  0  0  0  0  0  0
   -6.0146   -3.5814   12.4873 N   0  0  0  0  0  0  0  0  0  0  0  0
   -6.5200   -3.3599   13.7239 C   0  0  0  0  0  0  0  0  0  0  0  0
   -6.6578   -4.4459   14.4331 N   0  0  0  0  0  0  0  0  0  0  0  0
  1  2  1  0  0  0  0
  2  9  1  0  0  0  0
  2  3  1  0  0  0  0
  3  5  1  0  0  0  0
  3  4  2  0  0  0  0
  5  6  1  0  0  0  0
  5  7  1  0  0  0  0
  7  8  2  0  0  0  0
  7 13  1  0  0  0  0
  8  9  1  0  0  0  0
  8 11  1  0  0  0  0
  9 10  2  0  0  0  0
 11 12  1  0  0  0  0
 12 13  2  0  0  0  0
M  END
>  <CHROM.1>
-5.78231173,-6.05054781,12.67731203,-0.78004815,1.18570404,-0.30895644

>  <Name>
1eht cryst

>  <RI>
0

>  <Rbt.Current_Directory>
/home/itssahil/PROJECTS/Mol_Feturizer/New_Systems/rnas/1eht

>  <Rbt.Executable>
rbdock ($Id: //depot/dev/client3/rdock/2013.1/src/exe/rbdock.cxx#4 $)

>  <Rbt.Library>
libRbt.so (2013.1, Build901 2013/11/27)

>  <Rbt.Parameter_File>
/export/apps/rDock/src/rDock_2013.1_src/data/scripts/dock_solv.prm

>  <Rbt.Receptor>
prm/pocket_docking_4.prm

>  <SCORE>
-39.2218

>  <SCORE.INTER>
-39.2218

>  <SCORE.INTER.CONST>
1

>  <SCORE.INTER.POLAR>
-1.92657

>  <SCORE.INTER.ROT>
0

>  <SCORE.INTER.SOLV>
9.82063

>  <SCORE.INTER.VDW>
-26.5995

>  <SCORE.INTER.norm>
-3.01706

>  <SCORE.INTRA>
0

>  <SCORE.INTRA.DIHEDRAL>
0

>  <SCORE.INTRA.DIHEDRAL.0>
0

>  <SCORE.INTRA.POLAR>
0

>  <SCORE.INTRA.POLAR.0>
0

>  <SCORE.INTRA.REPUL>
0

>  <SCORE.INTRA.REPUL.0>
0

>  <SCORE.INTRA.SOLV>
0

>  <SCORE.INTRA.SOLV.lig_0>
-12.9768

>  <SCORE.INTRA.VDW>
0

>  <SCORE.INTRA.VDW.0>
0

>  <SCORE.INTRA.norm>
0

>  <SCORE.RESTR>
0

>  <SCORE.RESTR.CAVITY>
0

>  <SCORE.RESTR.norm>
0

>  <SCORE.SYSTEM>
0

>  <SCORE.SYSTEM.CONST>
0

>  <SCORE.SYSTEM.DIHEDRAL>
0

>  <SCORE.SYSTEM.SOLV>
0

>  <SCORE.SYSTEM.norm>
0

>  <SCORE.heavy>
13

>  <SCORE.norm>
-3.01706

>  <RMSD>
0.763

$$$$
1eht cryst
 OpenBabel11021811383D
libRbt.so/2013.1/901 2013/11/27
 13 14  0  0  0  0  0  0  0  0999 V2000
   -4.7729   -7.8815   10.6475 C   0  0  0  0  0  0  0  0  0  0  0  0
   -5.2538   -7.0087   11.6194 N   0  0  0  0  0  0  0  0  0  0  0  0
   -5.6566   -7.5353   12.8194 C   0  0  0  0  0  0  0  0  0  0  0  0
   -5.5645   -8.7584   12.9410 O   0  0  0  0  0  0  0  0  0  0  0  0
   -6.1508   -6.7999   13.8670 N   0  0  0  0  0  0  0  0  0  0  0  0
   -6.5504   -7.3548   15.0717 C   0  0  0  0  0  0  0  0  0  0  0  0
   -6.2096   -5.4639   13.6006 C   0  0  0  0  0  0  0  0  0  0  0  0
   -5.8070   -4.9503   12.4018 C   0  0  0  0  0  0  0  0  0  0  0  0
   -5.2970   -5.6863   11.3170 C   0  0  0  0  0  0  0  0  0  0  0  0
   -4.9212   -5.2730   10.2210 O   0  0  0  0  0  0  0  0  0  0  0  0
   -6.0079   -3.5797   12.4929 N   0  0  0  0  0  0  0  0  0  0  0  0
   -6.5146   -3.3592   13.7291 C   0  0  0  0  0  0  0  0  0  0  0  0
   -6.6560   -4.4461   14.4361 N   0  0  0  0  0  0  0  0  0  0  0  0
  1  2  1  0  0  0  0
  2  9  1  0  0  0  0
  2  3  1  0  0  0  0
  3  5  1  0  0  0  0
  3  4  2  0  0  0  0
  5  6  1  0  0  0  0
  5  7  1  0  0  0  0
  7  8  2  0  0  0  0
  7 13  1  0  0  0  0
  8  9  1  0  0  0  0
  8 11  1  0  0  0  0
  9 10  2  0  0  0  0
 11 12  1  0  0  0  0
 12 13  2  0  0  0  0
M  END
>  <CHROM.1>
-5.78191742,-6.04972582,12.67874371,-0.78734675,1.18508648,-0.30039970

>  <Name>
1eht cryst

>  <RI>
0

>  <Rbt.Current_Directory>
/home/itssahil/PROJECTS/Mol_Feturizer/New_Systems/rnas/1eht

>  <Rbt.Executable>
rbdock ($Id: //depot/dev/client3/rdock/2013.1/src/exe/rbdock.cxx#4 $)

>  <Rbt.Library>
libRbt.so (2013.1, Build901 2013/11/27)

>  <Rbt.Parameter_File>
/export/apps/rDock/src/rDock_2013.1_src/data/scripts/dock_solv.prm

>  <Rbt.Receptor>
prm/pocket_docking_4.prm

>  <SCORE>
-39.2256

>  <SCORE.INTER>
-39.2256

>  <SCORE.INTER.CONST>
1

>  <SCORE.INTER.POLAR>
-1.92768

>  <SCORE.INTER.ROT>
0

>  <SCORE.INTER.SOLV>
9.82924

>  <SCORE.INTER.VDW>
-26.6012

>  <SCORE.INTER.norm>
-3.01736

>  <SCORE.INTRA>
0

>  <SCORE.INTRA.DIHEDRAL>
0

>  <SCORE.INTRA.DIHEDRAL.0>
0

>  <SCORE.INTRA.POLAR>
0

>  <SCORE.INTRA.POLAR.0>
0

>  <SCORE.INTRA.REPUL>
0

>  <SCORE.INTRA.REPUL.0>
0

>  <SCORE.INTRA.SOLV>
0

>  <SCORE.INTRA.SOLV.lig_0>
-12.9768

>  <SCORE.INTRA.VDW>
0

>  <SCORE.INTRA.VDW.0>
0

>  <SCORE.INTRA.norm>
0

>  <SCORE.RESTR>
0

>  <SCORE.RESTR.CAVITY>
0

>  <SCORE.RESTR.norm>
0

>  <SCORE.SYSTEM>
0

>  <SCORE.SYSTEM.CONST>
0

>  <SCORE.SYSTEM.DIHEDRAL>
0

>  <SCORE.SYSTEM.SOLV>
0

>  <SCORE.SYSTEM.norm>
0

>  <SCORE.heavy>
13

>  <SCORE.norm>
-3.01736

>  <RMSD>
0.763

$$$$
1eht cryst
 OpenBabel11021811383D
libRbt.so/2013.1/901 2013/11/27
 13 14  0  0  0  0  0  0  0  0999 V2000
   -4.7642   -7.8763   10.6471 C   0  0  0  0  0  0  0  0  0  0  0  0
   -5.2458   -7.0026   11.6177 N   0  0  0  0  0  0  0  0  0  0  0  0
   -5.6474   -7.5278   12.8188 C   0  0  0  0  0  0  0  0  0  0  0  0
   -5.5537   -8.7506   12.9423 O   0  0  0  0  0  0  0  0  0  0  0  0
   -6.1420   -6.7914   13.8654 N   0  0  0  0  0  0  0  0  0  0  0  0
   -6.5404   -7.3449   15.0711 C   0  0  0  0  0  0  0  0  0  0  0  0
   -6.2026   -5.4558   13.5969 C   0  0  0  0  0  0  0  0  0  0  0  0
   -5.8012   -4.9437   12.3972 C   0  0  0  0  0  0  0  0  0  0  0  0
   -5.2907   -5.6808   11.3133 C   0  0  0  0  0  0  0  0  0  0  0  0
   -4.9158   -5.2688   10.2165 O   0  0  0  0  0  0  0  0  0  0  0  0
   -6.0038   -3.5732   12.4861 N   0  0  0  0  0  0  0  0  0  0  0  0
   -6.5102   -3.3513   13.7222 C   0  0  0  0  0  0  0  0  0  0  0  0
   -6.6500   -4.4373   14.4310 N   0  0  0  0  0  0  0  0  0  0  0  0
  1  2  1  0  0  0  0
  2  9  1  0  0  0  0
  2  3  1  0  0  0  0
  3  5  1  0  0  0  0
  3  4  2  0  0  0  0
  5  6  1  0  0  0  0
  5  7  1  0  0  0  0
  7  8  2  0  0  0  0
  7 13  1  0  0  0  0
  8  9  1  0  0  0  0
  8 11  1  0  0  0  0
  9 10  2  0  0  0  0
 11 12  1  0  0  0  0
 12 13  2  0  0  0  0
M  END
>  <CHROM.1>
-5.77461073,-6.04261548,12.67579530,-0.78385948,1.18510893,-0.30522417

>  <Name>
1eht cryst

>  <RI>
0

>  <Rbt.Current_Directory>
/home/itssahil/PROJECTS/Mol_Feturizer/New_Systems/rnas/1eht

>  <Rbt.Executable>
rbdock ($Id: //depot/dev/client3/rdock/2013.1/src/exe/rbdock.cxx#4 $)

>  <Rbt.Library>
libRbt.so (2013.1, Build901 2013/11/27)

>  <Rbt.Parameter_File>
/export/apps/rDock/src/rDock_2013.1_src/data/scripts/dock_solv.prm

>  <Rbt.Receptor>
prm/pocket_docking_4.prm

>  <SCORE>
-39.1987

>  <SCORE.INTER>
-39.1987

>  <SCORE.INTER.CONST>
1

>  <SCORE.INTER.POLAR>
-1.92554

>  <SCORE.INTER.ROT>
0

>  <SCORE.INTER.SOLV>
9.84243

>  <SCORE.INTER.VDW>
-26.5948

>  <SCORE.INTER.norm>
-3.01528

>  <SCORE.INTRA>
0

>  <SCORE.INTRA.DIHEDRAL>
0

>  <SCORE.INTRA.DIHEDRAL.0>
0

>  <SCORE.INTRA.POLAR>
0

>  <SCORE.INTRA.POLAR.0>
0

>  <SCORE.INTRA.REPUL>
0

>  <SCORE.INTRA.REPUL.0>
0

>  <SCORE.INTRA.SOLV>
0

>  <SCORE.INTRA.SOLV.lig_0>
-12.9768

>  <SCORE.INTRA.VDW>
0

>  <SCORE.INTRA.VDW.0>
0

>  <SCORE.INTRA.norm>
0

>  <SCORE.RESTR>
0

>  <SCORE.RESTR.CAVITY>
0

>  <SCORE.RESTR.norm>
0

>  <SCORE.SYSTEM>
0

>  <SCORE.SYSTEM.CONST>
0

>  <SCORE.SYSTEM.DIHEDRAL>
0

>  <SCORE.SYSTEM.SOLV>
0

>  <SCORE.SYSTEM.norm>
0

>  <SCORE.heavy>
13

>  <SCORE.norm>
-3.01528

>  <RMSD>
0.763

$$$$
1eht cryst
 OpenBabel11021811383D
libRbt.so/2013.1/901 2013/11/27
 13 14  0  0  0  0  0  0  0  0999 V2000
   -4.7758   -7.8854   10.6478 C   0  0  0  0  0  0  0  0  0  0  0  0
   -5.2563   -7.0117   11.6191 N   0  0  0  0  0  0  0  0  0  0  0  0
   -5.6532   -7.5367   12.8218 C   0  0  0  0  0  0  0  0  0  0  0  0
   -5.5565   -8.7591   12.9462 O   0  0  0  0  0  0  0  0  0  0  0  0
   -6.1463   -6.8003   13.8692 N   0  0  0  0  0  0  0  0  0  0  0  0
   -6.5399   -7.3534   15.0766 C   0  0  0  0  0  0  0  0  0  0  0  0
   -6.2106   -5.4651   13.5996 C   0  0  0  0  0  0  0  0  0  0  0  0
   -5.8139   -4.9533   12.3982 C   0  0  0  0  0  0  0  0  0  0  0  0
   -5.3050   -5.6903   11.3135 C   0  0  0  0  0  0  0  0  0  0  0  0
   -4.9344   -5.2785   10.2152 O   0  0  0  0  0  0  0  0  0  0  0  0
   -6.0192   -3.5831   12.4864 N   0  0  0  0  0  0  0  0  0  0  0  0
   -6.5223   -3.3611   13.7238 C   0  0  0  0  0  0  0  0  0  0  0  0
   -6.6576   -4.4467   14.4341 N   0  0  0  0  0  0  0  0  0  0  0  0
  1  2  1  0  0  0  0
  2  9  1  0  0  0  0
  2  3  1  0  0  0  0
  3  5  1  0  0  0  0
  3  4  2  0  0  0  0
  5  6  1  0  0  0  0
  5  7  1  0  0  0  0
  7  8  2  0  0  0  0
  7 13  1  0  0  0  0
  8  9  1  0  0  0  0
  8 11  1  0  0  0  0
  9 10  2  0  0  0  0
 11 12  1  0  0  0  0
 12 13  2  0  0  0  0
M  END
>  <CHROM.1>
-5.78408140,-6.05184618,12.67779173,-0.77595800,1.18730903,-0.31351185

>  <Name>
1eht cryst

>  <RI>
0

>  <Rbt.Current_Directory>
/home/itssahil/PROJECTS/Mol_Feturizer/New_Systems/rnas/1eht

>  <Rbt.Executable>
rbdock ($Id: //depot/dev/client3/rdock/2013.1/src/exe/rbdock.cxx#4 $)

>  <Rbt.Library>
libRbt.so (2013.1, Build901 2013/11/27)

>  <Rbt.Parameter_File>
/export/apps/rDock/src/rDock_2013.1_src/data/scripts/dock_solv.prm

>  <Rbt.Receptor>
prm/pocket_docking_4.prm

>  <SCORE>
-39.2147

>  <SCORE.INTER>
-39.2147

>  <SCORE.INTER.CONST>
1

>  <SCORE.INTER.POLAR>
-1.92404

>  <SCORE.INTER.ROT>
0

>  <SCORE.INTER.SOLV>
9.81324

>  <SCORE.INTER.VDW>
-26.6007

>  <SCORE.INTER.norm>
-3.01652

>  <SCORE.INTRA>
0

>  <SCORE.INTRA.DIHEDRAL>
0

>  <SCORE.INTRA.DIHEDRAL.0>
0

>  <SCORE.INTRA.POLAR>
0

>  <SCORE.INTRA.POLAR.0>
0

>  <SCORE.INTRA.REPUL>
0

>  <SCORE.INTRA.REPUL.0>
0

>  <SCORE.INTRA.SOLV>
0

>  <SCORE.INTRA.SOLV.lig_0>
-12.9768

>  <SCORE.INTRA.VDW>
0

>  <SCORE.INTRA.VDW.0>
0

>  <SCORE.INTRA.norm>
0

>  <SCORE.RESTR>
0

>  <SCORE.RESTR.CAVITY>
0

>  <SCORE.RESTR.norm>
0

>  <SCORE.SYSTEM>
0

>  <SCORE.SYSTEM.CONST>
0

>  <SCORE.SYSTEM.DIHEDRAL>
0

>  <SCORE.SYSTEM.SOLV>
0

>  <SCORE.SYSTEM.norm>
0

>  <SCORE.heavy>
13

>  <SCORE.norm>
-3.01652

>  <RMSD>
0.763

$$$$
1eht cryst
 OpenBabel11021811383D
libRbt.so/2013.1/901 2013/11/27
 13 14  0  0  0  0  0  0  0  0999 V2000
   -4.7681   -7.8783   10.6479 C   0  0  0  0  0  0  0  0  0  0  0  0
   -5.2503   -7.0062   11.6196 N   0  0  0  0  0  0  0  0  0  0  0  0
   -5.6542   -7.5335   12.8190 C   0  0  0  0  0  0  0  0  0  0  0  0
   -5.5618   -8.7566   12.9401 O   0  0  0  0  0  0  0  0  0  0  0  0
   -6.1498   -6.7988   13.8663 N   0  0  0  0  0  0  0  0  0  0  0  0
   -6.5505   -7.3544   15.0703 C   0  0  0  0  0  0  0  0  0  0  0  0
   -6.2089   -5.4626   13.6004 C   0  0  0  0  0  0  0  0  0  0  0  0
   -5.8052   -4.9484   12.4024 C   0  0  0  0  0  0  0  0  0  0  0  0
   -5.2937   -5.6837   11.3178 C   0  0  0  0  0  0  0  0  0  0  0  0
   -4.9169   -5.2697   10.2224 O   0  0  0  0  0  0  0  0  0  0  0  0
   -6.0068   -3.5779   12.4938 N   0  0  0  0  0  0  0  0  0  0  0  0
   -6.5149   -3.3581   13.7296 C   0  0  0  0  0  0  0  0  0  0  0  0
   -6.6566   -4.4454   14.4359 N   0  0  0  0  0  0  0  0  0  0  0  0
  1  2  1  0  0  0  0
  2  9  1  0  0  0  0
  2  3  1  0  0  0  0
  3  5  1  0  0  0  0
  3  4  2  0  0  0  0
  5  6  1  0  0  0  0
  5  7  1  0  0  0  0
  7  8  2  0  0  0  0
  7 13  1  0  0  0  0
  8  9  1  0  0  0  0
  8 11  1  0  0  0  0
  9 10  2  0  0  0  0
 11 12  1  0  0  0  0
 12 13  2  0  0  0  0
M  END
>  <CHROM.1>
-5.77997893,-6.04789193,12.67880984,-0.78719736,1.18392153,-0.30009295

>  <Name>
1eht cryst

>  <RI>
0

>  <Rbt.Current_Directory>
/home/itssahil/PROJECTS/Mol_Feturizer/New_Systems/rnas/1eht

>  <Rbt.Executable>
rbdock ($Id: //depot/dev/client3/rdock/2013.1/src/exe/rbdock.cxx#4 $)

>  <Rbt.Library>
libRbt.so (2013.1, Build901 2013/11/27)

>  <Rbt.Parameter_File>
/export/apps/rDock/src/rDock_2013.1_src/data/scripts/dock_solv.prm

>  <Rbt.Receptor>
prm/pocket_docking_5.prm

>  <SCORE>
-39.2262

>  <SCORE.INTER>
-39.2262

>  <SCORE.INTER.CONST>
1

>  <SCORE.INTER.POLAR>
-1.92753

>  <SCORE.INTER.ROT>
0

>  <SCORE.INTER.SOLV>
9.8349

>  <SCORE.INTER.VDW>
-26.604

>  <SCORE.INTER.norm>
-3.0174

>  <SCORE.INTRA>
0

>  <SCORE.INTRA.DIHEDRAL>
0

>  <SCORE.INTRA.DIHEDRAL.0>
0

>  <SCORE.INTRA.POLAR>
0

>  <SCORE.INTRA.POLAR.0>
0

>  <SCORE.INTRA.REPUL>
0

>  <SCORE.INTRA.REPUL.0>
0

>  <SCORE.INTRA.SOLV>
0

>  <SCORE.INTRA.SOLV.lig_0>
-12.9768

>  <SCORE.INTRA.VDW>
0

>  <SCORE.INTRA.VDW.0>
0

>  <SCORE.INTRA.norm>
0

>  <SCORE.RESTR>
0

>  <SCORE.RESTR.CAVITY>
0

>  <SCORE.RESTR.norm>
0

>  <SCORE.SYSTEM>
0

>  <SCORE.SYSTEM.CONST>
0

>  <SCORE.SYSTEM.DIHEDRAL>
0

>  <SCORE.SYSTEM.SOLV>
0

>  <SCORE.SYSTEM.norm>
0

>  <SCORE.heavy>
13

>  <SCORE.norm>
-3.0174

>  <RMSD>
0.763

$$$$
1eht cryst
 OpenBabel11021811383D
libRbt.so/2013.1/901 2013/11/27
 13 14  0  0  0  0  0  0  0  0999 V2000
   -4.7682   -7.8810   10.6473 C   0  0  0  0  0  0  0  0  0  0  0  0
   -5.2510   -7.0082   11.6182 N   0  0  0  0  0  0  0  0  0  0  0  0
   -5.6544   -7.5347   12.8181 C   0  0  0  0  0  0  0  0  0  0  0  0
   -5.5611   -8.7576   12.9404 O   0  0  0  0  0  0  0  0  0  0  0  0
   -6.1503   -6.7993   13.8648 N   0  0  0  0  0  0  0  0  0  0  0  0
   -6.5505   -7.3540   15.0694 C   0  0  0  0  0  0  0  0  0  0  0  0
   -6.2103   -5.4634   13.5977 C   0  0  0  0  0  0  0  0  0  0  0  0
   -5.8071   -4.9501   12.3991 C   0  0  0  0  0  0  0  0  0  0  0  0
   -5.2952   -5.6861   11.3151 C   0  0  0  0  0  0  0  0  0  0  0  0
   -4.9188   -5.2729   10.2193 O   0  0  0  0  0  0  0  0  0  0  0  0
   -6.0096   -3.5796   12.4892 N   0  0  0  0  0  0  0  0  0  0  0  0
   -6.5177   -3.3590   13.7249 C   0  0  0  0  0  0  0  0  0  0  0  0
   -6.6587   -4.4457   14.4323 N   0  0  0  0  0  0  0  0  0  0  0  0
  1  2  1  0  0  0  0
  2  9  1  0  0  0  0
  2  3  1  0  0  0  0
  3  5  1  0  0  0  0
  3  4  2  0  0  0  0
  5  6  1  0  0  0  0
  5  7  1  0  0  0  0
  7  8  2  0  0  0  0
  7 13  1  0  0  0  0
  8  9  1  0  0  0  0
  8 11  1  0  0  0  0
  9 10  2  0  0  0  0
 11 12  1  0  0  0  0
 12 13  2  0  0  0  0
M  END
>  <CHROM.1>
-5.78111979,-6.04929655,12.67656769,-0.78542081,1.18382640,-0.30268929

>  <Name>
1eht cryst

>  <RI>
0

>  <Rbt.Current_Directory>
/home/itssahil/PROJECTS/Mol_Feturizer/New_Systems/rnas/1eht

>  <Rbt.Executable>
rbdock ($Id: //depot/dev/client3/rdock/2013.1/src/exe/rbdock.cxx#4 $)

>  <Rbt.Library>
libRbt.so (2013.1, Build901 2013/11/27)

>  <Rbt.Parameter_File>
/export/apps/rDock/src/rDock_2013.1_src/data/scripts/dock_solv.prm

>  <Rbt.Receptor>
prm/pocket_docking_5.prm

>  <SCORE>
-39.2246

>  <SCORE.INTER>
-39.2246

>  <SCORE.INTER.CONST>
1

>  <SCORE.INTER.POLAR>
-1.92958

>  <SCORE.INTER.ROT>
0

>  <SCORE.INTER.SOLV>
9.82909

>  <SCORE.INTER.VDW>
-26.5941

>  <SCORE.INTER.norm>
-3.01727

>  <SCORE.INTRA>
0

>  <SCORE.INTRA.DIHEDRAL>
0

>  <SCORE.INTRA.DIHEDRAL.0>
0

>  <SCORE.INTRA.POLAR>
0

>  <SCORE.INTRA.POLAR.0>
0

>  <SCORE.INTRA.REPUL>
0

>  <SCORE.INTRA.REPUL.0>
0

>  <SCORE.INTRA.SOLV>
0

>  <SCORE.INTRA.SOLV.lig_0>
-12.9768

>  <SCORE.INTRA.VDW>
0

>  <SCORE.INTRA.VDW.0>
0

>  <SCORE.INTRA.norm>
0

>  <SCORE.RESTR>
0

>  <SCORE.RESTR.CAVITY>
0

>  <SCORE.RESTR.norm>
0

>  <SCORE.SYSTEM>
0

>  <SCORE.SYSTEM.CONST>
0

>  <SCORE.SYSTEM.DIHEDRAL>
0

>  <SCORE.SYSTEM.SOLV>
0

>  <SCORE.SYSTEM.norm>
0

>  <SCORE.heavy>
13

>  <SCORE.norm>
-3.01727

>  <RMSD>
0.763

$$$$
1eht cryst
 OpenBabel11021811383D
libRbt.so/2013.1/901 2013/11/27
 13 14  0  0  0  0  0  0  0  0999 V2000
   -4.7723   -7.8787   10.6480 C   0  0  0  0  0  0  0  0  0  0  0  0
   -5.2532   -7.0067   11.6205 N   0  0  0  0  0  0  0  0  0  0  0  0
   -5.6570   -7.5344   12.8197 C   0  0  0  0  0  0  0  0  0  0  0  0
   -5.5657   -8.7577   12.9401 O   0  0  0  0  0  0  0  0  0  0  0  0
   -6.1513   -6.7998   13.8678 N   0  0  0  0  0  0  0  0  0  0  0  0
   -6.5520   -7.3558   15.0716 C   0  0  0  0  0  0  0  0  0  0  0  0
   -6.2092   -5.4634   13.6028 C   0  0  0  0  0  0  0  0  0  0  0  0
   -5.8056   -4.9488   12.4049 C   0  0  0  0  0  0  0  0  0  0  0  0
   -5.2954   -5.6840   11.3195 C   0  0  0  0  0  0  0  0  0  0  0  0
   -4.9187   -5.2697   10.2242 O   0  0  0  0  0  0  0  0  0  0  0  0
   -6.0058   -3.5782   12.4973 N   0  0  0  0  0  0  0  0  0  0  0  0
   -6.5131   -3.3587   13.7335 C   0  0  0  0  0  0  0  0  0  0  0  0
   -6.6555   -4.4463   14.4392 N   0  0  0  0  0  0  0  0  0  0  0  0
  1  2  1  0  0  0  0
  2  9  1  0  0  0  0
  2  3  1  0  0  0  0
  3  5  1  0  0  0  0
  3  4  2  0  0  0  0
  5  6  1  0  0  0  0
  5  7  1  0  0  0  0
  7  8  2  0  0  0  0
  7 13  1  0  0  0  0
  8  9  1  0  0  0  0
  8 11  1  0  0  0  0
  9 10  2  0  0  0  0
 11 12  1  0  0  0  0
 12 13  2  0  0  0  0
M  END
>  <CHROM.1>
-5.78135360,-6.04854811,12.68059824,-0.78929800,1.18469540,-0.29750830

>  <Name>
1eht cryst

>  <RI>
0

>  <Rbt.Current_Directory>
/home/itssahil/PROJECTS/Mol_Feturizer/New_Systems/rnas/1eht

>  <Rbt.Executable>
rbdock ($Id: //depot/dev/client3/rdock/2013.1/src/exe/rbdock.cxx#4 $)

>  <Rbt.Library>
libRbt.so (2013.1, Build901 2013/11/27)

>  <Rbt.Parameter_File>
/export/apps/rDock/src/rDock_2013.1_src/data/scripts/dock_solv.prm

>  <Rbt.Receptor>
prm/pocket_docking_5.prm

>  <SCORE>
-39.2238

>  <SCORE.INTER>
-39.2238

>  <SCORE.INTER.CONST>
1

>  <SCORE.INTER.POLAR>
-1.92634

>  <SCORE.INTER.ROT>
0

>  <SCORE.INTER.SOLV>
9.83464

>  <SCORE.INTER.VDW>
-26.6063

>  <SCORE.INTER.norm>
-3.01721

>  <SCORE.INTRA>
0

>  <SCORE.INTRA.DIHEDRAL>
0

>  <SCORE.INTRA.DIHEDRAL.0>
0

>  <SCORE.INTRA.POLAR>
0

>  <SCORE.INTRA.POLAR.0>
0

>  <SCORE.INTRA.REPUL>
0

>  <SCORE.INTRA.REPUL.0>
0

>  <SCORE.INTRA.SOLV>
0

>  <SCORE.INTRA.SOLV.lig_0>
-12.9768

>  <SCORE.INTRA.VDW>
0

>  <SCORE.INTRA.VDW.0>
0

>  <SCORE.INTRA.norm>
0

>  <SCORE.RESTR>
0

>  <SCORE.RESTR.CAVITY>
0

>  <SCORE.RESTR.norm>
0

>  <SCORE.SYSTEM>
0

>  <SCORE.SYSTEM.CONST>
0

>  <SCORE.SYSTEM.DIHEDRAL>
0

>  <SCORE.SYSTEM.SOLV>
0

>  <SCORE.SYSTEM.norm>
0

>  <SCORE.heavy>
13

>  <SCORE.norm>
-3.01721

>  <RMSD>
0.763

$$$$
1eht cryst
 OpenBabel11021811383D
libRbt.so/2013.1/901 2013/11/27
 13 14  0  0  0  0  0  0  0  0999 V2000
   -4.7718   -7.8793   10.6482 C   0  0  0  0  0  0  0  0  0  0  0  0
   -5.2527   -7.0069   11.6203 N   0  0  0  0  0  0  0  0  0  0  0  0
   -5.6561   -7.5341   12.8199 C   0  0  0  0  0  0  0  0  0  0  0  0
   -5.5643   -8.7572   12.9409 O   0  0  0  0  0  0  0  0  0  0  0  0
   -6.1504   -6.7991   13.8677 N   0  0  0  0  0  0  0  0  0  0  0  0
   -6.5505   -7.3545   15.0719 C   0  0  0  0  0  0  0  0  0  0  0  0
   -6.2088   -5.4629   13.6020 C   0  0  0  0  0  0  0  0  0  0  0  0
   -5.8057   -4.9488   12.4036 C   0  0  0  0  0  0  0  0  0  0  0  0
   -5.2954   -5.6844   11.3186 C   0  0  0  0  0  0  0  0  0  0  0  0
   -4.9192   -5.2706   10.2229 O   0  0  0  0  0  0  0  0  0  0  0  0
   -6.0062   -3.5782   12.4953 N   0  0  0  0  0  0  0  0  0  0  0  0
   -6.5132   -3.3582   13.7315 C   0  0  0  0  0  0  0  0  0  0  0  0
   -6.6552   -4.4454   14.4379 N   0  0  0  0  0  0  0  0  0  0  0  0
  1  2  1  0  0  0  0
  2  9  1  0  0  0  0
  2  3  1  0  0  0  0
  3  5  1  0  0  0  0
  3  4  2  0  0  0  0
  5  6  1  0  0  0  0
  5  7  1  0  0  0  0
  7  8  2  0  0  0  0
  7 13  1  0  0  0  0
  8  9  1  0  0  0  0
  8 11  1  0  0  0  0
  9 10  2  0  0  0  0
 11 12  1  0  0  0  0
 12 13  2  0  0  0  0
M  END
>  <CHROM.1>
-5.78094444,-6.04835453,12.67997007,-0.78829811,1.18484299,-0.29899797

>  <Name>
1eht cryst

>  <RI>
0

>  <Rbt.Current_Directory>
/home/itssahil/PROJECTS/Mol_Feturizer/New_Systems/rnas/1eht

>  <Rbt.Executable>
rbdock ($Id: //depot/dev/client3/rdock/2013.1/src/exe/rbdock.cxx#4 $)

>  <Rbt.Library>
libRbt.so (2013.1, Build901 2013/11/27)

>  <Rbt.Parameter_File>
/export/apps/rDock/src/rDock_2013.1_src/data/scripts/dock_solv.prm

>  <Rbt.Receptor>
prm/pocket_docking_6.prm

>  <SCORE>
-39.2257

>  <SCORE.INTER>
-39.2257

>  <SCORE.INTER.CONST>
1

>  <SCORE.INTER.POLAR>
-1.92649

>  <SCORE.INTER.ROT>
0

>  <SCORE.INTER.SOLV>
9.8338

>  <SCORE.INTER.VDW>
-26.6068

>  <SCORE.INTER.norm>
-3.01736

>  <SCORE.INTRA>
0

>  <SCORE.INTRA.DIHEDRAL>
0

>  <SCORE.INTRA.DIHEDRAL.0>
0

>  <SCORE.INTRA.POLAR>
0

>  <SCORE.INTRA.POLAR.0>
0

>  <SCORE.INTRA.REPUL>
0

>  <SCORE.INTRA.REPUL.0>
0

>  <SCORE.INTRA.SOLV>
0

>  <SCORE.INTRA.SOLV.lig_0>
-12.9768

>  <SCORE.INTRA.VDW>
0

>  <SCORE.INTRA.VDW.0>
0

>  <SCORE.INTRA.norm>
0

>  <SCORE.RESTR>
0

>  <SCORE.RESTR.CAVITY>
0

>  <SCORE.RESTR.norm>
0

>  <SCORE.SYSTEM>
0

>  <SCORE.SYSTEM.CONST>
0

>  <SCORE.SYSTEM.DIHEDRAL>
0

>  <SCORE.SYSTEM.SOLV>
0

>  <SCORE.SYSTEM.norm>
0

>  <SCORE.heavy>
13

>  <SCORE.norm>
-3.01736

>  <RMSD>
0.763

$$$$
1eht cryst
 OpenBabel11021811383D
libRbt.so/2013.1/901 2013/11/27
 13 14  0  0  0  0  0  0  0  0999 V2000
   -4.7781   -7.8843   10.6485 C   0  0  0  0  0  0  0  0  0  0  0  0
   -5.2577   -7.0107   11.6202 N   0  0  0  0  0  0  0  0  0  0  0  0
   -5.6503   -7.5352   12.8246 C   0  0  0  0  0  0  0  0  0  0  0  0
   -5.5508   -8.7574   12.9499 O   0  0  0  0  0  0  0  0  0  0  0  0
   -6.1420   -6.7988   13.8725 N   0  0  0  0  0  0  0  0  0  0  0  0
   -6.5312   -7.3516   15.0816 C   0  0  0  0  0  0  0  0  0  0  0  0
   -6.2096   -5.4640   13.6018 C   0  0  0  0  0  0  0  0  0  0  0  0
   -5.8172   -4.9526   12.3989 C   0  0  0  0  0  0  0  0  0  0  0  0
   -5.3099   -5.6897   11.3135 C   0  0  0  0  0  0  0  0  0  0  0  0
   -4.9430   -5.2782   10.2138 O   0  0  0  0  0  0  0  0  0  0  0  0
   -6.0250   -3.5827   12.4863 N   0  0  0  0  0  0  0  0  0  0  0  0
   -6.5252   -3.3606   13.7249 C   0  0  0  0  0  0  0  0  0  0  0  0
   -6.6564   -4.4457   14.4366 N   0  0  0  0  0  0  0  0  0  0  0  0
  1  2  1  0  0  0  0
  2  9  1  0  0  0  0
  2  3  1  0  0  0  0
  3  5  1  0  0  0  0
  3  4  2  0  0  0  0
  5  6  1  0  0  0  0
  5  7  1  0  0  0  0
  7  8  2  0  0  0  0
  7 13  1  0  0  0  0
  8  9  1  0  0  0  0
  8 11  1  0  0  0  0
  9 10  2  0  0  0  0
 11 12  1  0  0  0  0
 12 13  2  0  0  0  0
M  END
>  <CHROM.1>
-5.78448168,-6.05081667,12.67945928,-0.76861698,1.18928935,-0.32129217

>  <Name>
1eht cryst

>  <RI>
0

>  <Rbt.Current_Directory>
/home/itssahil/PROJECTS/Mol_Feturizer/New_Systems/rnas/1eht

>  <Rbt.Executable>
rbdock ($Id: //depot/dev/client3/rdock/2013.1/src/exe/rbdock.cxx#4 $)

>  <Rbt.Library>
libRbt.so (2013.1, Build901 2013/11/27)

>  <Rbt.Parameter_File>
/export/apps/rDock/src/rDock_2013.1_src/data/scripts/dock_solv.prm

>  <Rbt.Receptor>
prm/pocket_docking_6.prm

>  <SCORE>
-39.2008

>  <SCORE.INTER>
-39.2008

>  <SCORE.INTER.CONST>
1

>  <SCORE.INTER.POLAR>
-1.91789

>  <SCORE.INTER.ROT>
0

>  <SCORE.INTER.SOLV>
9.8088

>  <SCORE.INTER.VDW>
-26.6105

>  <SCORE.INTER.norm>
-3.01544

>  <SCORE.INTRA>
0

>  <SCORE.INTRA.DIHEDRAL>
0

>  <SCORE.INTRA.DIHEDRAL.0>
0

>  <SCORE.INTRA.POLAR>
0

>  <SCORE.INTRA.POLAR.0>
0

>  <SCORE.INTRA.REPUL>
0

>  <SCORE.INTRA.REPUL.0>
0

>  <SCORE.INTRA.SOLV>
0

>  <SCORE.INTRA.SOLV.lig_0>
-12.9768

>  <SCORE.INTRA.VDW>
0

>  <SCORE.INTRA.VDW.0>
0

>  <SCORE.INTRA.norm>
0

>  <SCORE.RESTR>
0

>  <SCORE.RESTR.CAVITY>
0

>  <SCORE.RESTR.norm>
0

>  <SCORE.SYSTEM>
0

>  <SCORE.SYSTEM.CONST>
0

>  <SCORE.SYSTEM.DIHEDRAL>
0

>  <SCORE.SYSTEM.SOLV>
0

>  <SCORE.SYSTEM.norm>
0

>  <SCORE.heavy>
13

>  <SCORE.norm>
-3.01544

>  <RMSD>
0.763

$$$$
1eht cryst
 OpenBabel11021811383D
libRbt.so/2013.1/901 2013/11/27
 13 14  0  0  0  0  0  0  0  0999 V2000
   -4.7717   -7.8773   10.6490 C   0  0  0  0  0  0  0  0  0  0  0  0
   -5.2527   -7.0056   11.6218 N   0  0  0  0  0  0  0  0  0  0  0  0
   -5.6558   -7.5337   12.8211 C   0  0  0  0  0  0  0  0  0  0  0  0
   -5.5638   -8.7569   12.9412 O   0  0  0  0  0  0  0  0  0  0  0  0
   -6.1502   -6.7995   13.8694 N   0  0  0  0  0  0  0  0  0  0  0  0
   -6.5501   -7.3558   15.0733 C   0  0  0  0  0  0  0  0  0  0  0  0
   -6.2088   -5.4631   13.6046 C   0  0  0  0  0  0  0  0  0  0  0  0
   -5.8059   -4.9481   12.4065 C   0  0  0  0  0  0  0  0  0  0  0  0
   -5.2956   -5.6829   11.3210 C   0  0  0  0  0  0  0  0  0  0  0  0
   -4.9195   -5.2683   10.2256 O   0  0  0  0  0  0  0  0  0  0  0  0
   -6.0067   -3.5776   12.4992 N   0  0  0  0  0  0  0  0  0  0  0  0
   -6.5136   -3.3585   13.7356 C   0  0  0  0  0  0  0  0  0  0  0  0
   -6.6553   -4.4463   14.4412 N   0  0  0  0  0  0  0  0  0  0  0  0
  1  2  1  0  0  0  0
  2  9  1  0  0  0  0
  2  3  1  0  0  0  0
  3  5  1  0  0  0  0
  3  4  2  0  0  0  0
  5  6  1  0  0  0  0
  5  7  1  0  0  0  0
  7  8  2  0  0  0  0
  7 13  1  0  0  0  0
  8  9  1  0  0  0  0
  8 11  1  0  0  0  0
  9 10  2  0  0  0  0
 11 12  1  0  0  0  0
 12 13  2  0  0  0  0
M  END
>  <CHROM.1>
-5.78095495,-6.04785939,12.68213552,-0.78776321,1.18487951,-0.29881562

>  <Name>
1eht cryst

>  <RI>
224

>  <Rbt.Current_Directory>
/home/itssahil/PROJECTS/Mol_Feturizer/New_Systems/rnas/1eht

>  <Rbt.Executable>
rbdock ($Id: //depot/dev/client3/rdock/2013.1/src/exe/rbdock.cxx#4 $)

>  <Rbt.Library>
libRbt.so (2013.1, Build901 2013/11/27)

>  <Rbt.Parameter_File>
/export/apps/rDock/src/rDock_2013.1_src/data/scripts/dock_solv.prm

>  <Rbt.Receptor>
prm/pocket_docking_7.prm

>  <SCORE>
-39.2218

>  <SCORE.INTER>
-39.2218

>  <SCORE.INTER.CONST>
1

>  <SCORE.INTER.POLAR>
-1.92415

>  <SCORE.INTER.ROT>
0

>  <SCORE.INTER.SOLV>
9.83571

>  <SCORE.INTER.VDW>
-26.6126

>  <SCORE.INTER.norm>
-3.01706

>  <SCORE.INTRA>
0

>  <SCORE.INTRA.DIHEDRAL>
0

>  <SCORE.INTRA.DIHEDRAL.0>
0

>  <SCORE.INTRA.POLAR>
0

>  <SCORE.INTRA.POLAR.0>
0

>  <SCORE.INTRA.REPUL>
0

>  <SCORE.INTRA.REPUL.0>
0

>  <SCORE.INTRA.SOLV>
0

>  <SCORE.INTRA.SOLV.lig_0>
-12.9768

>  <SCORE.INTRA.VDW>
0

>  <SCORE.INTRA.VDW.0>
0

>  <SCORE.INTRA.norm>
0

>  <SCORE.RESTR>
0

>  <SCORE.RESTR.CAVITY>
0

>  <SCORE.RESTR.norm>
0

>  <SCORE.SYSTEM>
0

>  <SCORE.SYSTEM.CONST>
0

>  <SCORE.SYSTEM.DIHEDRAL>
0

>  <SCORE.SYSTEM.SOLV>
0

>  <SCORE.SYSTEM.norm>
0

>  <SCORE.heavy>
13

>  <SCORE.norm>
-3.01706

>  <RMSD>
0.763

$$$$
1eht cryst
 OpenBabel11021811383D
libRbt.so/2013.1/901 2013/11/27
 13 14  0  0  0  0  0  0  0  0999 V2000
   -4.7683   -7.8789   10.6479 C   0  0  0  0  0  0  0  0  0  0  0  0
   -5.2505   -7.0066   11.6196 N   0  0  0  0  0  0  0  0  0  0  0  0
   -5.6547   -7.5338   12.8189 C   0  0  0  0  0  0  0  0  0  0  0  0
   -5.5626   -8.7570   12.9400 O   0  0  0  0  0  0  0  0  0  0  0  0
   -6.1502   -6.7990   13.8662 N   0  0  0  0  0  0  0  0  0  0  0  0
   -6.5512   -7.3545   15.0701 C   0  0  0  0  0  0  0  0  0  0  0  0
   -6.2087   -5.4628   13.6004 C   0  0  0  0  0  0  0  0  0  0  0  0
   -5.8047   -4.9486   12.4024 C   0  0  0  0  0  0  0  0  0  0  0  0
   -5.2933   -5.6841   11.3178 C   0  0  0  0  0  0  0  0  0  0  0  0
   -4.9162   -5.2702   10.2225 O   0  0  0  0  0  0  0  0  0  0  0  0
   -6.0059   -3.5781   12.4938 N   0  0  0  0  0  0  0  0  0  0  0  0
   -6.5140   -3.3582   13.7296 C   0  0  0  0  0  0  0  0  0  0  0  0
   -6.6562   -4.4454   14.4359 N   0  0  0  0  0  0  0  0  0  0  0  0
  1  2  1  0  0  0  0
  2  9  1  0  0  0  0
  2  3  1  0  0  0  0
  3  5  1  0  0  0  0
  3  4  2  0  0  0  0
  5  6  1  0  0  0  0
  5  7  1  0  0  0  0
  7  8  2  0  0  0  0
  7 13  1  0  0  0  0
  8  9  1  0  0  0  0
  8 11  1  0  0  0  0
  9 10  2  0  0  0  0
 11 12  1  0  0  0  0
 12 13  2  0  0  0  0
M  END
>  <CHROM.1>
-5.77990999,-6.04816466,12.67877854,-0.78816054,1.18389702,-0.29915177

>  <Name>
1eht cryst

>  <RI>
0

>  <Rbt.Current_Directory>
/home/itssahil/PROJECTS/Mol_Feturizer/New_Systems/rnas/1eht

>  <Rbt.Executable>
rbdock ($Id: //depot/dev/client3/rdock/2013.1/src/exe/rbdock.cxx#4 $)

>  <Rbt.Library>
libRbt.so (2013.1, Build901 2013/11/27)

>  <Rbt.Parameter_File>
/export/apps/rDock/src/rDock_2013.1_src/data/scripts/dock_solv.prm

>  <Rbt.Receptor>
prm/pocket_docking_8.prm

>  <SCORE>
-39.2281

>  <SCORE.INTER>
-39.2281

>  <SCORE.INTER.CONST>
1

>  <SCORE.INTER.POLAR>
-1.92816

>  <SCORE.INTER.ROT>
0

>  <SCORE.INTER.SOLV>
9.83495

>  <SCORE.INTER.VDW>
-26.6032

>  <SCORE.INTER.norm>
-3.01755

>  <SCORE.INTRA>
0

>  <SCORE.INTRA.DIHEDRAL>
0

>  <SCORE.INTRA.DIHEDRAL.0>
0

>  <SCORE.INTRA.POLAR>
0

>  <SCORE.INTRA.POLAR.0>
0

>  <SCORE.INTRA.REPUL>
0

>  <SCORE.INTRA.REPUL.0>
0

>  <SCORE.INTRA.SOLV>
0

>  <SCORE.INTRA.SOLV.lig_0>
-12.9768

>  <SCORE.INTRA.VDW>
0

>  <SCORE.INTRA.VDW.0>
0

>  <SCORE.INTRA.norm>
0

>  <SCORE.RESTR>
0

>  <SCORE.RESTR.CAVITY>
0

>  <SCORE.RESTR.norm>
0

>  <SCORE.SYSTEM>
0

>  <SCORE.SYSTEM.CONST>
0

>  <SCORE.SYSTEM.DIHEDRAL>
0

>  <SCORE.SYSTEM.SOLV>
0

>  <SCORE.SYSTEM.norm>
0

>  <SCORE.heavy>
13

>  <SCORE.norm>
-3.01755

>  <RMSD>
0.763

$$$$
1eht cryst
 OpenBabel11021811383D
libRbt.so/2013.1/901 2013/11/27
 13 14  0  0  0  0  0  0  0  0999 V2000
   -4.7755   -7.8848   10.6487 C   0  0  0  0  0  0  0  0  0  0  0  0
   -5.2558   -7.0111   11.6201 N   0  0  0  0  0  0  0  0  0  0  0  0
   -5.6553   -7.5363   12.8218 C   0  0  0  0  0  0  0  0  0  0  0  0
   -5.5610   -8.7590   12.9453 O   0  0  0  0  0  0  0  0  0  0  0  0
   -6.1485   -6.7999   13.8691 N   0  0  0  0  0  0  0  0  0  0  0  0
   -6.5448   -7.3534   15.0755 C   0  0  0  0  0  0  0  0  0  0  0  0
   -6.2101   -5.4644   13.6005 C   0  0  0  0  0  0  0  0  0  0  0  0
   -5.8108   -4.9523   12.4001 C   0  0  0  0  0  0  0  0  0  0  0  0
   -5.3017   -5.6893   11.3155 C   0  0  0  0  0  0  0  0  0  0  0  0
   -4.9288   -5.2773   10.2180 O   0  0  0  0  0  0  0  0  0  0  0  0
   -6.0137   -3.5818   12.4892 N   0  0  0  0  0  0  0  0  0  0  0  0
   -6.5182   -3.3600   13.7261 C   0  0  0  0  0  0  0  0  0  0  0  0
   -6.6564   -4.4459   14.4352 N   0  0  0  0  0  0  0  0  0  0  0  0
  1  2  1  0  0  0  0
  2  9  1  0  0  0  0
  2  3  1  0  0  0  0
  3  5  1  0  0  0  0
  3  4  2  0  0  0  0
  5  6  1  0  0  0  0
  5  7  1  0  0  0  0
  7  8  2  0  0  0  0
  7 13  1  0  0  0  0
  8  9  1  0  0  0  0
  8 11  1  0  0  0  0
  9 10  2  0  0  0  0
 11 12  1  0  0  0  0
 12 13  2  0  0  0  0
M  END
>  <CHROM.1>
-5.78331526,-6.05115328,12.67883976,-0.78163462,1.18653464,-0.30740668

>  <Name>
1eht cryst

>  <RI>
0

>  <Rbt.Current_Directory>
/home/itssahil/PROJECTS/Mol_Feturizer/New_Systems/rnas/1eht

>  <Rbt.Executable>
rbdock ($Id: //depot/dev/client3/rdock/2013.1/src/exe/rbdock.cxx#4 $)

>  <Rbt.Library>
libRbt.so (2013.1, Build901 2013/11/27)

>  <Rbt.Parameter_File>
/export/apps/rDock/src/rDock_2013.1_src/data/scripts/dock_solv.prm

>  <Rbt.Receptor>
prm/blind_docking_100.prm

>  <SCORE>
-39.2216

>  <SCORE.INTER>
-39.2216

>  <SCORE.INTER.CONST>
1

>  <SCORE.INTER.POLAR>
-1.92573

>  <SCORE.INTER.ROT>
0

>  <SCORE.INTER.SOLV>
9.8198

>  <SCORE.INTER.VDW>
-26.6019

>  <SCORE.INTER.norm>
-3.01705

>  <SCORE.INTRA>
0

>  <SCORE.INTRA.DIHEDRAL>
0

>  <SCORE.INTRA.DIHEDRAL.0>
0

>  <SCORE.INTRA.POLAR>
0

>  <SCORE.INTRA.POLAR.0>
0

>  <SCORE.INTRA.REPUL>
0

>  <SCORE.INTRA.REPUL.0>
0

>  <SCORE.INTRA.SOLV>
0

>  <SCORE.INTRA.SOLV.lig_0>
-12.9768

>  <SCORE.INTRA.VDW>
0

>  <SCORE.INTRA.VDW.0>
0

>  <SCORE.INTRA.norm>
0

>  <SCORE.RESTR>
0

>  <SCORE.RESTR.CAVITY>
0

>  <SCORE.RESTR.norm>
0

>  <SCORE.SYSTEM>
0

>  <SCORE.SYSTEM.CONST>
0

>  <SCORE.SYSTEM.DIHEDRAL>
0

>  <SCORE.SYSTEM.SOLV>
0

>  <SCORE.SYSTEM.norm>
0

>  <SCORE.heavy>
13

>  <SCORE.norm>
-3.01705

>  <RMSD>
0.764

$$$$
1eht cryst
 OpenBabel11021811383D
libRbt.so/2013.1/901 2013/11/27
 13 14  0  0  0  0  0  0  0  0999 V2000
   -4.7751   -7.8855   10.6481 C   0  0  0  0  0  0  0  0  0  0  0  0
   -5.2558   -7.0118   11.6193 N   0  0  0  0  0  0  0  0  0  0  0  0
   -5.6549   -7.5370   12.8212 C   0  0  0  0  0  0  0  0  0  0  0  0
   -5.5600   -8.7596   12.9449 O   0  0  0  0  0  0  0  0  0  0  0  0
   -6.1485   -6.8006   13.8683 N   0  0  0  0  0  0  0  0  0  0  0  0
   -6.5444   -7.3540   15.0749 C   0  0  0  0  0  0  0  0  0  0  0  0
   -6.2107   -5.4652   13.5995 C   0  0  0  0  0  0  0  0  0  0  0  0
   -5.8117   -4.9531   12.3989 C   0  0  0  0  0  0  0  0  0  0  0  0
   -5.3024   -5.6902   11.3144 C   0  0  0  0  0  0  0  0  0  0  0  0
   -4.9297   -5.2782   10.2168 O   0  0  0  0  0  0  0  0  0  0  0  0
   -6.0153   -3.5827   12.4877 N   0  0  0  0  0  0  0  0  0  0  0  0
   -6.5199   -3.3609   13.7246 C   0  0  0  0  0  0  0  0  0  0  0  0
   -6.6575   -4.4467   14.4340 N   0  0  0  0  0  0  0  0  0  0  0  0
  1  2  1  0  0  0  0
  2  9  1  0  0  0  0
  2  3  1  0  0  0  0
  3  5  1  0  0  0  0
  3  4  2  0  0  0  0
  5  6  1  0  0  0  0
  5  7  1  0  0  0  0
  7  8  2  0  0  0  0
  7 13  1  0  0  0  0
  8  9  1  0  0  0  0
  8 11  1  0  0  0  0
  9 10  2  0  0  0  0
 11 12  1  0  0  0  0
 12 13  2  0  0  0  0
M  END
>  <CHROM.1>
-5.78370448,-6.05192517,12.67786999,-0.78032029,1.18644184,-0.30885377

>  <Name>
1eht cryst

>  <RI>
0

>  <Rbt.Current_Directory>
/home/itssahil/PROJECTS/Mol_Feturizer/New_Systems/rnas/1eht

>  <Rbt.Executable>
rbdock ($Id: //depot/dev/client3/rdock/2013.1/src/exe/rbdock.cxx#4 $)

>  <Rbt.Library>
libRbt.so (2013.1, Build901 2013/11/27)

>  <Rbt.Parameter_File>
/export/apps/rDock/src/rDock_2013.1_src/data/scripts/dock_solv.prm

>  <Rbt.Receptor>
prm/blind_docking_100.prm

>  <SCORE>
-39.2205

>  <SCORE.INTER>
-39.2205

>  <SCORE.INTER.CONST>
1

>  <SCORE.INTER.POLAR>
-1.92643

>  <SCORE.INTER.ROT>
0

>  <SCORE.INTER.SOLV>
9.81699

>  <SCORE.INTER.VDW>
-26.5979

>  <SCORE.INTER.norm>
-3.01696

>  <SCORE.INTRA>
0

>  <SCORE.INTRA.DIHEDRAL>
0

>  <SCORE.INTRA.DIHEDRAL.0>
0

>  <SCORE.INTRA.POLAR>
0

>  <SCORE.INTRA.POLAR.0>
0

>  <SCORE.INTRA.REPUL>
0

>  <SCORE.INTRA.REPUL.0>
0

>  <SCORE.INTRA.SOLV>
0

>  <SCORE.INTRA.SOLV.lig_0>
-12.9768

>  <SCORE.INTRA.VDW>
0

>  <SCORE.INTRA.VDW.0>
0

>  <SCORE.INTRA.norm>
0

>  <SCORE.RESTR>
0

>  <SCORE.RESTR.CAVITY>
0

>  <SCORE.RESTR.norm>
0

>  <SCORE.SYSTEM>
0

>  <SCORE.SYSTEM.CONST>
0

>  <SCORE.SYSTEM.DIHEDRAL>
0

>  <SCORE.SYSTEM.SOLV>
0

>  <SCORE.SYSTEM.norm>
0

>  <SCORE.heavy>
13

>  <SCORE.norm>
-3.01696

>  <RMSD>
0.764

$$$$
1eht cryst
 OpenBabel11021811383D
libRbt.so/2013.1/901 2013/11/27
 13 14  0  0  0  0  0  0  0  0999 V2000
   -4.7750   -7.8800   10.6482 C   0  0  0  0  0  0  0  0  0  0  0  0
   -5.2549   -7.0076   11.6208 N   0  0  0  0  0  0  0  0  0  0  0  0
   -5.6600   -7.5351   12.8197 C   0  0  0  0  0  0  0  0  0  0  0  0
   -5.5706   -8.7586   12.9396 O   0  0  0  0  0  0  0  0  0  0  0  0
   -6.1536   -6.8002   13.8679 N   0  0  0  0  0  0  0  0  0  0  0  0
   -6.5555   -7.3560   15.0714 C   0  0  0  0  0  0  0  0  0  0  0  0
   -6.2093   -5.4636   13.6034 C   0  0  0  0  0  0  0  0  0  0  0  0
   -5.8045   -4.9492   12.4058 C   0  0  0  0  0  0  0  0  0  0  0  0
   -5.2950   -5.6847   11.3204 C   0  0  0  0  0  0  0  0  0  0  0  0
   -4.9172   -5.2706   10.2253 O   0  0  0  0  0  0  0  0  0  0  0  0
   -6.0026   -3.5783   12.4986 N   0  0  0  0  0  0  0  0  0  0  0  0
   -6.5099   -3.3585   13.7347 C   0  0  0  0  0  0  0  0  0  0  0  0
   -6.6544   -4.4461   14.4400 N   0  0  0  0  0  0  0  0  0  0  0  0
  1  2  1  0  0  0  0
  2  9  1  0  0  0  0
  2  3  1  0  0  0  0
  3  5  1  0  0  0  0
  3  4  2  0  0  0  0
  5  6  1  0  0  0  0
  5  7  1  0  0  0  0
  7  8  2  0  0  0  0
  7 13  1  0  0  0  0
  8  9  1  0  0  0  0
  8 11  1  0  0  0  0
  9 10  2  0  0  0  0
 11 12  1  0  0  0  0
 12 13  2  0  0  0  0
M  END
>  <CHROM.1>
-5.78200281,-6.04906685,12.68109078,-0.79352048,1.18478665,-0.29322248

>  <Name>
1eht cryst

>  <RI>
0

>  <Rbt.Current_Directory>
/home/itssahil/PROJECTS/Mol_Feturizer/New_Systems/rnas/1eht

>  <Rbt.Executable>
rbdock ($Id: //depot/dev/client3/rdock/2013.1/src/exe/rbdock.cxx#4 $)

>  <Rbt.Library>
libRbt.so (2013.1, Build901 2013/11/27)

>  <Rbt.Parameter_File>
/export/apps/rDock/src/rDock_2013.1_src/data/scripts/dock_solv.prm

>  <Rbt.Receptor>
prm/blind_docking_20.prm

>  <SCORE>
-39.2253

>  <SCORE.INTER>
-39.2253

>  <SCORE.INTER.CONST>
1

>  <SCORE.INTER.POLAR>
-1.92773

>  <SCORE.INTER.ROT>
0

>  <SCORE.INTER.SOLV>
9.83617

>  <SCORE.INTER.VDW>
-26.6032

>  <SCORE.INTER.norm>
-3.01733

>  <SCORE.INTRA>
0

>  <SCORE.INTRA.DIHEDRAL>
0

>  <SCORE.INTRA.DIHEDRAL.0>
0

>  <SCORE.INTRA.POLAR>
0

>  <SCORE.INTRA.POLAR.0>
0

>  <SCORE.INTRA.REPUL>
0

>  <SCORE.INTRA.REPUL.0>
0

>  <SCORE.INTRA.SOLV>
0

>  <SCORE.INTRA.SOLV.lig_0>
-12.9768

>  <SCORE.INTRA.VDW>
0

>  <SCORE.INTRA.VDW.0>
0

>  <SCORE.INTRA.norm>
0

>  <SCORE.RESTR>
0

>  <SCORE.RESTR.CAVITY>
0

>  <SCORE.RESTR.norm>
0

>  <SCORE.SYSTEM>
0

>  <SCORE.SYSTEM.CONST>
0

>  <SCORE.SYSTEM.DIHEDRAL>
0

>  <SCORE.SYSTEM.SOLV>
0

>  <SCORE.SYSTEM.norm>
0

>  <SCORE.heavy>
13

>  <SCORE.norm>
-3.01733

>  <RMSD>
0.764

$$$$
1eht cryst
 OpenBabel11021811383D
libRbt.so/2013.1/901 2013/11/27
 13 14  0  0  0  0  0  0  0  0999 V2000
   -4.7781   -7.8841   10.6500 C   0  0  0  0  0  0  0  0  0  0  0  0
   -5.2575   -7.0103   11.6218 N   0  0  0  0  0  0  0  0  0  0  0  0
   -5.6515   -7.5349   12.8256 C   0  0  0  0  0  0  0  0  0  0  0  0
   -5.5535   -8.7572   12.9505 O   0  0  0  0  0  0  0  0  0  0  0  0
   -6.1431   -6.7983   13.8735 N   0  0  0  0  0  0  0  0  0  0  0  0
   -6.5338   -7.3511   15.0821 C   0  0  0  0  0  0  0  0  0  0  0  0
   -6.2091   -5.4633   13.6033 C   0  0  0  0  0  0  0  0  0  0  0  0
   -5.8152   -4.9519   12.4008 C   0  0  0  0  0  0  0  0  0  0  0  0
   -5.3079   -5.6891   11.3155 C   0  0  0  0  0  0  0  0  0  0  0  0
   -4.9398   -5.2776   10.2162 O   0  0  0  0  0  0  0  0  0  0  0  0
   -6.0215   -3.5818   12.4886 N   0  0  0  0  0  0  0  0  0  0  0  0
   -6.5224   -3.3596   13.7269 C   0  0  0  0  0  0  0  0  0  0  0  0
   -6.6553   -4.4449   14.4381 N   0  0  0  0  0  0  0  0  0  0  0  0
  1  2  1  0  0  0  0
  2  9  1  0  0  0  0
  2  3  1  0  0  0  0
  3  5  1  0  0  0  0
  3  4  2  0  0  0  0
  5  6  1  0  0  0  0
  5  7  1  0  0  0  0
  7  8  2  0  0  0  0
  7 13  1  0  0  0  0
  8  9  1  0  0  0  0
  8 11  1  0  0  0  0
  9 10  2  0  0  0  0
 11 12  1  0  0  0  0
 12 13  2  0  0  0  0
M  END
>  <CHROM.1>
-5.78392132,-6.05027219,12.68096514,-0.77211739,1.18895037,-0.31764656

>  <Name>
1eht cryst

>  <RI>
0

>  <Rbt.Current_Directory>
/home/itssahil/PROJECTS/Mol_Feturizer/New_Systems/rnas/1eht

>  <Rbt.Executable>
rbdock ($Id: //depot/dev/client3/rdock/2013.1/src/exe/rbdock.cxx#4 $)

>  <Rbt.Library>
libRbt.so (2013.1, Build901 2013/11/27)

>  <Rbt.Parameter_File>
/export/apps/rDock/src/rDock_2013.1_src/data/scripts/dock_solv.prm

>  <Rbt.Receptor>
prm/blind_docking_60.prm

>  <SCORE>
-39.2061

>  <SCORE.INTER>
-39.2061

>  <SCORE.INTER.CONST>
1

>  <SCORE.INTER.POLAR>
-1.91835

>  <SCORE.INTER.ROT>
0

>  <SCORE.INTER.SOLV>
9.81307

>  <SCORE.INTER.VDW>
-26.6139

>  <SCORE.INTER.norm>
-3.01586

>  <SCORE.INTRA>
0

>  <SCORE.INTRA.DIHEDRAL>
0

>  <SCORE.INTRA.DIHEDRAL.0>
0

>  <SCORE.INTRA.POLAR>
0

>  <SCORE.INTRA.POLAR.0>
0

>  <SCORE.INTRA.REPUL>
0

>  <SCORE.INTRA.REPUL.0>
0

>  <SCORE.INTRA.SOLV>
0

>  <SCORE.INTRA.SOLV.lig_0>
-12.9768

>  <SCORE.INTRA.VDW>
0

>  <SCORE.INTRA.VDW.0>
0

>  <SCORE.INTRA.norm>
0

>  <SCORE.RESTR>
0

>  <SCORE.RESTR.CAVITY>
0

>  <SCORE.RESTR.norm>
0

>  <SCORE.SYSTEM>
0

>  <SCORE.SYSTEM.CONST>
0

>  <SCORE.SYSTEM.DIHEDRAL>
0

>  <SCORE.SYSTEM.SOLV>
0

>  <SCORE.SYSTEM.norm>
0

>  <SCORE.heavy>
13

>  <SCORE.norm>
-3.01586

>  <RMSD>
0.764

$$$$
1eht cryst
 OpenBabel11021811383D
libRbt.so/2013.1/901 2013/11/27
 13 14  0  0  0  0  0  0  0  0999 V2000
   -4.7716   -7.8831   10.6479 C   0  0  0  0  0  0  0  0  0  0  0  0
   -5.2532   -7.0098   11.6190 N   0  0  0  0  0  0  0  0  0  0  0  0
   -5.6569   -7.5359   12.8190 C   0  0  0  0  0  0  0  0  0  0  0  0
   -5.5650   -8.7589   12.9412 O   0  0  0  0  0  0  0  0  0  0  0  0
   -6.1518   -6.8000   13.8658 N   0  0  0  0  0  0  0  0  0  0  0  0
   -6.5523   -7.3543   15.0705 C   0  0  0  0  0  0  0  0  0  0  0  0
   -6.2103   -5.4640   13.5988 C   0  0  0  0  0  0  0  0  0  0  0  0
   -5.8068   -4.9510   12.4001 C   0  0  0  0  0  0  0  0  0  0  0  0
   -5.2960   -5.6876   11.3160 C   0  0  0  0  0  0  0  0  0  0  0  0
   -4.9193   -5.2748   10.2201 O   0  0  0  0  0  0  0  0  0  0  0  0
   -6.0076   -3.5804   12.4904 N   0  0  0  0  0  0  0  0  0  0  0  0
   -6.5152   -3.3592   13.7262 C   0  0  0  0  0  0  0  0  0  0  0  0
   -6.6572   -4.4458   14.4335 N   0  0  0  0  0  0  0  0  0  0  0  0
  1  2  1  0  0  0  0
  2  9  1  0  0  0  0
  2  3  1  0  0  0  0
  3  5  1  0  0  0  0
  3  4  2  0  0  0  0
  5  6  1  0  0  0  0
  5  7  1  0  0  0  0
  7  8  2  0  0  0  0
  7 13  1  0  0  0  0
  8  9  1  0  0  0  0
  8 11  1  0  0  0  0
  9 10  2  0  0  0  0
 11 12  1  0  0  0  0
 12 13  2  0  0  0  0
M  END
>  <CHROM.1>
-5.78197238,-6.05031448,12.67753973,-0.78815761,1.18439421,-0.30010683

>  <Name>
1eht cryst

>  <RI>
0

>  <Rbt.Current_Directory>
/home/itssahil/PROJECTS/Mol_Feturizer/New_Systems/rnas/1eht

>  <Rbt.Executable>
rbdock ($Id: //depot/dev/client3/rdock/2013.1/src/exe/rbdock.cxx#4 $)

>  <Rbt.Library>
libRbt.so (2013.1, Build901 2013/11/27)

>  <Rbt.Parameter_File>
/export/apps/rDock/src/rDock_2013.1_src/data/scripts/dock_solv.prm

>  <Rbt.Receptor>
prm/blind_docking_60.prm

>  <SCORE>
-39.2272

>  <SCORE.INTER>
-39.2272

>  <SCORE.INTER.CONST>
1

>  <SCORE.INTER.POLAR>
-1.93016

>  <SCORE.INTER.ROT>
0

>  <SCORE.INTER.SOLV>
9.82818

>  <SCORE.INTER.VDW>
-26.5937

>  <SCORE.INTER.norm>
-3.01748

>  <SCORE.INTRA>
0

>  <SCORE.INTRA.DIHEDRAL>
0

>  <SCORE.INTRA.DIHEDRAL.0>
0

>  <SCORE.INTRA.POLAR>
0

>  <SCORE.INTRA.POLAR.0>
0

>  <SCORE.INTRA.REPUL>
0

>  <SCORE.INTRA.REPUL.0>
0

>  <SCORE.INTRA.SOLV>
0

>  <SCORE.INTRA.SOLV.lig_0>
-12.9768

>  <SCORE.INTRA.VDW>
0

>  <SCORE.INTRA.VDW.0>
0

>  <SCORE.INTRA.norm>
0

>  <SCORE.RESTR>
0

>  <SCORE.RESTR.CAVITY>
0

>  <SCORE.RESTR.norm>
0

>  <SCORE.SYSTEM>
0

>  <SCORE.SYSTEM.CONST>
0

>  <SCORE.SYSTEM.DIHEDRAL>
0

>  <SCORE.SYSTEM.SOLV>
0

>  <SCORE.SYSTEM.norm>
0

>  <SCORE.heavy>
13

>  <SCORE.norm>
-3.01748

>  <RMSD>
0.764

$$$$
1eht cryst
 OpenBabel11021811383D
libRbt.so/2013.1/901 2013/11/27
 13 14  0  0  0  0  0  0  0  0999 V2000
   -4.7823   -7.8883   10.6488 C   0  0  0  0  0  0  0  0  0  0  0  0
   -5.2610   -7.0138   11.6202 N   0  0  0  0  0  0  0  0  0  0  0  0
   -5.6516   -7.5372   12.8257 C   0  0  0  0  0  0  0  0  0  0  0  0
   -5.5514   -8.7592   12.9522 O   0  0  0  0  0  0  0  0  0  0  0  0
   -6.1423   -6.7999   13.8735 N   0  0  0  0  0  0  0  0  0  0  0  0
   -6.5296   -7.3515   15.0837 C   0  0  0  0  0  0  0  0  0  0  0  0
   -6.2110   -5.4654   13.6014 C   0  0  0  0  0  0  0  0  0  0  0  0
   -5.8204   -4.9551   12.3973 C   0  0  0  0  0  0  0  0  0  0  0  0
   -5.3142   -5.6931   11.3121 C   0  0  0  0  0  0  0  0  0  0  0  0
   -4.9490   -5.2827   10.2114 O   0  0  0  0  0  0  0  0  0  0  0  0
   -6.0287   -3.5853   12.4836 N   0  0  0  0  0  0  0  0  0  0  0  0
   -6.5274   -3.3620   13.7226 C   0  0  0  0  0  0  0  0  0  0  0  0
   -6.6571   -4.4464   14.4356 N   0  0  0  0  0  0  0  0  0  0  0  0
  1  2  1  0  0  0  0
  2  9  1  0  0  0  0
  2  3  1  0  0  0  0
  3  5  1  0  0  0  0
  3  4  2  0  0  0  0
  5  6  1  0  0  0  0
  5  7  1  0  0  0  0
  7  8  2  0  0  0  0
  7 13  1  0  0  0  0
  8  9  1  0  0  0  0
  8 11  1  0  0  0  0
  9 10  2  0  0  0  0
 11 12  1  0  0  0  0
 12 13  2  0  0  0  0
M  END
>  <CHROM.1>
-5.78676761,-6.05302764,12.67910131,-0.76621525,1.19041905,-0.32463022

>  <Name>
1eht cryst

>  <RI>
0

>  <Rbt.Current_Directory>
/home/itssahil/PROJECTS/Mol_Feturizer/New_Systems/rnas/1eht

>  <Rbt.Executable>
rbdock ($Id: //depot/dev/client3/rdock/2013.1/src/exe/rbdock.cxx#4 $)

>  <Rbt.Library>
libRbt.so (2013.1, Build901 2013/11/27)

>  <Rbt.Parameter_File>
/export/apps/rDock/src/rDock_2013.1_src/data/scripts/dock_solv.prm

>  <Rbt.Receptor>
prm/blind_docking_60.prm

>  <SCORE>
-39.1936

>  <SCORE.INTER>
-39.1936

>  <SCORE.INTER.CONST>
1

>  <SCORE.INTER.POLAR>
-1.91785

>  <SCORE.INTER.ROT>
0

>  <SCORE.INTER.SOLV>
9.79998

>  <SCORE.INTER.VDW>
-26.6029

>  <SCORE.INTER.norm>
-3.0149

>  <SCORE.INTRA>
0

>  <SCORE.INTRA.DIHEDRAL>
0

>  <SCORE.INTRA.DIHEDRAL.0>
0

>  <SCORE.INTRA.POLAR>
0

>  <SCORE.INTRA.POLAR.0>
0

>  <SCORE.INTRA.REPUL>
0

>  <SCORE.INTRA.REPUL.0>
0

>  <SCORE.INTRA.SOLV>
0

>  <SCORE.INTRA.SOLV.lig_0>
-12.9768

>  <SCORE.INTRA.VDW>
0

>  <SCORE.INTRA.VDW.0>
0

>  <SCORE.INTRA.norm>
0

>  <SCORE.RESTR>
0

>  <SCORE.RESTR.CAVITY>
0

>  <SCORE.RESTR.norm>
0

>  <SCORE.SYSTEM>
0

>  <SCORE.SYSTEM.CONST>
0

>  <SCORE.SYSTEM.DIHEDRAL>
0

>  <SCORE.SYSTEM.SOLV>
0

>  <SCORE.SYSTEM.norm>
0

>  <SCORE.heavy>
13

>  <SCORE.norm>
-3.0149

>  <RMSD>
0.764

$$$$
1eht cryst
 OpenBabel11021811383D
libRbt.so/2013.1/901 2013/11/27
 13 14  0  0  0  0  0  0  0  0999 V2000
   -4.7705   -7.8865   10.6478 C   0  0  0  0  0  0  0  0  0  0  0  0
   -5.2543   -7.0110   11.6157 N   0  0  0  0  0  0  0  0  0  0  0  0
   -5.6465   -7.5324   12.8215 C   0  0  0  0  0  0  0  0  0  0  0  0
   -5.5431   -8.7537   12.9515 O   0  0  0  0  0  0  0  0  0  0  0  0
   -6.1420   -6.7938   13.8662 N   0  0  0  0  0  0  0  0  0  0  0  0
   -6.5308   -7.3435   15.0768 C   0  0  0  0  0  0  0  0  0  0  0  0
   -6.2139   -5.4603   13.5905 C   0  0  0  0  0  0  0  0  0  0  0  0
   -5.8217   -4.9519   12.3861 C   0  0  0  0  0  0  0  0  0  0  0  0
   -5.3105   -5.6913   11.3041 C   0  0  0  0  0  0  0  0  0  0  0  0
   -4.9438   -5.2826   10.2033 O   0  0  0  0  0  0  0  0  0  0  0  0
   -6.0342   -3.5825   12.4683 N   0  0  0  0  0  0  0  0  0  0  0  0
   -6.5367   -3.3575   13.7054 C   0  0  0  0  0  0  0  0  0  0  0  0
   -6.6651   -4.4404   14.4209 N   0  0  0  0  0  0  0  0  0  0  0  0
  1  2  1  0  0  0  0
  2  9  1  0  0  0  0
  2  3  1  0  0  0  0
  3  5  1  0  0  0  0
  3  4  2  0  0  0  0
  5  6  1  0  0  0  0
  5  7  1  0  0  0  0
  7  8  2  0  0  0  0
  7 13  1  0  0  0  0
  8  9  1  0  0  0  0
  8 11  1  0  0  0  0
  9 10  2  0  0  0  0
 11 12  1  0  0  0  0
 12 13  2  0  0  0  0
M  END
>  <CHROM.1>
-5.78558536,-6.04902836,12.67078961,-0.76102656,1.18705212,-0.33201359

>  <Name>
1eht cryst

>  <RI>
0

>  <Rbt.Current_Directory>
/home/itssahil/PROJECTS/Mol_Feturizer/New_Systems/rnas/1eht

>  <Rbt.Executable>
rbdock ($Id: //depot/dev/client3/rdock/2013.1/src/exe/rbdock.cxx#4 $)

>  <Rbt.Library>
libRbt.so (2013.1, Build901 2013/11/27)

>  <Rbt.Parameter_File>
/export/apps/rDock/src/rDock_2013.1_src/data/scripts/dock_solv.prm

>  <Rbt.Receptor>
prm/blind_docking_60.prm

>  <SCORE>
-39.1799

>  <SCORE.INTER>
-39.1799

>  <SCORE.INTER.CONST>
1

>  <SCORE.INTER.POLAR>
-1.92277

>  <SCORE.INTER.ROT>
0

>  <SCORE.INTER.SOLV>
9.80293

>  <SCORE.INTER.VDW>
-26.5783

>  <SCORE.INTER.norm>
-3.01384

>  <SCORE.INTRA>
0

>  <SCORE.INTRA.DIHEDRAL>
0

>  <SCORE.INTRA.DIHEDRAL.0>
0

>  <SCORE.INTRA.POLAR>
0

>  <SCORE.INTRA.POLAR.0>
0

>  <SCORE.INTRA.REPUL>
0

>  <SCORE.INTRA.REPUL.0>
0

>  <SCORE.INTRA.SOLV>
0

>  <SCORE.INTRA.SOLV.lig_0>
-12.9768

>  <SCORE.INTRA.VDW>
0

>  <SCORE.INTRA.VDW.0>
0

>  <SCORE.INTRA.norm>
0

>  <SCORE.RESTR>
0

>  <SCORE.RESTR.CAVITY>
0

>  <SCORE.RESTR.norm>
0

>  <SCORE.SYSTEM>
0

>  <SCORE.SYSTEM.CONST>
0

>  <SCORE.SYSTEM.DIHEDRAL>
0

>  <SCORE.SYSTEM.SOLV>
0

>  <SCORE.SYSTEM.norm>
0

>  <SCORE.heavy>
13

>  <SCORE.norm>
-3.01384

>  <RMSD>
0.764

$$$$
1eht cryst
 OpenBabel11021811383D
libRbt.so/2013.1/901 2013/11/27
 13 14  0  0  0  0  0  0  0  0999 V2000
   -4.7615   -7.8824   10.6483 C   0  0  0  0  0  0  0  0  0  0  0  0
   -5.2478   -7.0079   11.6159 N   0  0  0  0  0  0  0  0  0  0  0  0
   -5.6507   -7.5316   12.8172 C   0  0  0  0  0  0  0  0  0  0  0  0
   -5.5537   -8.7538   12.9437 O   0  0  0  0  0  0  0  0  0  0  0  0
   -6.1499   -6.7943   13.8610 N   0  0  0  0  0  0  0  0  0  0  0  0
   -6.5494   -7.3462   15.0671 C   0  0  0  0  0  0  0  0  0  0  0  0
   -6.2137   -5.4595   13.5894 C   0  0  0  0  0  0  0  0  0  0  0  0
   -5.8111   -4.9489   12.3894 C   0  0  0  0  0  0  0  0  0  0  0  0
   -5.2959   -5.6869   11.3084 C   0  0  0  0  0  0  0  0  0  0  0  0
   -4.9198   -5.2762   10.2115 O   0  0  0  0  0  0  0  0  0  0  0  0
   -6.0179   -3.5788   12.4748 N   0  0  0  0  0  0  0  0  0  0  0  0
   -6.5277   -3.3556   13.7093 C   0  0  0  0  0  0  0  0  0  0  0  0
   -6.6660   -4.4404   14.4202 N   0  0  0  0  0  0  0  0  0  0  0  0
  1  2  1  0  0  0  0
  2  9  1  0  0  0  0
  2  3  1  0  0  0  0
  3  5  1  0  0  0  0
  3  4  2  0  0  0  0
  5  6  1  0  0  0  0
  5  7  1  0  0  0  0
  7  8  2  0  0  0  0
  7 13  1  0  0  0  0
  8  9  1  0  0  0  0
  8 11  1  0  0  0  0
  9 10  2  0  0  0  0
 11 12  1  0  0  0  0
 12 13  2  0  0  0  0
M  END
>  <CHROM.1>
-5.78190312,-6.04709003,12.67060300,-0.77833364,1.18204487,-0.31257887

>  <Name>
1eht cryst

>  <RI>
0

>  <Rbt.Current_Directory>
/home/itssahil/PROJECTS/Mol_Feturizer/New_Systems/rnas/1eht

>  <Rbt.Executable>
rbdock ($Id: //depot/dev/client3/rdock/2013.1/src/exe/rbdock.cxx#4 $)

>  <Rbt.Library>
libRbt.so (2013.1, Build901 2013/11/27)

>  <Rbt.Parameter_File>
/export/apps/rDock/src/rDock_2013.1_src/data/scripts/dock_solv.prm

>  <Rbt.Receptor>
prm/pocket_docking_2.prm

>  <SCORE>
-39.181

>  <SCORE.INTER>
-39.181

>  <SCORE.INTER.CONST>
1

>  <SCORE.INTER.POLAR>
-1.93233

>  <SCORE.INTER.ROT>
0

>  <SCORE.INTER.SOLV>
9.82503

>  <SCORE.INTER.VDW>
-26.5546

>  <SCORE.INTER.norm>
-3.01392

>  <SCORE.INTRA>
0

>  <SCORE.INTRA.DIHEDRAL>
0

>  <SCORE.INTRA.DIHEDRAL.0>
0

>  <SCORE.INTRA.POLAR>
0

>  <SCORE.INTRA.POLAR.0>
0

>  <SCORE.INTRA.REPUL>
0

>  <SCORE.INTRA.REPUL.0>
0

>  <SCORE.INTRA.SOLV>
0

>  <SCORE.INTRA.SOLV.lig_0>
-12.9768

>  <SCORE.INTRA.VDW>
0

>  <SCORE.INTRA.VDW.0>
0

>  <SCORE.INTRA.norm>
0

>  <SCORE.RESTR>
0

>  <SCORE.RESTR.CAVITY>
0

>  <SCORE.RESTR.norm>
0

>  <SCORE.SYSTEM>
0

>  <SCORE.SYSTEM.CONST>
0

>  <SCORE.SYSTEM.DIHEDRAL>
0

>  <SCORE.SYSTEM.SOLV>
0

>  <SCORE.SYSTEM.norm>
0

>  <SCORE.heavy>
13

>  <SCORE.norm>
-3.01392

>  <RMSD>
0.764

$$$$
1eht cryst
 OpenBabel11021811383D
libRbt.so/2013.1/901 2013/11/27
 13 14  0  0  0  0  0  0  0  0999 V2000
   -4.7736   -7.8805   10.6494 C   0  0  0  0  0  0  0  0  0  0  0  0
   -5.2540   -7.0077   11.6214 N   0  0  0  0  0  0  0  0  0  0  0  0
   -5.6543   -7.5341   12.8224 C   0  0  0  0  0  0  0  0  0  0  0  0
   -5.5606   -8.7570   12.9446 O   0  0  0  0  0  0  0  0  0  0  0  0
   -6.1478   -6.7987   13.8702 N   0  0  0  0  0  0  0  0  0  0  0  0
   -6.5449   -7.3533   15.0759 C   0  0  0  0  0  0  0  0  0  0  0  0
   -6.2087   -5.4628   13.6031 C   0  0  0  0  0  0  0  0  0  0  0  0
   -5.8086   -4.9495   12.4035 C   0  0  0  0  0  0  0  0  0  0  0  0
   -5.2993   -5.6856   11.3183 C   0  0  0  0  0  0  0  0  0  0  0  0
   -4.9256   -5.2725   10.2215 O   0  0  0  0  0  0  0  0  0  0  0  0
   -6.0110   -3.5791   12.4940 N   0  0  0  0  0  0  0  0  0  0  0  0
   -6.5160   -3.3585   13.7309 C   0  0  0  0  0  0  0  0  0  0  0  0
   -6.6550   -4.4451   14.4387 N   0  0  0  0  0  0  0  0  0  0  0  0
  1  2  1  0  0  0  0
  2  9  1  0  0  0  0
  2  3  1  0  0  0  0
  3  5  1  0  0  0  0
  3  4  2  0  0  0  0
  5  6  1  0  0  0  0
  5  7  1  0  0  0  0
  7  8  2  0  0  0  0
  7 13  1  0  0  0  0
  8  9  1  0  0  0  0
  8 11  1  0  0  0  0
  9 10  2  0  0  0  0
 11 12  1  0  0  0  0
 12 13  2  0  0  0  0
M  END
>  <CHROM.1>
-5.78169158,-6.04872793,12.68100049,-0.78304122,1.18618096,-0.30500215

>  <Name>
1eht cryst

>  <RI>
0

>  <Rbt.Current_Directory>
/home/itssahil/PROJECTS/Mol_Feturizer/New_Systems/rnas/1eht

>  <Rbt.Executable>
rbdock ($Id: //depot/dev/client3/rdock/2013.1/src/exe/rbdock.cxx#4 $)

>  <Rbt.Library>
libRbt.so (2013.1, Build901 2013/11/27)

>  <Rbt.Parameter_File>
/export/apps/rDock/src/rDock_2013.1_src/data/scripts/dock_solv.prm

>  <Rbt.Receptor>
prm/pocket_docking_2.prm

>  <SCORE>
-39.2214

>  <SCORE.INTER>
-39.2214

>  <SCORE.INTER.CONST>
1

>  <SCORE.INTER.POLAR>
-1.92328

>  <SCORE.INTER.ROT>
0

>  <SCORE.INTER.SOLV>
9.82788

>  <SCORE.INTER.VDW>
-26.6126

>  <SCORE.INTER.norm>
-3.01703

>  <SCORE.INTRA>
0

>  <SCORE.INTRA.DIHEDRAL>
0

>  <SCORE.INTRA.DIHEDRAL.0>
0

>  <SCORE.INTRA.POLAR>
0

>  <SCORE.INTRA.POLAR.0>
0

>  <SCORE.INTRA.REPUL>
0

>  <SCORE.INTRA.REPUL.0>
0

>  <SCORE.INTRA.SOLV>
0

>  <SCORE.INTRA.SOLV.lig_0>
-12.9768

>  <SCORE.INTRA.VDW>
0

>  <SCORE.INTRA.VDW.0>
0

>  <SCORE.INTRA.norm>
0

>  <SCORE.RESTR>
0

>  <SCORE.RESTR.CAVITY>
0

>  <SCORE.RESTR.norm>
0

>  <SCORE.SYSTEM>
0

>  <SCORE.SYSTEM.CONST>
0

>  <SCORE.SYSTEM.DIHEDRAL>
0

>  <SCORE.SYSTEM.SOLV>
0

>  <SCORE.SYSTEM.norm>
0

>  <SCORE.heavy>
13

>  <SCORE.norm>
-3.01703

>  <RMSD>
0.764

$$$$
1eht cryst
 OpenBabel11021811383D
libRbt.so/2013.1/901 2013/11/27
 13 14  0  0  0  0  0  0  0  0999 V2000
   -4.7758   -7.8784   10.6502 C   0  0  0  0  0  0  0  0  0  0  0  0
   -5.2552   -7.0061   11.6233 N   0  0  0  0  0  0  0  0  0  0  0  0
   -5.6593   -7.5339   12.8224 C   0  0  0  0  0  0  0  0  0  0  0  0
   -5.5696   -8.7573   12.9421 O   0  0  0  0  0  0  0  0  0  0  0  0
   -6.1522   -6.7992   13.8710 N   0  0  0  0  0  0  0  0  0  0  0  0
   -6.5532   -7.3552   15.0747 C   0  0  0  0  0  0  0  0  0  0  0  0
   -6.2084   -5.4626   13.6067 C   0  0  0  0  0  0  0  0  0  0  0  0
   -5.8045   -4.9479   12.4089 C   0  0  0  0  0  0  0  0  0  0  0  0
   -5.2956   -5.6832   11.3230 C   0  0  0  0  0  0  0  0  0  0  0  0
   -4.9188   -5.2689   10.2277 O   0  0  0  0  0  0  0  0  0  0  0  0
   -6.0027   -3.5770   12.5020 N   0  0  0  0  0  0  0  0  0  0  0  0
   -6.5092   -3.3575   13.7385 C   0  0  0  0  0  0  0  0  0  0  0  0
   -6.6530   -4.4452   14.4437 N   0  0  0  0  0  0  0  0  0  0  0  0
  1  2  1  0  0  0  0
  2  9  1  0  0  0  0
  2  3  1  0  0  0  0
  3  5  1  0  0  0  0
  3  4  2  0  0  0  0
  5  6  1  0  0  0  0
  5  7  1  0  0  0  0
  7  8  2  0  0  0  0
  7 13  1  0  0  0  0
  8  9  1  0  0  0  0
  8 11  1  0  0  0  0
  9 10  2  0  0  0  0
 11 12  1  0  0  0  0
 12 13  2  0  0  0  0
M  END
>  <CHROM.1>
-5.78164209,-6.04780581,12.68402996,-0.79255762,1.18544130,-0.29399696

>  <Name>
1eht cryst

>  <RI>
0

>  <Rbt.Current_Directory>
/home/itssahil/PROJECTS/Mol_Feturizer/New_Systems/rnas/1eht

>  <Rbt.Executable>
rbdock ($Id: //depot/dev/client3/rdock/2013.1/src/exe/rbdock.cxx#4 $)

>  <Rbt.Library>
libRbt.so (2013.1, Build901 2013/11/27)

>  <Rbt.Parameter_File>
/export/apps/rDock/src/rDock_2013.1_src/data/scripts/dock_solv.prm

>  <Rbt.Receptor>
prm/pocket_docking_3.prm

>  <SCORE>
-39.2229

>  <SCORE.INTER>
-39.2229

>  <SCORE.INTER.CONST>
1

>  <SCORE.INTER.POLAR>
-1.92411

>  <SCORE.INTER.ROT>
0

>  <SCORE.INTER.SOLV>
9.83848

>  <SCORE.INTER.VDW>
-26.6144

>  <SCORE.INTER.norm>
-3.01714

>  <SCORE.INTRA>
0

>  <SCORE.INTRA.DIHEDRAL>
0

>  <SCORE.INTRA.DIHEDRAL.0>
0

>  <SCORE.INTRA.POLAR>
0

>  <SCORE.INTRA.POLAR.0>
0

>  <SCORE.INTRA.REPUL>
0

>  <SCORE.INTRA.REPUL.0>
0

>  <SCORE.INTRA.SOLV>
0

>  <SCORE.INTRA.SOLV.lig_0>
-12.9768

>  <SCORE.INTRA.VDW>
0

>  <SCORE.INTRA.VDW.0>
0

>  <SCORE.INTRA.norm>
0

>  <SCORE.RESTR>
0

>  <SCORE.RESTR.CAVITY>
0

>  <SCORE.RESTR.norm>
0

>  <SCORE.SYSTEM>
0

>  <SCORE.SYSTEM.CONST>
0

>  <SCORE.SYSTEM.DIHEDRAL>
0

>  <SCORE.SYSTEM.SOLV>
0

>  <SCORE.SYSTEM.norm>
0

>  <SCORE.heavy>
13

>  <SCORE.norm>
-3.01714

>  <RMSD>
0.764

$$$$
1eht cryst
 OpenBabel11021811383D
libRbt.so/2013.1/901 2013/11/27
 13 14  0  0  0  0  0  0  0  0999 V2000
   -4.7734   -7.8843   10.6480 C   0  0  0  0  0  0  0  0  0  0  0  0
   -5.2544   -7.0108   11.6192 N   0  0  0  0  0  0  0  0  0  0  0  0
   -5.6563   -7.5366   12.8200 C   0  0  0  0  0  0  0  0  0  0  0  0
   -5.5634   -8.7595   12.9427 O   0  0  0  0  0  0  0  0  0  0  0  0
   -6.1505   -6.8005   13.8670 N   0  0  0  0  0  0  0  0  0  0  0  0
   -6.5493   -7.3544   15.0724 C   0  0  0  0  0  0  0  0  0  0  0  0
   -6.2103   -5.4647   13.5993 C   0  0  0  0  0  0  0  0  0  0  0  0
   -5.8086   -4.9521   12.3999 C   0  0  0  0  0  0  0  0  0  0  0  0
   -5.2985   -5.6888   11.3156 C   0  0  0  0  0  0  0  0  0  0  0  0
   -4.9235   -5.2763   10.2190 O   0  0  0  0  0  0  0  0  0  0  0  0
   -6.0104   -3.5815   12.4897 N   0  0  0  0  0  0  0  0  0  0  0  0
   -6.5166   -3.3601   13.7259 C   0  0  0  0  0  0  0  0  0  0  0  0
   -6.6570   -4.4464   14.4341 N   0  0  0  0  0  0  0  0  0  0  0  0
  1  2  1  0  0  0  0
  2  9  1  0  0  0  0
  2  3  1  0  0  0  0
  3  5  1  0  0  0  0
  3  4  2  0  0  0  0
  5  6  1  0  0  0  0
  5  7  1  0  0  0  0
  7  8  2  0  0  0  0
  7 13  1  0  0  0  0
  8  9  1  0  0  0  0
  8 11  1  0  0  0  0
  9 10  2  0  0  0  0
 11 12  1  0  0  0  0
 12 13  2  0  0  0  0
M  END
>  <CHROM.1>
-5.78266558,-6.05117532,12.67787743,-0.78538253,1.18530307,-0.30320100

>  <Name>
1eht cryst

>  <RI>
0

>  <Rbt.Current_Directory>
/home/itssahil/PROJECTS/Mol_Feturizer/New_Systems/rnas/1eht

>  <Rbt.Executable>
rbdock ($Id: //depot/dev/client3/rdock/2013.1/src/exe/rbdock.cxx#4 $)

>  <Rbt.Library>
libRbt.so (2013.1, Build901 2013/11/27)

>  <Rbt.Parameter_File>
/export/apps/rDock/src/rDock_2013.1_src/data/scripts/dock_solv.prm

>  <Rbt.Receptor>
prm/pocket_docking_4.prm

>  <SCORE>
-39.2261

>  <SCORE.INTER>
-39.2261

>  <SCORE.INTER.CONST>
1

>  <SCORE.INTER.POLAR>
-1.92872

>  <SCORE.INTER.ROT>
0

>  <SCORE.INTER.SOLV>
9.82356

>  <SCORE.INTER.VDW>
-26.5962

>  <SCORE.INTER.norm>
-3.01739

>  <SCORE.INTRA>
0

>  <SCORE.INTRA.DIHEDRAL>
0

>  <SCORE.INTRA.DIHEDRAL.0>
0

>  <SCORE.INTRA.POLAR>
0

>  <SCORE.INTRA.POLAR.0>
0

>  <SCORE.INTRA.REPUL>
0

>  <SCORE.INTRA.REPUL.0>
0

>  <SCORE.INTRA.SOLV>
0

>  <SCORE.INTRA.SOLV.lig_0>
-12.9768

>  <SCORE.INTRA.VDW>
0

>  <SCORE.INTRA.VDW.0>
0

>  <SCORE.INTRA.norm>
0

>  <SCORE.RESTR>
0

>  <SCORE.RESTR.CAVITY>
0

>  <SCORE.RESTR.norm>
0

>  <SCORE.SYSTEM>
0

>  <SCORE.SYSTEM.CONST>
0

>  <SCORE.SYSTEM.DIHEDRAL>
0

>  <SCORE.SYSTEM.SOLV>
0

>  <SCORE.SYSTEM.norm>
0

>  <SCORE.heavy>
13

>  <SCORE.norm>
-3.01739

>  <RMSD>
0.764

$$$$
1eht cryst
 OpenBabel11021811383D
libRbt.so/2013.1/901 2013/11/27
 13 14  0  0  0  0  0  0  0  0999 V2000
   -4.7778   -7.8853   10.6493 C   0  0  0  0  0  0  0  0  0  0  0  0
   -5.2575   -7.0114   11.6207 N   0  0  0  0  0  0  0  0  0  0  0  0
   -5.6550   -7.5362   12.8233 C   0  0  0  0  0  0  0  0  0  0  0  0
   -5.5596   -8.7587   12.9474 O   0  0  0  0  0  0  0  0  0  0  0  0
   -6.1474   -6.7995   13.8708 N   0  0  0  0  0  0  0  0  0  0  0  0
   -6.5417   -7.3525   15.0781 C   0  0  0  0  0  0  0  0  0  0  0  0
   -6.2103   -5.4642   13.6015 C   0  0  0  0  0  0  0  0  0  0  0  0
   -5.8130   -4.9525   12.4002 C   0  0  0  0  0  0  0  0  0  0  0  0
   -5.3048   -5.6898   11.3154 C   0  0  0  0  0  0  0  0  0  0  0  0
   -4.9336   -5.2782   10.2172 O   0  0  0  0  0  0  0  0  0  0  0  0
   -6.0168   -3.5821   12.4887 N   0  0  0  0  0  0  0  0  0  0  0  0
   -6.5199   -3.3600   13.7262 C   0  0  0  0  0  0  0  0  0  0  0  0
   -6.6564   -4.4455   14.4362 N   0  0  0  0  0  0  0  0  0  0  0  0
  1  2  1  0  0  0  0
  2  9  1  0  0  0  0
  2  3  1  0  0  0  0
  3  5  1  0  0  0  0
  3  4  2  0  0  0  0
  5  6  1  0  0  0  0
  5  7  1  0  0  0  0
  7  8  2  0  0  0  0
  7 13  1  0  0  0  0
  8  9  1  0  0  0  0
  8 11  1  0  0  0  0
  9 10  2  0  0  0  0
 11 12  1  0  0  0  0
 12 13  2  0  0  0  0
M  END
>  <CHROM.1>
-5.78432383,-6.05118477,12.67959106,-0.77865150,1.18755401,-0.31078782

>  <Name>
1eht cryst

>  <RI>
0

>  <Rbt.Current_Directory>
/home/itssahil/PROJECTS/Mol_Feturizer/New_Systems/rnas/1eht

>  <Rbt.Executable>
rbdock ($Id: //depot/dev/client3/rdock/2013.1/src/exe/rbdock.cxx#4 $)

>  <Rbt.Library>
libRbt.so (2013.1, Build901 2013/11/27)

>  <Rbt.Parameter_File>
/export/apps/rDock/src/rDock_2013.1_src/data/scripts/dock_solv.prm

>  <Rbt.Receptor>
prm/pocket_docking_4.prm

>  <SCORE>
-39.215

>  <SCORE.INTER>
-39.215

>  <SCORE.INTER.CONST>
1

>  <SCORE.INTER.POLAR>
-1.92328

>  <SCORE.INTER.ROT>
0

>  <SCORE.INTER.SOLV>
9.81642

>  <SCORE.INTER.VDW>
-26.6046

>  <SCORE.INTER.norm>
-3.01654

>  <SCORE.INTRA>
0

>  <SCORE.INTRA.DIHEDRAL>
0

>  <SCORE.INTRA.DIHEDRAL.0>
0

>  <SCORE.INTRA.POLAR>
0

>  <SCORE.INTRA.POLAR.0>
0

>  <SCORE.INTRA.REPUL>
0

>  <SCORE.INTRA.REPUL.0>
0

>  <SCORE.INTRA.SOLV>
0

>  <SCORE.INTRA.SOLV.lig_0>
-12.9768

>  <SCORE.INTRA.VDW>
0

>  <SCORE.INTRA.VDW.0>
0

>  <SCORE.INTRA.norm>
0

>  <SCORE.RESTR>
0

>  <SCORE.RESTR.CAVITY>
0

>  <SCORE.RESTR.norm>
0

>  <SCORE.SYSTEM>
0

>  <SCORE.SYSTEM.CONST>
0

>  <SCORE.SYSTEM.DIHEDRAL>
0

>  <SCORE.SYSTEM.SOLV>
0

>  <SCORE.SYSTEM.norm>
0

>  <SCORE.heavy>
13

>  <SCORE.norm>
-3.01654

>  <RMSD>
0.764

$$$$
1eht cryst
 OpenBabel11021811383D
libRbt.so/2013.1/901 2013/11/27
 13 14  0  0  0  0  0  0  0  0999 V2000
   -4.7778   -7.8859   10.6483 C   0  0  0  0  0  0  0  0  0  0  0  0
   -5.2575   -7.0120   11.6198 N   0  0  0  0  0  0  0  0  0  0  0  0
   -5.6550   -7.5368   12.8224 C   0  0  0  0  0  0  0  0  0  0  0  0
   -5.5595   -8.7594   12.9465 O   0  0  0  0  0  0  0  0  0  0  0  0
   -6.1474   -6.8002   13.8699 N   0  0  0  0  0  0  0  0  0  0  0  0
   -6.5416   -7.3532   15.0772 C   0  0  0  0  0  0  0  0  0  0  0  0
   -6.2104   -5.4649   13.6006 C   0  0  0  0  0  0  0  0  0  0  0  0
   -5.8131   -4.9532   12.3993 C   0  0  0  0  0  0  0  0  0  0  0  0
   -5.3049   -5.6905   11.3145 C   0  0  0  0  0  0  0  0  0  0  0  0
   -4.9339   -5.2788   10.2162 O   0  0  0  0  0  0  0  0  0  0  0  0
   -6.0171   -3.5828   12.4878 N   0  0  0  0  0  0  0  0  0  0  0  0
   -6.5200   -3.3607   13.7253 C   0  0  0  0  0  0  0  0  0  0  0  0
   -6.6564   -4.4462   14.4353 N   0  0  0  0  0  0  0  0  0  0  0  0
  1  2  1  0  0  0  0
  2  9  1  0  0  0  0
  2  3  1  0  0  0  0
  3  5  1  0  0  0  0
  3  4  2  0  0  0  0
  5  6  1  0  0  0  0
  5  7  1  0  0  0  0
  7  8  2  0  0  0  0
  7 13  1  0  0  0  0
  8  9  1  0  0  0  0
  8 11  1  0  0  0  0
  9 10  2  0  0  0  0
 11 12  1  0  0  0  0
 12 13  2  0  0  0  0
M  END
>  <CHROM.1>
-5.78439145,-6.05184135,12.67866620,-0.77845560,1.18758204,-0.31097476

>  <Name>
1eht cryst

>  <RI>
0

>  <Rbt.Current_Directory>
/home/itssahil/PROJECTS/Mol_Feturizer/New_Systems/rnas/1eht

>  <Rbt.Executable>
rbdock ($Id: //depot/dev/client3/rdock/2013.1/src/exe/rbdock.cxx#4 $)

>  <Rbt.Library>
libRbt.so (2013.1, Build901 2013/11/27)

>  <Rbt.Parameter_File>
/export/apps/rDock/src/rDock_2013.1_src/data/scripts/dock_solv.prm

>  <Rbt.Receptor>
prm/pocket_docking_4.prm

>  <SCORE>
-39.2166

>  <SCORE.INTER>
-39.2166

>  <SCORE.INTER.CONST>
1

>  <SCORE.INTER.POLAR>
-1.92413

>  <SCORE.INTER.ROT>
0

>  <SCORE.INTER.SOLV>
9.81481

>  <SCORE.INTER.VDW>
-26.6023

>  <SCORE.INTER.norm>
-3.01666

>  <SCORE.INTRA>
0

>  <SCORE.INTRA.DIHEDRAL>
0

>  <SCORE.INTRA.DIHEDRAL.0>
0

>  <SCORE.INTRA.POLAR>
0

>  <SCORE.INTRA.POLAR.0>
0

>  <SCORE.INTRA.REPUL>
0

>  <SCORE.INTRA.REPUL.0>
0

>  <SCORE.INTRA.SOLV>
0

>  <SCORE.INTRA.SOLV.lig_0>
-12.9768

>  <SCORE.INTRA.VDW>
0

>  <SCORE.INTRA.VDW.0>
0

>  <SCORE.INTRA.norm>
0

>  <SCORE.RESTR>
0

>  <SCORE.RESTR.CAVITY>
0

>  <SCORE.RESTR.norm>
0

>  <SCORE.SYSTEM>
0

>  <SCORE.SYSTEM.CONST>
0

>  <SCORE.SYSTEM.DIHEDRAL>
0

>  <SCORE.SYSTEM.SOLV>
0

>  <SCORE.SYSTEM.norm>
0

>  <SCORE.heavy>
13

>  <SCORE.norm>
-3.01666

>  <RMSD>
0.764

$$$$
1eht cryst
 OpenBabel11021811383D
libRbt.so/2013.1/901 2013/11/27
 13 14  0  0  0  0  0  0  0  0999 V2000
   -4.7796   -7.8790   10.6485 C   0  0  0  0  0  0  0  0  0  0  0  0
   -5.2581   -7.0069   11.6222 N   0  0  0  0  0  0  0  0  0  0  0  0
   -5.6616   -7.5349   12.8214 C   0  0  0  0  0  0  0  0  0  0  0  0
   -5.5723   -8.7584   12.9406 O   0  0  0  0  0  0  0  0  0  0  0  0
   -6.1536   -6.8003   13.8705 N   0  0  0  0  0  0  0  0  0  0  0  0
   -6.5540   -7.3566   15.0743 C   0  0  0  0  0  0  0  0  0  0  0  0
   -6.2094   -5.4636   13.6067 C   0  0  0  0  0  0  0  0  0  0  0  0
   -5.8061   -4.9488   12.4088 C   0  0  0  0  0  0  0  0  0  0  0  0
   -5.2982   -5.6839   11.3224 C   0  0  0  0  0  0  0  0  0  0  0  0
   -4.9218   -5.2694   10.2270 O   0  0  0  0  0  0  0  0  0  0  0  0
   -6.0037   -3.5778   12.5025 N   0  0  0  0  0  0  0  0  0  0  0  0
   -6.5093   -3.3585   13.7394 C   0  0  0  0  0  0  0  0  0  0  0  0
   -6.6530   -4.4464   14.4444 N   0  0  0  0  0  0  0  0  0  0  0  0
  1  2  1  0  0  0  0
  2  9  1  0  0  0  0
  2  3  1  0  0  0  0
  3  5  1  0  0  0  0
  3  4  2  0  0  0  0
  5  6  1  0  0  0  0
  5  7  1  0  0  0  0
  7  8  2  0  0  0  0
  7 13  1  0  0  0  0
  8  9  1  0  0  0  0
  8 11  1  0  0  0  0
  9 10  2  0  0  0  0
 11 12  1  0  0  0  0
 12 13  2  0  0  0  0
M  END
>  <CHROM.1>
-5.78345270,-6.04874246,12.68358701,-0.79307802,1.18616088,-0.29318425

>  <Name>
1eht cryst

>  <RI>
0

>  <Rbt.Current_Directory>
/home/itssahil/PROJECTS/Mol_Feturizer/New_Systems/rnas/1eht

>  <Rbt.Executable>
rbdock ($Id: //depot/dev/client3/rdock/2013.1/src/exe/rbdock.cxx#4 $)

>  <Rbt.Library>
libRbt.so (2013.1, Build901 2013/11/27)

>  <Rbt.Parameter_File>
/export/apps/rDock/src/rDock_2013.1_src/data/scripts/dock_solv.prm

>  <Rbt.Receptor>
prm/pocket_docking_5.prm

>  <SCORE>
-39.2184

>  <SCORE.INTER>
-39.2184

>  <SCORE.INTER.CONST>
1

>  <SCORE.INTER.POLAR>
-1.92386

>  <SCORE.INTER.ROT>
0

>  <SCORE.INTER.SOLV>
9.83605

>  <SCORE.INTER.VDW>
-26.6115

>  <SCORE.INTER.norm>
-3.0168

>  <SCORE.INTRA>
0

>  <SCORE.INTRA.DIHEDRAL>
0

>  <SCORE.INTRA.DIHEDRAL.0>
0

>  <SCORE.INTRA.POLAR>
0

>  <SCORE.INTRA.POLAR.0>
0

>  <SCORE.INTRA.REPUL>
0

>  <SCORE.INTRA.REPUL.0>
0

>  <SCORE.INTRA.SOLV>
0

>  <SCORE.INTRA.SOLV.lig_0>
-12.9768

>  <SCORE.INTRA.VDW>
0

>  <SCORE.INTRA.VDW.0>
0

>  <SCORE.INTRA.norm>
0

>  <SCORE.RESTR>
0

>  <SCORE.RESTR.CAVITY>
0

>  <SCORE.RESTR.norm>
0

>  <SCORE.SYSTEM>
0

>  <SCORE.SYSTEM.CONST>
0

>  <SCORE.SYSTEM.DIHEDRAL>
0

>  <SCORE.SYSTEM.SOLV>
0

>  <SCORE.SYSTEM.norm>
0

>  <SCORE.heavy>
13

>  <SCORE.norm>
-3.0168

>  <RMSD>
0.764

$$$$
1eht cryst
 OpenBabel11021811383D
libRbt.so/2013.1/901 2013/11/27
 13 14  0  0  0  0  0  0  0  0999 V2000
   -4.7791   -7.8826   10.6489 C   0  0  0  0  0  0  0  0  0  0  0  0
   -5.2580   -7.0093   11.6213 N   0  0  0  0  0  0  0  0  0  0  0  0
   -5.6564   -7.5352   12.8232 C   0  0  0  0  0  0  0  0  0  0  0  0
   -5.5624   -8.7580   12.9458 O   0  0  0  0  0  0  0  0  0  0  0  0
   -6.1481   -6.7992   13.8715 N   0  0  0  0  0  0  0  0  0  0  0  0
   -6.5433   -7.3533   15.0780 C   0  0  0  0  0  0  0  0  0  0  0  0
   -6.2094   -5.4635   13.6038 C   0  0  0  0  0  0  0  0  0  0  0  0
   -5.8112   -4.9508   12.4033 C   0  0  0  0  0  0  0  0  0  0  0  0
   -5.3036   -5.6874   11.3177 C   0  0  0  0  0  0  0  0  0  0  0  0
   -4.9318   -5.2748   10.2201 O   0  0  0  0  0  0  0  0  0  0  0  0
   -6.0135   -3.5803   12.4935 N   0  0  0  0  0  0  0  0  0  0  0  0
   -6.5165   -3.3591   13.7311 C   0  0  0  0  0  0  0  0  0  0  0  0
   -6.6544   -4.4454   14.4397 N   0  0  0  0  0  0  0  0  0  0  0  0
  1  2  1  0  0  0  0
  2  9  1  0  0  0  0
  2  3  1  0  0  0  0
  3  5  1  0  0  0  0
  3  4  2  0  0  0  0
  5  6  1  0  0  0  0
  5  7  1  0  0  0  0
  7  8  2  0  0  0  0
  7 13  1  0  0  0  0
  8  9  1  0  0  0  0
  8 11  1  0  0  0  0
  9 10  2  0  0  0  0
 11 12  1  0  0  0  0
 12 13  2  0  0  0  0
M  END
>  <CHROM.1>
-5.78389711,-6.04985119,12.68130307,-0.78181559,1.18771829,-0.30660122

>  <Name>
1eht cryst

>  <RI>
224

>  <Rbt.Current_Directory>
/home/itssahil/PROJECTS/Mol_Feturizer/New_Systems/rnas/1eht

>  <Rbt.Executable>
rbdock ($Id: //depot/dev/client3/rdock/2013.1/src/exe/rbdock.cxx#4 $)

>  <Rbt.Library>
libRbt.so (2013.1, Build901 2013/11/27)

>  <Rbt.Parameter_File>
/export/apps/rDock/src/rDock_2013.1_src/data/scripts/dock_solv.prm

>  <Rbt.Receptor>
prm/pocket_docking_7.prm

>  <SCORE>
-39.2156

>  <SCORE.INTER>
-39.2156

>  <SCORE.INTER.CONST>
1

>  <SCORE.INTER.POLAR>
-1.92171

>  <SCORE.INTER.ROT>
0

>  <SCORE.INTER.SOLV>
9.82268

>  <SCORE.INTER.VDW>
-26.6123

>  <SCORE.INTER.norm>
-3.01658

>  <SCORE.INTRA>
0

>  <SCORE.INTRA.DIHEDRAL>
0

>  <SCORE.INTRA.DIHEDRAL.0>
0

>  <SCORE.INTRA.POLAR>
0

>  <SCORE.INTRA.POLAR.0>
0

>  <SCORE.INTRA.REPUL>
0

>  <SCORE.INTRA.REPUL.0>
0

>  <SCORE.INTRA.SOLV>
0

>  <SCORE.INTRA.SOLV.lig_0>
-12.9768

>  <SCORE.INTRA.VDW>
0

>  <SCORE.INTRA.VDW.0>
0

>  <SCORE.INTRA.norm>
0

>  <SCORE.RESTR>
0

>  <SCORE.RESTR.CAVITY>
0

>  <SCORE.RESTR.norm>
0

>  <SCORE.SYSTEM>
0

>  <SCORE.SYSTEM.CONST>
0

>  <SCORE.SYSTEM.DIHEDRAL>
0

>  <SCORE.SYSTEM.SOLV>
0

>  <SCORE.SYSTEM.norm>
0

>  <SCORE.heavy>
13

>  <SCORE.norm>
-3.01658

>  <RMSD>
0.764

$$$$
1eht cryst
 OpenBabel11021811383D
libRbt.so/2013.1/901 2013/11/27
 13 14  0  0  0  0  0  0  0  0999 V2000
   -4.7735   -7.8784   10.6495 C   0  0  0  0  0  0  0  0  0  0  0  0
   -5.2536   -7.0061   11.6222 N   0  0  0  0  0  0  0  0  0  0  0  0
   -5.6585   -7.5338   12.8211 C   0  0  0  0  0  0  0  0  0  0  0  0
   -5.5687   -8.7572   12.9410 O   0  0  0  0  0  0  0  0  0  0  0  0
   -6.1522   -6.7990   13.8693 N   0  0  0  0  0  0  0  0  0  0  0  0
   -6.5539   -7.3550   15.0728 C   0  0  0  0  0  0  0  0  0  0  0  0
   -6.2083   -5.4625   13.6048 C   0  0  0  0  0  0  0  0  0  0  0  0
   -5.8037   -4.9479   12.4072 C   0  0  0  0  0  0  0  0  0  0  0  0
   -5.2940   -5.6833   11.3218 C   0  0  0  0  0  0  0  0  0  0  0  0
   -4.9165   -5.2690   10.2267 O   0  0  0  0  0  0  0  0  0  0  0  0
   -6.0021   -3.5770   12.5001 N   0  0  0  0  0  0  0  0  0  0  0  0
   -6.5095   -3.3574   13.7363 C   0  0  0  0  0  0  0  0  0  0  0  0
   -6.6535   -4.4451   14.4415 N   0  0  0  0  0  0  0  0  0  0  0  0
  1  2  1  0  0  0  0
  2  9  1  0  0  0  0
  2  3  1  0  0  0  0
  3  5  1  0  0  0  0
  3  4  2  0  0  0  0
  5  6  1  0  0  0  0
  5  7  1  0  0  0  0
  7  8  2  0  0  0  0
  7 13  1  0  0  0  0
  8  9  1  0  0  0  0
  8 11  1  0  0  0  0
  9 10  2  0  0  0  0
 11 12  1  0  0  0  0
 12 13  2  0  0  0  0
M  END
>  <CHROM.1>
-5.78088322,-6.04774560,12.68252211,-0.79279174,1.18478217,-0.29387454

>  <Name>
1eht cryst

>  <RI>
224

>  <Rbt.Current_Directory>
/home/itssahil/PROJECTS/Mol_Feturizer/New_Systems/rnas/1eht

>  <Rbt.Executable>
rbdock ($Id: //depot/dev/client3/rdock/2013.1/src/exe/rbdock.cxx#4 $)

>  <Rbt.Library>
libRbt.so (2013.1, Build901 2013/11/27)

>  <Rbt.Parameter_File>
/export/apps/rDock/src/rDock_2013.1_src/data/scripts/dock_solv.prm

>  <Rbt.Receptor>
prm/pocket_docking_7.prm

>  <SCORE>
-39.2258

>  <SCORE.INTER>
-39.2258

>  <SCORE.INTER.CONST>
1

>  <SCORE.INTER.POLAR>
-1.92591

>  <SCORE.INTER.ROT>
0

>  <SCORE.INTER.SOLV>
9.83914

>  <SCORE.INTER.VDW>
-26.6105

>  <SCORE.INTER.norm>
-3.01737

>  <SCORE.INTRA>
0

>  <SCORE.INTRA.DIHEDRAL>
0

>  <SCORE.INTRA.DIHEDRAL.0>
0

>  <SCORE.INTRA.POLAR>
0

>  <SCORE.INTRA.POLAR.0>
0

>  <SCORE.INTRA.REPUL>
0

>  <SCORE.INTRA.REPUL.0>
0

>  <SCORE.INTRA.SOLV>
0

>  <SCORE.INTRA.SOLV.lig_0>
-12.9768

>  <SCORE.INTRA.VDW>
0

>  <SCORE.INTRA.VDW.0>
0

>  <SCORE.INTRA.norm>
0

>  <SCORE.RESTR>
0

>  <SCORE.RESTR.CAVITY>
0

>  <SCORE.RESTR.norm>
0

>  <SCORE.SYSTEM>
0

>  <SCORE.SYSTEM.CONST>
0

>  <SCORE.SYSTEM.DIHEDRAL>
0

>  <SCORE.SYSTEM.SOLV>
0

>  <SCORE.SYSTEM.norm>
0

>  <SCORE.heavy>
13

>  <SCORE.norm>
-3.01737

>  <RMSD>
0.764

$$$$
1eht cryst
 OpenBabel11021811383D
libRbt.so/2013.1/901 2013/11/27
 13 14  0  0  0  0  0  0  0  0999 V2000
   -4.7779   -7.8833   10.6491 C   0  0  0  0  0  0  0  0  0  0  0  0
   -5.2573   -7.0100   11.6212 N   0  0  0  0  0  0  0  0  0  0  0  0
   -5.6561   -7.5357   12.8230 C   0  0  0  0  0  0  0  0  0  0  0  0
   -5.5620   -8.7585   12.9458 O   0  0  0  0  0  0  0  0  0  0  0  0
   -6.1484   -6.7997   13.8710 N   0  0  0  0  0  0  0  0  0  0  0  0
   -6.5440   -7.3536   15.0774 C   0  0  0  0  0  0  0  0  0  0  0  0
   -6.2098   -5.4640   13.6031 C   0  0  0  0  0  0  0  0  0  0  0  0
   -5.8111   -4.9514   12.4027 C   0  0  0  0  0  0  0  0  0  0  0  0
   -5.3031   -5.6881   11.3174 C   0  0  0  0  0  0  0  0  0  0  0  0
   -4.9308   -5.2756   10.2198 O   0  0  0  0  0  0  0  0  0  0  0  0
   -6.0137   -3.5809   12.4926 N   0  0  0  0  0  0  0  0  0  0  0  0
   -6.5172   -3.3596   13.7300 C   0  0  0  0  0  0  0  0  0  0  0  0
   -6.6553   -4.4458   14.4387 N   0  0  0  0  0  0  0  0  0  0  0  0
  1  2  1  0  0  0  0
  2  9  1  0  0  0  0
  2  3  1  0  0  0  0
  3  5  1  0  0  0  0
  3  4  2  0  0  0  0
  5  6  1  0  0  0  0
  5  7  1  0  0  0  0
  7  8  2  0  0  0  0
  7 13  1  0  0  0  0
  8  9  1  0  0  0  0
  8 11  1  0  0  0  0
  9 10  2  0  0  0  0
 11 12  1  0  0  0  0
 12 13  2  0  0  0  0
M  END
>  <CHROM.1>
-5.78381722,-6.05043034,12.68085067,-0.78175912,1.18729184,-0.30679626

>  <Name>
1eht cryst

>  <RI>
0

>  <Rbt.Current_Directory>
/home/itssahil/PROJECTS/Mol_Feturizer/New_Systems/rnas/1eht

>  <Rbt.Executable>
rbdock ($Id: //depot/dev/client3/rdock/2013.1/src/exe/rbdock.cxx#4 $)

>  <Rbt.Library>
libRbt.so (2013.1, Build901 2013/11/27)

>  <Rbt.Parameter_File>
/export/apps/rDock/src/rDock_2013.1_src/data/scripts/dock_solv.prm

>  <Rbt.Receptor>
prm/pocket_docking_8.prm

>  <SCORE>
-39.2173

>  <SCORE.INTER>
-39.2173

>  <SCORE.INTER.CONST>
1

>  <SCORE.INTER.POLAR>
-1.92291

>  <SCORE.INTER.ROT>
0

>  <SCORE.INTER.SOLV>
9.82156

>  <SCORE.INTER.VDW>
-26.609

>  <SCORE.INTER.norm>
-3.01671

>  <SCORE.INTRA>
0

>  <SCORE.INTRA.DIHEDRAL>
0

>  <SCORE.INTRA.DIHEDRAL.0>
0

>  <SCORE.INTRA.POLAR>
0

>  <SCORE.INTRA.POLAR.0>
0

>  <SCORE.INTRA.REPUL>
0

>  <SCORE.INTRA.REPUL.0>
0

>  <SCORE.INTRA.SOLV>
0

>  <SCORE.INTRA.SOLV.lig_0>
-12.9768

>  <SCORE.INTRA.VDW>
0

>  <SCORE.INTRA.VDW.0>
0

>  <SCORE.INTRA.norm>
0

>  <SCORE.RESTR>
0

>  <SCORE.RESTR.CAVITY>
0

>  <SCORE.RESTR.norm>
0

>  <SCORE.SYSTEM>
0

>  <SCORE.SYSTEM.CONST>
0

>  <SCORE.SYSTEM.DIHEDRAL>
0

>  <SCORE.SYSTEM.SOLV>
0

>  <SCORE.SYSTEM.norm>
0

>  <SCORE.heavy>
13

>  <SCORE.norm>
-3.01671

>  <RMSD>
0.764

$$$$
1eht cryst
 OpenBabel11021811383D
libRbt.so/2013.1/901 2013/11/27
 13 14  0  0  0  0  0  0  0  0999 V2000
   -4.7788   -7.8839   10.6488 C   0  0  0  0  0  0  0  0  0  0  0  0
   -5.2580   -7.0105   11.6209 N   0  0  0  0  0  0  0  0  0  0  0  0
   -5.6591   -7.5365   12.8218 C   0  0  0  0  0  0  0  0  0  0  0  0
   -5.5672   -8.7595   12.9438 O   0  0  0  0  0  0  0  0  0  0  0  0
   -6.1514   -6.8004   13.8698 N   0  0  0  0  0  0  0  0  0  0  0  0
   -6.5494   -7.3546   15.0753 C   0  0  0  0  0  0  0  0  0  0  0  0
   -6.2102   -5.4645   13.6028 C   0  0  0  0  0  0  0  0  0  0  0  0
   -5.8093   -4.9516   12.4033 C   0  0  0  0  0  0  0  0  0  0  0  0
   -5.3011   -5.6883   11.3180 C   0  0  0  0  0  0  0  0  0  0  0  0
   -4.9268   -5.2756   10.2213 O   0  0  0  0  0  0  0  0  0  0  0  0
   -6.0096   -3.5809   12.4940 N   0  0  0  0  0  0  0  0  0  0  0  0
   -6.5143   -3.3596   13.7309 C   0  0  0  0  0  0  0  0  0  0  0  0
   -6.6550   -4.4461   14.4386 N   0  0  0  0  0  0  0  0  0  0  0  0
  1  2  1  0  0  0  0
  2  9  1  0  0  0  0
  2  3  1  0  0  0  0
  3  5  1  0  0  0  0
  3  4  2  0  0  0  0
  5  6  1  0  0  0  0
  5  7  1  0  0  0  0
  7  8  2  0  0  0  0
  7 13  1  0  0  0  0
  8  9  1  0  0  0  0
  8 11  1  0  0  0  0
  9 10  2  0  0  0  0
 11 12  1  0  0  0  0
 12 13  2  0  0  0  0
M  END
>  <CHROM.1>
-5.78414246,-6.05089094,12.68063741,-0.78701284,1.18662379,-0.30117136

>  <Name>
1eht cryst

>  <RI>
0

>  <Rbt.Current_Directory>
/home/itssahil/PROJECTS/Mol_Feturizer/New_Systems/rnas/1eht

>  <Rbt.Executable>
rbdock ($Id: //depot/dev/client3/rdock/2013.1/src/exe/rbdock.cxx#4 $)

>  <Rbt.Library>
libRbt.so (2013.1, Build901 2013/11/27)

>  <Rbt.Parameter_File>
/export/apps/rDock/src/rDock_2013.1_src/data/scripts/dock_solv.prm

>  <Rbt.Receptor>
prm/pocket_docking_8.prm

>  <SCORE>
-39.2211

>  <SCORE.INTER>
-39.2211

>  <SCORE.INTER.CONST>
1

>  <SCORE.INTER.POLAR>
-1.92564

>  <SCORE.INTER.ROT>
0

>  <SCORE.INTER.SOLV>
9.82473

>  <SCORE.INTER.VDW>
-26.6035

>  <SCORE.INTER.norm>
-3.01701

>  <SCORE.INTRA>
0

>  <SCORE.INTRA.DIHEDRAL>
0

>  <SCORE.INTRA.DIHEDRAL.0>
0

>  <SCORE.INTRA.POLAR>
0

>  <SCORE.INTRA.POLAR.0>
0

>  <SCORE.INTRA.REPUL>
0

>  <SCORE.INTRA.REPUL.0>
0

>  <SCORE.INTRA.SOLV>
0

>  <SCORE.INTRA.SOLV.lig_0>
-12.9768

>  <SCORE.INTRA.VDW>
0

>  <SCORE.INTRA.VDW.0>
0

>  <SCORE.INTRA.norm>
0

>  <SCORE.RESTR>
0

>  <SCORE.RESTR.CAVITY>
0

>  <SCORE.RESTR.norm>
0

>  <SCORE.SYSTEM>
0

>  <SCORE.SYSTEM.CONST>
0

>  <SCORE.SYSTEM.DIHEDRAL>
0

>  <SCORE.SYSTEM.SOLV>
0

>  <SCORE.SYSTEM.norm>
0

>  <SCORE.heavy>
13

>  <SCORE.norm>
-3.01701

>  <RMSD>
0.764

$$$$
1eht cryst
 OpenBabel11021811383D
libRbt.so/2013.1/901 2013/11/27
 13 14  0  0  0  0  0  0  0  0999 V2000
   -4.7708   -7.8801   10.6489 C   0  0  0  0  0  0  0  0  0  0  0  0
   -5.2505   -7.0056   11.6198 N   0  0  0  0  0  0  0  0  0  0  0  0
   -5.6485   -7.5297   12.8225 C   0  0  0  0  0  0  0  0  0  0  0  0
   -5.5535   -8.7522   12.9473 O   0  0  0  0  0  0  0  0  0  0  0  0
   -6.1409   -6.7923   13.8695 N   0  0  0  0  0  0  0  0  0  0  0  0
   -6.5357   -7.3446   15.0770 C   0  0  0  0  0  0  0  0  0  0  0  0
   -6.2033   -5.4571   13.5995 C   0  0  0  0  0  0  0  0  0  0  0  0
   -5.8055   -4.9462   12.3981 C   0  0  0  0  0  0  0  0  0  0  0  0
   -5.2973   -5.6842   11.3138 C   0  0  0  0  0  0  0  0  0  0  0  0
   -4.9257   -5.2732   10.2155 O   0  0  0  0  0  0  0  0  0  0  0  0
   -6.0090   -3.5757   12.4859 N   0  0  0  0  0  0  0  0  0  0  0  0
   -6.5123   -3.3527   13.7231 C   0  0  0  0  0  0  0  0  0  0  0  0
   -6.6493   -4.4379   14.4336 N   0  0  0  0  0  0  0  0  0  0  0  0
  1  2  1  0  0  0  0
  2  9  1  0  0  0  0
  2  3  1  0  0  0  0
  3  5  1  0  0  0  0
  3  4  2  0  0  0  0
  5  6  1  0  0  0  0
  5  7  1  0  0  0  0
  7  8  2  0  0  0  0
  7 13  1  0  0  0  0
  8  9  1  0  0  0  0
  8 11  1  0  0  0  0
  9 10  2  0  0  0  0
 11 12  1  0  0  0  0
 12 13  2  0  0  0  0
M  END
>  <CHROM.1>
-5.77730908,-6.04471086,12.67803265,-0.77964271,1.18740351,-0.31035977

>  <Name>
1eht cryst

>  <RI>
0

>  <Rbt.Current_Directory>
/home/itssahil/PROJECTS/Mol_Feturizer/New_Systems/rnas/1eht

>  <Rbt.Executable>
rbdock ($Id: //depot/dev/client3/rdock/2013.1/src/exe/rbdock.cxx#4 $)

>  <Rbt.Library>
libRbt.so (2013.1, Build901 2013/11/27)

>  <Rbt.Parameter_File>
/export/apps/rDock/src/rDock_2013.1_src/data/scripts/dock_solv.prm

>  <Rbt.Receptor>
prm/pocket_docking_8.prm

>  <SCORE>
-39.1912

>  <SCORE.INTER>
-39.1912

>  <SCORE.INTER.CONST>
1

>  <SCORE.INTER.POLAR>
-1.92201

>  <SCORE.INTER.ROT>
0

>  <SCORE.INTER.SOLV>
9.83201

>  <SCORE.INTER.VDW>
-26.5981

>  <SCORE.INTER.norm>
-3.01471

>  <SCORE.INTRA>
0

>  <SCORE.INTRA.DIHEDRAL>
0

>  <SCORE.INTRA.DIHEDRAL.0>
0

>  <SCORE.INTRA.POLAR>
0

>  <SCORE.INTRA.POLAR.0>
0

>  <SCORE.INTRA.REPUL>
0

>  <SCORE.INTRA.REPUL.0>
0

>  <SCORE.INTRA.SOLV>
0

>  <SCORE.INTRA.SOLV.lig_0>
-12.9768

>  <SCORE.INTRA.VDW>
0

>  <SCORE.INTRA.VDW.0>
0

>  <SCORE.INTRA.norm>
0

>  <SCORE.RESTR>
0

>  <SCORE.RESTR.CAVITY>
0

>  <SCORE.RESTR.norm>
0

>  <SCORE.SYSTEM>
0

>  <SCORE.SYSTEM.CONST>
0

>  <SCORE.SYSTEM.DIHEDRAL>
0

>  <SCORE.SYSTEM.SOLV>
0

>  <SCORE.SYSTEM.norm>
0

>  <SCORE.heavy>
13

>  <SCORE.norm>
-3.01471

>  <RMSD>
0.764

$$$$
1eht cryst
 OpenBabel11021811383D
libRbt.so/2013.1/901 2013/11/27
 13 14  0  0  0  0  0  0  0  0999 V2000
   -4.7941   -7.8888   10.6417 C   0  0  0  0  0  0  0  0  0  0  0  0
   -5.2660   -7.0088   11.6114 N   0  0  0  0  0  0  0  0  0  0  0  0
   -5.6562   -7.5263   12.8196 C   0  0  0  0  0  0  0  0  0  0  0  0
   -5.5617   -8.7483   12.9499 O   0  0  0  0  0  0  0  0  0  0  0  0
   -6.1405   -6.7830   13.8662 N   0  0  0  0  0  0  0  0  0  0  0  0
   -6.5275   -7.3287   15.0792 C   0  0  0  0  0  0  0  0  0  0  0  0
   -6.2033   -5.4492   13.5899 C   0  0  0  0  0  0  0  0  0  0  0  0
   -5.8133   -4.9448   12.3831 C   0  0  0  0  0  0  0  0  0  0  0  0
   -5.3135   -5.6889   11.2991 C   0  0  0  0  0  0  0  0  0  0  0  0
   -4.9491   -5.2839   10.1961 O   0  0  0  0  0  0  0  0  0  0  0  0
   -6.0146   -3.5737   12.4653 N   0  0  0  0  0  0  0  0  0  0  0  0
   -6.5090   -3.3438   13.7048 C   0  0  0  0  0  0  0  0  0  0  0  0
   -6.6423   -4.4252   14.4218 N   0  0  0  0  0  0  0  0  0  0  0  0
  1  2  1  0  0  0  0
  2  9  1  0  0  0  0
  2  3  1  0  0  0  0
  3  5  1  0  0  0  0
  3  4  2  0  0  0  0
  5  6  1  0  0  0  0
  5  7  1  0  0  0  0
  7  8  2  0  0  0  0
  7 13  1  0  0  0  0
  8  9  1  0  0  0  0
  8 11  1  0  0  0  0
  9 10  2  0  0  0  0
 11 12  1  0  0  0  0
 12 13  2  0  0  0  0
M  END
>  <CHROM.1>
-5.78436116,-6.04193069,12.66843185,-0.77677447,1.19437684,-0.31812343

>  <Name>
1eht cryst

>  <RI>
0

>  <Rbt.Current_Directory>
/home/itssahil/PROJECTS/Mol_Feturizer/New_Systems/rnas/1eht

>  <Rbt.Executable>
rbdock ($Id: //depot/dev/client3/rdock/2013.1/src/exe/rbdock.cxx#4 $)

>  <Rbt.Library>
libRbt.so (2013.1, Build901 2013/11/27)

>  <Rbt.Parameter_File>
/export/apps/rDock/src/rDock_2013.1_src/data/scripts/dock_solv.prm

>  <Rbt.Receptor>
prm/blind_docking_100.prm

>  <SCORE>
-39.1757

>  <SCORE.INTER>
-39.1757

>  <SCORE.INTER.CONST>
1

>  <SCORE.INTER.POLAR>
-1.91944

>  <SCORE.INTER.ROT>
0

>  <SCORE.INTER.SOLV>
9.82056

>  <SCORE.INTER.VDW>
-26.5925

>  <SCORE.INTER.norm>
-3.01352

>  <SCORE.INTRA>
0

>  <SCORE.INTRA.DIHEDRAL>
0

>  <SCORE.INTRA.DIHEDRAL.0>
0

>  <SCORE.INTRA.POLAR>
0

>  <SCORE.INTRA.POLAR.0>
0

>  <SCORE.INTRA.REPUL>
0

>  <SCORE.INTRA.REPUL.0>
0

>  <SCORE.INTRA.SOLV>
0

>  <SCORE.INTRA.SOLV.lig_0>
-12.9768

>  <SCORE.INTRA.VDW>
0

>  <SCORE.INTRA.VDW.0>
0

>  <SCORE.INTRA.norm>
0

>  <SCORE.RESTR>
0

>  <SCORE.RESTR.CAVITY>
0

>  <SCORE.RESTR.norm>
0

>  <SCORE.SYSTEM>
0

>  <SCORE.SYSTEM.CONST>
0

>  <SCORE.SYSTEM.DIHEDRAL>
0

>  <SCORE.SYSTEM.SOLV>
0

>  <SCORE.SYSTEM.norm>
0

>  <SCORE.heavy>
13

>  <SCORE.norm>
-3.01352

>  <RMSD>
0.765

$$$$
1eht cryst
 OpenBabel11021811383D
libRbt.so/2013.1/901 2013/11/27
 13 14  0  0  0  0  0  0  0  0999 V2000
   -4.7672   -7.8826   10.6490 C   0  0  0  0  0  0  0  0  0  0  0  0
   -5.2485   -7.0063   11.6174 N   0  0  0  0  0  0  0  0  0  0  0  0
   -5.6455   -7.5278   12.8216 C   0  0  0  0  0  0  0  0  0  0  0  0
   -5.5482   -8.7498   12.9497 O   0  0  0  0  0  0  0  0  0  0  0  0
   -6.1394   -6.7885   13.8665 N   0  0  0  0  0  0  0  0  0  0  0  0
   -6.5331   -7.3382   15.0755 C   0  0  0  0  0  0  0  0  0  0  0  0
   -6.2043   -5.4542   13.5929 C   0  0  0  0  0  0  0  0  0  0  0  0
   -5.8074   -4.9458   12.3901 C   0  0  0  0  0  0  0  0  0  0  0  0
   -5.2978   -5.6858   11.3078 C   0  0  0  0  0  0  0  0  0  0  0  0
   -4.9270   -5.2772   10.2083 O   0  0  0  0  0  0  0  0  0  0  0  0
   -6.0135   -3.5755   12.4741 N   0  0  0  0  0  0  0  0  0  0  0  0
   -6.5172   -3.3501   13.7107 C   0  0  0  0  0  0  0  0  0  0  0  0
   -6.6522   -4.4335   14.4241 N   0  0  0  0  0  0  0  0  0  0  0  0
  1  2  1  0  0  0  0
  2  9  1  0  0  0  0
  2  3  1  0  0  0  0
  3  5  1  0  0  0  0
  3  4  2  0  0  0  0
  5  6  1  0  0  0  0
  5  7  1  0  0  0  0
  7  8  2  0  0  0  0
  7 13  1  0  0  0  0
  8  9  1  0  0  0  0
  8 11  1  0  0  0  0
  9 10  2  0  0  0  0
 11 12  1  0  0  0  0
 12 13  2  0  0  0  0
M  END
>  <CHROM.1>
-5.77713724,-6.04350243,12.67302359,-0.77483417,1.18682688,-0.31758240

>  <Name>
1eht cryst

>  <RI>
0

>  <Rbt.Current_Directory>
/home/itssahil/PROJECTS/Mol_Feturizer/New_Systems/rnas/1eht

>  <Rbt.Executable>
rbdock ($Id: //depot/dev/client3/rdock/2013.1/src/exe/rbdock.cxx#4 $)

>  <Rbt.Library>
libRbt.so (2013.1, Build901 2013/11/27)

>  <Rbt.Parameter_File>
/export/apps/rDock/src/rDock_2013.1_src/data/scripts/dock_solv.prm

>  <Rbt.Receptor>
prm/blind_docking_100.prm

>  <SCORE>
-39.1865

>  <SCORE.INTER>
-39.1865

>  <SCORE.INTER.CONST>
1

>  <SCORE.INTER.POLAR>
-1.92454

>  <SCORE.INTER.ROT>
0

>  <SCORE.INTER.SOLV>
9.82779

>  <SCORE.INTER.VDW>
-26.5851

>  <SCORE.INTER.norm>
-3.01435

>  <SCORE.INTRA>
0

>  <SCORE.INTRA.DIHEDRAL>
0

>  <SCORE.INTRA.DIHEDRAL.0>
0

>  <SCORE.INTRA.POLAR>
0

>  <SCORE.INTRA.POLAR.0>
0

>  <SCORE.INTRA.REPUL>
0

>  <SCORE.INTRA.REPUL.0>
0

>  <SCORE.INTRA.SOLV>
0

>  <SCORE.INTRA.SOLV.lig_0>
-12.9768

>  <SCORE.INTRA.VDW>
0

>  <SCORE.INTRA.VDW.0>
0

>  <SCORE.INTRA.norm>
0

>  <SCORE.RESTR>
0

>  <SCORE.RESTR.CAVITY>
0

>  <SCORE.RESTR.norm>
0

>  <SCORE.SYSTEM>
0

>  <SCORE.SYSTEM.CONST>
0

>  <SCORE.SYSTEM.DIHEDRAL>
0

>  <SCORE.SYSTEM.SOLV>
0

>  <SCORE.SYSTEM.norm>
0

>  <SCORE.heavy>
13

>  <SCORE.norm>
-3.01435

>  <RMSD>
0.765

$$$$
1eht cryst
 OpenBabel11021811383D
libRbt.so/2013.1/901 2013/11/27
 13 14  0  0  0  0  0  0  0  0999 V2000
   -4.7756   -7.8842   10.6448 C   0  0  0  0  0  0  0  0  0  0  0  0
   -5.2538   -7.0054   11.6125 N   0  0  0  0  0  0  0  0  0  0  0  0
   -5.6450   -7.5236   12.8201 C   0  0  0  0  0  0  0  0  0  0  0  0
   -5.5457   -8.7451   12.9516 O   0  0  0  0  0  0  0  0  0  0  0  0
   -6.1352   -6.7816   13.8648 N   0  0  0  0  0  0  0  0  0  0  0  0
   -6.5230   -7.3280   15.0772 C   0  0  0  0  0  0  0  0  0  0  0  0
   -6.2028   -5.4482   13.5873 C   0  0  0  0  0  0  0  0  0  0  0  0
   -5.8117   -4.9431   12.3811 C   0  0  0  0  0  0  0  0  0  0  0  0
   -5.3059   -5.6860   11.2990 C   0  0  0  0  0  0  0  0  0  0  0  0
   -4.9403   -5.2804   10.1967 O   0  0  0  0  0  0  0  0  0  0  0  0
   -6.0189   -3.5728   12.4617 N   0  0  0  0  0  0  0  0  0  0  0  0
   -6.5176   -3.3441   13.6998 C   0  0  0  0  0  0  0  0  0  0  0  0
   -6.6482   -4.4254   14.4172 N   0  0  0  0  0  0  0  0  0  0  0  0
  1  2  1  0  0  0  0
  2  9  1  0  0  0  0
  2  3  1  0  0  0  0
  3  5  1  0  0  0  0
  3  4  2  0  0  0  0
  5  6  1  0  0  0  0
  5  7  1  0  0  0  0
  7  8  2  0  0  0  0
  7 13  1  0  0  0  0
  8  9  1  0  0  0  0
  8 11  1  0  0  0  0
  9 10  2  0  0  0  0
 11 12  1  0  0  0  0
 12 13  2  0  0  0  0
M  END
>  <CHROM.1>
-5.77892679,-6.03992595,12.66740267,-0.76830737,1.19056003,-0.32677263

>  <Name>
1eht cryst

>  <RI>
0

>  <Rbt.Current_Directory>
/home/itssahil/PROJECTS/Mol_Feturizer/New_Systems/rnas/1eht

>  <Rbt.Executable>
rbdock ($Id: //depot/dev/client3/rdock/2013.1/src/exe/rbdock.cxx#4 $)

>  <Rbt.Library>
libRbt.so (2013.1, Build901 2013/11/27)

>  <Rbt.Parameter_File>
/export/apps/rDock/src/rDock_2013.1_src/data/scripts/dock_solv.prm

>  <Rbt.Receptor>
prm/blind_docking_20.prm

>  <SCORE>
-39.1788

>  <SCORE.INTER>
-39.1788

>  <SCORE.INTER.CONST>
1

>  <SCORE.INTER.POLAR>
-1.92046

>  <SCORE.INTER.ROT>
0

>  <SCORE.INTER.SOLV>
9.82299

>  <SCORE.INTER.VDW>
-26.592

>  <SCORE.INTER.norm>
-3.01375

>  <SCORE.INTRA>
0

>  <SCORE.INTRA.DIHEDRAL>
0

>  <SCORE.INTRA.DIHEDRAL.0>
0

>  <SCORE.INTRA.POLAR>
0

>  <SCORE.INTRA.POLAR.0>
0

>  <SCORE.INTRA.REPUL>
0

>  <SCORE.INTRA.REPUL.0>
0

>  <SCORE.INTRA.SOLV>
0

>  <SCORE.INTRA.SOLV.lig_0>
-12.9768

>  <SCORE.INTRA.VDW>
0

>  <SCORE.INTRA.VDW.0>
0

>  <SCORE.INTRA.norm>
0

>  <SCORE.RESTR>
0

>  <SCORE.RESTR.CAVITY>
0

>  <SCORE.RESTR.norm>
0

>  <SCORE.SYSTEM>
0

>  <SCORE.SYSTEM.CONST>
0

>  <SCORE.SYSTEM.DIHEDRAL>
0

>  <SCORE.SYSTEM.SOLV>
0

>  <SCORE.SYSTEM.norm>
0

>  <SCORE.heavy>
13

>  <SCORE.norm>
-3.01375

>  <RMSD>
0.765

$$$$
1eht cryst
 OpenBabel11021811383D
libRbt.so/2013.1/901 2013/11/27
 13 14  0  0  0  0  0  0  0  0999 V2000
   -4.7766   -7.8774   10.6513 C   0  0  0  0  0  0  0  0  0  0  0  0
   -5.2555   -7.0051   11.6246 N   0  0  0  0  0  0  0  0  0  0  0  0
   -5.6567   -7.5325   12.8248 C   0  0  0  0  0  0  0  0  0  0  0  0
   -5.5651   -8.7557   12.9453 O   0  0  0  0  0  0  0  0  0  0  0  0
   -6.1489   -6.7977   13.8737 N   0  0  0  0  0  0  0  0  0  0  0  0
   -6.5469   -7.3533   15.0786 C   0  0  0  0  0  0  0  0  0  0  0  0
   -6.2074   -5.4614   13.6084 C   0  0  0  0  0  0  0  0  0  0  0  0
   -5.8064   -4.9471   12.4095 C   0  0  0  0  0  0  0  0  0  0  0  0
   -5.2985   -5.6825   11.3233 C   0  0  0  0  0  0  0  0  0  0  0  0
   -4.9242   -5.2686   10.2270 O   0  0  0  0  0  0  0  0  0  0  0  0
   -6.0065   -3.5764   12.5019 N   0  0  0  0  0  0  0  0  0  0  0  0
   -6.5111   -3.3566   13.7391 C   0  0  0  0  0  0  0  0  0  0  0  0
   -6.6520   -4.4440   14.4455 N   0  0  0  0  0  0  0  0  0  0  0  0
  1  2  1  0  0  0  0
  2  9  1  0  0  0  0
  2  3  1  0  0  0  0
  3  5  1  0  0  0  0
  3  4  2  0  0  0  0
  5  6  1  0  0  0  0
  5  7  1  0  0  0  0
  7  8  2  0  0  0  0
  7 13  1  0  0  0  0
  8  9  1  0  0  0  0
  8 11  1  0  0  0  0
  9 10  2  0  0  0  0
 11 12  1  0  0  0  0
 12 13  2  0  0  0  0
M  END
>  <CHROM.1>
-5.78148303,-6.04673150,12.68549413,-0.78744904,1.18672490,-0.29952511

>  <Name>
1eht cryst

>  <RI>
0

>  <Rbt.Current_Directory>
/home/itssahil/PROJECTS/Mol_Feturizer/New_Systems/rnas/1eht

>  <Rbt.Executable>
rbdock ($Id: //depot/dev/client3/rdock/2013.1/src/exe/rbdock.cxx#4 $)

>  <Rbt.Library>
libRbt.so (2013.1, Build901 2013/11/27)

>  <Rbt.Parameter_File>
/export/apps/rDock/src/rDock_2013.1_src/data/scripts/dock_solv.prm

>  <Rbt.Receptor>
prm/blind_docking_40.prm

>  <SCORE>
-39.2181

>  <SCORE.INTER>
-39.2181

>  <SCORE.INTER.CONST>
1

>  <SCORE.INTER.POLAR>
-1.91969

>  <SCORE.INTER.ROT>
0

>  <SCORE.INTER.SOLV>
9.83646

>  <SCORE.INTER.VDW>
-26.6253

>  <SCORE.INTER.norm>
-3.01678

>  <SCORE.INTRA>
0

>  <SCORE.INTRA.DIHEDRAL>
0

>  <SCORE.INTRA.DIHEDRAL.0>
0

>  <SCORE.INTRA.POLAR>
0

>  <SCORE.INTRA.POLAR.0>
0

>  <SCORE.INTRA.REPUL>
0

>  <SCORE.INTRA.REPUL.0>
0

>  <SCORE.INTRA.SOLV>
0

>  <SCORE.INTRA.SOLV.lig_0>
-12.9768

>  <SCORE.INTRA.VDW>
0

>  <SCORE.INTRA.VDW.0>
0

>  <SCORE.INTRA.norm>
0

>  <SCORE.RESTR>
0

>  <SCORE.RESTR.CAVITY>
0

>  <SCORE.RESTR.norm>
0

>  <SCORE.SYSTEM>
0

>  <SCORE.SYSTEM.CONST>
0

>  <SCORE.SYSTEM.DIHEDRAL>
0

>  <SCORE.SYSTEM.SOLV>
0

>  <SCORE.SYSTEM.norm>
0

>  <SCORE.heavy>
13

>  <SCORE.norm>
-3.01678

>  <RMSD>
0.765

$$$$
1eht cryst
 OpenBabel11021811383D
libRbt.so/2013.1/901 2013/11/27
 13 14  0  0  0  0  0  0  0  0999 V2000
   -4.7722   -7.8833   10.6486 C   0  0  0  0  0  0  0  0  0  0  0  0
   -5.2516   -7.0081   11.6190 N   0  0  0  0  0  0  0  0  0  0  0  0
   -5.6523   -7.5317   12.8211 C   0  0  0  0  0  0  0  0  0  0  0  0
   -5.5598   -8.7544   12.9457 O   0  0  0  0  0  0  0  0  0  0  0  0
   -6.1449   -6.7937   13.8675 N   0  0  0  0  0  0  0  0  0  0  0  0
   -6.5425   -7.3455   15.0743 C   0  0  0  0  0  0  0  0  0  0  0  0
   -6.2045   -5.4583   13.5977 C   0  0  0  0  0  0  0  0  0  0  0  0
   -5.8040   -4.9478   12.3970 C   0  0  0  0  0  0  0  0  0  0  0  0
   -5.2956   -5.6865   11.3132 C   0  0  0  0  0  0  0  0  0  0  0  0
   -4.9216   -5.2760   10.2156 O   0  0  0  0  0  0  0  0  0  0  0  0
   -6.0051   -3.5770   12.4848 N   0  0  0  0  0  0  0  0  0  0  0  0
   -6.5097   -3.3534   13.7213 C   0  0  0  0  0  0  0  0  0  0  0  0
   -6.6498   -4.4384   14.4314 N   0  0  0  0  0  0  0  0  0  0  0  0
  1  2  1  0  0  0  0
  2  9  1  0  0  0  0
  2  3  1  0  0  0  0
  3  5  1  0  0  0  0
  3  4  2  0  0  0  0
  5  6  1  0  0  0  0
  5  7  1  0  0  0  0
  7  8  2  0  0  0  0
  7 13  1  0  0  0  0
  8  9  1  0  0  0  0
  8 11  1  0  0  0  0
  9 10  2  0  0  0  0
 11 12  1  0  0  0  0
 12 13  2  0  0  0  0
M  END
>  <CHROM.1>
-5.77820725,-6.04646910,12.67671648,-0.78551850,1.18658517,-0.30469546

>  <Name>
1eht cryst

>  <RI>
0

>  <Rbt.Current_Directory>
/home/itssahil/PROJECTS/Mol_Feturizer/New_Systems/rnas/1eht

>  <Rbt.Executable>
rbdock ($Id: //depot/dev/client3/rdock/2013.1/src/exe/rbdock.cxx#4 $)

>  <Rbt.Library>
libRbt.so (2013.1, Build901 2013/11/27)

>  <Rbt.Parameter_File>
/export/apps/rDock/src/rDock_2013.1_src/data/scripts/dock_solv.prm

>  <Rbt.Receptor>
prm/blind_docking_40.prm

>  <SCORE>
-39.2

>  <SCORE.INTER>
-39.2

>  <SCORE.INTER.CONST>
1

>  <SCORE.INTER.POLAR>
-1.927

>  <SCORE.INTER.ROT>
0

>  <SCORE.INTER.SOLV>
9.83181

>  <SCORE.INTER.VDW>
-26.5872

>  <SCORE.INTER.norm>
-3.01538

>  <SCORE.INTRA>
0

>  <SCORE.INTRA.DIHEDRAL>
0

>  <SCORE.INTRA.DIHEDRAL.0>
0

>  <SCORE.INTRA.POLAR>
0

>  <SCORE.INTRA.POLAR.0>
0

>  <SCORE.INTRA.REPUL>
0

>  <SCORE.INTRA.REPUL.0>
0

>  <SCORE.INTRA.SOLV>
0

>  <SCORE.INTRA.SOLV.lig_0>
-12.9768

>  <SCORE.INTRA.VDW>
0

>  <SCORE.INTRA.VDW.0>
0

>  <SCORE.INTRA.norm>
0

>  <SCORE.RESTR>
0

>  <SCORE.RESTR.CAVITY>
0

>  <SCORE.RESTR.norm>
0

>  <SCORE.SYSTEM>
0

>  <SCORE.SYSTEM.CONST>
0

>  <SCORE.SYSTEM.DIHEDRAL>
0

>  <SCORE.SYSTEM.SOLV>
0

>  <SCORE.SYSTEM.norm>
0

>  <SCORE.heavy>
13

>  <SCORE.norm>
-3.01538

>  <RMSD>
0.765

$$$$
1eht cryst
 OpenBabel11021811383D
libRbt.so/2013.1/901 2013/11/27
 13 14  0  0  0  0  0  0  0  0999 V2000
   -4.7682   -7.8828   10.6449 C   0  0  0  0  0  0  0  0  0  0  0  0
   -5.2503   -7.0047   11.6114 N   0  0  0  0  0  0  0  0  0  0  0  0
   -5.6496   -7.5243   12.8157 C   0  0  0  0  0  0  0  0  0  0  0  0
   -5.5535   -8.7462   12.9456 O   0  0  0  0  0  0  0  0  0  0  0  0
   -6.1444   -6.7831   13.8589 N   0  0  0  0  0  0  0  0  0  0  0  0
   -6.5404   -7.3309   15.0680 C   0  0  0  0  0  0  0  0  0  0  0  0
   -6.2077   -5.4491   13.5833 C   0  0  0  0  0  0  0  0  0  0  0  0
   -5.8086   -4.9427   12.3804 C   0  0  0  0  0  0  0  0  0  0  0  0
   -5.2979   -5.6847   11.2999 C   0  0  0  0  0  0  0  0  0  0  0  0
   -4.9251   -5.2778   10.2005 O   0  0  0  0  0  0  0  0  0  0  0  0
   -6.0136   -3.5721   12.4623 N   0  0  0  0  0  0  0  0  0  0  0  0
   -6.5190   -3.3446   13.6978 C   0  0  0  0  0  0  0  0  0  0  0  0
   -6.6560   -4.4270   14.4125 N   0  0  0  0  0  0  0  0  0  0  0  0
  1  2  1  0  0  0  0
  2  9  1  0  0  0  0
  2  3  1  0  0  0  0
  3  5  1  0  0  0  0
  3  4  2  0  0  0  0
  5  6  1  0  0  0  0
  5  7  1  0  0  0  0
  7  8  2  0  0  0  0
  7 13  1  0  0  0  0
  8  9  1  0  0  0  0
  8 11  1  0  0  0  0
  9 10  2  0  0  0  0
 11 12  1  0  0  0  0
 12 13  2  0  0  0  0
M  END
>  <CHROM.1>
-5.77966470,-6.04007701,12.66491803,-0.77832846,1.18563888,-0.31569924

>  <Name>
1eht cryst

>  <RI>
0

>  <Rbt.Current_Directory>
/home/itssahil/PROJECTS/Mol_Feturizer/New_Systems/rnas/1eht

>  <Rbt.Executable>
rbdock ($Id: //depot/dev/client3/rdock/2013.1/src/exe/rbdock.cxx#4 $)

>  <Rbt.Library>
libRbt.so (2013.1, Build901 2013/11/27)

>  <Rbt.Parameter_File>
/export/apps/rDock/src/rDock_2013.1_src/data/scripts/dock_solv.prm

>  <Rbt.Receptor>
prm/blind_docking_40.prm

>  <SCORE>
-39.1899

>  <SCORE.INTER>
-39.1899

>  <SCORE.INTER.CONST>
1

>  <SCORE.INTER.POLAR>
-1.92968

>  <SCORE.INTER.ROT>
0

>  <SCORE.INTER.SOLV>
9.83277

>  <SCORE.INTER.VDW>
-26.5719

>  <SCORE.INTER.norm>
-3.01461

>  <SCORE.INTRA>
0

>  <SCORE.INTRA.DIHEDRAL>
0

>  <SCORE.INTRA.DIHEDRAL.0>
0

>  <SCORE.INTRA.POLAR>
0

>  <SCORE.INTRA.POLAR.0>
0

>  <SCORE.INTRA.REPUL>
0

>  <SCORE.INTRA.REPUL.0>
0

>  <SCORE.INTRA.SOLV>
0

>  <SCORE.INTRA.SOLV.lig_0>
-12.9768

>  <SCORE.INTRA.VDW>
0

>  <SCORE.INTRA.VDW.0>
0

>  <SCORE.INTRA.norm>
0

>  <SCORE.RESTR>
0

>  <SCORE.RESTR.CAVITY>
0

>  <SCORE.RESTR.norm>
0

>  <SCORE.SYSTEM>
0

>  <SCORE.SYSTEM.CONST>
0

>  <SCORE.SYSTEM.DIHEDRAL>
0

>  <SCORE.SYSTEM.SOLV>
0

>  <SCORE.SYSTEM.norm>
0

>  <SCORE.heavy>
13

>  <SCORE.norm>
-3.01461

>  <RMSD>
0.765

$$$$
1eht cryst
 OpenBabel11021811383D
libRbt.so/2013.1/901 2013/11/27
 13 14  0  0  0  0  0  0  0  0999 V2000
   -4.7802   -7.8759   10.6521 C   0  0  0  0  0  0  0  0  0  0  0  0
   -5.2579   -7.0041   11.6264 N   0  0  0  0  0  0  0  0  0  0  0  0
   -5.6559   -7.5318   12.8275 C   0  0  0  0  0  0  0  0  0  0  0  0
   -5.5627   -8.7550   12.9478 O   0  0  0  0  0  0  0  0  0  0  0  0
   -6.1466   -6.7975   13.8774 N   0  0  0  0  0  0  0  0  0  0  0  0
   -6.5414   -7.3535   15.0832 C   0  0  0  0  0  0  0  0  0  0  0  0
   -6.2071   -5.4612   13.6122 C   0  0  0  0  0  0  0  0  0  0  0  0
   -5.8093   -4.9466   12.4124 C   0  0  0  0  0  0  0  0  0  0  0  0
   -5.3029   -5.6815   11.3251 C   0  0  0  0  0  0  0  0  0  0  0  0
   -4.9314   -5.2672   10.2280 O   0  0  0  0  0  0  0  0  0  0  0  0
   -6.0106   -3.5761   12.5052 N   0  0  0  0  0  0  0  0  0  0  0  0
   -6.5127   -3.3568   13.7435 C   0  0  0  0  0  0  0  0  0  0  0  0
   -6.6509   -4.4443   14.4502 N   0  0  0  0  0  0  0  0  0  0  0  0
  1  2  1  0  0  0  0
  2  9  1  0  0  0  0
  2  3  1  0  0  0  0
  3  5  1  0  0  0  0
  3  4  2  0  0  0  0
  5  6  1  0  0  0  0
  5  7  1  0  0  0  0
  7  8  2  0  0  0  0
  7 13  1  0  0  0  0
  8  9  1  0  0  0  0
  8 11  1  0  0  0  0
  9 10  2  0  0  0  0
 11 12  1  0  0  0  0
 12 13  2  0  0  0  0
M  END
>  <CHROM.1>
-5.78256276,-6.04618770,12.68838304,-0.78303877,1.18848741,-0.30365071

>  <Name>
1eht cryst

>  <RI>
0

>  <Rbt.Current_Directory>
/home/itssahil/PROJECTS/Mol_Feturizer/New_Systems/rnas/1eht

>  <Rbt.Executable>
rbdock ($Id: //depot/dev/client3/rdock/2013.1/src/exe/rbdock.cxx#4 $)

>  <Rbt.Library>
libRbt.so (2013.1, Build901 2013/11/27)

>  <Rbt.Parameter_File>
/export/apps/rDock/src/rDock_2013.1_src/data/scripts/dock_solv.prm

>  <Rbt.Receptor>
prm/blind_docking_40.prm

>  <SCORE>
-39.2066

>  <SCORE.INTER>
-39.2066

>  <SCORE.INTER.CONST>
1

>  <SCORE.INTER.POLAR>
-1.91381

>  <SCORE.INTER.ROT>
0

>  <SCORE.INTER.SOLV>
9.83392

>  <SCORE.INTER.VDW>
-26.6363

>  <SCORE.INTER.norm>
-3.01589

>  <SCORE.INTRA>
0

>  <SCORE.INTRA.DIHEDRAL>
0

>  <SCORE.INTRA.DIHEDRAL.0>
0

>  <SCORE.INTRA.POLAR>
0

>  <SCORE.INTRA.POLAR.0>
0

>  <SCORE.INTRA.REPUL>
0

>  <SCORE.INTRA.REPUL.0>
0

>  <SCORE.INTRA.SOLV>
0

>  <SCORE.INTRA.SOLV.lig_0>
-12.9768

>  <SCORE.INTRA.VDW>
0

>  <SCORE.INTRA.VDW.0>
0

>  <SCORE.INTRA.norm>
0

>  <SCORE.RESTR>
0

>  <SCORE.RESTR.CAVITY>
0

>  <SCORE.RESTR.norm>
0

>  <SCORE.SYSTEM>
0

>  <SCORE.SYSTEM.CONST>
0

>  <SCORE.SYSTEM.DIHEDRAL>
0

>  <SCORE.SYSTEM.SOLV>
0

>  <SCORE.SYSTEM.norm>
0

>  <SCORE.heavy>
13

>  <SCORE.norm>
-3.01589

>  <RMSD>
0.765

$$$$
1eht cryst
 OpenBabel11021811383D
libRbt.so/2013.1/901 2013/11/27
 13 14  0  0  0  0  0  0  0  0999 V2000
   -4.7742   -7.8846   10.6489 C   0  0  0  0  0  0  0  0  0  0  0  0
   -5.2535   -7.0096   11.6195 N   0  0  0  0  0  0  0  0  0  0  0  0
   -5.6538   -7.5334   12.8216 C   0  0  0  0  0  0  0  0  0  0  0  0
   -5.5610   -8.7561   12.9460 O   0  0  0  0  0  0  0  0  0  0  0  0
   -6.1462   -6.7956   13.8682 N   0  0  0  0  0  0  0  0  0  0  0  0
   -6.5433   -7.3476   15.0751 C   0  0  0  0  0  0  0  0  0  0  0  0
   -6.2061   -5.4602   13.5986 C   0  0  0  0  0  0  0  0  0  0  0  0
   -5.8060   -4.9495   12.3979 C   0  0  0  0  0  0  0  0  0  0  0  0
   -5.2977   -5.6880   11.3139 C   0  0  0  0  0  0  0  0  0  0  0  0
   -4.9242   -5.2773   10.2162 O   0  0  0  0  0  0  0  0  0  0  0  0
   -6.0073   -3.5787   12.4859 N   0  0  0  0  0  0  0  0  0  0  0  0
   -6.5116   -3.3553   13.7226 C   0  0  0  0  0  0  0  0  0  0  0  0
   -6.6513   -4.4405   14.4325 N   0  0  0  0  0  0  0  0  0  0  0  0
  1  2  1  0  0  0  0
  2  9  1  0  0  0  0
  2  3  1  0  0  0  0
  3  5  1  0  0  0  0
  3  4  2  0  0  0  0
  5  6  1  0  0  0  0
  5  7  1  0  0  0  0
  7  8  2  0  0  0  0
  7 13  1  0  0  0  0
  8  9  1  0  0  0  0
  8 11  1  0  0  0  0
  9 10  2  0  0  0  0
 11 12  1  0  0  0  0
 12 13  2  0  0  0  0
M  END
>  <CHROM.1>
-5.77993688,-6.04817558,12.67745167,-0.78484574,1.18680284,-0.30520552

>  <Name>
1eht cryst

>  <RI>
0

>  <Rbt.Current_Directory>
/home/itssahil/PROJECTS/Mol_Feturizer/New_Systems/rnas/1eht

>  <Rbt.Executable>
rbdock ($Id: //depot/dev/client3/rdock/2013.1/src/exe/rbdock.cxx#4 $)

>  <Rbt.Library>
libRbt.so (2013.1, Build901 2013/11/27)

>  <Rbt.Parameter_File>
/export/apps/rDock/src/rDock_2013.1_src/data/scripts/dock_solv.prm

>  <Rbt.Receptor>
prm/blind_docking_60.prm

>  <SCORE>
-39.1962

>  <SCORE.INTER>
-39.1962

>  <SCORE.INTER.CONST>
1

>  <SCORE.INTER.POLAR>
-1.92683

>  <SCORE.INTER.ROT>
0

>  <SCORE.INTER.SOLV>
9.82753

>  <SCORE.INTER.VDW>
-26.5838

>  <SCORE.INTER.norm>
-3.01509

>  <SCORE.INTRA>
0

>  <SCORE.INTRA.DIHEDRAL>
0

>  <SCORE.INTRA.DIHEDRAL.0>
0

>  <SCORE.INTRA.POLAR>
0

>  <SCORE.INTRA.POLAR.0>
0

>  <SCORE.INTRA.REPUL>
0

>  <SCORE.INTRA.REPUL.0>
0

>  <SCORE.INTRA.SOLV>
0

>  <SCORE.INTRA.SOLV.lig_0>
-12.9768

>  <SCORE.INTRA.VDW>
0

>  <SCORE.INTRA.VDW.0>
0

>  <SCORE.INTRA.norm>
0

>  <SCORE.RESTR>
0

>  <SCORE.RESTR.CAVITY>
0

>  <SCORE.RESTR.norm>
0

>  <SCORE.SYSTEM>
0

>  <SCORE.SYSTEM.CONST>
0

>  <SCORE.SYSTEM.DIHEDRAL>
0

>  <SCORE.SYSTEM.SOLV>
0

>  <SCORE.SYSTEM.norm>
0

>  <SCORE.heavy>
13

>  <SCORE.norm>
-3.01509

>  <RMSD>
0.765

$$$$
1eht cryst
 OpenBabel11021811383D
libRbt.so/2013.1/901 2013/11/27
 13 14  0  0  0  0  0  0  0  0999 V2000
   -4.7775   -7.8865   10.6493 C   0  0  0  0  0  0  0  0  0  0  0  0
   -5.2573   -7.0124   11.6205 N   0  0  0  0  0  0  0  0  0  0  0  0
   -5.6546   -7.5369   12.8232 C   0  0  0  0  0  0  0  0  0  0  0  0
   -5.5590   -8.7594   12.9477 O   0  0  0  0  0  0  0  0  0  0  0  0
   -6.1472   -6.8000   13.8705 N   0  0  0  0  0  0  0  0  0  0  0  0
   -6.5413   -7.3528   15.0780 C   0  0  0  0  0  0  0  0  0  0  0  0
   -6.2103   -5.4648   13.6008 C   0  0  0  0  0  0  0  0  0  0  0  0
   -5.8131   -4.9534   12.3994 C   0  0  0  0  0  0  0  0  0  0  0  0
   -5.3048   -5.6909   11.3148 C   0  0  0  0  0  0  0  0  0  0  0  0
   -4.9338   -5.2795   10.2165 O   0  0  0  0  0  0  0  0  0  0  0  0
   -6.0173   -3.5830   12.4875 N   0  0  0  0  0  0  0  0  0  0  0  0
   -6.5203   -3.3606   13.7249 C   0  0  0  0  0  0  0  0  0  0  0  0
   -6.6565   -4.4460   14.4352 N   0  0  0  0  0  0  0  0  0  0  0  0
  1  2  1  0  0  0  0
  2  9  1  0  0  0  0
  2  3  1  0  0  0  0
  3  5  1  0  0  0  0
  3  4  2  0  0  0  0
  5  6  1  0  0  0  0
  5  7  1  0  0  0  0
  7  8  2  0  0  0  0
  7 13  1  0  0  0  0
  8  9  1  0  0  0  0
  8 11  1  0  0  0  0
  9 10  2  0  0  0  0
 11 12  1  0  0  0  0
 12 13  2  0  0  0  0
M  END
>  <CHROM.1>
-5.78425808,-6.05198266,12.67909759,-0.77811690,1.18753743,-0.31156896

>  <Name>
1eht cryst

>  <RI>
0

>  <Rbt.Current_Directory>
/home/itssahil/PROJECTS/Mol_Feturizer/New_Systems/rnas/1eht

>  <Rbt.Executable>
rbdock ($Id: //depot/dev/client3/rdock/2013.1/src/exe/rbdock.cxx#4 $)

>  <Rbt.Library>
libRbt.so (2013.1, Build901 2013/11/27)

>  <Rbt.Parameter_File>
/export/apps/rDock/src/rDock_2013.1_src/data/scripts/dock_solv.prm

>  <Rbt.Receptor>
prm/blind_docking_60.prm

>  <SCORE>
-39.2172

>  <SCORE.INTER>
-39.2172

>  <SCORE.INTER.CONST>
1

>  <SCORE.INTER.POLAR>
-1.92414

>  <SCORE.INTER.ROT>
0

>  <SCORE.INTER.SOLV>
9.81415

>  <SCORE.INTER.VDW>
-26.6024

>  <SCORE.INTER.norm>
-3.01671

>  <SCORE.INTRA>
0

>  <SCORE.INTRA.DIHEDRAL>
0

>  <SCORE.INTRA.DIHEDRAL.0>
0

>  <SCORE.INTRA.POLAR>
0

>  <SCORE.INTRA.POLAR.0>
0

>  <SCORE.INTRA.REPUL>
0

>  <SCORE.INTRA.REPUL.0>
0

>  <SCORE.INTRA.SOLV>
0

>  <SCORE.INTRA.SOLV.lig_0>
-12.9768

>  <SCORE.INTRA.VDW>
0

>  <SCORE.INTRA.VDW.0>
0

>  <SCORE.INTRA.norm>
0

>  <SCORE.RESTR>
0

>  <SCORE.RESTR.CAVITY>
0

>  <SCORE.RESTR.norm>
0

>  <SCORE.SYSTEM>
0

>  <SCORE.SYSTEM.CONST>
0

>  <SCORE.SYSTEM.DIHEDRAL>
0

>  <SCORE.SYSTEM.SOLV>
0

>  <SCORE.SYSTEM.norm>
0

>  <SCORE.heavy>
13

>  <SCORE.norm>
-3.01671

>  <RMSD>
0.765

$$$$
1eht cryst
 OpenBabel11021811383D
libRbt.so/2013.1/901 2013/11/27
 13 14  0  0  0  0  0  0  0  0999 V2000
   -4.7792   -7.8804   10.6500 C   0  0  0  0  0  0  0  0  0  0  0  0
   -5.2576   -7.0077   11.6232 N   0  0  0  0  0  0  0  0  0  0  0  0
   -5.6627   -7.5351   12.8221 C   0  0  0  0  0  0  0  0  0  0  0  0
   -5.5748   -8.7587   12.9416 O   0  0  0  0  0  0  0  0  0  0  0  0
   -6.1549   -6.7998   13.8707 N   0  0  0  0  0  0  0  0  0  0  0  0
   -6.5569   -7.3555   15.0743 C   0  0  0  0  0  0  0  0  0  0  0  0
   -6.2091   -5.4631   13.6066 C   0  0  0  0  0  0  0  0  0  0  0  0
   -5.8043   -4.9488   12.4090 C   0  0  0  0  0  0  0  0  0  0  0  0
   -5.2962   -5.6847   11.3231 C   0  0  0  0  0  0  0  0  0  0  0  0
   -4.9185   -5.2707   10.2280 O   0  0  0  0  0  0  0  0  0  0  0  0
   -6.0006   -3.5777   12.5023 N   0  0  0  0  0  0  0  0  0  0  0  0
   -6.5071   -3.3577   13.7387 C   0  0  0  0  0  0  0  0  0  0  0  0
   -6.6525   -4.4453   14.4438 N   0  0  0  0  0  0  0  0  0  0  0  0
  1  2  1  0  0  0  0
  2  9  1  0  0  0  0
  2  3  1  0  0  0  0
  3  5  1  0  0  0  0
  3  4  2  0  0  0  0
  5  6  1  0  0  0  0
  5  7  1  0  0  0  0
  7  8  2  0  0  0  0
  7 13  1  0  0  0  0
  8  9  1  0  0  0  0
  8 11  1  0  0  0  0
  9 10  2  0  0  0  0
 11 12  1  0  0  0  0
 12 13  2  0  0  0  0
M  END
>  <CHROM.1>
-5.78298578,-6.04879486,12.68398034,-0.79624869,1.18562363,-0.29040777

>  <Name>
1eht cryst

>  <RI>
0

>  <Rbt.Current_Directory>
/home/itssahil/PROJECTS/Mol_Feturizer/New_Systems/rnas/1eht

>  <Rbt.Executable>
rbdock ($Id: //depot/dev/client3/rdock/2013.1/src/exe/rbdock.cxx#4 $)

>  <Rbt.Library>
libRbt.so (2013.1, Build901 2013/11/27)

>  <Rbt.Parameter_File>
/export/apps/rDock/src/rDock_2013.1_src/data/scripts/dock_solv.prm

>  <Rbt.Receptor>
prm/blind_docking_60.prm

>  <SCORE>
-39.2226

>  <SCORE.INTER>
-39.2226

>  <SCORE.INTER.CONST>
1

>  <SCORE.INTER.POLAR>
-1.92581

>  <SCORE.INTER.ROT>
0

>  <SCORE.INTER.SOLV>
9.83809

>  <SCORE.INTER.VDW>
-26.6084

>  <SCORE.INTER.norm>
-3.01712

>  <SCORE.INTRA>
0

>  <SCORE.INTRA.DIHEDRAL>
0

>  <SCORE.INTRA.DIHEDRAL.0>
0

>  <SCORE.INTRA.POLAR>
0

>  <SCORE.INTRA.POLAR.0>
0

>  <SCORE.INTRA.REPUL>
0

>  <SCORE.INTRA.REPUL.0>
0

>  <SCORE.INTRA.SOLV>
0

>  <SCORE.INTRA.SOLV.lig_0>
-12.9768

>  <SCORE.INTRA.VDW>
0

>  <SCORE.INTRA.VDW.0>
0

>  <SCORE.INTRA.norm>
0

>  <SCORE.RESTR>
0

>  <SCORE.RESTR.CAVITY>
0

>  <SCORE.RESTR.norm>
0

>  <SCORE.SYSTEM>
0

>  <SCORE.SYSTEM.CONST>
0

>  <SCORE.SYSTEM.DIHEDRAL>
0

>  <SCORE.SYSTEM.SOLV>
0

>  <SCORE.SYSTEM.norm>
0

>  <SCORE.heavy>
13

>  <SCORE.norm>
-3.01712

>  <RMSD>
0.765

$$$$
1eht cryst
 OpenBabel11021811383D
libRbt.so/2013.1/901 2013/11/27
 13 14  0  0  0  0  0  0  0  0999 V2000
   -4.7706   -7.8794   10.6461 C   0  0  0  0  0  0  0  0  0  0  0  0
   -5.2482   -7.0013   11.6148 N   0  0  0  0  0  0  0  0  0  0  0  0
   -5.6447   -7.5211   12.8199 C   0  0  0  0  0  0  0  0  0  0  0  0
   -5.5504   -8.7433   12.9485 O   0  0  0  0  0  0  0  0  0  0  0  0
   -6.1350   -6.7799   13.8651 N   0  0  0  0  0  0  0  0  0  0  0  0
   -6.5282   -7.3279   15.0751 C   0  0  0  0  0  0  0  0  0  0  0  0
   -6.1968   -5.4456   13.5908 C   0  0  0  0  0  0  0  0  0  0  0  0
   -5.8005   -4.9389   12.3871 C   0  0  0  0  0  0  0  0  0  0  0  0
   -5.2945   -5.6809   11.3045 C   0  0  0  0  0  0  0  0  0  0  0  0
   -4.9243   -5.2739   10.2042 O   0  0  0  0  0  0  0  0  0  0  0  0
   -6.0028   -3.5680   12.4707 N   0  0  0  0  0  0  0  0  0  0  0  0
   -6.5040   -3.3406   13.7079 C   0  0  0  0  0  0  0  0  0  0  0  0
   -6.6407   -4.4233   14.4222 N   0  0  0  0  0  0  0  0  0  0  0  0
  1  2  1  0  0  0  0
  2  9  1  0  0  0  0
  2  3  1  0  0  0  0
  3  5  1  0  0  0  0
  3  4  2  0  0  0  0
  5  6  1  0  0  0  0
  5  7  1  0  0  0  0
  7  8  2  0  0  0  0
  7 13  1  0  0  0  0
  8  9  1  0  0  0  0
  8 11  1  0  0  0  0
  9 10  2  0  0  0  0
 11 12  1  0  0  0  0
 12 13  2  0  0  0  0
M  END
>  <CHROM.1>
-5.77261983,-6.03656308,12.67064417,-0.78025177,1.18910771,-0.31312100

>  <Name>
1eht cryst

>  <RI>
0

>  <Rbt.Current_Directory>
/home/itssahil/PROJECTS/Mol_Feturizer/New_Systems/rnas/1eht

>  <Rbt.Executable>
rbdock ($Id: //depot/dev/client3/rdock/2013.1/src/exe/rbdock.cxx#4 $)

>  <Rbt.Library>
libRbt.so (2013.1, Build901 2013/11/27)

>  <Rbt.Parameter_File>
/export/apps/rDock/src/rDock_2013.1_src/data/scripts/dock_solv.prm

>  <Rbt.Receptor>
prm/blind_docking_60.prm

>  <SCORE>
-39.2076

>  <SCORE.INTER>
-39.2076

>  <SCORE.INTER.CONST>
1

>  <SCORE.INTER.POLAR>
-1.9225

>  <SCORE.INTER.ROT>
0

>  <SCORE.INTER.SOLV>
9.84421

>  <SCORE.INTER.VDW>
-26.6115

>  <SCORE.INTER.norm>
-3.01597

>  <SCORE.INTRA>
0

>  <SCORE.INTRA.DIHEDRAL>
0

>  <SCORE.INTRA.DIHEDRAL.0>
0

>  <SCORE.INTRA.POLAR>
0

>  <SCORE.INTRA.POLAR.0>
0

>  <SCORE.INTRA.REPUL>
0

>  <SCORE.INTRA.REPUL.0>
0

>  <SCORE.INTRA.SOLV>
0

>  <SCORE.INTRA.SOLV.lig_0>
-12.9768

>  <SCORE.INTRA.VDW>
0

>  <SCORE.INTRA.VDW.0>
0

>  <SCORE.INTRA.norm>
0

>  <SCORE.RESTR>
0

>  <SCORE.RESTR.CAVITY>
0

>  <SCORE.RESTR.norm>
0

>  <SCORE.SYSTEM>
0

>  <SCORE.SYSTEM.CONST>
0

>  <SCORE.SYSTEM.DIHEDRAL>
0

>  <SCORE.SYSTEM.SOLV>
0

>  <SCORE.SYSTEM.norm>
0

>  <SCORE.heavy>
13

>  <SCORE.norm>
-3.01597

>  <RMSD>
0.765

$$$$
1eht cryst
 OpenBabel11021811383D
libRbt.so/2013.1/901 2013/11/27
 13 14  0  0  0  0  0  0  0  0999 V2000
   -4.7686   -7.8835   10.6455 C   0  0  0  0  0  0  0  0  0  0  0  0
   -5.2465   -7.0049   11.6136 N   0  0  0  0  0  0  0  0  0  0  0  0
   -5.6435   -7.5242   12.8187 C   0  0  0  0  0  0  0  0  0  0  0  0
   -5.5494   -8.7463   12.9480 O   0  0  0  0  0  0  0  0  0  0  0  0
   -6.1342   -6.7825   13.8635 N   0  0  0  0  0  0  0  0  0  0  0  0
   -6.5280   -7.3300   15.0735 C   0  0  0  0  0  0  0  0  0  0  0  0
   -6.1958   -5.4483   13.5886 C   0  0  0  0  0  0  0  0  0  0  0  0
   -5.7989   -4.9422   12.3848 C   0  0  0  0  0  0  0  0  0  0  0  0
   -5.2925   -5.6847   11.3027 C   0  0  0  0  0  0  0  0  0  0  0  0
   -4.9219   -5.2781   10.2024 O   0  0  0  0  0  0  0  0  0  0  0  0
   -6.0012   -3.5712   12.4677 N   0  0  0  0  0  0  0  0  0  0  0  0
   -6.5029   -3.3432   13.7046 C   0  0  0  0  0  0  0  0  0  0  0  0
   -6.6400   -4.4256   14.4193 N   0  0  0  0  0  0  0  0  0  0  0  0
  1  2  1  0  0  0  0
  2  9  1  0  0  0  0
  2  3  1  0  0  0  0
  3  5  1  0  0  0  0
  3  4  2  0  0  0  0
  5  6  1  0  0  0  0
  5  7  1  0  0  0  0
  7  8  2  0  0  0  0
  7 13  1  0  0  0  0
  8  9  1  0  0  0  0
  8 11  1  0  0  0  0
  9 10  2  0  0  0  0
 11 12  1  0  0  0  0
 12 13  2  0  0  0  0
M  END
>  <CHROM.1>
-5.77129255,-6.03969216,12.66882111,-0.78082652,1.18872598,-0.31301784

>  <Name>
1eht cryst

>  <RI>
0

>  <Rbt.Current_Directory>
/home/itssahil/PROJECTS/Mol_Feturizer/New_Systems/rnas/1eht

>  <Rbt.Executable>
rbdock ($Id: //depot/dev/client3/rdock/2013.1/src/exe/rbdock.cxx#4 $)

>  <Rbt.Library>
libRbt.so (2013.1, Build901 2013/11/27)

>  <Rbt.Parameter_File>
/export/apps/rDock/src/rDock_2013.1_src/data/scripts/dock_solv.prm

>  <Rbt.Receptor>
prm/pocket_docking_2.prm

>  <SCORE>
-39.1965

>  <SCORE.INTER>
-39.1965

>  <SCORE.INTER.CONST>
1

>  <SCORE.INTER.POLAR>
-1.92699

>  <SCORE.INTER.ROT>
0

>  <SCORE.INTER.SOLV>
9.83796

>  <SCORE.INTER.VDW>
-26.587

>  <SCORE.INTER.norm>
-3.01512

>  <SCORE.INTRA>
0

>  <SCORE.INTRA.DIHEDRAL>
0

>  <SCORE.INTRA.DIHEDRAL.0>
0

>  <SCORE.INTRA.POLAR>
0

>  <SCORE.INTRA.POLAR.0>
0

>  <SCORE.INTRA.REPUL>
0

>  <SCORE.INTRA.REPUL.0>
0

>  <SCORE.INTRA.SOLV>
0

>  <SCORE.INTRA.SOLV.lig_0>
-12.9768

>  <SCORE.INTRA.VDW>
0

>  <SCORE.INTRA.VDW.0>
0

>  <SCORE.INTRA.norm>
0

>  <SCORE.RESTR>
0

>  <SCORE.RESTR.CAVITY>
0

>  <SCORE.RESTR.norm>
0

>  <SCORE.SYSTEM>
0

>  <SCORE.SYSTEM.CONST>
0

>  <SCORE.SYSTEM.DIHEDRAL>
0

>  <SCORE.SYSTEM.SOLV>
0

>  <SCORE.SYSTEM.norm>
0

>  <SCORE.heavy>
13

>  <SCORE.norm>
-3.01512

>  <RMSD>
0.765

$$$$
1eht cryst
 OpenBabel11021811383D
libRbt.so/2013.1/901 2013/11/27
 13 14  0  0  0  0  0  0  0  0999 V2000
   -4.7736   -7.8830   10.6488 C   0  0  0  0  0  0  0  0  0  0  0  0
   -5.2530   -7.0084   11.6197 N   0  0  0  0  0  0  0  0  0  0  0  0
   -5.6542   -7.5329   12.8212 C   0  0  0  0  0  0  0  0  0  0  0  0
   -5.5622   -8.7558   12.9448 O   0  0  0  0  0  0  0  0  0  0  0  0
   -6.1469   -6.7955   13.8681 N   0  0  0  0  0  0  0  0  0  0  0  0
   -6.5450   -7.3483   15.0743 C   0  0  0  0  0  0  0  0  0  0  0  0
   -6.2058   -5.4599   13.5995 C   0  0  0  0  0  0  0  0  0  0  0  0
   -5.8047   -4.9486   12.3993 C   0  0  0  0  0  0  0  0  0  0  0  0
   -5.2962   -5.6866   11.3151 C   0  0  0  0  0  0  0  0  0  0  0  0
   -4.9218   -5.2752   10.2179 O   0  0  0  0  0  0  0  0  0  0  0  0
   -6.0052   -3.5777   12.4882 N   0  0  0  0  0  0  0  0  0  0  0  0
   -6.5102   -3.3550   13.7248 C   0  0  0  0  0  0  0  0  0  0  0  0
   -6.6509   -4.4406   14.4339 N   0  0  0  0  0  0  0  0  0  0  0  0
  1  2  1  0  0  0  0
  2  9  1  0  0  0  0
  2  3  1  0  0  0  0
  3  5  1  0  0  0  0
  3  4  2  0  0  0  0
  5  6  1  0  0  0  0
  5  7  1  0  0  0  0
  7  8  2  0  0  0  0
  7 13  1  0  0  0  0
  8  9  1  0  0  0  0
  8 11  1  0  0  0  0
  9 10  2  0  0  0  0
 11 12  1  0  0  0  0
 12 13  2  0  0  0  0
M  END
>  <CHROM.1>
-5.77945376,-6.04748529,12.67813267,-0.78681258,1.18641757,-0.30264108

>  <Name>
1eht cryst

>  <RI>
0

>  <Rbt.Current_Directory>
/home/itssahil/PROJECTS/Mol_Feturizer/New_Systems/rnas/1eht

>  <Rbt.Executable>
rbdock ($Id: //depot/dev/client3/rdock/2013.1/src/exe/rbdock.cxx#4 $)

>  <Rbt.Library>
libRbt.so (2013.1, Build901 2013/11/27)

>  <Rbt.Parameter_File>
/export/apps/rDock/src/rDock_2013.1_src/data/scripts/dock_solv.prm

>  <Rbt.Receptor>
prm/pocket_docking_2.prm

>  <SCORE>
-39.1968

>  <SCORE.INTER>
-39.1968

>  <SCORE.INTER.CONST>
1

>  <SCORE.INTER.POLAR>
-1.92674

>  <SCORE.INTER.ROT>
0

>  <SCORE.INTER.SOLV>
9.83141

>  <SCORE.INTER.VDW>
-26.5859

>  <SCORE.INTER.norm>
-3.01514

>  <SCORE.INTRA>
0

>  <SCORE.INTRA.DIHEDRAL>
0

>  <SCORE.INTRA.DIHEDRAL.0>
0

>  <SCORE.INTRA.POLAR>
0

>  <SCORE.INTRA.POLAR.0>
0

>  <SCORE.INTRA.REPUL>
0

>  <SCORE.INTRA.REPUL.0>
0

>  <SCORE.INTRA.SOLV>
0

>  <SCORE.INTRA.SOLV.lig_0>
-12.9768

>  <SCORE.INTRA.VDW>
0

>  <SCORE.INTRA.VDW.0>
0

>  <SCORE.INTRA.norm>
0

>  <SCORE.RESTR>
0

>  <SCORE.RESTR.CAVITY>
0

>  <SCORE.RESTR.norm>
0

>  <SCORE.SYSTEM>
0

>  <SCORE.SYSTEM.CONST>
0

>  <SCORE.SYSTEM.DIHEDRAL>
0

>  <SCORE.SYSTEM.SOLV>
0

>  <SCORE.SYSTEM.norm>
0

>  <SCORE.heavy>
13

>  <SCORE.norm>
-3.01514

>  <RMSD>
0.765

$$$$
1eht cryst
 OpenBabel11021811383D
libRbt.so/2013.1/901 2013/11/27
 13 14  0  0  0  0  0  0  0  0999 V2000
   -4.7770   -7.8857   10.6480 C   0  0  0  0  0  0  0  0  0  0  0  0
   -5.2554   -7.0102   11.6186 N   0  0  0  0  0  0  0  0  0  0  0  0
   -5.6557   -7.5336   12.8209 C   0  0  0  0  0  0  0  0  0  0  0  0
   -5.5638   -8.7564   12.9455 O   0  0  0  0  0  0  0  0  0  0  0  0
   -6.1472   -6.7953   13.8676 N   0  0  0  0  0  0  0  0  0  0  0  0
   -6.5444   -7.3469   15.0746 C   0  0  0  0  0  0  0  0  0  0  0  0
   -6.2061   -5.4599   13.5979 C   0  0  0  0  0  0  0  0  0  0  0  0
   -5.8060   -4.9496   12.3970 C   0  0  0  0  0  0  0  0  0  0  0  0
   -5.2986   -5.6886   11.3129 C   0  0  0  0  0  0  0  0  0  0  0  0
   -4.9251   -5.2783   10.2150 O   0  0  0  0  0  0  0  0  0  0  0  0
   -6.0062   -3.5787   12.4849 N   0  0  0  0  0  0  0  0  0  0  0  0
   -6.5100   -3.3547   13.7217 C   0  0  0  0  0  0  0  0  0  0  0  0
   -6.6503   -4.4397   14.4318 N   0  0  0  0  0  0  0  0  0  0  0  0
  1  2  1  0  0  0  0
  2  9  1  0  0  0  0
  2  3  1  0  0  0  0
  3  5  1  0  0  0  0
  3  4  2  0  0  0  0
  5  6  1  0  0  0  0
  5  7  1  0  0  0  0
  7  8  2  0  0  0  0
  7 13  1  0  0  0  0
  8  9  1  0  0  0  0
  8 11  1  0  0  0  0
  9 10  2  0  0  0  0
 11 12  1  0  0  0  0
 12 13  2  0  0  0  0
M  END
>  <CHROM.1>
-5.78072367,-6.04829148,12.67667263,-0.78664250,1.18731379,-0.30364719

>  <Name>
1eht cryst

>  <RI>
0

>  <Rbt.Current_Directory>
/home/itssahil/PROJECTS/Mol_Feturizer/New_Systems/rnas/1eht

>  <Rbt.Executable>
rbdock ($Id: //depot/dev/client3/rdock/2013.1/src/exe/rbdock.cxx#4 $)

>  <Rbt.Library>
libRbt.so (2013.1, Build901 2013/11/27)

>  <Rbt.Parameter_File>
/export/apps/rDock/src/rDock_2013.1_src/data/scripts/dock_solv.prm

>  <Rbt.Receptor>
prm/pocket_docking_5.prm

>  <SCORE>
-39.1963

>  <SCORE.INTER>
-39.1963

>  <SCORE.INTER.CONST>
1

>  <SCORE.INTER.POLAR>
-1.92751

>  <SCORE.INTER.ROT>
0

>  <SCORE.INTER.SOLV>
9.82743

>  <SCORE.INTER.VDW>
-26.5817

>  <SCORE.INTER.norm>
-3.0151

>  <SCORE.INTRA>
0

>  <SCORE.INTRA.DIHEDRAL>
0

>  <SCORE.INTRA.DIHEDRAL.0>
0

>  <SCORE.INTRA.POLAR>
0

>  <SCORE.INTRA.POLAR.0>
0

>  <SCORE.INTRA.REPUL>
0

>  <SCORE.INTRA.REPUL.0>
0

>  <SCORE.INTRA.SOLV>
0

>  <SCORE.INTRA.SOLV.lig_0>
-12.9768

>  <SCORE.INTRA.VDW>
0

>  <SCORE.INTRA.VDW.0>
0

>  <SCORE.INTRA.norm>
0

>  <SCORE.RESTR>
0

>  <SCORE.RESTR.CAVITY>
0

>  <SCORE.RESTR.norm>
0

>  <SCORE.SYSTEM>
0

>  <SCORE.SYSTEM.CONST>
0

>  <SCORE.SYSTEM.DIHEDRAL>
0

>  <SCORE.SYSTEM.SOLV>
0

>  <SCORE.SYSTEM.norm>
0

>  <SCORE.heavy>
13

>  <SCORE.norm>
-3.0151

>  <RMSD>
0.765

$$$$
1eht cryst
 OpenBabel11021811383D
libRbt.so/2013.1/901 2013/11/27
 13 14  0  0  0  0  0  0  0  0999 V2000
   -4.7817   -7.8802   10.6504 C   0  0  0  0  0  0  0  0  0  0  0  0
   -5.2593   -7.0073   11.6238 N   0  0  0  0  0  0  0  0  0  0  0  0
   -5.6562   -7.5336   12.8260 C   0  0  0  0  0  0  0  0  0  0  0  0
   -5.5621   -8.7565   12.9480 O   0  0  0  0  0  0  0  0  0  0  0  0
   -6.1466   -6.7981   13.8752 N   0  0  0  0  0  0  0  0  0  0  0  0
   -6.5402   -7.3527   15.0820 C   0  0  0  0  0  0  0  0  0  0  0  0
   -6.2082   -5.4623   13.6081 C   0  0  0  0  0  0  0  0  0  0  0  0
   -5.8115   -4.9491   12.4073 C   0  0  0  0  0  0  0  0  0  0  0  0
   -5.3054   -5.6853   11.3207 C   0  0  0  0  0  0  0  0  0  0  0  0
   -4.9349   -5.2722   10.2228 O   0  0  0  0  0  0  0  0  0  0  0  0
   -6.0137   -3.5787   12.4982 N   0  0  0  0  0  0  0  0  0  0  0  0
   -6.5151   -3.3579   13.7366 C   0  0  0  0  0  0  0  0  0  0  0  0
   -6.6521   -4.4445   14.4449 N   0  0  0  0  0  0  0  0  0  0  0  0
  1  2  1  0  0  0  0
  2  9  1  0  0  0  0
  2  3  1  0  0  0  0
  3  5  1  0  0  0  0
  3  4  2  0  0  0  0
  5  6  1  0  0  0  0
  5  7  1  0  0  0  0
  7  8  2  0  0  0  0
  7 13  1  0  0  0  0
  8  9  1  0  0  0  0
  8 11  1  0  0  0  0
  9 10  2  0  0  0  0
 11 12  1  0  0  0  0
 12 13  2  0  0  0  0
M  END
>  <CHROM.1>
-5.78388111,-6.04828348,12.68481685,-0.78079551,1.18892961,-0.30716068

>  <Name>
1eht cryst

>  <RI>
0

>  <Rbt.Current_Directory>
/home/itssahil/PROJECTS/Mol_Feturizer/New_Systems/rnas/1eht

>  <Rbt.Executable>
rbdock ($Id: //depot/dev/client3/rdock/2013.1/src/exe/rbdock.cxx#4 $)

>  <Rbt.Library>
libRbt.so (2013.1, Build901 2013/11/27)

>  <Rbt.Parameter_File>
/export/apps/rDock/src/rDock_2013.1_src/data/scripts/dock_solv.prm

>  <Rbt.Receptor>
prm/pocket_docking_8.prm

>  <SCORE>
-39.2088

>  <SCORE.INTER>
-39.2088

>  <SCORE.INTER.CONST>
1

>  <SCORE.INTER.POLAR>
-1.9167

>  <SCORE.INTER.ROT>
0

>  <SCORE.INTER.SOLV>
9.82545

>  <SCORE.INTER.VDW>
-26.6254

>  <SCORE.INTER.norm>
-3.01606

>  <SCORE.INTRA>
0

>  <SCORE.INTRA.DIHEDRAL>
0

>  <SCORE.INTRA.DIHEDRAL.0>
0

>  <SCORE.INTRA.POLAR>
0

>  <SCORE.INTRA.POLAR.0>
0

>  <SCORE.INTRA.REPUL>
0

>  <SCORE.INTRA.REPUL.0>
0

>  <SCORE.INTRA.SOLV>
0

>  <SCORE.INTRA.SOLV.lig_0>
-12.9768

>  <SCORE.INTRA.VDW>
0

>  <SCORE.INTRA.VDW.0>
0

>  <SCORE.INTRA.norm>
0

>  <SCORE.RESTR>
0

>  <SCORE.RESTR.CAVITY>
0

>  <SCORE.RESTR.norm>
0

>  <SCORE.SYSTEM>
0

>  <SCORE.SYSTEM.CONST>
0

>  <SCORE.SYSTEM.DIHEDRAL>
0

>  <SCORE.SYSTEM.SOLV>
0

>  <SCORE.SYSTEM.norm>
0

>  <SCORE.heavy>
13

>  <SCORE.norm>
-3.01606

>  <RMSD>
0.765

$$$$
1eht cryst
 OpenBabel11021811383D
libRbt.so/2013.1/901 2013/11/27
 13 14  0  0  0  0  0  0  0  0999 V2000
   -4.7611   -7.8783   10.6469 C   0  0  0  0  0  0  0  0  0  0  0  0
   -5.2434   -7.0007   11.6137 N   0  0  0  0  0  0  0  0  0  0  0  0
   -5.6448   -7.5210   12.8169 C   0  0  0  0  0  0  0  0  0  0  0  0
   -5.5502   -8.7432   12.9458 O   0  0  0  0  0  0  0  0  0  0  0  0
   -6.1401   -6.7804   13.8602 N   0  0  0  0  0  0  0  0  0  0  0  0
   -6.5383   -7.3289   15.0683 C   0  0  0  0  0  0  0  0  0  0  0  0
   -6.2017   -5.4460   13.5859 C   0  0  0  0  0  0  0  0  0  0  0  0
   -5.8005   -4.9388   12.3840 C   0  0  0  0  0  0  0  0  0  0  0  0
   -5.2893   -5.6803   11.3034 C   0  0  0  0  0  0  0  0  0  0  0  0
   -4.9147   -5.2727   10.2049 O   0  0  0  0  0  0  0  0  0  0  0  0
   -6.0041   -3.5681   12.4670 N   0  0  0  0  0  0  0  0  0  0  0  0
   -6.5109   -3.3412   13.7020 C   0  0  0  0  0  0  0  0  0  0  0  0
   -6.6499   -4.4242   14.4155 N   0  0  0  0  0  0  0  0  0  0  0  0
  1  2  1  0  0  0  0
  2  9  1  0  0  0  0
  2  3  1  0  0  0  0
  3  5  1  0  0  0  0
  3  4  2  0  0  0  0
  5  6  1  0  0  0  0
  5  7  1  0  0  0  0
  7  8  2  0  0  0  0
  7 13  1  0  0  0  0
  8  9  1  0  0  0  0
  8 11  1  0  0  0  0
  9 10  2  0  0  0  0
 11 12  1  0  0  0  0
 12 13  2  0  0  0  0
M  END
>  <CHROM.1>
-5.77314102,-6.03651054,12.66745610,-0.78207372,1.18476995,-0.31123734

>  <Name>
1eht cryst

>  <RI>
0

>  <Rbt.Current_Directory>
/home/itssahil/PROJECTS/Mol_Feturizer/New_Systems/rnas/1eht

>  <Rbt.Executable>
rbdock ($Id: //depot/dev/client3/rdock/2013.1/src/exe/rbdock.cxx#4 $)

>  <Rbt.Library>
libRbt.so (2013.1, Build901 2013/11/27)

>  <Rbt.Parameter_File>
/export/apps/rDock/src/rDock_2013.1_src/data/scripts/dock_solv.prm

>  <Rbt.Receptor>
prm/pocket_docking_8.prm

>  <SCORE>
-39.1814

>  <SCORE.INTER>
-39.1814

>  <SCORE.INTER.CONST>
1

>  <SCORE.INTER.POLAR>
-1.92904

>  <SCORE.INTER.ROT>
0

>  <SCORE.INTER.SOLV>
9.84753

>  <SCORE.INTER.VDW>
-26.5733

>  <SCORE.INTER.norm>
-3.01395

>  <SCORE.INTRA>
0

>  <SCORE.INTRA.DIHEDRAL>
0

>  <SCORE.INTRA.DIHEDRAL.0>
0

>  <SCORE.INTRA.POLAR>
0

>  <SCORE.INTRA.POLAR.0>
0

>  <SCORE.INTRA.REPUL>
0

>  <SCORE.INTRA.REPUL.0>
0

>  <SCORE.INTRA.SOLV>
0

>  <SCORE.INTRA.SOLV.lig_0>
-12.9768

>  <SCORE.INTRA.VDW>
0

>  <SCORE.INTRA.VDW.0>
0

>  <SCORE.INTRA.norm>
0

>  <SCORE.RESTR>
0

>  <SCORE.RESTR.CAVITY>
0

>  <SCORE.RESTR.norm>
0

>  <SCORE.SYSTEM>
0

>  <SCORE.SYSTEM.CONST>
0

>  <SCORE.SYSTEM.DIHEDRAL>
0

>  <SCORE.SYSTEM.SOLV>
0

>  <SCORE.SYSTEM.norm>
0

>  <SCORE.heavy>
13

>  <SCORE.norm>
-3.01395

>  <RMSD>
0.765

$$$$
1eht cryst
 OpenBabel11021811383D
libRbt.so/2013.1/901 2013/11/27
 13 14  0  0  0  0  0  0  0  0999 V2000
   -4.7753   -7.8827   10.6473 C   0  0  0  0  0  0  0  0  0  0  0  0
   -5.2521   -7.0060   11.6177 N   0  0  0  0  0  0  0  0  0  0  0  0
   -5.6532   -7.5283   12.8201 C   0  0  0  0  0  0  0  0  0  0  0  0
   -5.5634   -8.7512   12.9451 O   0  0  0  0  0  0  0  0  0  0  0  0
   -6.1434   -6.7888   13.8667 N   0  0  0  0  0  0  0  0  0  0  0  0
   -6.5414   -7.3394   15.0739 C   0  0  0  0  0  0  0  0  0  0  0  0
   -6.2001   -5.4534   13.5965 C   0  0  0  0  0  0  0  0  0  0  0  0
   -5.7992   -4.9442   12.3954 C   0  0  0  0  0  0  0  0  0  0  0  0
   -5.2932   -5.6845   11.3115 C   0  0  0  0  0  0  0  0  0  0  0  0
   -4.9190   -5.2751   10.2135 O   0  0  0  0  0  0  0  0  0  0  0  0
   -5.9971   -3.5729   12.4828 N   0  0  0  0  0  0  0  0  0  0  0  0
   -6.5004   -3.3478   13.7196 C   0  0  0  0  0  0  0  0  0  0  0  0
   -6.6425   -4.4323   14.4301 N   0  0  0  0  0  0  0  0  0  0  0  0
  1  2  1  0  0  0  0
  2  9  1  0  0  0  0
  2  3  1  0  0  0  0
  3  5  1  0  0  0  0
  3  4  2  0  0  0  0
  5  6  1  0  0  0  0
  5  7  1  0  0  0  0
  7  8  2  0  0  0  0
  7 13  1  0  0  0  0
  8  9  1  0  0  0  0
  8 11  1  0  0  0  0
  9 10  2  0  0  0  0
 11 12  1  0  0  0  0
 12 13  2  0  0  0  0
M  END
>  <CHROM.1>
-5.77575834,-6.04287696,12.67540641,-0.79085625,1.18789003,-0.30006697

>  <Name>
1eht cryst

>  <RI>
0

>  <Rbt.Current_Directory>
/home/itssahil/PROJECTS/Mol_Feturizer/New_Systems/rnas/1eht

>  <Rbt.Executable>
rbdock ($Id: //depot/dev/client3/rdock/2013.1/src/exe/rbdock.cxx#4 $)

>  <Rbt.Library>
libRbt.so (2013.1, Build901 2013/11/27)

>  <Rbt.Parameter_File>
/export/apps/rDock/src/rDock_2013.1_src/data/scripts/dock_solv.prm

>  <Rbt.Receptor>
prm/blind_docking_100.prm

>  <SCORE>
-39.18

>  <SCORE.INTER>
-39.18

>  <SCORE.INTER.CONST>
1

>  <SCORE.INTER.POLAR>
-1.92699

>  <SCORE.INTER.ROT>
0

>  <SCORE.INTER.SOLV>
9.84152

>  <SCORE.INTER.VDW>
-26.5772

>  <SCORE.INTER.norm>
-3.01384

>  <SCORE.INTRA>
0

>  <SCORE.INTRA.DIHEDRAL>
0

>  <SCORE.INTRA.DIHEDRAL.0>
0

>  <SCORE.INTRA.POLAR>
0

>  <SCORE.INTRA.POLAR.0>
0

>  <SCORE.INTRA.REPUL>
0

>  <SCORE.INTRA.REPUL.0>
0

>  <SCORE.INTRA.SOLV>
0

>  <SCORE.INTRA.SOLV.lig_0>
-12.9768

>  <SCORE.INTRA.VDW>
0

>  <SCORE.INTRA.VDW.0>
0

>  <SCORE.INTRA.norm>
0

>  <SCORE.RESTR>
0

>  <SCORE.RESTR.CAVITY>
0

>  <SCORE.RESTR.norm>
0

>  <SCORE.SYSTEM>
0

>  <SCORE.SYSTEM.CONST>
0

>  <SCORE.SYSTEM.DIHEDRAL>
0

>  <SCORE.SYSTEM.SOLV>
0

>  <SCORE.SYSTEM.norm>
0

>  <SCORE.heavy>
13

>  <SCORE.norm>
-3.01384

>  <RMSD>
0.766

$$$$
1eht cryst
 OpenBabel11021811383D
libRbt.so/2013.1/901 2013/11/27
 13 14  0  0  0  0  0  0  0  0999 V2000
   -4.7773   -7.8816   10.6447 C   0  0  0  0  0  0  0  0  0  0  0  0
   -5.2514   -7.0015   11.6132 N   0  0  0  0  0  0  0  0  0  0  0  0
   -5.6460   -7.5191   12.8199 C   0  0  0  0  0  0  0  0  0  0  0  0
   -5.5532   -8.7412   12.9500 O   0  0  0  0  0  0  0  0  0  0  0  0
   -6.1329   -6.7757   13.8653 N   0  0  0  0  0  0  0  0  0  0  0  0
   -6.5243   -7.3215   15.0768 C   0  0  0  0  0  0  0  0  0  0  0  0
   -6.1933   -5.4417   13.5893 C   0  0  0  0  0  0  0  0  0  0  0  0
   -5.7989   -4.9372   12.3840 C   0  0  0  0  0  0  0  0  0  0  0  0
   -5.2964   -5.6814   11.3013 C   0  0  0  0  0  0  0  0  0  0  0  0
   -4.9281   -5.2764   10.1997 O   0  0  0  0  0  0  0  0  0  0  0  0
   -5.9990   -3.5659   12.4662 N   0  0  0  0  0  0  0  0  0  0  0  0
   -6.4971   -3.3361   13.7042 C   0  0  0  0  0  0  0  0  0  0  0  0
   -6.6339   -4.4176   14.4203 N   0  0  0  0  0  0  0  0  0  0  0  0
  1  2  1  0  0  0  0
  2  9  1  0  0  0  0
  2  3  1  0  0  0  0
  3  5  1  0  0  0  0
  3  4  2  0  0  0  0
  5  6  1  0  0  0  0
  5  7  1  0  0  0  0
  7  8  2  0  0  0  0
  7 13  1  0  0  0  0
  8  9  1  0  0  0  0
  8 11  1  0  0  0  0
  9 10  2  0  0  0  0
 11 12  1  0  0  0  0
 12 13  2  0  0  0  0
M  END
>  <CHROM.1>
-5.77208562,-6.03450958,12.66896822,-0.78223441,1.19167376,-0.31262329

>  <Name>
1eht cryst

>  <RI>
0

>  <Rbt.Current_Directory>
/home/itssahil/PROJECTS/Mol_Feturizer/New_Systems/rnas/1eht

>  <Rbt.Executable>
rbdock ($Id: //depot/dev/client3/rdock/2013.1/src/exe/rbdock.cxx#4 $)

>  <Rbt.Library>
libRbt.so (2013.1, Build901 2013/11/27)

>  <Rbt.Parameter_File>
/export/apps/rDock/src/rDock_2013.1_src/data/scripts/dock_solv.prm

>  <Rbt.Receptor>
prm/blind_docking_20.prm

>  <SCORE>
-39.2072

>  <SCORE.INTER>
-39.2072

>  <SCORE.INTER.CONST>
1

>  <SCORE.INTER.POLAR>
-1.92148

>  <SCORE.INTER.ROT>
0

>  <SCORE.INTER.SOLV>
9.84573

>  <SCORE.INTER.VDW>
-26.6151

>  <SCORE.INTER.norm>
-3.01594

>  <SCORE.INTRA>
0

>  <SCORE.INTRA.DIHEDRAL>
0

>  <SCORE.INTRA.DIHEDRAL.0>
0

>  <SCORE.INTRA.POLAR>
0

>  <SCORE.INTRA.POLAR.0>
0

>  <SCORE.INTRA.REPUL>
0

>  <SCORE.INTRA.REPUL.0>
0

>  <SCORE.INTRA.SOLV>
0

>  <SCORE.INTRA.SOLV.lig_0>
-12.9768

>  <SCORE.INTRA.VDW>
0

>  <SCORE.INTRA.VDW.0>
0

>  <SCORE.INTRA.norm>
0

>  <SCORE.RESTR>
0

>  <SCORE.RESTR.CAVITY>
0

>  <SCORE.RESTR.norm>
0

>  <SCORE.SYSTEM>
0

>  <SCORE.SYSTEM.CONST>
0

>  <SCORE.SYSTEM.DIHEDRAL>
0

>  <SCORE.SYSTEM.SOLV>
0

>  <SCORE.SYSTEM.norm>
0

>  <SCORE.heavy>
13

>  <SCORE.norm>
-3.01594

>  <RMSD>
0.766

$$$$
1eht cryst
 OpenBabel11021811383D
libRbt.so/2013.1/901 2013/11/27
 13 14  0  0  0  0  0  0  0  0999 V2000
   -4.7915   -7.8874   10.6424 C   0  0  0  0  0  0  0  0  0  0  0  0
   -5.2619   -7.0067   11.6122 N   0  0  0  0  0  0  0  0  0  0  0  0
   -5.6523   -7.5236   12.8206 C   0  0  0  0  0  0  0  0  0  0  0  0
   -5.5593   -8.7458   12.9509 O   0  0  0  0  0  0  0  0  0  0  0  0
   -6.1352   -6.7797   13.8674 N   0  0  0  0  0  0  0  0  0  0  0  0
   -6.5224   -7.3249   15.0805 C   0  0  0  0  0  0  0  0  0  0  0  0
   -6.1964   -5.4458   13.5910 C   0  0  0  0  0  0  0  0  0  0  0  0
   -5.8062   -4.9420   12.3841 C   0  0  0  0  0  0  0  0  0  0  0  0
   -5.3078   -5.6868   11.2998 C   0  0  0  0  0  0  0  0  0  0  0  0
   -4.9433   -5.2823   10.1967 O   0  0  0  0  0  0  0  0  0  0  0  0
   -6.0057   -3.5706   12.4663 N   0  0  0  0  0  0  0  0  0  0  0  0
   -6.4993   -3.3400   13.7060 C   0  0  0  0  0  0  0  0  0  0  0  0
   -6.6337   -4.4212   14.4231 N   0  0  0  0  0  0  0  0  0  0  0  0
  1  2  1  0  0  0  0
  2  9  1  0  0  0  0
  2  3  1  0  0  0  0
  3  5  1  0  0  0  0
  3  4  2  0  0  0  0
  5  6  1  0  0  0  0
  5  7  1  0  0  0  0
  7  8  2  0  0  0  0
  7 13  1  0  0  0  0
  8  9  1  0  0  0  0
  8 11  1  0  0  0  0
  9 10  2  0  0  0  0
 11 12  1  0  0  0  0
 12 13  2  0  0  0  0
M  END
>  <CHROM.1>
-5.77856729,-6.03913518,12.66942188,-0.77979455,1.19517176,-0.31535341

>  <Name>
1eht cryst

>  <RI>
0

>  <Rbt.Current_Directory>
/home/itssahil/PROJECTS/Mol_Feturizer/New_Systems/rnas/1eht

>  <Rbt.Executable>
rbdock ($Id: //depot/dev/client3/rdock/2013.1/src/exe/rbdock.cxx#4 $)

>  <Rbt.Library>
libRbt.so (2013.1, Build901 2013/11/27)

>  <Rbt.Parameter_File>
/export/apps/rDock/src/rDock_2013.1_src/data/scripts/dock_solv.prm

>  <Rbt.Receptor>
prm/blind_docking_20.prm

>  <SCORE>
-39.1929

>  <SCORE.INTER>
-39.1929

>  <SCORE.INTER.CONST>
1

>  <SCORE.INTER.POLAR>
-1.91883

>  <SCORE.INTER.ROT>
0

>  <SCORE.INTER.SOLV>
9.82978

>  <SCORE.INTER.VDW>
-26.6091

>  <SCORE.INTER.norm>
-3.01484

>  <SCORE.INTRA>
0

>  <SCORE.INTRA.DIHEDRAL>
0

>  <SCORE.INTRA.DIHEDRAL.0>
0

>  <SCORE.INTRA.POLAR>
0

>  <SCORE.INTRA.POLAR.0>
0

>  <SCORE.INTRA.REPUL>
0

>  <SCORE.INTRA.REPUL.0>
0

>  <SCORE.INTRA.SOLV>
0

>  <SCORE.INTRA.SOLV.lig_0>
-12.9768

>  <SCORE.INTRA.VDW>
0

>  <SCORE.INTRA.VDW.0>
0

>  <SCORE.INTRA.norm>
0

>  <SCORE.RESTR>
0

>  <SCORE.RESTR.CAVITY>
0

>  <SCORE.RESTR.norm>
0

>  <SCORE.SYSTEM>
0

>  <SCORE.SYSTEM.CONST>
0

>  <SCORE.SYSTEM.DIHEDRAL>
0

>  <SCORE.SYSTEM.SOLV>
0

>  <SCORE.SYSTEM.norm>
0

>  <SCORE.heavy>
13

>  <SCORE.norm>
-3.01484

>  <RMSD>
0.766

$$$$
1eht cryst
 OpenBabel11021811383D
libRbt.so/2013.1/901 2013/11/27
 13 14  0  0  0  0  0  0  0  0999 V2000
   -4.7786   -7.8855   10.6435 C   0  0  0  0  0  0  0  0  0  0  0  0
   -5.2560   -7.0061   11.6111 N   0  0  0  0  0  0  0  0  0  0  0  0
   -5.6541   -7.5244   12.8162 C   0  0  0  0  0  0  0  0  0  0  0  0
   -5.5613   -8.7466   12.9460 O   0  0  0  0  0  0  0  0  0  0  0  0
   -6.1444   -6.7818   13.8605 N   0  0  0  0  0  0  0  0  0  0  0  0
   -6.5393   -7.3284   15.0705 C   0  0  0  0  0  0  0  0  0  0  0  0
   -6.2044   -5.4477   13.5851 C   0  0  0  0  0  0  0  0  0  0  0  0
   -5.8065   -4.9424   12.3813 C   0  0  0  0  0  0  0  0  0  0  0  0
   -5.3005   -5.6859   11.2997 C   0  0  0  0  0  0  0  0  0  0  0  0
   -4.9289   -5.2801   10.1994 O   0  0  0  0  0  0  0  0  0  0  0  0
   -6.0073   -3.5712   12.4636 N   0  0  0  0  0  0  0  0  0  0  0  0
   -6.5093   -3.3422   13.7002 C   0  0  0  0  0  0  0  0  0  0  0  0
   -6.6479   -4.4242   14.4153 N   0  0  0  0  0  0  0  0  0  0  0  0
  1  2  1  0  0  0  0
  2  9  1  0  0  0  0
  2  3  1  0  0  0  0
  3  5  1  0  0  0  0
  3  4  2  0  0  0  0
  5  6  1  0  0  0  0
  5  7  1  0  0  0  0
  7  8  2  0  0  0  0
  7 13  1  0  0  0  0
  8  9  1  0  0  0  0
  8 11  1  0  0  0  0
  9 10  2  0  0  0  0
 11 12  1  0  0  0  0
 12 13  2  0  0  0  0
M  END
>  <CHROM.1>
-5.78018960,-6.03984938,12.66572881,-0.78390770,1.18866769,-0.31053010

>  <Name>
1eht cryst

>  <RI>
0

>  <Rbt.Current_Directory>
/home/itssahil/PROJECTS/Mol_Feturizer/New_Systems/rnas/1eht

>  <Rbt.Executable>
rbdock ($Id: //depot/dev/client3/rdock/2013.1/src/exe/rbdock.cxx#4 $)

>  <Rbt.Library>
libRbt.so (2013.1, Build901 2013/11/27)

>  <Rbt.Parameter_File>
/export/apps/rDock/src/rDock_2013.1_src/data/scripts/dock_solv.prm

>  <Rbt.Receptor>
prm/blind_docking_60.prm

>  <SCORE>
-39.1705

>  <SCORE.INTER>
-39.1705

>  <SCORE.INTER.CONST>
1

>  <SCORE.INTER.POLAR>
-1.92843

>  <SCORE.INTER.ROT>
0

>  <SCORE.INTER.SOLV>
9.8346

>  <SCORE.INTER.VDW>
-26.5638

>  <SCORE.INTER.norm>
-3.01312

>  <SCORE.INTRA>
0

>  <SCORE.INTRA.DIHEDRAL>
0

>  <SCORE.INTRA.DIHEDRAL.0>
0

>  <SCORE.INTRA.POLAR>
0

>  <SCORE.INTRA.POLAR.0>
0

>  <SCORE.INTRA.REPUL>
0

>  <SCORE.INTRA.REPUL.0>
0

>  <SCORE.INTRA.SOLV>
0

>  <SCORE.INTRA.SOLV.lig_0>
-12.9768

>  <SCORE.INTRA.VDW>
0

>  <SCORE.INTRA.VDW.0>
0

>  <SCORE.INTRA.norm>
0

>  <SCORE.RESTR>
0

>  <SCORE.RESTR.CAVITY>
0

>  <SCORE.RESTR.norm>
0

>  <SCORE.SYSTEM>
0

>  <SCORE.SYSTEM.CONST>
0

>  <SCORE.SYSTEM.DIHEDRAL>
0

>  <SCORE.SYSTEM.SOLV>
0

>  <SCORE.SYSTEM.norm>
0

>  <SCORE.heavy>
13

>  <SCORE.norm>
-3.01312

>  <RMSD>
0.766

$$$$
1eht cryst
 OpenBabel11021811383D
libRbt.so/2013.1/901 2013/11/27
 13 14  0  0  0  0  0  0  0  0999 V2000
   -4.7699   -7.8821   10.6455 C   0  0  0  0  0  0  0  0  0  0  0  0
   -5.2495   -7.0036   11.6128 N   0  0  0  0  0  0  0  0  0  0  0  0
   -5.6501   -7.5230   12.8167 C   0  0  0  0  0  0  0  0  0  0  0  0
   -5.5574   -8.7453   12.9456 O   0  0  0  0  0  0  0  0  0  0  0  0
   -6.1428   -6.7814   13.8606 N   0  0  0  0  0  0  0  0  0  0  0  0
   -6.5403   -7.3291   15.0692 C   0  0  0  0  0  0  0  0  0  0  0  0
   -6.2026   -5.4470   13.5861 C   0  0  0  0  0  0  0  0  0  0  0  0
   -5.8021   -4.9407   12.3837 C   0  0  0  0  0  0  0  0  0  0  0  0
   -5.2935   -5.6831   11.3025 C   0  0  0  0  0  0  0  0  0  0  0  0
   -4.9197   -5.2763   10.2034 O   0  0  0  0  0  0  0  0  0  0  0  0
   -6.0034   -3.5696   12.4667 N   0  0  0  0  0  0  0  0  0  0  0  0
   -6.5081   -3.3417   13.7024 C   0  0  0  0  0  0  0  0  0  0  0  0
   -6.6480   -4.4243   14.4162 N   0  0  0  0  0  0  0  0  0  0  0  0
  1  2  1  0  0  0  0
  2  9  1  0  0  0  0
  2  3  1  0  0  0  0
  3  5  1  0  0  0  0
  3  4  2  0  0  0  0
  5  6  1  0  0  0  0
  5  7  1  0  0  0  0
  7  8  2  0  0  0  0
  7 13  1  0  0  0  0
  8  9  1  0  0  0  0
  8 11  1  0  0  0  0
  9 10  2  0  0  0  0
 11 12  1  0  0  0  0
 12 13  2  0  0  0  0
M  END
>  <CHROM.1>
-5.77617747,-6.03835486,12.66720139,-0.78520320,1.18652438,-0.30847057

>  <Name>
1eht cryst

>  <RI>
0

>  <Rbt.Current_Directory>
/home/itssahil/PROJECTS/Mol_Feturizer/New_Systems/rnas/1eht

>  <Rbt.Executable>
rbdock ($Id: //depot/dev/client3/rdock/2013.1/src/exe/rbdock.cxx#4 $)

>  <Rbt.Library>
libRbt.so (2013.1, Build901 2013/11/27)

>  <Rbt.Parameter_File>
/export/apps/rDock/src/rDock_2013.1_src/data/scripts/dock_solv.prm

>  <Rbt.Receptor>
prm/blind_docking_60.prm

>  <SCORE>
-39.181

>  <SCORE.INTER>
-39.181

>  <SCORE.INTER.CONST>
1

>  <SCORE.INTER.POLAR>
-1.92954

>  <SCORE.INTER.ROT>
0

>  <SCORE.INTER.SOLV>
9.84268

>  <SCORE.INTER.VDW>
-26.5697

>  <SCORE.INTER.norm>
-3.01392

>  <SCORE.INTRA>
0

>  <SCORE.INTRA.DIHEDRAL>
0

>  <SCORE.INTRA.DIHEDRAL.0>
0

>  <SCORE.INTRA.POLAR>
0

>  <SCORE.INTRA.POLAR.0>
0

>  <SCORE.INTRA.REPUL>
0

>  <SCORE.INTRA.REPUL.0>
0

>  <SCORE.INTRA.SOLV>
0

>  <SCORE.INTRA.SOLV.lig_0>
-12.9768

>  <SCORE.INTRA.VDW>
0

>  <SCORE.INTRA.VDW.0>
0

>  <SCORE.INTRA.norm>
0

>  <SCORE.RESTR>
0

>  <SCORE.RESTR.CAVITY>
0

>  <SCORE.RESTR.norm>
0

>  <SCORE.SYSTEM>
0

>  <SCORE.SYSTEM.CONST>
0

>  <SCORE.SYSTEM.DIHEDRAL>
0

>  <SCORE.SYSTEM.SOLV>
0

>  <SCORE.SYSTEM.norm>
0

>  <SCORE.heavy>
13

>  <SCORE.norm>
-3.01392

>  <RMSD>
0.766

$$$$
1eht cryst
 OpenBabel11021811383D
libRbt.so/2013.1/901 2013/11/27
 13 14  0  0  0  0  0  0  0  0999 V2000
   -4.7823   -7.8850   10.6478 C   0  0  0  0  0  0  0  0  0  0  0  0
   -5.2588   -7.0099   11.6197 N   0  0  0  0  0  0  0  0  0  0  0  0
   -5.6636   -7.5347   12.8199 C   0  0  0  0  0  0  0  0  0  0  0  0
   -5.5771   -8.7582   12.9416 O   0  0  0  0  0  0  0  0  0  0  0  0
   -6.1540   -6.7969   13.8676 N   0  0  0  0  0  0  0  0  0  0  0  0
   -6.5557   -7.3499   15.0724 C   0  0  0  0  0  0  0  0  0  0  0  0
   -6.2068   -5.4606   13.6011 C   0  0  0  0  0  0  0  0  0  0  0  0
   -5.8022   -4.9490   12.4022 C   0  0  0  0  0  0  0  0  0  0  0  0
   -5.2959   -5.6874   11.3173 C   0  0  0  0  0  0  0  0  0  0  0  0
   -4.9186   -5.2759   10.2211 O   0  0  0  0  0  0  0  0  0  0  0  0
   -5.9968   -3.5775   12.4932 N   0  0  0  0  0  0  0  0  0  0  0  0
   -6.5020   -3.3546   13.7297 C   0  0  0  0  0  0  0  0  0  0  0  0
   -6.6482   -4.4408   14.4368 N   0  0  0  0  0  0  0  0  0  0  0  0
  1  2  1  0  0  0  0
  2  9  1  0  0  0  0
  2  3  1  0  0  0  0
  3  5  1  0  0  0  0
  3  4  2  0  0  0  0
  5  6  1  0  0  0  0
  5  7  1  0  0  0  0
  7  8  2  0  0  0  0
  7 13  1  0  0  0  0
  8  9  1  0  0  0  0
  8 11  1  0  0  0  0
  9 10  2  0  0  0  0
 11 12  1  0  0  0  0
 12 13  2  0  0  0  0
M  END
>  <CHROM.1>
-5.78211293,-6.04850698,12.67918854,-0.79880999,1.18674467,-0.28983723

>  <Name>
1eht cryst

>  <RI>
0

>  <Rbt.Current_Directory>
/home/itssahil/PROJECTS/Mol_Feturizer/New_Systems/rnas/1eht

>  <Rbt.Executable>
rbdock ($Id: //depot/dev/client3/rdock/2013.1/src/exe/rbdock.cxx#4 $)

>  <Rbt.Library>
libRbt.so (2013.1, Build901 2013/11/27)

>  <Rbt.Parameter_File>
/export/apps/rDock/src/rDock_2013.1_src/data/scripts/dock_solv.prm

>  <Rbt.Receptor>
prm/blind_docking_60.prm

>  <SCORE>
-39.1964

>  <SCORE.INTER>
-39.1964

>  <SCORE.INTER.CONST>
1

>  <SCORE.INTER.POLAR>
-1.92983

>  <SCORE.INTER.ROT>
0

>  <SCORE.INTER.SOLV>
9.83693

>  <SCORE.INTER.VDW>
-26.5772

>  <SCORE.INTER.norm>
-3.01511

>  <SCORE.INTRA>
0

>  <SCORE.INTRA.DIHEDRAL>
0

>  <SCORE.INTRA.DIHEDRAL.0>
0

>  <SCORE.INTRA.POLAR>
0

>  <SCORE.INTRA.POLAR.0>
0

>  <SCORE.INTRA.REPUL>
0

>  <SCORE.INTRA.REPUL.0>
0

>  <SCORE.INTRA.SOLV>
0

>  <SCORE.INTRA.SOLV.lig_0>
-12.9768

>  <SCORE.INTRA.VDW>
0

>  <SCORE.INTRA.VDW.0>
0

>  <SCORE.INTRA.norm>
0

>  <SCORE.RESTR>
0

>  <SCORE.RESTR.CAVITY>
0

>  <SCORE.RESTR.norm>
0

>  <SCORE.SYSTEM>
0

>  <SCORE.SYSTEM.CONST>
0

>  <SCORE.SYSTEM.DIHEDRAL>
0

>  <SCORE.SYSTEM.SOLV>
0

>  <SCORE.SYSTEM.norm>
0

>  <SCORE.heavy>
13

>  <SCORE.norm>
-3.01511

>  <RMSD>
0.766

$$$$
1eht cryst
 OpenBabel11021811383D
libRbt.so/2013.1/901 2013/11/27
 13 14  0  0  0  0  0  0  0  0999 V2000
   -4.7754   -7.8837   10.6451 C   0  0  0  0  0  0  0  0  0  0  0  0
   -5.2525   -7.0043   11.6129 N   0  0  0  0  0  0  0  0  0  0  0  0
   -5.6449   -7.5220   12.8202 C   0  0  0  0  0  0  0  0  0  0  0  0
   -5.5476   -8.7437   12.9516 O   0  0  0  0  0  0  0  0  0  0  0  0
   -6.1343   -6.7794   13.8649 N   0  0  0  0  0  0  0  0  0  0  0  0
   -6.5234   -7.3253   15.0771 C   0  0  0  0  0  0  0  0  0  0  0  0
   -6.1998   -5.4459   13.5875 C   0  0  0  0  0  0  0  0  0  0  0  0
   -5.8076   -4.9412   12.3816 C   0  0  0  0  0  0  0  0  0  0  0  0
   -5.3026   -5.6847   11.2995 C   0  0  0  0  0  0  0  0  0  0  0  0
   -4.9360   -5.2795   10.1973 O   0  0  0  0  0  0  0  0  0  0  0  0
   -6.0128   -3.5706   12.4623 N   0  0  0  0  0  0  0  0  0  0  0  0
   -6.5115   -3.3413   13.7002 C   0  0  0  0  0  0  0  0  0  0  0  0
   -6.6440   -4.4225   14.4174 N   0  0  0  0  0  0  0  0  0  0  0  0
  1  2  1  0  0  0  0
  2  9  1  0  0  0  0
  2  3  1  0  0  0  0
  3  5  1  0  0  0  0
  3  4  2  0  0  0  0
  5  6  1  0  0  0  0
  5  7  1  0  0  0  0
  7  8  2  0  0  0  0
  7 13  1  0  0  0  0
  8  9  1  0  0  0  0
  8 11  1  0  0  0  0
  9 10  2  0  0  0  0
 11 12  1  0  0  0  0
 12 13  2  0  0  0  0
M  END
>  <CHROM.1>
-5.77657607,-6.03811153,12.66769165,-0.77245393,1.19073829,-0.32279790

>  <Name>
1eht cryst

>  <RI>
0

>  <Rbt.Current_Directory>
/home/itssahil/PROJECTS/Mol_Feturizer/New_Systems/rnas/1eht

>  <Rbt.Executable>
rbdock ($Id: //depot/dev/client3/rdock/2013.1/src/exe/rbdock.cxx#4 $)

>  <Rbt.Library>
libRbt.so (2013.1, Build901 2013/11/27)

>  <Rbt.Parameter_File>
/export/apps/rDock/src/rDock_2013.1_src/data/scripts/dock_solv.prm

>  <Rbt.Receptor>
prm/pocket_docking_3.prm

>  <SCORE>
-39.1896

>  <SCORE.INTER>
-39.1896

>  <SCORE.INTER.CONST>
1

>  <SCORE.INTER.POLAR>
-1.92112

>  <SCORE.INTER.ROT>
0

>  <SCORE.INTER.SOLV>
9.83002

>  <SCORE.INTER.VDW>
-26.5993

>  <SCORE.INTER.norm>
-3.01458

>  <SCORE.INTRA>
0

>  <SCORE.INTRA.DIHEDRAL>
0

>  <SCORE.INTRA.DIHEDRAL.0>
0

>  <SCORE.INTRA.POLAR>
0

>  <SCORE.INTRA.POLAR.0>
0

>  <SCORE.INTRA.REPUL>
0

>  <SCORE.INTRA.REPUL.0>
0

>  <SCORE.INTRA.SOLV>
0

>  <SCORE.INTRA.SOLV.lig_0>
-12.9768

>  <SCORE.INTRA.VDW>
0

>  <SCORE.INTRA.VDW.0>
0

>  <SCORE.INTRA.norm>
0

>  <SCORE.RESTR>
0

>  <SCORE.RESTR.CAVITY>
0

>  <SCORE.RESTR.norm>
0

>  <SCORE.SYSTEM>
0

>  <SCORE.SYSTEM.CONST>
0

>  <SCORE.SYSTEM.DIHEDRAL>
0

>  <SCORE.SYSTEM.SOLV>
0

>  <SCORE.SYSTEM.norm>
0

>  <SCORE.heavy>
13

>  <SCORE.norm>
-3.01458

>  <RMSD>
0.766

$$$$
1eht cryst
 OpenBabel11021811383D
libRbt.so/2013.1/901 2013/11/27
 13 14  0  0  0  0  0  0  0  0999 V2000
   -4.7638   -7.8820   10.6468 C   0  0  0  0  0  0  0  0  0  0  0  0
   -5.2474   -7.0045   11.6131 N   0  0  0  0  0  0  0  0  0  0  0  0
   -5.6506   -7.5250   12.8156 C   0  0  0  0  0  0  0  0  0  0  0  0
   -5.5565   -8.7473   12.9443 O   0  0  0  0  0  0  0  0  0  0  0  0
   -6.1474   -6.7846   13.8584 N   0  0  0  0  0  0  0  0  0  0  0  0
   -6.5474   -7.3333   15.0657 C   0  0  0  0  0  0  0  0  0  0  0  0
   -6.2082   -5.4501   13.5843 C   0  0  0  0  0  0  0  0  0  0  0  0
   -5.8051   -4.9427   12.3831 C   0  0  0  0  0  0  0  0  0  0  0  0
   -5.2925   -5.6840   11.3031 C   0  0  0  0  0  0  0  0  0  0  0  0
   -4.9161   -5.2763   10.2052 O   0  0  0  0  0  0  0  0  0  0  0  0
   -6.0086   -3.5720   12.4661 N   0  0  0  0  0  0  0  0  0  0  0  0
   -6.5171   -3.3453   13.7005 C   0  0  0  0  0  0  0  0  0  0  0  0
   -6.6574   -4.4284   14.4135 N   0  0  0  0  0  0  0  0  0  0  0  0
  1  2  1  0  0  0  0
  2  9  1  0  0  0  0
  2  3  1  0  0  0  0
  3  5  1  0  0  0  0
  3  4  2  0  0  0  0
  5  6  1  0  0  0  0
  5  7  1  0  0  0  0
  7  8  2  0  0  0  0
  7 13  1  0  0  0  0
  8  9  1  0  0  0  0
  8 11  1  0  0  0  0
  9 10  2  0  0  0  0
 11 12  1  0  0  0  0
 12 13  2  0  0  0  0
M  END
>  <CHROM.1>
-5.77841176,-6.04048736,12.66633045,-0.78383421,1.18342376,-0.30936395

>  <Name>
1eht cryst

>  <RI>
0

>  <Rbt.Current_Directory>
/home/itssahil/PROJECTS/Mol_Feturizer/New_Systems/rnas/1eht

>  <Rbt.Executable>
rbdock ($Id: //depot/dev/client3/rdock/2013.1/src/exe/rbdock.cxx#4 $)

>  <Rbt.Library>
libRbt.so (2013.1, Build901 2013/11/27)

>  <Rbt.Parameter_File>
/export/apps/rDock/src/rDock_2013.1_src/data/scripts/dock_solv.prm

>  <Rbt.Receptor>
prm/pocket_docking_3.prm

>  <SCORE>
-39.1973

>  <SCORE.INTER>
-39.1973

>  <SCORE.INTER.CONST>
1

>  <SCORE.INTER.POLAR>
-1.9332

>  <SCORE.INTER.ROT>
0

>  <SCORE.INTER.SOLV>
9.83891

>  <SCORE.INTER.VDW>
-26.5671

>  <SCORE.INTER.norm>
-3.01517

>  <SCORE.INTRA>
0

>  <SCORE.INTRA.DIHEDRAL>
0

>  <SCORE.INTRA.DIHEDRAL.0>
0

>  <SCORE.INTRA.POLAR>
0

>  <SCORE.INTRA.POLAR.0>
0

>  <SCORE.INTRA.REPUL>
0

>  <SCORE.INTRA.REPUL.0>
0

>  <SCORE.INTRA.SOLV>
0

>  <SCORE.INTRA.SOLV.lig_0>
-12.9768

>  <SCORE.INTRA.VDW>
0

>  <SCORE.INTRA.VDW.0>
0

>  <SCORE.INTRA.norm>
0

>  <SCORE.RESTR>
0

>  <SCORE.RESTR.CAVITY>
0

>  <SCORE.RESTR.norm>
0

>  <SCORE.SYSTEM>
0

>  <SCORE.SYSTEM.CONST>
0

>  <SCORE.SYSTEM.DIHEDRAL>
0

>  <SCORE.SYSTEM.SOLV>
0

>  <SCORE.SYSTEM.norm>
0

>  <SCORE.heavy>
13

>  <SCORE.norm>
-3.01517

>  <RMSD>
0.766

$$$$
1eht cryst
 OpenBabel11021811383D
libRbt.so/2013.1/901 2013/11/27
 13 14  0  0  0  0  0  0  0  0999 V2000
   -4.7654   -7.8829   10.6471 C   0  0  0  0  0  0  0  0  0  0  0  0
   -5.2481   -7.0052   11.6136 N   0  0  0  0  0  0  0  0  0  0  0  0
   -5.6506   -7.5255   12.8165 C   0  0  0  0  0  0  0  0  0  0  0  0
   -5.5567   -8.7477   12.9453 O   0  0  0  0  0  0  0  0  0  0  0  0
   -6.1464   -6.7848   13.8596 N   0  0  0  0  0  0  0  0  0  0  0  0
   -6.5457   -7.3333   15.0673 C   0  0  0  0  0  0  0  0  0  0  0  0
   -6.2071   -5.4504   13.5854 C   0  0  0  0  0  0  0  0  0  0  0  0
   -5.8048   -4.9432   12.3839 C   0  0  0  0  0  0  0  0  0  0  0  0
   -5.2931   -5.6848   11.3035 C   0  0  0  0  0  0  0  0  0  0  0  0
   -4.9174   -5.2772   10.2053 O   0  0  0  0  0  0  0  0  0  0  0  0
   -6.0078   -3.5724   12.4668 N   0  0  0  0  0  0  0  0  0  0  0  0
   -6.5154   -3.3455   13.7016 C   0  0  0  0  0  0  0  0  0  0  0  0
   -6.6554   -4.4285   14.4148 N   0  0  0  0  0  0  0  0  0  0  0  0
  1  2  1  0  0  0  0
  2  9  1  0  0  0  0
  2  3  1  0  0  0  0
  3  5  1  0  0  0  0
  3  4  2  0  0  0  0
  5  6  1  0  0  0  0
  5  7  1  0  0  0  0
  7  8  2  0  0  0  0
  7 13  1  0  0  0  0
  8  9  1  0  0  0  0
  8 11  1  0  0  0  0
  9 10  2  0  0  0  0
 11 12  1  0  0  0  0
 12 13  2  0  0  0  0
M  END
>  <CHROM.1>
-5.77811212,-6.04095349,12.66715724,-0.78384051,1.18419584,-0.30946263

>  <Name>
1eht cryst

>  <RI>
0

>  <Rbt.Current_Directory>
/home/itssahil/PROJECTS/Mol_Feturizer/New_Systems/rnas/1eht

>  <Rbt.Executable>
rbdock ($Id: //depot/dev/client3/rdock/2013.1/src/exe/rbdock.cxx#4 $)

>  <Rbt.Library>
libRbt.so (2013.1, Build901 2013/11/27)

>  <Rbt.Parameter_File>
/export/apps/rDock/src/rDock_2013.1_src/data/scripts/dock_solv.prm

>  <Rbt.Receptor>
prm/pocket_docking_4.prm

>  <SCORE>
-39.2019

>  <SCORE.INTER>
-39.2019

>  <SCORE.INTER.CONST>
1

>  <SCORE.INTER.POLAR>
-1.93247

>  <SCORE.INTER.ROT>
0

>  <SCORE.INTER.SOLV>
9.83764

>  <SCORE.INTER.VDW>
-26.5722

>  <SCORE.INTER.norm>
-3.01553

>  <SCORE.INTRA>
0

>  <SCORE.INTRA.DIHEDRAL>
0

>  <SCORE.INTRA.DIHEDRAL.0>
0

>  <SCORE.INTRA.POLAR>
0

>  <SCORE.INTRA.POLAR.0>
0

>  <SCORE.INTRA.REPUL>
0

>  <SCORE.INTRA.REPUL.0>
0

>  <SCORE.INTRA.SOLV>
0

>  <SCORE.INTRA.SOLV.lig_0>
-12.9768

>  <SCORE.INTRA.VDW>
0

>  <SCORE.INTRA.VDW.0>
0

>  <SCORE.INTRA.norm>
0

>  <SCORE.RESTR>
0

>  <SCORE.RESTR.CAVITY>
0

>  <SCORE.RESTR.norm>
0

>  <SCORE.SYSTEM>
0

>  <SCORE.SYSTEM.CONST>
0

>  <SCORE.SYSTEM.DIHEDRAL>
0

>  <SCORE.SYSTEM.SOLV>
0

>  <SCORE.SYSTEM.norm>
0

>  <SCORE.heavy>
13

>  <SCORE.norm>
-3.01553

>  <RMSD>
0.766

$$$$
1eht cryst
 OpenBabel11021811383D
libRbt.so/2013.1/901 2013/11/27
 13 14  0  0  0  0  0  0  0  0999 V2000
   -4.7835   -7.8854   10.6518 C   0  0  0  0  0  0  0  0  0  0  0  0
   -5.2612   -7.0115   11.6242 N   0  0  0  0  0  0  0  0  0  0  0  0
   -5.6571   -7.5363   12.8273 C   0  0  0  0  0  0  0  0  0  0  0  0
   -5.5622   -8.7590   12.9510 O   0  0  0  0  0  0  0  0  0  0  0  0
   -6.1475   -6.7997   13.8757 N   0  0  0  0  0  0  0  0  0  0  0  0
   -6.5401   -7.3528   15.0835 C   0  0  0  0  0  0  0  0  0  0  0  0
   -6.2100   -5.4643   13.6068 C   0  0  0  0  0  0  0  0  0  0  0  0
   -5.8143   -4.9525   12.4051 C   0  0  0  0  0  0  0  0  0  0  0  0
   -5.3083   -5.6898   11.3193 C   0  0  0  0  0  0  0  0  0  0  0  0
   -4.9386   -5.2781   10.2206 O   0  0  0  0  0  0  0  0  0  0  0  0
   -6.0173   -3.5820   12.4942 N   0  0  0  0  0  0  0  0  0  0  0  0
   -6.5182   -3.3599   13.7325 C   0  0  0  0  0  0  0  0  0  0  0  0
   -6.6542   -4.4456   14.4425 N   0  0  0  0  0  0  0  0  0  0  0  0
  1  2  1  0  0  0  0
  2  9  1  0  0  0  0
  2  3  1  0  0  0  0
  3  5  1  0  0  0  0
  3  4  2  0  0  0  0
  5  6  1  0  0  0  0
  5  7  1  0  0  0  0
  7  8  2  0  0  0  0
  7 13  1  0  0  0  0
  8  9  1  0  0  0  0
  8 11  1  0  0  0  0
  9 10  2  0  0  0  0
 11 12  1  0  0  0  0
 12 13  2  0  0  0  0
M  END
>  <CHROM.1>
-5.78584918,-6.05126012,12.68413010,-0.77874203,1.18923792,-0.31045956

>  <Name>
1eht cryst

>  <RI>
0

>  <Rbt.Current_Directory>
/home/itssahil/PROJECTS/Mol_Feturizer/New_Systems/rnas/1eht

>  <Rbt.Executable>
rbdock ($Id: //depot/dev/client3/rdock/2013.1/src/exe/rbdock.cxx#4 $)

>  <Rbt.Library>
libRbt.so (2013.1, Build901 2013/11/27)

>  <Rbt.Parameter_File>
/export/apps/rDock/src/rDock_2013.1_src/data/scripts/dock_solv.prm

>  <Rbt.Receptor>
prm/pocket_docking_5.prm

>  <SCORE>
-39.2077

>  <SCORE.INTER>
-39.2077

>  <SCORE.INTER.CONST>
1

>  <SCORE.INTER.POLAR>
-1.91867

>  <SCORE.INTER.ROT>
0

>  <SCORE.INTER.SOLV>
9.81569

>  <SCORE.INTER.VDW>
-26.6148

>  <SCORE.INTER.norm>
-3.01598

>  <SCORE.INTRA>
0

>  <SCORE.INTRA.DIHEDRAL>
0

>  <SCORE.INTRA.DIHEDRAL.0>
0

>  <SCORE.INTRA.POLAR>
0

>  <SCORE.INTRA.POLAR.0>
0

>  <SCORE.INTRA.REPUL>
0

>  <SCORE.INTRA.REPUL.0>
0

>  <SCORE.INTRA.SOLV>
0

>  <SCORE.INTRA.SOLV.lig_0>
-12.9768

>  <SCORE.INTRA.VDW>
0

>  <SCORE.INTRA.VDW.0>
0

>  <SCORE.INTRA.norm>
0

>  <SCORE.RESTR>
0

>  <SCORE.RESTR.CAVITY>
0

>  <SCORE.RESTR.norm>
0

>  <SCORE.SYSTEM>
0

>  <SCORE.SYSTEM.CONST>
0

>  <SCORE.SYSTEM.DIHEDRAL>
0

>  <SCORE.SYSTEM.SOLV>
0

>  <SCORE.SYSTEM.norm>
0

>  <SCORE.heavy>
13

>  <SCORE.norm>
-3.01598

>  <RMSD>
0.766

$$$$
1eht cryst
 OpenBabel11021811383D
libRbt.so/2013.1/901 2013/11/27
 13 14  0  0  0  0  0  0  0  0999 V2000
   -4.7629   -7.8812   10.6476 C   0  0  0  0  0  0  0  0  0  0  0  0
   -5.2461   -7.0038   11.6142 N   0  0  0  0  0  0  0  0  0  0  0  0
   -5.6487   -7.5244   12.8169 C   0  0  0  0  0  0  0  0  0  0  0  0
   -5.5543   -8.7466   12.9455 O   0  0  0  0  0  0  0  0  0  0  0  0
   -6.1449   -6.7840   13.8600 N   0  0  0  0  0  0  0  0  0  0  0  0
   -6.5443   -7.3329   15.0675 C   0  0  0  0  0  0  0  0  0  0  0  0
   -6.2061   -5.4496   13.5860 C   0  0  0  0  0  0  0  0  0  0  0  0
   -5.8037   -4.9421   12.3846 C   0  0  0  0  0  0  0  0  0  0  0  0
   -5.2915   -5.6833   11.3043 C   0  0  0  0  0  0  0  0  0  0  0  0
   -4.9158   -5.2754   10.2063 O   0  0  0  0  0  0  0  0  0  0  0  0
   -6.0072   -3.5713   12.4678 N   0  0  0  0  0  0  0  0  0  0  0  0
   -6.5151   -3.3448   13.7024 C   0  0  0  0  0  0  0  0  0  0  0  0
   -6.6550   -4.4280   14.4155 N   0  0  0  0  0  0  0  0  0  0  0  0
  1  2  1  0  0  0  0
  2  9  1  0  0  0  0
  2  3  1  0  0  0  0
  3  5  1  0  0  0  0
  3  4  2  0  0  0  0
  5  6  1  0  0  0  0
  5  7  1  0  0  0  0
  7  8  2  0  0  0  0
  7 13  1  0  0  0  0
  8  9  1  0  0  0  0
  8 11  1  0  0  0  0
  9 10  2  0  0  0  0
 11 12  1  0  0  0  0
 12 13  2  0  0  0  0
M  END
>  <CHROM.1>
-5.77667894,-6.03985591,12.66776271,-0.78310478,1.18388473,-0.30998426

>  <Name>
1eht cryst

>  <RI>
0

>  <Rbt.Current_Directory>
/home/itssahil/PROJECTS/Mol_Feturizer/New_Systems/rnas/1eht

>  <Rbt.Executable>
rbdock ($Id: //depot/dev/client3/rdock/2013.1/src/exe/rbdock.cxx#4 $)

>  <Rbt.Library>
libRbt.so (2013.1, Build901 2013/11/27)

>  <Rbt.Parameter_File>
/export/apps/rDock/src/rDock_2013.1_src/data/scripts/dock_solv.prm

>  <Rbt.Receptor>
prm/pocket_docking_5.prm

>  <SCORE>
-39.2034

>  <SCORE.INTER>
-39.2034

>  <SCORE.INTER.CONST>
1

>  <SCORE.INTER.POLAR>
-1.93155

>  <SCORE.INTER.ROT>
0

>  <SCORE.INTER.SOLV>
9.8407

>  <SCORE.INTER.VDW>
-26.5773

>  <SCORE.INTER.norm>
-3.01565

>  <SCORE.INTRA>
0

>  <SCORE.INTRA.DIHEDRAL>
0

>  <SCORE.INTRA.DIHEDRAL.0>
0

>  <SCORE.INTRA.POLAR>
0

>  <SCORE.INTRA.POLAR.0>
0

>  <SCORE.INTRA.REPUL>
0

>  <SCORE.INTRA.REPUL.0>
0

>  <SCORE.INTRA.SOLV>
0

>  <SCORE.INTRA.SOLV.lig_0>
-12.9768

>  <SCORE.INTRA.VDW>
0

>  <SCORE.INTRA.VDW.0>
0

>  <SCORE.INTRA.norm>
0

>  <SCORE.RESTR>
0

>  <SCORE.RESTR.CAVITY>
0

>  <SCORE.RESTR.norm>
0

>  <SCORE.SYSTEM>
0

>  <SCORE.SYSTEM.CONST>
0

>  <SCORE.SYSTEM.DIHEDRAL>
0

>  <SCORE.SYSTEM.SOLV>
0

>  <SCORE.SYSTEM.norm>
0

>  <SCORE.heavy>
13

>  <SCORE.norm>
-3.01565

>  <RMSD>
0.766

$$$$
1eht cryst
 OpenBabel11021811383D
libRbt.so/2013.1/901 2013/11/27
 13 14  0  0  0  0  0  0  0  0999 V2000
   -4.7825   -7.8844   10.6444 C   0  0  0  0  0  0  0  0  0  0  0  0
   -5.2556   -7.0045   11.6138 N   0  0  0  0  0  0  0  0  0  0  0  0
   -5.6508   -7.5227   12.8200 C   0  0  0  0  0  0  0  0  0  0  0  0
   -5.5594   -8.7451   12.9490 O   0  0  0  0  0  0  0  0  0  0  0  0
   -6.1367   -6.7797   13.8660 N   0  0  0  0  0  0  0  0  0  0  0  0
   -6.5287   -7.3261   15.0771 C   0  0  0  0  0  0  0  0  0  0  0  0
   -6.1957   -5.4454   13.5912 C   0  0  0  0  0  0  0  0  0  0  0  0
   -5.8007   -4.9403   12.3864 C   0  0  0  0  0  0  0  0  0  0  0  0
   -5.2991   -5.6841   11.3030 C   0  0  0  0  0  0  0  0  0  0  0  0
   -4.9304   -5.2786   10.2017 O   0  0  0  0  0  0  0  0  0  0  0  0
   -5.9993   -3.5688   12.4697 N   0  0  0  0  0  0  0  0  0  0  0  0
   -6.4971   -3.3395   13.7080 C   0  0  0  0  0  0  0  0  0  0  0  0
   -6.6350   -4.4215   14.4231 N   0  0  0  0  0  0  0  0  0  0  0  0
  1  2  1  0  0  0  0
  2  9  1  0  0  0  0
  2  3  1  0  0  0  0
  3  5  1  0  0  0  0
  3  4  2  0  0  0  0
  5  6  1  0  0  0  0
  5  7  1  0  0  0  0
  7  8  2  0  0  0  0
  7 13  1  0  0  0  0
  8  9  1  0  0  0  0
  8 11  1  0  0  0  0
  9 10  2  0  0  0  0
 11 12  1  0  0  0  0
 12 13  2  0  0  0  0
M  END
>  <CHROM.1>
-5.77513617,-6.03788773,12.67036607,-0.78514340,1.19204705,-0.30905199

>  <Name>
1eht cryst

>  <RI>
0

>  <Rbt.Current_Directory>
/home/itssahil/PROJECTS/Mol_Feturizer/New_Systems/rnas/1eht

>  <Rbt.Executable>
rbdock ($Id: //depot/dev/client3/rdock/2013.1/src/exe/rbdock.cxx#4 $)

>  <Rbt.Library>
libRbt.so (2013.1, Build901 2013/11/27)

>  <Rbt.Parameter_File>
/export/apps/rDock/src/rDock_2013.1_src/data/scripts/dock_solv.prm

>  <Rbt.Receptor>
prm/pocket_docking_6.prm

>  <SCORE>
-39.2098

>  <SCORE.INTER>
-39.2098

>  <SCORE.INTER.CONST>
1

>  <SCORE.INTER.POLAR>
-1.92263

>  <SCORE.INTER.ROT>
0

>  <SCORE.INTER.SOLV>
9.84042

>  <SCORE.INTER.VDW>
-26.6113

>  <SCORE.INTER.norm>
-3.01614

>  <SCORE.INTRA>
0

>  <SCORE.INTRA.DIHEDRAL>
0

>  <SCORE.INTRA.DIHEDRAL.0>
0

>  <SCORE.INTRA.POLAR>
0

>  <SCORE.INTRA.POLAR.0>
0

>  <SCORE.INTRA.REPUL>
0

>  <SCORE.INTRA.REPUL.0>
0

>  <SCORE.INTRA.SOLV>
0

>  <SCORE.INTRA.SOLV.lig_0>
-12.9768

>  <SCORE.INTRA.VDW>
0

>  <SCORE.INTRA.VDW.0>
0

>  <SCORE.INTRA.norm>
0

>  <SCORE.RESTR>
0

>  <SCORE.RESTR.CAVITY>
0

>  <SCORE.RESTR.norm>
0

>  <SCORE.SYSTEM>
0

>  <SCORE.SYSTEM.CONST>
0

>  <SCORE.SYSTEM.DIHEDRAL>
0

>  <SCORE.SYSTEM.SOLV>
0

>  <SCORE.SYSTEM.norm>
0

>  <SCORE.heavy>
13

>  <SCORE.norm>
-3.01614

>  <RMSD>
0.766

$$$$
1eht cryst
 OpenBabel11021811383D
libRbt.so/2013.1/901 2013/11/27
 13 14  0  0  0  0  0  0  0  0999 V2000
   -4.7763   -7.8849   10.6474 C   0  0  0  0  0  0  0  0  0  0  0  0
   -5.2528   -7.0056   11.6156 N   0  0  0  0  0  0  0  0  0  0  0  0
   -5.6486   -7.5242   12.8215 C   0  0  0  0  0  0  0  0  0  0  0  0
   -5.5546   -8.7463   12.9513 O   0  0  0  0  0  0  0  0  0  0  0  0
   -6.1379   -6.7818   13.8664 N   0  0  0  0  0  0  0  0  0  0  0  0
   -6.5305   -7.3285   15.0771 C   0  0  0  0  0  0  0  0  0  0  0  0
   -6.1995   -5.4477   13.5909 C   0  0  0  0  0  0  0  0  0  0  0  0
   -5.8039   -4.9423   12.3864 C   0  0  0  0  0  0  0  0  0  0  0  0
   -5.2989   -5.6855   11.3041 C   0  0  0  0  0  0  0  0  0  0  0  0
   -4.9295   -5.2796   10.2032 O   0  0  0  0  0  0  0  0  0  0  0  0
   -6.0058   -3.5713   12.4688 N   0  0  0  0  0  0  0  0  0  0  0  0
   -6.5060   -3.3425   13.7061 C   0  0  0  0  0  0  0  0  0  0  0  0
   -6.6425   -4.4245   14.4216 N   0  0  0  0  0  0  0  0  0  0  0  0
  1  2  1  0  0  0  0
  2  9  1  0  0  0  0
  2  3  1  0  0  0  0
  3  5  1  0  0  0  0
  3  4  2  0  0  0  0
  5  6  1  0  0  0  0
  5  7  1  0  0  0  0
  7  8  2  0  0  0  0
  7 13  1  0  0  0  0
  8  9  1  0  0  0  0
  8 11  1  0  0  0  0
  9 10  2  0  0  0  0
 11 12  1  0  0  0  0
 12 13  2  0  0  0  0
M  END
>  <CHROM.1>
-5.77623127,-6.03970570,12.67093682,-0.78047452,1.18989287,-0.31387360

>  <Name>
1eht cryst

>  <RI>
0

>  <Rbt.Current_Directory>
/home/itssahil/PROJECTS/Mol_Feturizer/New_Systems/rnas/1eht

>  <Rbt.Executable>
rbdock ($Id: //depot/dev/client3/rdock/2013.1/src/exe/rbdock.cxx#4 $)

>  <Rbt.Library>
libRbt.so (2013.1, Build901 2013/11/27)

>  <Rbt.Parameter_File>
/export/apps/rDock/src/rDock_2013.1_src/data/scripts/dock_solv.prm

>  <Rbt.Receptor>
prm/blind_docking_100.prm

>  <SCORE>
-39.205

>  <SCORE.INTER>
-39.205

>  <SCORE.INTER.CONST>
1

>  <SCORE.INTER.POLAR>
-1.92381

>  <SCORE.INTER.ROT>
0

>  <SCORE.INTER.SOLV>
9.83462

>  <SCORE.INTER.VDW>
-26.6022

>  <SCORE.INTER.norm>
-3.01577

>  <SCORE.INTRA>
0

>  <SCORE.INTRA.DIHEDRAL>
0

>  <SCORE.INTRA.DIHEDRAL.0>
0

>  <SCORE.INTRA.POLAR>
0

>  <SCORE.INTRA.POLAR.0>
0

>  <SCORE.INTRA.REPUL>
0

>  <SCORE.INTRA.REPUL.0>
0

>  <SCORE.INTRA.SOLV>
0

>  <SCORE.INTRA.SOLV.lig_0>
-12.9768

>  <SCORE.INTRA.VDW>
0

>  <SCORE.INTRA.VDW.0>
0

>  <SCORE.INTRA.norm>
0

>  <SCORE.RESTR>
0

>  <SCORE.RESTR.CAVITY>
0

>  <SCORE.RESTR.norm>
0

>  <SCORE.SYSTEM>
0

>  <SCORE.SYSTEM.CONST>
0

>  <SCORE.SYSTEM.DIHEDRAL>
0

>  <SCORE.SYSTEM.SOLV>
0

>  <SCORE.SYSTEM.norm>
0

>  <SCORE.heavy>
13

>  <SCORE.norm>
-3.01577

>  <RMSD>
0.767

$$$$
1eht cryst
 OpenBabel11021811383D
libRbt.so/2013.1/901 2013/11/27
 13 14  0  0  0  0  0  0  0  0999 V2000
   -4.7675   -7.8812   10.6492 C   0  0  0  0  0  0  0  0  0  0  0  0
   -5.2456   -7.0025   11.6171 N   0  0  0  0  0  0  0  0  0  0  0  0
   -5.6446   -7.5218   12.8216 C   0  0  0  0  0  0  0  0  0  0  0  0
   -5.5519   -8.7440   12.9505 O   0  0  0  0  0  0  0  0  0  0  0  0
   -6.1358   -6.7800   13.8660 N   0  0  0  0  0  0  0  0  0  0  0  0
   -6.5316   -7.3274   15.0753 C   0  0  0  0  0  0  0  0  0  0  0  0
   -6.1957   -5.4456   13.5915 C   0  0  0  0  0  0  0  0  0  0  0  0
   -5.7969   -4.9394   12.3884 C   0  0  0  0  0  0  0  0  0  0  0  0
   -5.2899   -5.6821   11.3066 C   0  0  0  0  0  0  0  0  0  0  0  0
   -4.9176   -5.2755   10.2069 O   0  0  0  0  0  0  0  0  0  0  0  0
   -5.9979   -3.5683   12.4715 N   0  0  0  0  0  0  0  0  0  0  0  0
   -6.5008   -3.3402   13.7079 C   0  0  0  0  0  0  0  0  0  0  0  0
   -6.6399   -4.4227   14.4220 N   0  0  0  0  0  0  0  0  0  0  0  0
  1  2  1  0  0  0  0
  2  9  1  0  0  0  0
  2  3  1  0  0  0  0
  3  5  1  0  0  0  0
  3  4  2  0  0  0  0
  5  6  1  0  0  0  0
  5  7  1  0  0  0  0
  7  8  2  0  0  0  0
  7 13  1  0  0  0  0
  8  9  1  0  0  0  0
  8 11  1  0  0  0  0
  9 10  2  0  0  0  0
 11 12  1  0  0  0  0
 12 13  2  0  0  0  0
M  END
>  <CHROM.1>
-5.77071047,-6.03707315,12.67202852,-0.78438522,1.18789834,-0.30935778

>  <Name>
1eht cryst

>  <RI>
0

>  <Rbt.Current_Directory>
/home/itssahil/PROJECTS/Mol_Feturizer/New_Systems/rnas/1eht

>  <Rbt.Executable>
rbdock ($Id: //depot/dev/client3/rdock/2013.1/src/exe/rbdock.cxx#4 $)

>  <Rbt.Library>
libRbt.so (2013.1, Build901 2013/11/27)

>  <Rbt.Parameter_File>
/export/apps/rDock/src/rDock_2013.1_src/data/scripts/dock_solv.prm

>  <Rbt.Receptor>
prm/blind_docking_20.prm

>  <SCORE>
-39.2171

>  <SCORE.INTER>
-39.2171

>  <SCORE.INTER.CONST>
1

>  <SCORE.INTER.POLAR>
-1.92496

>  <SCORE.INTER.ROT>
0

>  <SCORE.INTER.SOLV>
9.84727

>  <SCORE.INTER.VDW>
-26.6106

>  <SCORE.INTER.norm>
-3.0167

>  <SCORE.INTRA>
0

>  <SCORE.INTRA.DIHEDRAL>
0

>  <SCORE.INTRA.DIHEDRAL.0>
0

>  <SCORE.INTRA.POLAR>
0

>  <SCORE.INTRA.POLAR.0>
0

>  <SCORE.INTRA.REPUL>
0

>  <SCORE.INTRA.REPUL.0>
0

>  <SCORE.INTRA.SOLV>
0

>  <SCORE.INTRA.SOLV.lig_0>
-12.9768

>  <SCORE.INTRA.VDW>
0

>  <SCORE.INTRA.VDW.0>
0

>  <SCORE.INTRA.norm>
0

>  <SCORE.RESTR>
0

>  <SCORE.RESTR.CAVITY>
0

>  <SCORE.RESTR.norm>
0

>  <SCORE.SYSTEM>
0

>  <SCORE.SYSTEM.CONST>
0

>  <SCORE.SYSTEM.DIHEDRAL>
0

>  <SCORE.SYSTEM.SOLV>
0

>  <SCORE.SYSTEM.norm>
0

>  <SCORE.heavy>
13

>  <SCORE.norm>
-3.0167

>  <RMSD>
0.767

$$$$
1eht cryst
 OpenBabel11021811383D
libRbt.so/2013.1/901 2013/11/27
 13 14  0  0  0  0  0  0  0  0999 V2000
   -4.7800   -7.8862   10.6470 C   0  0  0  0  0  0  0  0  0  0  0  0
   -5.2547   -7.0064   11.6156 N   0  0  0  0  0  0  0  0  0  0  0  0
   -5.6466   -7.5240   12.8232 C   0  0  0  0  0  0  0  0  0  0  0  0
   -5.5510   -8.7459   12.9540 O   0  0  0  0  0  0  0  0  0  0  0  0
   -6.1337   -6.7811   13.8687 N   0  0  0  0  0  0  0  0  0  0  0  0
   -6.5223   -7.3269   15.0811 C   0  0  0  0  0  0  0  0  0  0  0  0
   -6.1975   -5.4473   13.5919 C   0  0  0  0  0  0  0  0  0  0  0  0
   -5.8058   -4.9428   12.3857 C   0  0  0  0  0  0  0  0  0  0  0  0
   -5.3031   -5.6867   11.3028 C   0  0  0  0  0  0  0  0  0  0  0  0
   -4.9371   -5.2816   10.2004 O   0  0  0  0  0  0  0  0  0  0  0  0
   -6.0088   -3.5719   12.4672 N   0  0  0  0  0  0  0  0  0  0  0  0
   -6.5058   -3.3423   13.7057 C   0  0  0  0  0  0  0  0  0  0  0  0
   -6.6392   -4.4237   14.4227 N   0  0  0  0  0  0  0  0  0  0  0  0
  1  2  1  0  0  0  0
  2  9  1  0  0  0  0
  2  3  1  0  0  0  0
  3  5  1  0  0  0  0
  3  4  2  0  0  0  0
  5  6  1  0  0  0  0
  5  7  1  0  0  0  0
  7  8  2  0  0  0  0
  7 13  1  0  0  0  0
  8  9  1  0  0  0  0
  8 11  1  0  0  0  0
  9 10  2  0  0  0  0
 11 12  1  0  0  0  0
 12 13  2  0  0  0  0
M  END
>  <CHROM.1>
-5.77614346,-6.03987078,12.67138905,-0.77546013,1.19223498,-0.31960859

>  <Name>
1eht cryst

>  <RI>
0

>  <Rbt.Current_Directory>
/home/itssahil/PROJECTS/Mol_Feturizer/New_Systems/rnas/1eht

>  <Rbt.Executable>
rbdock ($Id: //depot/dev/client3/rdock/2013.1/src/exe/rbdock.cxx#4 $)

>  <Rbt.Library>
libRbt.so (2013.1, Build901 2013/11/27)

>  <Rbt.Parameter_File>
/export/apps/rDock/src/rDock_2013.1_src/data/scripts/dock_solv.prm

>  <Rbt.Receptor>
prm/blind_docking_40.prm

>  <SCORE>
-39.1973

>  <SCORE.INTER>
-39.1973

>  <SCORE.INTER.CONST>
1

>  <SCORE.INTER.POLAR>
-1.92001

>  <SCORE.INTER.ROT>
0

>  <SCORE.INTER.SOLV>
9.82878

>  <SCORE.INTER.VDW>
-26.6077

>  <SCORE.INTER.norm>
-3.01517

>  <SCORE.INTRA>
0

>  <SCORE.INTRA.DIHEDRAL>
0

>  <SCORE.INTRA.DIHEDRAL.0>
0

>  <SCORE.INTRA.POLAR>
0

>  <SCORE.INTRA.POLAR.0>
0

>  <SCORE.INTRA.REPUL>
0

>  <SCORE.INTRA.REPUL.0>
0

>  <SCORE.INTRA.SOLV>
0

>  <SCORE.INTRA.SOLV.lig_0>
-12.9768

>  <SCORE.INTRA.VDW>
0

>  <SCORE.INTRA.VDW.0>
0

>  <SCORE.INTRA.norm>
0

>  <SCORE.RESTR>
0

>  <SCORE.RESTR.CAVITY>
0

>  <SCORE.RESTR.norm>
0

>  <SCORE.SYSTEM>
0

>  <SCORE.SYSTEM.CONST>
0

>  <SCORE.SYSTEM.DIHEDRAL>
0

>  <SCORE.SYSTEM.SOLV>
0

>  <SCORE.SYSTEM.norm>
0

>  <SCORE.heavy>
13

>  <SCORE.norm>
-3.01517

>  <RMSD>
0.767

$$$$
1eht cryst
 OpenBabel11021811383D
libRbt.so/2013.1/901 2013/11/27
 13 14  0  0  0  0  0  0  0  0999 V2000
   -4.7677   -7.8841   10.6487 C   0  0  0  0  0  0  0  0  0  0  0  0
   -5.2495   -7.0061   11.6154 N   0  0  0  0  0  0  0  0  0  0  0  0
   -5.6475   -7.5256   12.8202 C   0  0  0  0  0  0  0  0  0  0  0  0
   -5.5504   -8.7475   12.9503 O   0  0  0  0  0  0  0  0  0  0  0  0
   -6.1419   -6.7846   13.8636 N   0  0  0  0  0  0  0  0  0  0  0  0
   -6.5365   -7.3323   15.0732 C   0  0  0  0  0  0  0  0  0  0  0  0
   -6.2064   -5.4507   13.5877 C   0  0  0  0  0  0  0  0  0  0  0  0
   -5.8086   -4.9443   12.3844 C   0  0  0  0  0  0  0  0  0  0  0  0
   -5.2984   -5.6862   11.3036 C   0  0  0  0  0  0  0  0  0  0  0  0
   -4.9268   -5.2793   10.2038 O   0  0  0  0  0  0  0  0  0  0  0  0
   -6.0145   -3.5738   12.4660 N   0  0  0  0  0  0  0  0  0  0  0  0
   -6.5190   -3.3463   13.7019 C   0  0  0  0  0  0  0  0  0  0  0  0
   -6.6547   -4.4286   14.4170 N   0  0  0  0  0  0  0  0  0  0  0  0
  1  2  1  0  0  0  0
  2  9  1  0  0  0  0
  2  3  1  0  0  0  0
  3  5  1  0  0  0  0
  3  4  2  0  0  0  0
  5  6  1  0  0  0  0
  5  7  1  0  0  0  0
  7  8  2  0  0  0  0
  7 13  1  0  0  0  0
  8  9  1  0  0  0  0
  8 11  1  0  0  0  0
  9 10  2  0  0  0  0
 11 12  1  0  0  0  0
 12 13  2  0  0  0  0
M  END
>  <CHROM.1>
-5.77872156,-6.04156262,12.66910725,-0.77584586,1.18623131,-0.31824946

>  <Name>
1eht cryst

>  <RI>
0

>  <Rbt.Current_Directory>
/home/itssahil/PROJECTS/Mol_Feturizer/New_Systems/rnas/1eht

>  <Rbt.Executable>
rbdock ($Id: //depot/dev/client3/rdock/2013.1/src/exe/rbdock.cxx#4 $)

>  <Rbt.Library>
libRbt.so (2013.1, Build901 2013/11/27)

>  <Rbt.Parameter_File>
/export/apps/rDock/src/rDock_2013.1_src/data/scripts/dock_solv.prm

>  <Rbt.Receptor>
prm/blind_docking_40.prm

>  <SCORE>
-39.1943

>  <SCORE.INTER>
-39.1943

>  <SCORE.INTER.CONST>
1

>  <SCORE.INTER.POLAR>
-1.9272

>  <SCORE.INTER.ROT>
0

>  <SCORE.INTER.SOLV>
9.82905

>  <SCORE.INTER.VDW>
-26.5819

>  <SCORE.INTER.norm>
-3.01495

>  <SCORE.INTRA>
0

>  <SCORE.INTRA.DIHEDRAL>
0

>  <SCORE.INTRA.DIHEDRAL.0>
0

>  <SCORE.INTRA.POLAR>
0

>  <SCORE.INTRA.POLAR.0>
0

>  <SCORE.INTRA.REPUL>
0

>  <SCORE.INTRA.REPUL.0>
0

>  <SCORE.INTRA.SOLV>
0

>  <SCORE.INTRA.SOLV.lig_0>
-12.9768

>  <SCORE.INTRA.VDW>
0

>  <SCORE.INTRA.VDW.0>
0

>  <SCORE.INTRA.norm>
0

>  <SCORE.RESTR>
0

>  <SCORE.RESTR.CAVITY>
0

>  <SCORE.RESTR.norm>
0

>  <SCORE.SYSTEM>
0

>  <SCORE.SYSTEM.CONST>
0

>  <SCORE.SYSTEM.DIHEDRAL>
0

>  <SCORE.SYSTEM.SOLV>
0

>  <SCORE.SYSTEM.norm>
0

>  <SCORE.heavy>
13

>  <SCORE.norm>
-3.01495

>  <RMSD>
0.767

$$$$
1eht cryst
 OpenBabel11021811383D
libRbt.so/2013.1/901 2013/11/27
 13 14  0  0  0  0  0  0  0  0999 V2000
   -4.7746   -7.8834   10.6493 C   0  0  0  0  0  0  0  0  0  0  0  0
   -5.2518   -7.0067   11.6195 N   0  0  0  0  0  0  0  0  0  0  0  0
   -5.6537   -7.5289   12.8217 C   0  0  0  0  0  0  0  0  0  0  0  0
   -5.5643   -8.7519   12.9467 O   0  0  0  0  0  0  0  0  0  0  0  0
   -6.1444   -6.7894   13.8680 N   0  0  0  0  0  0  0  0  0  0  0  0
   -6.5432   -7.3399   15.0749 C   0  0  0  0  0  0  0  0  0  0  0  0
   -6.2005   -5.4539   13.5979 C   0  0  0  0  0  0  0  0  0  0  0  0
   -5.7988   -4.9448   12.3970 C   0  0  0  0  0  0  0  0  0  0  0  0
   -5.2923   -5.6851   11.3134 C   0  0  0  0  0  0  0  0  0  0  0  0
   -4.9175   -5.2758   10.2156 O   0  0  0  0  0  0  0  0  0  0  0  0
   -5.9963   -3.5734   12.4844 N   0  0  0  0  0  0  0  0  0  0  0  0
   -6.5003   -3.3482   13.7209 C   0  0  0  0  0  0  0  0  0  0  0  0
   -6.6431   -4.4327   14.4313 N   0  0  0  0  0  0  0  0  0  0  0  0
  1  2  1  0  0  0  0
  2  9  1  0  0  0  0
  2  3  1  0  0  0  0
  3  5  1  0  0  0  0
  3  4  2  0  0  0  0
  5  6  1  0  0  0  0
  5  7  1  0  0  0  0
  7  8  2  0  0  0  0
  7 13  1  0  0  0  0
  8  9  1  0  0  0  0
  8 11  1  0  0  0  0
  9 10  2  0  0  0  0
 11 12  1  0  0  0  0
 12 13  2  0  0  0  0
M  END
>  <CHROM.1>
-5.77580006,-6.04342809,12.67698615,-0.79198945,1.18741597,-0.29896485

>  <Name>
1eht cryst

>  <RI>
0

>  <Rbt.Current_Directory>
/home/itssahil/PROJECTS/Mol_Feturizer/New_Systems/rnas/1eht

>  <Rbt.Executable>
rbdock ($Id: //depot/dev/client3/rdock/2013.1/src/exe/rbdock.cxx#4 $)

>  <Rbt.Library>
libRbt.so (2013.1, Build901 2013/11/27)

>  <Rbt.Parameter_File>
/export/apps/rDock/src/rDock_2013.1_src/data/scripts/dock_solv.prm

>  <Rbt.Receptor>
prm/blind_docking_40.prm

>  <SCORE>
-39.1801

>  <SCORE.INTER>
-39.1801

>  <SCORE.INTER.CONST>
1

>  <SCORE.INTER.POLAR>
-1.92722

>  <SCORE.INTER.ROT>
0

>  <SCORE.INTER.SOLV>
9.84169

>  <SCORE.INTER.VDW>
-26.5766

>  <SCORE.INTER.norm>
-3.01386

>  <SCORE.INTRA>
0

>  <SCORE.INTRA.DIHEDRAL>
0

>  <SCORE.INTRA.DIHEDRAL.0>
0

>  <SCORE.INTRA.POLAR>
0

>  <SCORE.INTRA.POLAR.0>
0

>  <SCORE.INTRA.REPUL>
0

>  <SCORE.INTRA.REPUL.0>
0

>  <SCORE.INTRA.SOLV>
0

>  <SCORE.INTRA.SOLV.lig_0>
-12.9768

>  <SCORE.INTRA.VDW>
0

>  <SCORE.INTRA.VDW.0>
0

>  <SCORE.INTRA.norm>
0

>  <SCORE.RESTR>
0

>  <SCORE.RESTR.CAVITY>
0

>  <SCORE.RESTR.norm>
0

>  <SCORE.SYSTEM>
0

>  <SCORE.SYSTEM.CONST>
0

>  <SCORE.SYSTEM.DIHEDRAL>
0

>  <SCORE.SYSTEM.SOLV>
0

>  <SCORE.SYSTEM.norm>
0

>  <SCORE.heavy>
13

>  <SCORE.norm>
-3.01386

>  <RMSD>
0.767

$$$$
1eht cryst
 OpenBabel11021811383D
libRbt.so/2013.1/901 2013/11/27
 13 14  0  0  0  0  0  0  0  0999 V2000
   -4.7808   -7.8845   10.6462 C   0  0  0  0  0  0  0  0  0  0  0  0
   -5.2539   -7.0044   11.6152 N   0  0  0  0  0  0  0  0  0  0  0  0
   -5.6480   -7.5221   12.8220 C   0  0  0  0  0  0  0  0  0  0  0  0
   -5.5557   -8.7443   12.9518 O   0  0  0  0  0  0  0  0  0  0  0  0
   -6.1339   -6.7788   13.8679 N   0  0  0  0  0  0  0  0  0  0  0  0
   -6.5248   -7.3247   15.0795 C   0  0  0  0  0  0  0  0  0  0  0  0
   -6.1940   -5.4447   13.5923 C   0  0  0  0  0  0  0  0  0  0  0  0
   -5.8001   -4.9401   12.3869 C   0  0  0  0  0  0  0  0  0  0  0  0
   -5.2986   -5.6842   11.3036 C   0  0  0  0  0  0  0  0  0  0  0  0
   -4.9307   -5.2791   10.2019 O   0  0  0  0  0  0  0  0  0  0  0  0
   -5.9995   -3.5687   12.4695 N   0  0  0  0  0  0  0  0  0  0  0  0
   -6.4968   -3.3389   13.7079 C   0  0  0  0  0  0  0  0  0  0  0  0
   -6.6336   -4.4206   14.4237 N   0  0  0  0  0  0  0  0  0  0  0  0
  1  2  1  0  0  0  0
  2  9  1  0  0  0  0
  2  3  1  0  0  0  0
  3  5  1  0  0  0  0
  3  4  2  0  0  0  0
  5  6  1  0  0  0  0
  5  7  1  0  0  0  0
  7  8  2  0  0  0  0
  7 13  1  0  0  0  0
  8  9  1  0  0  0  0
  8 11  1  0  0  0  0
  9 10  2  0  0  0  0
 11 12  1  0  0  0  0
 12 13  2  0  0  0  0
M  END
>  <CHROM.1>
-5.77352705,-6.03744213,12.67153986,-0.78282145,1.19238628,-0.31183610

>  <Name>
1eht cryst

>  <RI>
0

>  <Rbt.Current_Directory>
/home/itssahil/PROJECTS/Mol_Feturizer/New_Systems/rnas/1eht

>  <Rbt.Executable>
rbdock ($Id: //depot/dev/client3/rdock/2013.1/src/exe/rbdock.cxx#4 $)

>  <Rbt.Library>
libRbt.so (2013.1, Build901 2013/11/27)

>  <Rbt.Parameter_File>
/export/apps/rDock/src/rDock_2013.1_src/data/scripts/dock_solv.prm

>  <Rbt.Receptor>
prm/blind_docking_60.prm

>  <SCORE>
-39.2095

>  <SCORE.INTER>
-39.2095

>  <SCORE.INTER.CONST>
1

>  <SCORE.INTER.POLAR>
-1.92118

>  <SCORE.INTER.ROT>
0

>  <SCORE.INTER.SOLV>
9.83984

>  <SCORE.INTER.VDW>
-26.6157

>  <SCORE.INTER.norm>
-3.01611

>  <SCORE.INTRA>
0

>  <SCORE.INTRA.DIHEDRAL>
0

>  <SCORE.INTRA.DIHEDRAL.0>
0

>  <SCORE.INTRA.POLAR>
0

>  <SCORE.INTRA.POLAR.0>
0

>  <SCORE.INTRA.REPUL>
0

>  <SCORE.INTRA.REPUL.0>
0

>  <SCORE.INTRA.SOLV>
0

>  <SCORE.INTRA.SOLV.lig_0>
-12.9768

>  <SCORE.INTRA.VDW>
0

>  <SCORE.INTRA.VDW.0>
0

>  <SCORE.INTRA.norm>
0

>  <SCORE.RESTR>
0

>  <SCORE.RESTR.CAVITY>
0

>  <SCORE.RESTR.norm>
0

>  <SCORE.SYSTEM>
0

>  <SCORE.SYSTEM.CONST>
0

>  <SCORE.SYSTEM.DIHEDRAL>
0

>  <SCORE.SYSTEM.SOLV>
0

>  <SCORE.SYSTEM.norm>
0

>  <SCORE.heavy>
13

>  <SCORE.norm>
-3.01611

>  <RMSD>
0.767

$$$$
1eht cryst
 OpenBabel11021811383D
libRbt.so/2013.1/901 2013/11/27
 13 14  0  0  0  0  0  0  0  0999 V2000
   -4.7616   -7.8807   10.6499 C   0  0  0  0  0  0  0  0  0  0  0  0
   -5.2453   -7.0026   11.6155 N   0  0  0  0  0  0  0  0  0  0  0  0
   -5.6476   -7.5222   12.8188 C   0  0  0  0  0  0  0  0  0  0  0  0
   -5.5525   -8.7442   12.9487 O   0  0  0  0  0  0  0  0  0  0  0  0
   -6.1443   -6.7810   13.8610 N   0  0  0  0  0  0  0  0  0  0  0  0
   -6.5433   -7.3288   15.0692 C   0  0  0  0  0  0  0  0  0  0  0  0
   -6.2062   -5.4469   13.5856 C   0  0  0  0  0  0  0  0  0  0  0  0
   -5.8041   -4.9404   12.3838 C   0  0  0  0  0  0  0  0  0  0  0  0
   -5.2915   -5.6824   11.3042 C   0  0  0  0  0  0  0  0  0  0  0  0
   -4.9160   -5.2756   10.2057 O   0  0  0  0  0  0  0  0  0  0  0  0
   -6.0085   -3.5697   12.4654 N   0  0  0  0  0  0  0  0  0  0  0  0
   -6.5165   -3.3422   13.6999 C   0  0  0  0  0  0  0  0  0  0  0  0
   -6.6557   -4.4246   14.4140 N   0  0  0  0  0  0  0  0  0  0  0  0
  1  2  1  0  0  0  0
  2  9  1  0  0  0  0
  2  3  1  0  0  0  0
  3  5  1  0  0  0  0
  3  4  2  0  0  0  0
  5  6  1  0  0  0  0
  5  7  1  0  0  0  0
  7  8  2  0  0  0  0
  7 13  1  0  0  0  0
  8  9  1  0  0  0  0
  8 11  1  0  0  0  0
  9 10  2  0  0  0  0
 11 12  1  0  0  0  0
 12 13  2  0  0  0  0
M  END
>  <CHROM.1>
-5.77645743,-6.03785757,12.66806388,-0.78164191,1.18369774,-0.31240320

>  <Name>
1eht cryst

>  <RI>
0

>  <Rbt.Current_Directory>
/home/itssahil/PROJECTS/Mol_Feturizer/New_Systems/rnas/1eht

>  <Rbt.Executable>
rbdock ($Id: //depot/dev/client3/rdock/2013.1/src/exe/rbdock.cxx#4 $)

>  <Rbt.Library>
libRbt.so (2013.1, Build901 2013/11/27)

>  <Rbt.Parameter_File>
/export/apps/rDock/src/rDock_2013.1_src/data/scripts/dock_solv.prm

>  <Rbt.Receptor>
prm/pocket_docking_2.prm

>  <SCORE>
-39.1975

>  <SCORE.INTER>
-39.1975

>  <SCORE.INTER.CONST>
1

>  <SCORE.INTER.POLAR>
-1.93037

>  <SCORE.INTER.ROT>
0

>  <SCORE.INTER.SOLV>
9.84291

>  <SCORE.INTER.VDW>
-26.5781

>  <SCORE.INTER.norm>
-3.01519

>  <SCORE.INTRA>
0

>  <SCORE.INTRA.DIHEDRAL>
0

>  <SCORE.INTRA.DIHEDRAL.0>
0

>  <SCORE.INTRA.POLAR>
0

>  <SCORE.INTRA.POLAR.0>
0

>  <SCORE.INTRA.REPUL>
0

>  <SCORE.INTRA.REPUL.0>
0

>  <SCORE.INTRA.SOLV>
0

>  <SCORE.INTRA.SOLV.lig_0>
-12.9768

>  <SCORE.INTRA.VDW>
0

>  <SCORE.INTRA.VDW.0>
0

>  <SCORE.INTRA.norm>
0

>  <SCORE.RESTR>
0

>  <SCORE.RESTR.CAVITY>
0

>  <SCORE.RESTR.norm>
0

>  <SCORE.SYSTEM>
0

>  <SCORE.SYSTEM.CONST>
0

>  <SCORE.SYSTEM.DIHEDRAL>
0

>  <SCORE.SYSTEM.SOLV>
0

>  <SCORE.SYSTEM.norm>
0

>  <SCORE.heavy>
13

>  <SCORE.norm>
-3.01519

>  <RMSD>
0.767

$$$$
1eht cryst
 OpenBabel11021811383D
libRbt.so/2013.1/901 2013/11/27
 13 14  0  0  0  0  0  0  0  0999 V2000
   -4.7738   -7.8840   10.6486 C   0  0  0  0  0  0  0  0  0  0  0  0
   -5.2510   -7.0063   11.6178 N   0  0  0  0  0  0  0  0  0  0  0  0
   -5.6504   -7.5271   12.8215 C   0  0  0  0  0  0  0  0  0  0  0  0
   -5.5589   -8.7497   12.9485 O   0  0  0  0  0  0  0  0  0  0  0  0
   -6.1408   -6.7864   13.8672 N   0  0  0  0  0  0  0  0  0  0  0  0
   -6.5371   -7.3354   15.0757 C   0  0  0  0  0  0  0  0  0  0  0  0
   -6.1995   -5.4516   13.5947 C   0  0  0  0  0  0  0  0  0  0  0  0
   -5.8003   -4.9439   12.3924 C   0  0  0  0  0  0  0  0  0  0  0  0
   -5.2941   -5.6854   11.3094 C   0  0  0  0  0  0  0  0  0  0  0  0
   -4.9214   -5.2774   10.2103 O   0  0  0  0  0  0  0  0  0  0  0  0
   -5.9999   -3.5727   12.4776 N   0  0  0  0  0  0  0  0  0  0  0  0
   -6.5025   -3.3461   13.7144 C   0  0  0  0  0  0  0  0  0  0  0  0
   -6.6426   -4.4296   14.4269 N   0  0  0  0  0  0  0  0  0  0  0  0
  1  2  1  0  0  0  0
  2  9  1  0  0  0  0
  2  3  1  0  0  0  0
  3  5  1  0  0  0  0
  3  4  2  0  0  0  0
  5  6  1  0  0  0  0
  5  7  1  0  0  0  0
  7  8  2  0  0  0  0
  7 13  1  0  0  0  0
  8  9  1  0  0  0  0
  8 11  1  0  0  0  0
  9 10  2  0  0  0  0
 11 12  1  0  0  0  0
 12 13  2  0  0  0  0
M  END
>  <CHROM.1>
-5.77511549,-6.04205288,12.67432296,-0.78676847,1.18826959,-0.30559559

>  <Name>
1eht cryst

>  <RI>
0

>  <Rbt.Current_Directory>
/home/itssahil/PROJECTS/Mol_Feturizer/New_Systems/rnas/1eht

>  <Rbt.Executable>
rbdock ($Id: //depot/dev/client3/rdock/2013.1/src/exe/rbdock.cxx#4 $)

>  <Rbt.Library>
libRbt.so (2013.1, Build901 2013/11/27)

>  <Rbt.Parameter_File>
/export/apps/rDock/src/rDock_2013.1_src/data/scripts/dock_solv.prm

>  <Rbt.Receptor>
prm/pocket_docking_2.prm

>  <SCORE>
-39.1782

>  <SCORE.INTER>
-39.1782

>  <SCORE.INTER.CONST>
1

>  <SCORE.INTER.POLAR>
-1.92635

>  <SCORE.INTER.ROT>
0

>  <SCORE.INTER.SOLV>
9.83863

>  <SCORE.INTER.VDW>
-26.5772

>  <SCORE.INTER.norm>
-3.01371

>  <SCORE.INTRA>
0

>  <SCORE.INTRA.DIHEDRAL>
0

>  <SCORE.INTRA.DIHEDRAL.0>
0

>  <SCORE.INTRA.POLAR>
0

>  <SCORE.INTRA.POLAR.0>
0

>  <SCORE.INTRA.REPUL>
0

>  <SCORE.INTRA.REPUL.0>
0

>  <SCORE.INTRA.SOLV>
0

>  <SCORE.INTRA.SOLV.lig_0>
-12.9768

>  <SCORE.INTRA.VDW>
0

>  <SCORE.INTRA.VDW.0>
0

>  <SCORE.INTRA.norm>
0

>  <SCORE.RESTR>
0

>  <SCORE.RESTR.CAVITY>
0

>  <SCORE.RESTR.norm>
0

>  <SCORE.SYSTEM>
0

>  <SCORE.SYSTEM.CONST>
0

>  <SCORE.SYSTEM.DIHEDRAL>
0

>  <SCORE.SYSTEM.SOLV>
0

>  <SCORE.SYSTEM.norm>
0

>  <SCORE.heavy>
13

>  <SCORE.norm>
-3.01371

>  <RMSD>
0.767

$$$$
1eht cryst
 OpenBabel11021811383D
libRbt.so/2013.1/901 2013/11/27
 13 14  0  0  0  0  0  0  0  0999 V2000
   -4.7889   -7.8862   10.6430 C   0  0  0  0  0  0  0  0  0  0  0  0
   -5.2592   -7.0047   11.6122 N   0  0  0  0  0  0  0  0  0  0  0  0
   -5.6505   -7.5208   12.8206 C   0  0  0  0  0  0  0  0  0  0  0  0
   -5.5584   -8.7429   12.9516 O   0  0  0  0  0  0  0  0  0  0  0  0
   -6.1334   -6.7760   13.8668 N   0  0  0  0  0  0  0  0  0  0  0  0
   -6.5215   -7.3203   15.0800 C   0  0  0  0  0  0  0  0  0  0  0  0
   -6.1935   -5.4422   13.5897 C   0  0  0  0  0  0  0  0  0  0  0  0
   -5.8024   -4.9392   12.3827 C   0  0  0  0  0  0  0  0  0  0  0  0
   -5.3040   -5.6849   11.2991 C   0  0  0  0  0  0  0  0  0  0  0  0
   -4.9388   -5.2812   10.1960 O   0  0  0  0  0  0  0  0  0  0  0  0
   -6.0010   -3.5676   12.4642 N   0  0  0  0  0  0  0  0  0  0  0  0
   -6.4950   -3.3362   13.7036 C   0  0  0  0  0  0  0  0  0  0  0  0
   -6.6305   -4.4169   14.4211 N   0  0  0  0  0  0  0  0  0  0  0  0
  1  2  1  0  0  0  0
  2  9  1  0  0  0  0
  2  3  1  0  0  0  0
  3  5  1  0  0  0  0
  3  4  2  0  0  0  0
  5  6  1  0  0  0  0
  5  7  1  0  0  0  0
  7  8  2  0  0  0  0
  7 13  1  0  0  0  0
  8  9  1  0  0  0  0
  8 11  1  0  0  0  0
  9 10  2  0  0  0  0
 11 12  1  0  0  0  0
 12 13  2  0  0  0  0
M  END
>  <CHROM.1>
-5.77565927,-6.03624498,12.66862691,-0.78195917,1.19494352,-0.31383377

>  <Name>
1eht cryst

>  <RI>
0

>  <Rbt.Current_Directory>
/home/itssahil/PROJECTS/Mol_Feturizer/New_Systems/rnas/1eht

>  <Rbt.Executable>
rbdock ($Id: //depot/dev/client3/rdock/2013.1/src/exe/rbdock.cxx#4 $)

>  <Rbt.Library>
libRbt.so (2013.1, Build901 2013/11/27)

>  <Rbt.Parameter_File>
/export/apps/rDock/src/rDock_2013.1_src/data/scripts/dock_solv.prm

>  <Rbt.Receptor>
prm/pocket_docking_3.prm

>  <SCORE>
-39.1982

>  <SCORE.INTER>
-39.1982

>  <SCORE.INTER.CONST>
1

>  <SCORE.INTER.POLAR>
-1.91947

>  <SCORE.INTER.ROT>
0

>  <SCORE.INTER.SOLV>
9.83716

>  <SCORE.INTER.VDW>
-26.613

>  <SCORE.INTER.norm>
-3.01525

>  <SCORE.INTRA>
0

>  <SCORE.INTRA.DIHEDRAL>
0

>  <SCORE.INTRA.DIHEDRAL.0>
0

>  <SCORE.INTRA.POLAR>
0

>  <SCORE.INTRA.POLAR.0>
0

>  <SCORE.INTRA.REPUL>
0

>  <SCORE.INTRA.REPUL.0>
0

>  <SCORE.INTRA.SOLV>
0

>  <SCORE.INTRA.SOLV.lig_0>
-12.9768

>  <SCORE.INTRA.VDW>
0

>  <SCORE.INTRA.VDW.0>
0

>  <SCORE.INTRA.norm>
0

>  <SCORE.RESTR>
0

>  <SCORE.RESTR.CAVITY>
0

>  <SCORE.RESTR.norm>
0

>  <SCORE.SYSTEM>
0

>  <SCORE.SYSTEM.CONST>
0

>  <SCORE.SYSTEM.DIHEDRAL>
0

>  <SCORE.SYSTEM.SOLV>
0

>  <SCORE.SYSTEM.norm>
0

>  <SCORE.heavy>
13

>  <SCORE.norm>
-3.01525

>  <RMSD>
0.767

$$$$
1eht cryst
 OpenBabel11021811383D
libRbt.so/2013.1/901 2013/11/27
 13 14  0  0  0  0  0  0  0  0999 V2000
   -4.7771   -7.8847   10.6472 C   0  0  0  0  0  0  0  0  0  0  0  0
   -5.2523   -7.0048   11.6155 N   0  0  0  0  0  0  0  0  0  0  0  0
   -5.6480   -7.5227   12.8217 C   0  0  0  0  0  0  0  0  0  0  0  0
   -5.5551   -8.7449   12.9517 O   0  0  0  0  0  0  0  0  0  0  0  0
   -6.1360   -6.7797   13.8667 N   0  0  0  0  0  0  0  0  0  0  0  0
   -6.5285   -7.3258   15.0778 C   0  0  0  0  0  0  0  0  0  0  0  0
   -6.1964   -5.4456   13.5910 C   0  0  0  0  0  0  0  0  0  0  0  0
   -5.8009   -4.9408   12.3862 C   0  0  0  0  0  0  0  0  0  0  0  0
   -5.2973   -5.6847   11.3038 C   0  0  0  0  0  0  0  0  0  0  0  0
   -4.9279   -5.2794   10.2026 O   0  0  0  0  0  0  0  0  0  0  0  0
   -6.0014   -3.5695   12.4684 N   0  0  0  0  0  0  0  0  0  0  0  0
   -6.5007   -3.3400   13.7060 C   0  0  0  0  0  0  0  0  0  0  0  0
   -6.6379   -4.4217   14.4217 N   0  0  0  0  0  0  0  0  0  0  0  0
  1  2  1  0  0  0  0
  2  9  1  0  0  0  0
  2  3  1  0  0  0  0
  3  5  1  0  0  0  0
  3  4  2  0  0  0  0
  5  6  1  0  0  0  0
  5  7  1  0  0  0  0
  7  8  2  0  0  0  0
  7 13  1  0  0  0  0
  8  9  1  0  0  0  0
  8 11  1  0  0  0  0
  9 10  2  0  0  0  0
 11 12  1  0  0  0  0
 12 13  2  0  0  0  0
M  END
>  <CHROM.1>
-5.77417227,-6.03813876,12.67093451,-0.78257638,1.19070251,-0.31211201

>  <Name>
1eht cryst

>  <RI>
0

>  <Rbt.Current_Directory>
/home/itssahil/PROJECTS/Mol_Feturizer/New_Systems/rnas/1eht

>  <Rbt.Executable>
rbdock ($Id: //depot/dev/client3/rdock/2013.1/src/exe/rbdock.cxx#4 $)

>  <Rbt.Library>
libRbt.so (2013.1, Build901 2013/11/27)

>  <Rbt.Parameter_File>
/export/apps/rDock/src/rDock_2013.1_src/data/scripts/dock_solv.prm

>  <Rbt.Receptor>
prm/pocket_docking_3.prm

>  <SCORE>
-39.2109

>  <SCORE.INTER>
-39.2109

>  <SCORE.INTER.CONST>
1

>  <SCORE.INTER.POLAR>
-1.92345

>  <SCORE.INTER.ROT>
0

>  <SCORE.INTER.SOLV>
9.83897

>  <SCORE.INTER.VDW>
-26.6087

>  <SCORE.INTER.norm>
-3.01622

>  <SCORE.INTRA>
0

>  <SCORE.INTRA.DIHEDRAL>
0

>  <SCORE.INTRA.DIHEDRAL.0>
0

>  <SCORE.INTRA.POLAR>
0

>  <SCORE.INTRA.POLAR.0>
0

>  <SCORE.INTRA.REPUL>
0

>  <SCORE.INTRA.REPUL.0>
0

>  <SCORE.INTRA.SOLV>
0

>  <SCORE.INTRA.SOLV.lig_0>
-12.9768

>  <SCORE.INTRA.VDW>
0

>  <SCORE.INTRA.VDW.0>
0

>  <SCORE.INTRA.norm>
0

>  <SCORE.RESTR>
0

>  <SCORE.RESTR.CAVITY>
0

>  <SCORE.RESTR.norm>
0

>  <SCORE.SYSTEM>
0

>  <SCORE.SYSTEM.CONST>
0

>  <SCORE.SYSTEM.DIHEDRAL>
0

>  <SCORE.SYSTEM.SOLV>
0

>  <SCORE.SYSTEM.norm>
0

>  <SCORE.heavy>
13

>  <SCORE.norm>
-3.01622

>  <RMSD>
0.767

$$$$
1eht cryst
 OpenBabel11021811383D
libRbt.so/2013.1/901 2013/11/27
 13 14  0  0  0  0  0  0  0  0999 V2000
   -4.7782   -7.8822   10.6449 C   0  0  0  0  0  0  0  0  0  0  0  0
   -5.2516   -7.0014   11.6133 N   0  0  0  0  0  0  0  0  0  0  0  0
   -5.6448   -7.5182   12.8208 C   0  0  0  0  0  0  0  0  0  0  0  0
   -5.5515   -8.7402   12.9517 O   0  0  0  0  0  0  0  0  0  0  0  0
   -6.1308   -6.7742   13.8661 N   0  0  0  0  0  0  0  0  0  0  0  0
   -6.5209   -7.3192   15.0784 C   0  0  0  0  0  0  0  0  0  0  0  0
   -6.1920   -5.4404   13.5891 C   0  0  0  0  0  0  0  0  0  0  0  0
   -5.7989   -4.9367   12.3831 C   0  0  0  0  0  0  0  0  0  0  0  0
   -5.2973   -5.6816   11.3004 C   0  0  0  0  0  0  0  0  0  0  0  0
   -4.9302   -5.2773   10.1981 O   0  0  0  0  0  0  0  0  0  0  0  0
   -5.9994   -3.5654   12.4643 N   0  0  0  0  0  0  0  0  0  0  0  0
   -6.4963   -3.3348   13.7027 C   0  0  0  0  0  0  0  0  0  0  0  0
   -6.6320   -4.4158   14.4197 N   0  0  0  0  0  0  0  0  0  0  0  0
  1  2  1  0  0  0  0
  2  9  1  0  0  0  0
  2  3  1  0  0  0  0
  3  5  1  0  0  0  0
  3  4  2  0  0  0  0
  5  6  1  0  0  0  0
  5  7  1  0  0  0  0
  7  8  2  0  0  0  0
  7 13  1  0  0  0  0
  8  9  1  0  0  0  0
  8 11  1  0  0  0  0
  9 10  2  0  0  0  0
 11 12  1  0  0  0  0
 12 13  2  0  0  0  0
M  END
>  <CHROM.1>
-5.77147109,-6.03379356,12.66881891,-0.78061663,1.19253598,-0.31490028

>  <Name>
1eht cryst

>  <RI>
0

>  <Rbt.Current_Directory>
/home/itssahil/PROJECTS/Mol_Feturizer/New_Systems/rnas/1eht

>  <Rbt.Executable>
rbdock ($Id: //depot/dev/client3/rdock/2013.1/src/exe/rbdock.cxx#4 $)

>  <Rbt.Library>
libRbt.so (2013.1, Build901 2013/11/27)

>  <Rbt.Parameter_File>
/export/apps/rDock/src/rDock_2013.1_src/data/scripts/dock_solv.prm

>  <Rbt.Receptor>
prm/pocket_docking_3.prm

>  <SCORE>
-39.204

>  <SCORE.INTER>
-39.204

>  <SCORE.INTER.CONST>
1

>  <SCORE.INTER.POLAR>
-1.92025

>  <SCORE.INTER.ROT>
0

>  <SCORE.INTER.SOLV>
9.8449

>  <SCORE.INTER.VDW>
-26.6168

>  <SCORE.INTER.norm>
-3.01569

>  <SCORE.INTRA>
0

>  <SCORE.INTRA.DIHEDRAL>
0

>  <SCORE.INTRA.DIHEDRAL.0>
0

>  <SCORE.INTRA.POLAR>
0

>  <SCORE.INTRA.POLAR.0>
0

>  <SCORE.INTRA.REPUL>
0

>  <SCORE.INTRA.REPUL.0>
0

>  <SCORE.INTRA.SOLV>
0

>  <SCORE.INTRA.SOLV.lig_0>
-12.9768

>  <SCORE.INTRA.VDW>
0

>  <SCORE.INTRA.VDW.0>
0

>  <SCORE.INTRA.norm>
0

>  <SCORE.RESTR>
0

>  <SCORE.RESTR.CAVITY>
0

>  <SCORE.RESTR.norm>
0

>  <SCORE.SYSTEM>
0

>  <SCORE.SYSTEM.CONST>
0

>  <SCORE.SYSTEM.DIHEDRAL>
0

>  <SCORE.SYSTEM.SOLV>
0

>  <SCORE.SYSTEM.norm>
0

>  <SCORE.heavy>
13

>  <SCORE.norm>
-3.01569

>  <RMSD>
0.767

$$$$
1eht cryst
 OpenBabel11021811383D
libRbt.so/2013.1/901 2013/11/27
 13 14  0  0  0  0  0  0  0  0999 V2000
   -4.7966   -7.9288   10.6334 C   0  0  0  0  0  0  0  0  0  0  0  0
   -5.2731   -7.0420   11.5947 N   0  0  0  0  0  0  0  0  0  0  0  0
   -5.6602   -7.5499   12.8079 C   0  0  0  0  0  0  0  0  0  0  0  0
   -5.5590   -8.7700   12.9500 O   0  0  0  0  0  0  0  0  0  0  0  0
   -6.1483   -6.7992   13.8474 N   0  0  0  0  0  0  0  0  0  0  0  0
   -6.5320   -7.3352   15.0657 C   0  0  0  0  0  0  0  0  0  0  0  0
   -6.2184   -5.4684   13.5582 C   0  0  0  0  0  0  0  0  0  0  0  0
   -5.8314   -4.9736   12.3465 C   0  0  0  0  0  0  0  0  0  0  0  0
   -5.3278   -5.7255   11.2696 C   0  0  0  0  0  0  0  0  0  0  0  0
   -4.9659   -5.3292   10.1627 O   0  0  0  0  0  0  0  0  0  0  0  0
   -6.0401   -3.6029   12.4155 N   0  0  0  0  0  0  0  0  0  0  0  0
   -6.5355   -3.3637   13.6529 C   0  0  0  0  0  0  0  0  0  0  0  0
   -6.6627   -4.4388   14.3803 N   0  0  0  0  0  0  0  0  0  0  0  0
  1  2  1  0  0  0  0
  2  9  1  0  0  0  0
  2  3  1  0  0  0  0
  3  5  1  0  0  0  0
  3  4  2  0  0  0  0
  5  6  1  0  0  0  0
  5  7  1  0  0  0  0
  7  8  2  0  0  0  0
  7 13  1  0  0  0  0
  8  9  1  0  0  0  0
  8 11  1  0  0  0  0
  9 10  2  0  0  0  0
 11 12  1  0  0  0  0
 12 13  2  0  0  0  0
M  END
>  <CHROM.1>
-5.79642995,-6.06777049,12.64242365,-0.76258988,1.19286283,-0.34098526

>  <Name>
1eht cryst

>  <RI>
0

>  <Rbt.Current_Directory>
/home/itssahil/PROJECTS/Mol_Feturizer/New_Systems/rnas/1eht

>  <Rbt.Executable>
rbdock ($Id: //depot/dev/client3/rdock/2013.1/src/exe/rbdock.cxx#4 $)

>  <Rbt.Library>
libRbt.so (2013.1, Build901 2013/11/27)

>  <Rbt.Parameter_File>
/export/apps/rDock/src/rDock_2013.1_src/data/scripts/dock_solv.prm

>  <Rbt.Receptor>
prm/pocket_docking_3.prm

>  <SCORE>
-39.1454

>  <SCORE.INTER>
-39.1454

>  <SCORE.INTER.CONST>
1

>  <SCORE.INTER.POLAR>
-1.95124

>  <SCORE.INTER.ROT>
0

>  <SCORE.INTER.SOLV>
9.74989

>  <SCORE.INTER.VDW>
-26.4428

>  <SCORE.INTER.norm>
-3.01118

>  <SCORE.INTRA>
0

>  <SCORE.INTRA.DIHEDRAL>
0

>  <SCORE.INTRA.DIHEDRAL.0>
0

>  <SCORE.INTRA.POLAR>
0

>  <SCORE.INTRA.POLAR.0>
0

>  <SCORE.INTRA.REPUL>
0

>  <SCORE.INTRA.REPUL.0>
0

>  <SCORE.INTRA.SOLV>
0

>  <SCORE.INTRA.SOLV.lig_0>
-12.9768

>  <SCORE.INTRA.VDW>
0

>  <SCORE.INTRA.VDW.0>
0

>  <SCORE.INTRA.norm>
0

>  <SCORE.RESTR>
0

>  <SCORE.RESTR.CAVITY>
0

>  <SCORE.RESTR.norm>
0

>  <SCORE.SYSTEM>
0

>  <SCORE.SYSTEM.CONST>
0

>  <SCORE.SYSTEM.DIHEDRAL>
0

>  <SCORE.SYSTEM.SOLV>
0

>  <SCORE.SYSTEM.norm>
0

>  <SCORE.heavy>
13

>  <SCORE.norm>
-3.01118

>  <RMSD>
0.767

$$$$
1eht cryst
 OpenBabel11021811383D
libRbt.so/2013.1/901 2013/11/27
 13 14  0  0  0  0  0  0  0  0999 V2000
   -4.7864   -7.8821   10.6529 C   0  0  0  0  0  0  0  0  0  0  0  0
   -5.2624   -7.0086   11.6266 N   0  0  0  0  0  0  0  0  0  0  0  0
   -5.6600   -7.5345   12.8287 C   0  0  0  0  0  0  0  0  0  0  0  0
   -5.5680   -8.7576   12.9504 O   0  0  0  0  0  0  0  0  0  0  0  0
   -6.1490   -6.7984   13.8781 N   0  0  0  0  0  0  0  0  0  0  0  0
   -6.5434   -7.3526   15.0849 C   0  0  0  0  0  0  0  0  0  0  0  0
   -6.2083   -5.4624   13.6114 C   0  0  0  0  0  0  0  0  0  0  0  0
   -5.8110   -4.9496   12.4106 C   0  0  0  0  0  0  0  0  0  0  0  0
   -5.3063   -5.6864   11.3238 C   0  0  0  0  0  0  0  0  0  0  0  0
   -4.9353   -5.2738   10.2259 O   0  0  0  0  0  0  0  0  0  0  0  0
   -6.0108   -3.5789   12.5020 N   0  0  0  0  0  0  0  0  0  0  0  0
   -6.5116   -3.3576   13.7405 C   0  0  0  0  0  0  0  0  0  0  0  0
   -6.6504   -4.4441   14.4486 N   0  0  0  0  0  0  0  0  0  0  0  0
  1  2  1  0  0  0  0
  2  9  1  0  0  0  0
  2  3  1  0  0  0  0
  3  5  1  0  0  0  0
  3  4  2  0  0  0  0
  5  6  1  0  0  0  0
  5  7  1  0  0  0  0
  7  8  2  0  0  0  0
  7 13  1  0  0  0  0
  8  9  1  0  0  0  0
  8 11  1  0  0  0  0
  9 10  2  0  0  0  0
 11 12  1  0  0  0  0
 12 13  2  0  0  0  0
M  END
>  <CHROM.1>
-5.78517864,-6.04892491,12.68791954,-0.78505696,1.18959774,-0.30296610

>  <Name>
1eht cryst

>  <RI>
0

>  <Rbt.Current_Directory>
/home/itssahil/PROJECTS/Mol_Feturizer/New_Systems/rnas/1eht

>  <Rbt.Executable>
rbdock ($Id: //depot/dev/client3/rdock/2013.1/src/exe/rbdock.cxx#4 $)

>  <Rbt.Library>
libRbt.so (2013.1, Build901 2013/11/27)

>  <Rbt.Parameter_File>
/export/apps/rDock/src/rDock_2013.1_src/data/scripts/dock_solv.prm

>  <Rbt.Receptor>
prm/pocket_docking_3.prm

>  <SCORE>
-39.2086

>  <SCORE.INTER>
-39.2086

>  <SCORE.INTER.CONST>
1

>  <SCORE.INTER.POLAR>
-1.91613

>  <SCORE.INTER.ROT>
0

>  <SCORE.INTER.SOLV>
9.82637

>  <SCORE.INTER.VDW>
-26.6274

>  <SCORE.INTER.norm>
-3.01605

>  <SCORE.INTRA>
0

>  <SCORE.INTRA.DIHEDRAL>
0

>  <SCORE.INTRA.DIHEDRAL.0>
0

>  <SCORE.INTRA.POLAR>
0

>  <SCORE.INTRA.POLAR.0>
0

>  <SCORE.INTRA.REPUL>
0

>  <SCORE.INTRA.REPUL.0>
0

>  <SCORE.INTRA.SOLV>
0

>  <SCORE.INTRA.SOLV.lig_0>
-12.9768

>  <SCORE.INTRA.VDW>
0

>  <SCORE.INTRA.VDW.0>
0

>  <SCORE.INTRA.norm>
0

>  <SCORE.RESTR>
0

>  <SCORE.RESTR.CAVITY>
0

>  <SCORE.RESTR.norm>
0

>  <SCORE.SYSTEM>
0

>  <SCORE.SYSTEM.CONST>
0

>  <SCORE.SYSTEM.DIHEDRAL>
0

>  <SCORE.SYSTEM.SOLV>
0

>  <SCORE.SYSTEM.norm>
0

>  <SCORE.heavy>
13

>  <SCORE.norm>
-3.01605

>  <RMSD>
0.767

$$$$
1eht cryst
 OpenBabel11021811383D
libRbt.so/2013.1/901 2013/11/27
 13 14  0  0  0  0  0  0  0  0999 V2000
   -4.7627   -7.8793   10.6499 C   0  0  0  0  0  0  0  0  0  0  0  0
   -5.2427   -7.0011   11.6173 N   0  0  0  0  0  0  0  0  0  0  0  0
   -5.6420   -7.5208   12.8216 C   0  0  0  0  0  0  0  0  0  0  0  0
   -5.5478   -8.7430   12.9506 O   0  0  0  0  0  0  0  0  0  0  0  0
   -6.1350   -6.7796   13.8656 N   0  0  0  0  0  0  0  0  0  0  0  0
   -6.5311   -7.3275   15.0746 C   0  0  0  0  0  0  0  0  0  0  0  0
   -6.1964   -5.4453   13.5909 C   0  0  0  0  0  0  0  0  0  0  0  0
   -5.7972   -4.9387   12.3881 C   0  0  0  0  0  0  0  0  0  0  0  0
   -5.2885   -5.6808   11.3068 C   0  0  0  0  0  0  0  0  0  0  0  0
   -4.9157   -5.2738   10.2074 O   0  0  0  0  0  0  0  0  0  0  0  0
   -6.0000   -3.5678   12.4710 N   0  0  0  0  0  0  0  0  0  0  0  0
   -6.5042   -3.3403   13.7070 C   0  0  0  0  0  0  0  0  0  0  0  0
   -6.6424   -4.4230   14.4211 N   0  0  0  0  0  0  0  0  0  0  0  0
  1  2  1  0  0  0  0
  2  9  1  0  0  0  0
  2  3  1  0  0  0  0
  3  5  1  0  0  0  0
  3  4  2  0  0  0  0
  5  6  1  0  0  0  0
  5  7  1  0  0  0  0
  7  8  2  0  0  0  0
  7 13  1  0  0  0  0
  8  9  1  0  0  0  0
  8 11  1  0  0  0  0
  9 10  2  0  0  0  0
 11 12  1  0  0  0  0
 12 13  2  0  0  0  0
M  END
>  <CHROM.1>
-5.76986342,-6.03629672,12.67184574,-0.78181933,1.18675679,-0.31179396

>  <Name>
1eht cryst

>  <RI>
0

>  <Rbt.Current_Directory>
/home/itssahil/PROJECTS/Mol_Feturizer/New_Systems/rnas/1eht

>  <Rbt.Executable>
rbdock ($Id: //depot/dev/client3/rdock/2013.1/src/exe/rbdock.cxx#4 $)

>  <Rbt.Library>
libRbt.so (2013.1, Build901 2013/11/27)

>  <Rbt.Parameter_File>
/export/apps/rDock/src/rDock_2013.1_src/data/scripts/dock_solv.prm

>  <Rbt.Receptor>
prm/pocket_docking_5.prm

>  <SCORE>
-39.2174

>  <SCORE.INTER>
-39.2174

>  <SCORE.INTER.CONST>
1

>  <SCORE.INTER.POLAR>
-1.92542

>  <SCORE.INTER.ROT>
0

>  <SCORE.INTER.SOLV>
9.84852

>  <SCORE.INTER.VDW>
-26.6097

>  <SCORE.INTER.norm>
-3.01672

>  <SCORE.INTRA>
0

>  <SCORE.INTRA.DIHEDRAL>
0

>  <SCORE.INTRA.DIHEDRAL.0>
0

>  <SCORE.INTRA.POLAR>
0

>  <SCORE.INTRA.POLAR.0>
0

>  <SCORE.INTRA.REPUL>
0

>  <SCORE.INTRA.REPUL.0>
0

>  <SCORE.INTRA.SOLV>
0

>  <SCORE.INTRA.SOLV.lig_0>
-12.9768

>  <SCORE.INTRA.VDW>
0

>  <SCORE.INTRA.VDW.0>
0

>  <SCORE.INTRA.norm>
0

>  <SCORE.RESTR>
0

>  <SCORE.RESTR.CAVITY>
0

>  <SCORE.RESTR.norm>
0

>  <SCORE.SYSTEM>
0

>  <SCORE.SYSTEM.CONST>
0

>  <SCORE.SYSTEM.DIHEDRAL>
0

>  <SCORE.SYSTEM.SOLV>
0

>  <SCORE.SYSTEM.norm>
0

>  <SCORE.heavy>
13

>  <SCORE.norm>
-3.01672

>  <RMSD>
0.767

$$$$
1eht cryst
 OpenBabel11021811383D
libRbt.so/2013.1/901 2013/11/27
 13 14  0  0  0  0  0  0  0  0999 V2000
   -4.7775   -7.8832   10.6465 C   0  0  0  0  0  0  0  0  0  0  0  0
   -5.2518   -7.0033   11.6152 N   0  0  0  0  0  0  0  0  0  0  0  0
   -5.6472   -7.5213   12.8214 C   0  0  0  0  0  0  0  0  0  0  0  0
   -5.5549   -8.7435   12.9511 O   0  0  0  0  0  0  0  0  0  0  0  0
   -6.1343   -6.7782   13.8669 N   0  0  0  0  0  0  0  0  0  0  0  0
   -6.5265   -7.3243   15.0780 C   0  0  0  0  0  0  0  0  0  0  0  0
   -6.1942   -5.4440   13.5914 C   0  0  0  0  0  0  0  0  0  0  0  0
   -5.7990   -4.9392   12.3865 C   0  0  0  0  0  0  0  0  0  0  0  0
   -5.2962   -5.6831   11.3037 C   0  0  0  0  0  0  0  0  0  0  0  0
   -4.9272   -5.2778   10.2024 O   0  0  0  0  0  0  0  0  0  0  0  0
   -5.9987   -3.5678   12.4691 N   0  0  0  0  0  0  0  0  0  0  0  0
   -6.4974   -3.3383   13.7070 C   0  0  0  0  0  0  0  0  0  0  0  0
   -6.6349   -4.4201   14.4225 N   0  0  0  0  0  0  0  0  0  0  0  0
  1  2  1  0  0  0  0
  2  9  1  0  0  0  0
  2  3  1  0  0  0  0
  3  5  1  0  0  0  0
  3  4  2  0  0  0  0
  5  6  1  0  0  0  0
  5  7  1  0  0  0  0
  7  8  2  0  0  0  0
  7 13  1  0  0  0  0
  8  9  1  0  0  0  0
  8 11  1  0  0  0  0
  9 10  2  0  0  0  0
 11 12  1  0  0  0  0
 12 13  2  0  0  0  0
M  END
>  <CHROM.1>
-5.77269332,-6.03660917,12.67103182,-0.78349392,1.19128645,-0.31106246

>  <Name>
1eht cryst

>  <RI>
0

>  <Rbt.Current_Directory>
/home/itssahil/PROJECTS/Mol_Feturizer/New_Systems/rnas/1eht

>  <Rbt.Executable>
rbdock ($Id: //depot/dev/client3/rdock/2013.1/src/exe/rbdock.cxx#4 $)

>  <Rbt.Library>
libRbt.so (2013.1, Build901 2013/11/27)

>  <Rbt.Parameter_File>
/export/apps/rDock/src/rDock_2013.1_src/data/scripts/dock_solv.prm

>  <Rbt.Receptor>
prm/pocket_docking_5.prm

>  <SCORE>
-39.2111

>  <SCORE.INTER>
-39.2111

>  <SCORE.INTER.CONST>
1

>  <SCORE.INTER.POLAR>
-1.92219

>  <SCORE.INTER.ROT>
0

>  <SCORE.INTER.SOLV>
9.84311

>  <SCORE.INTER.VDW>
-26.6145

>  <SCORE.INTER.norm>
-3.01624

>  <SCORE.INTRA>
0

>  <SCORE.INTRA.DIHEDRAL>
0

>  <SCORE.INTRA.DIHEDRAL.0>
0

>  <SCORE.INTRA.POLAR>
0

>  <SCORE.INTRA.POLAR.0>
0

>  <SCORE.INTRA.REPUL>
0

>  <SCORE.INTRA.REPUL.0>
0

>  <SCORE.INTRA.SOLV>
0

>  <SCORE.INTRA.SOLV.lig_0>
-12.9768

>  <SCORE.INTRA.VDW>
0

>  <SCORE.INTRA.VDW.0>
0

>  <SCORE.INTRA.norm>
0

>  <SCORE.RESTR>
0

>  <SCORE.RESTR.CAVITY>
0

>  <SCORE.RESTR.norm>
0

>  <SCORE.SYSTEM>
0

>  <SCORE.SYSTEM.CONST>
0

>  <SCORE.SYSTEM.DIHEDRAL>
0

>  <SCORE.SYSTEM.SOLV>
0

>  <SCORE.SYSTEM.norm>
0

>  <SCORE.heavy>
13

>  <SCORE.norm>
-3.01624

>  <RMSD>
0.767

$$$$
1eht cryst
 OpenBabel11021811383D
libRbt.so/2013.1/901 2013/11/27
 13 14  0  0  0  0  0  0  0  0999 V2000
   -4.7648   -7.8820   10.6485 C   0  0  0  0  0  0  0  0  0  0  0  0
   -5.2460   -7.0038   11.6154 N   0  0  0  0  0  0  0  0  0  0  0  0
   -5.6472   -7.5237   12.8189 C   0  0  0  0  0  0  0  0  0  0  0  0
   -5.5536   -8.7459   12.9478 O   0  0  0  0  0  0  0  0  0  0  0  0
   -6.1415   -6.7826   13.8623 N   0  0  0  0  0  0  0  0  0  0  0  0
   -6.5395   -7.3306   15.0707 C   0  0  0  0  0  0  0  0  0  0  0  0
   -6.2020   -5.4482   13.5879 C   0  0  0  0  0  0  0  0  0  0  0  0
   -5.8010   -4.9414   12.3858 C   0  0  0  0  0  0  0  0  0  0  0  0
   -5.2909   -5.6834   11.3051 C   0  0  0  0  0  0  0  0  0  0  0  0
   -4.9164   -5.2763   10.2063 O   0  0  0  0  0  0  0  0  0  0  0  0
   -6.0034   -3.5705   12.4687 N   0  0  0  0  0  0  0  0  0  0  0  0
   -6.5094   -3.3431   13.7040 C   0  0  0  0  0  0  0  0  0  0  0  0
   -6.6490   -4.4259   14.4177 N   0  0  0  0  0  0  0  0  0  0  0  0
  1  2  1  0  0  0  0
  2  9  1  0  0  0  0
  2  3  1  0  0  0  0
  3  5  1  0  0  0  0
  3  4  2  0  0  0  0
  5  6  1  0  0  0  0
  5  7  1  0  0  0  0
  7  8  2  0  0  0  0
  7 13  1  0  0  0  0
  8  9  1  0  0  0  0
  8 11  1  0  0  0  0
  9 10  2  0  0  0  0
 11 12  1  0  0  0  0
 12 13  2  0  0  0  0
M  END
>  <CHROM.1>
-5.77439455,-6.03911611,12.66933178,-0.78379950,1.18546591,-0.30973490

>  <Name>
1eht cryst

>  <RI>
0

>  <Rbt.Current_Directory>
/home/itssahil/PROJECTS/Mol_Feturizer/New_Systems/rnas/1eht

>  <Rbt.Executable>
rbdock ($Id: //depot/dev/client3/rdock/2013.1/src/exe/rbdock.cxx#4 $)

>  <Rbt.Library>
libRbt.so (2013.1, Build901 2013/11/27)

>  <Rbt.Parameter_File>
/export/apps/rDock/src/rDock_2013.1_src/data/scripts/dock_solv.prm

>  <Rbt.Receptor>
prm/pocket_docking_5.prm

>  <SCORE>
-39.1864

>  <SCORE.INTER>
-39.1864

>  <SCORE.INTER.CONST>
1

>  <SCORE.INTER.POLAR>
-1.92973

>  <SCORE.INTER.ROT>
0

>  <SCORE.INTER.SOLV>
9.84241

>  <SCORE.INTER.VDW>
-26.5726

>  <SCORE.INTER.norm>
-3.01434

>  <SCORE.INTRA>
0

>  <SCORE.INTRA.DIHEDRAL>
0

>  <SCORE.INTRA.DIHEDRAL.0>
0

>  <SCORE.INTRA.POLAR>
0

>  <SCORE.INTRA.POLAR.0>
0

>  <SCORE.INTRA.REPUL>
0

>  <SCORE.INTRA.REPUL.0>
0

>  <SCORE.INTRA.SOLV>
0

>  <SCORE.INTRA.SOLV.lig_0>
-12.9768

>  <SCORE.INTRA.VDW>
0

>  <SCORE.INTRA.VDW.0>
0

>  <SCORE.INTRA.norm>
0

>  <SCORE.RESTR>
0

>  <SCORE.RESTR.CAVITY>
0

>  <SCORE.RESTR.norm>
0

>  <SCORE.SYSTEM>
0

>  <SCORE.SYSTEM.CONST>
0

>  <SCORE.SYSTEM.DIHEDRAL>
0

>  <SCORE.SYSTEM.SOLV>
0

>  <SCORE.SYSTEM.norm>
0

>  <SCORE.heavy>
13

>  <SCORE.norm>
-3.01434

>  <RMSD>
0.767

$$$$
1eht cryst
 OpenBabel11021811383D
libRbt.so/2013.1/901 2013/11/27
 13 14  0  0  0  0  0  0  0  0999 V2000
   -4.7570   -7.8803   10.6482 C   0  0  0  0  0  0  0  0  0  0  0  0
   -5.2424   -7.0018   11.6127 N   0  0  0  0  0  0  0  0  0  0  0  0
   -5.6441   -7.5206   12.8165 C   0  0  0  0  0  0  0  0  0  0  0  0
   -5.5470   -8.7422   12.9480 O   0  0  0  0  0  0  0  0  0  0  0  0
   -6.1423   -6.7789   13.8577 N   0  0  0  0  0  0  0  0  0  0  0  0
   -6.5407   -7.3258   15.0665 C   0  0  0  0  0  0  0  0  0  0  0  0
   -6.2064   -5.4452   13.5806 C   0  0  0  0  0  0  0  0  0  0  0  0
   -5.8049   -4.9396   12.3782 C   0  0  0  0  0  0  0  0  0  0  0  0
   -5.2908   -5.6821   11.2997 C   0  0  0  0  0  0  0  0  0  0  0  0
   -4.9157   -5.2760   10.2008 O   0  0  0  0  0  0  0  0  0  0  0  0
   -6.0115   -3.5691   12.4581 N   0  0  0  0  0  0  0  0  0  0  0  0
   -6.5202   -3.3409   13.6921 C   0  0  0  0  0  0  0  0  0  0  0  0
   -6.6578   -4.4227   14.4076 N   0  0  0  0  0  0  0  0  0  0  0  0
  1  2  1  0  0  0  0
  2  9  1  0  0  0  0
  2  3  1  0  0  0  0
  3  5  1  0  0  0  0
  3  4  2  0  0  0  0
  5  6  1  0  0  0  0
  5  7  1  0  0  0  0
  7  8  2  0  0  0  0
  7 13  1  0  0  0  0
  8  9  1  0  0  0  0
  8 11  1  0  0  0  0
  9 10  2  0  0  0  0
 11 12  1  0  0  0  0
 12 13  2  0  0  0  0
M  END
>  <CHROM.1>
-5.77545528,-6.03664520,12.66388227,-0.77760567,1.18296927,-0.31739973

>  <Name>
1eht cryst

>  <RI>
0

>  <Rbt.Current_Directory>
/home/itssahil/PROJECTS/Mol_Feturizer/New_Systems/rnas/1eht

>  <Rbt.Executable>
rbdock ($Id: //depot/dev/client3/rdock/2013.1/src/exe/rbdock.cxx#4 $)

>  <Rbt.Library>
libRbt.so (2013.1, Build901 2013/11/27)

>  <Rbt.Parameter_File>
/export/apps/rDock/src/rDock_2013.1_src/data/scripts/dock_solv.prm

>  <Rbt.Receptor>
prm/pocket_docking_5.prm

>  <SCORE>
-39.1946

>  <SCORE.INTER>
-39.1946

>  <SCORE.INTER.CONST>
1

>  <SCORE.INTER.POLAR>
-1.93189

>  <SCORE.INTER.ROT>
0

>  <SCORE.INTER.SOLV>
9.84141

>  <SCORE.INTER.VDW>
-26.5706

>  <SCORE.INTER.norm>
-3.01497

>  <SCORE.INTRA>
0

>  <SCORE.INTRA.DIHEDRAL>
0

>  <SCORE.INTRA.DIHEDRAL.0>
0

>  <SCORE.INTRA.POLAR>
0

>  <SCORE.INTRA.POLAR.0>
0

>  <SCORE.INTRA.REPUL>
0

>  <SCORE.INTRA.REPUL.0>
0

>  <SCORE.INTRA.SOLV>
0

>  <SCORE.INTRA.SOLV.lig_0>
-12.9768

>  <SCORE.INTRA.VDW>
0

>  <SCORE.INTRA.VDW.0>
0

>  <SCORE.INTRA.norm>
0

>  <SCORE.RESTR>
0

>  <SCORE.RESTR.CAVITY>
0

>  <SCORE.RESTR.norm>
0

>  <SCORE.SYSTEM>
0

>  <SCORE.SYSTEM.CONST>
0

>  <SCORE.SYSTEM.DIHEDRAL>
0

>  <SCORE.SYSTEM.SOLV>
0

>  <SCORE.SYSTEM.norm>
0

>  <SCORE.heavy>
13

>  <SCORE.norm>
-3.01497

>  <RMSD>
0.767

$$$$
1eht cryst
 OpenBabel11021811383D
libRbt.so/2013.1/901 2013/11/27
 13 14  0  0  0  0  0  0  0  0999 V2000
   -4.7785   -7.8830   10.6459 C   0  0  0  0  0  0  0  0  0  0  0  0
   -5.2520   -7.0025   11.6144 N   0  0  0  0  0  0  0  0  0  0  0  0
   -5.6459   -7.5197   12.8215 C   0  0  0  0  0  0  0  0  0  0  0  0
   -5.5532   -8.7418   12.9519 O   0  0  0  0  0  0  0  0  0  0  0  0
   -6.1321   -6.7760   13.8669 N   0  0  0  0  0  0  0  0  0  0  0  0
   -6.5229   -7.3214   15.0788 C   0  0  0  0  0  0  0  0  0  0  0  0
   -6.1926   -5.4420   13.5906 C   0  0  0  0  0  0  0  0  0  0  0  0
   -5.7989   -4.9380   12.3849 C   0  0  0  0  0  0  0  0  0  0  0  0
   -5.2971   -5.6826   11.3021 C   0  0  0  0  0  0  0  0  0  0  0  0
   -4.9294   -5.2779   10.2001 O   0  0  0  0  0  0  0  0  0  0  0  0
   -5.9988   -3.5666   12.4667 N   0  0  0  0  0  0  0  0  0  0  0  0
   -6.4962   -3.3364   13.7050 C   0  0  0  0  0  0  0  0  0  0  0  0
   -6.6326   -4.4177   14.4215 N   0  0  0  0  0  0  0  0  0  0  0  0
  1  2  1  0  0  0  0
  2  9  1  0  0  0  0
  2  3  1  0  0  0  0
  3  5  1  0  0  0  0
  3  4  2  0  0  0  0
  5  6  1  0  0  0  0
  5  7  1  0  0  0  0
  7  8  2  0  0  0  0
  7 13  1  0  0  0  0
  8  9  1  0  0  0  0
  8 11  1  0  0  0  0
  9 10  2  0  0  0  0
 11 12  1  0  0  0  0
 12 13  2  0  0  0  0
M  END
>  <CHROM.1>
-5.77195541,-6.03519110,12.67017112,-0.78195476,1.19225681,-0.31319675

>  <Name>
1eht cryst

>  <RI>
0

>  <Rbt.Current_Directory>
/home/itssahil/PROJECTS/Mol_Feturizer/New_Systems/rnas/1eht

>  <Rbt.Executable>
rbdock ($Id: //depot/dev/client3/rdock/2013.1/src/exe/rbdock.cxx#4 $)

>  <Rbt.Library>
libRbt.so (2013.1, Build901 2013/11/27)

>  <Rbt.Parameter_File>
/export/apps/rDock/src/rDock_2013.1_src/data/scripts/dock_solv.prm

>  <Rbt.Receptor>
prm/pocket_docking_6.prm

>  <SCORE>
-39.2074

>  <SCORE.INTER>
-39.2074

>  <SCORE.INTER.CONST>
1

>  <SCORE.INTER.POLAR>
-1.92081

>  <SCORE.INTER.ROT>
0

>  <SCORE.INTER.SOLV>
9.84368

>  <SCORE.INTER.VDW>
-26.6168

>  <SCORE.INTER.norm>
-3.01595

>  <SCORE.INTRA>
0

>  <SCORE.INTRA.DIHEDRAL>
0

>  <SCORE.INTRA.DIHEDRAL.0>
0

>  <SCORE.INTRA.POLAR>
0

>  <SCORE.INTRA.POLAR.0>
0

>  <SCORE.INTRA.REPUL>
0

>  <SCORE.INTRA.REPUL.0>
0

>  <SCORE.INTRA.SOLV>
0

>  <SCORE.INTRA.SOLV.lig_0>
-12.9768

>  <SCORE.INTRA.VDW>
0

>  <SCORE.INTRA.VDW.0>
0

>  <SCORE.INTRA.norm>
0

>  <SCORE.RESTR>
0

>  <SCORE.RESTR.CAVITY>
0

>  <SCORE.RESTR.norm>
0

>  <SCORE.SYSTEM>
0

>  <SCORE.SYSTEM.CONST>
0

>  <SCORE.SYSTEM.DIHEDRAL>
0

>  <SCORE.SYSTEM.SOLV>
0

>  <SCORE.SYSTEM.norm>
0

>  <SCORE.heavy>
13

>  <SCORE.norm>
-3.01595

>  <RMSD>
0.767

$$$$
1eht cryst
 OpenBabel11021811383D
libRbt.so/2013.1/901 2013/11/27
 13 14  0  0  0  0  0  0  0  0999 V2000
   -4.7844   -7.8775   10.6532 C   0  0  0  0  0  0  0  0  0  0  0  0
   -5.2604   -7.0051   11.6277 N   0  0  0  0  0  0  0  0  0  0  0  0
   -5.6631   -7.5329   12.8273 C   0  0  0  0  0  0  0  0  0  0  0  0
   -5.5752   -8.7566   12.9461 O   0  0  0  0  0  0  0  0  0  0  0  0
   -6.1528   -6.7980   13.8773 N   0  0  0  0  0  0  0  0  0  0  0  0
   -6.5524   -7.3541   15.0814 C   0  0  0  0  0  0  0  0  0  0  0  0
   -6.2073   -5.4612   13.6139 C   0  0  0  0  0  0  0  0  0  0  0  0
   -5.8049   -4.9465   12.4156 C   0  0  0  0  0  0  0  0  0  0  0  0
   -5.2994   -5.6820   11.3283 C   0  0  0  0  0  0  0  0  0  0  0  0
   -4.9239   -5.2676   10.2325 O   0  0  0  0  0  0  0  0  0  0  0  0
   -6.0008   -3.5754   12.5099 N   0  0  0  0  0  0  0  0  0  0  0  0
   -6.5045   -3.3557   13.7475 C   0  0  0  0  0  0  0  0  0  0  0  0
   -6.6486   -4.4436   14.4524 N   0  0  0  0  0  0  0  0  0  0  0  0
  1  2  1  0  0  0  0
  2  9  1  0  0  0  0
  2  3  1  0  0  0  0
  3  5  1  0  0  0  0
  3  4  2  0  0  0  0
  5  6  1  0  0  0  0
  5  7  1  0  0  0  0
  7  8  2  0  0  0  0
  7 13  1  0  0  0  0
  8  9  1  0  0  0  0
  8 11  1  0  0  0  0
  9 10  2  0  0  0  0
 11 12  1  0  0  0  0
 12 13  2  0  0  0  0
M  END
>  <CHROM.1>
-5.78330270,-6.04657156,12.69003800,-0.79518681,1.18775551,-0.29096411

>  <Name>
1eht cryst

>  <RI>
224

>  <Rbt.Current_Directory>
/home/itssahil/PROJECTS/Mol_Feturizer/New_Systems/rnas/1eht

>  <Rbt.Executable>
rbdock ($Id: //depot/dev/client3/rdock/2013.1/src/exe/rbdock.cxx#4 $)

>  <Rbt.Library>
libRbt.so (2013.1, Build901 2013/11/27)

>  <Rbt.Parameter_File>
/export/apps/rDock/src/rDock_2013.1_src/data/scripts/dock_solv.prm

>  <Rbt.Receptor>
prm/pocket_docking_7.prm

>  <SCORE>
-39.2135

>  <SCORE.INTER>
-39.2135

>  <SCORE.INTER.CONST>
1

>  <SCORE.INTER.POLAR>
-1.91782

>  <SCORE.INTER.ROT>
0

>  <SCORE.INTER.SOLV>
9.84174

>  <SCORE.INTER.VDW>
-26.6302

>  <SCORE.INTER.norm>
-3.01643

>  <SCORE.INTRA>
0

>  <SCORE.INTRA.DIHEDRAL>
0

>  <SCORE.INTRA.DIHEDRAL.0>
0

>  <SCORE.INTRA.POLAR>
0

>  <SCORE.INTRA.POLAR.0>
0

>  <SCORE.INTRA.REPUL>
0

>  <SCORE.INTRA.REPUL.0>
0

>  <SCORE.INTRA.SOLV>
0

>  <SCORE.INTRA.SOLV.lig_0>
-12.9768

>  <SCORE.INTRA.VDW>
0

>  <SCORE.INTRA.VDW.0>
0

>  <SCORE.INTRA.norm>
0

>  <SCORE.RESTR>
0

>  <SCORE.RESTR.CAVITY>
0

>  <SCORE.RESTR.norm>
0

>  <SCORE.SYSTEM>
0

>  <SCORE.SYSTEM.CONST>
0

>  <SCORE.SYSTEM.DIHEDRAL>
0

>  <SCORE.SYSTEM.SOLV>
0

>  <SCORE.SYSTEM.norm>
0

>  <SCORE.heavy>
13

>  <SCORE.norm>
-3.01643

>  <RMSD>
0.767

$$$$
1eht cryst
 OpenBabel11021811383D
libRbt.so/2013.1/901 2013/11/27
 13 14  0  0  0  0  0  0  0  0999 V2000
   -4.7690   -7.8813   10.6491 C   0  0  0  0  0  0  0  0  0  0  0  0
   -5.2462   -7.0023   11.6172 N   0  0  0  0  0  0  0  0  0  0  0  0
   -5.6435   -7.5213   12.8224 C   0  0  0  0  0  0  0  0  0  0  0  0
   -5.5503   -8.7435   12.9517 O   0  0  0  0  0  0  0  0  0  0  0  0
   -6.1336   -6.7792   13.8672 N   0  0  0  0  0  0  0  0  0  0  0  0
   -6.5278   -7.3263   15.0772 C   0  0  0  0  0  0  0  0  0  0  0  0
   -6.1943   -5.4450   13.5922 C   0  0  0  0  0  0  0  0  0  0  0  0
   -5.7971   -4.9392   12.3884 C   0  0  0  0  0  0  0  0  0  0  0  0
   -5.2913   -5.6821   11.3063 C   0  0  0  0  0  0  0  0  0  0  0  0
   -4.9204   -5.2758   10.2060 O   0  0  0  0  0  0  0  0  0  0  0  0
   -5.9984   -3.5680   12.4713 N   0  0  0  0  0  0  0  0  0  0  0  0
   -6.4999   -3.3396   13.7082 C   0  0  0  0  0  0  0  0  0  0  0  0
   -6.6377   -4.4219   14.4229 N   0  0  0  0  0  0  0  0  0  0  0  0
  1  2  1  0  0  0  0
  2  9  1  0  0  0  0
  2  3  1  0  0  0  0
  3  5  1  0  0  0  0
  3  4  2  0  0  0  0
  5  6  1  0  0  0  0
  5  7  1  0  0  0  0
  7  8  2  0  0  0  0
  7 13  1  0  0  0  0
  8  9  1  0  0  0  0
  8 11  1  0  0  0  0
  9 10  2  0  0  0  0
 11 12  1  0  0  0  0
 12 13  2  0  0  0  0
M  END
>  <CHROM.1>
-5.77025697,-6.03667813,12.67246614,-0.78258820,1.18899501,-0.31141690

>  <Name>
1eht cryst

>  <RI>
224

>  <Rbt.Current_Directory>
/home/itssahil/PROJECTS/Mol_Feturizer/New_Systems/rnas/1eht

>  <Rbt.Executable>
rbdock ($Id: //depot/dev/client3/rdock/2013.1/src/exe/rbdock.cxx#4 $)

>  <Rbt.Library>
libRbt.so (2013.1, Build901 2013/11/27)

>  <Rbt.Parameter_File>
/export/apps/rDock/src/rDock_2013.1_src/data/scripts/dock_solv.prm

>  <Rbt.Receptor>
prm/pocket_docking_7.prm

>  <SCORE>
-39.218

>  <SCORE.INTER>
-39.218

>  <SCORE.INTER.CONST>
1

>  <SCORE.INTER.POLAR>
-1.92364

>  <SCORE.INTER.ROT>
0

>  <SCORE.INTER.SOLV>
9.84614

>  <SCORE.INTER.VDW>
-26.6152

>  <SCORE.INTER.norm>
-3.01677

>  <SCORE.INTRA>
0

>  <SCORE.INTRA.DIHEDRAL>
0

>  <SCORE.INTRA.DIHEDRAL.0>
0

>  <SCORE.INTRA.POLAR>
0

>  <SCORE.INTRA.POLAR.0>
0

>  <SCORE.INTRA.REPUL>
0

>  <SCORE.INTRA.REPUL.0>
0

>  <SCORE.INTRA.SOLV>
0

>  <SCORE.INTRA.SOLV.lig_0>
-12.9768

>  <SCORE.INTRA.VDW>
0

>  <SCORE.INTRA.VDW.0>
0

>  <SCORE.INTRA.norm>
0

>  <SCORE.RESTR>
0

>  <SCORE.RESTR.CAVITY>
0

>  <SCORE.RESTR.norm>
0

>  <SCORE.SYSTEM>
0

>  <SCORE.SYSTEM.CONST>
0

>  <SCORE.SYSTEM.DIHEDRAL>
0

>  <SCORE.SYSTEM.SOLV>
0

>  <SCORE.SYSTEM.norm>
0

>  <SCORE.heavy>
13

>  <SCORE.norm>
-3.01677

>  <RMSD>
0.767

$$$$
1eht cryst
 OpenBabel11021811383D
libRbt.so/2013.1/901 2013/11/27
 13 14  0  0  0  0  0  0  0  0999 V2000
   -4.7620   -7.8824   10.6507 C   0  0  0  0  0  0  0  0  0  0  0  0
   -5.2457   -7.0048   11.6169 N   0  0  0  0  0  0  0  0  0  0  0  0
   -5.6454   -7.5248   12.8208 C   0  0  0  0  0  0  0  0  0  0  0  0
   -5.5482   -8.7466   12.9508 O   0  0  0  0  0  0  0  0  0  0  0  0
   -6.1418   -6.7841   13.8636 N   0  0  0  0  0  0  0  0  0  0  0  0
   -6.5383   -7.3323   15.0724 C   0  0  0  0  0  0  0  0  0  0  0  0
   -6.2062   -5.4502   13.5880 C   0  0  0  0  0  0  0  0  0  0  0  0
   -5.8066   -4.9434   12.3854 C   0  0  0  0  0  0  0  0  0  0  0  0
   -5.2944   -5.6848   11.3053 C   0  0  0  0  0  0  0  0  0  0  0  0
   -4.9211   -5.2776   10.2062 O   0  0  0  0  0  0  0  0  0  0  0  0
   -6.0131   -3.5730   12.4671 N   0  0  0  0  0  0  0  0  0  0  0  0
   -6.5197   -3.3460   13.7022 C   0  0  0  0  0  0  0  0  0  0  0  0
   -6.6562   -4.4285   14.4168 N   0  0  0  0  0  0  0  0  0  0  0  0
  1  2  1  0  0  0  0
  2  9  1  0  0  0  0
  2  3  1  0  0  0  0
  3  5  1  0  0  0  0
  3  4  2  0  0  0  0
  5  6  1  0  0  0  0
  5  7  1  0  0  0  0
  7  8  2  0  0  0  0
  7 13  1  0  0  0  0
  8  9  1  0  0  0  0
  8 11  1  0  0  0  0
  9 10  2  0  0  0  0
 11 12  1  0  0  0  0
 12 13  2  0  0  0  0
M  END
>  <CHROM.1>
-5.77687511,-6.04070378,12.66993722,-0.77646964,1.18456064,-0.31741068

>  <Name>
1eht cryst

>  <RI>
224

>  <Rbt.Current_Directory>
/home/itssahil/PROJECTS/Mol_Feturizer/New_Systems/rnas/1eht

>  <Rbt.Executable>
rbdock ($Id: //depot/dev/client3/rdock/2013.1/src/exe/rbdock.cxx#4 $)

>  <Rbt.Library>
libRbt.so (2013.1, Build901 2013/11/27)

>  <Rbt.Parameter_File>
/export/apps/rDock/src/rDock_2013.1_src/data/scripts/dock_solv.prm

>  <Rbt.Receptor>
prm/pocket_docking_7.prm

>  <SCORE>
-39.1978

>  <SCORE.INTER>
-39.1978

>  <SCORE.INTER.CONST>
1

>  <SCORE.INTER.POLAR>
-1.9283

>  <SCORE.INTER.ROT>
0

>  <SCORE.INTER.SOLV>
9.83364

>  <SCORE.INTER.VDW>
-26.5821

>  <SCORE.INTER.norm>
-3.01521

>  <SCORE.INTRA>
0

>  <SCORE.INTRA.DIHEDRAL>
0

>  <SCORE.INTRA.DIHEDRAL.0>
0

>  <SCORE.INTRA.POLAR>
0

>  <SCORE.INTRA.POLAR.0>
0

>  <SCORE.INTRA.REPUL>
0

>  <SCORE.INTRA.REPUL.0>
0

>  <SCORE.INTRA.SOLV>
0

>  <SCORE.INTRA.SOLV.lig_0>
-12.9768

>  <SCORE.INTRA.VDW>
0

>  <SCORE.INTRA.VDW.0>
0

>  <SCORE.INTRA.norm>
0

>  <SCORE.RESTR>
0

>  <SCORE.RESTR.CAVITY>
0

>  <SCORE.RESTR.norm>
0

>  <SCORE.SYSTEM>
0

>  <SCORE.SYSTEM.CONST>
0

>  <SCORE.SYSTEM.DIHEDRAL>
0

>  <SCORE.SYSTEM.SOLV>
0

>  <SCORE.SYSTEM.norm>
0

>  <SCORE.heavy>
13

>  <SCORE.norm>
-3.01521

>  <RMSD>
0.767

$$$$
1eht cryst
 OpenBabel11021811383D
libRbt.so/2013.1/901 2013/11/27
 13 14  0  0  0  0  0  0  0  0999 V2000
   -4.7827   -7.8867   10.6461 C   0  0  0  0  0  0  0  0  0  0  0  0
   -5.2573   -7.0071   11.6149 N   0  0  0  0  0  0  0  0  0  0  0  0
   -5.6483   -7.5248   12.8227 C   0  0  0  0  0  0  0  0  0  0  0  0
   -5.5521   -8.7466   12.9535 O   0  0  0  0  0  0  0  0  0  0  0  0
   -6.1351   -6.7819   13.8684 N   0  0  0  0  0  0  0  0  0  0  0  0
   -6.5229   -7.3278   15.0810 C   0  0  0  0  0  0  0  0  0  0  0  0
   -6.1996   -5.4483   13.5915 C   0  0  0  0  0  0  0  0  0  0  0  0
   -5.8087   -4.9437   12.3851 C   0  0  0  0  0  0  0  0  0  0  0  0
   -5.3063   -5.6874   11.3020 C   0  0  0  0  0  0  0  0  0  0  0  0
   -4.9411   -5.2822   10.1994 O   0  0  0  0  0  0  0  0  0  0  0  0
   -6.0122   -3.5728   12.4666 N   0  0  0  0  0  0  0  0  0  0  0  0
   -6.5086   -3.3433   13.7054 C   0  0  0  0  0  0  0  0  0  0  0  0
   -6.6412   -4.4247   14.4225 N   0  0  0  0  0  0  0  0  0  0  0  0
  1  2  1  0  0  0  0
  2  9  1  0  0  0  0
  2  3  1  0  0  0  0
  3  5  1  0  0  0  0
  3  4  2  0  0  0  0
  5  6  1  0  0  0  0
  5  7  1  0  0  0  0
  7  8  2  0  0  0  0
  7 13  1  0  0  0  0
  8  9  1  0  0  0  0
  8 11  1  0  0  0  0
  9 10  2  0  0  0  0
 11 12  1  0  0  0  0
 12 13  2  0  0  0  0
M  END
>  <CHROM.1>
-5.77849397,-6.04067382,12.67084564,-0.77401257,1.19263095,-0.32101564

>  <Name>
1eht cryst

>  <RI>
0

>  <Rbt.Current_Directory>
/home/itssahil/PROJECTS/Mol_Feturizer/New_Systems/rnas/1eht

>  <Rbt.Executable>
rbdock ($Id: //depot/dev/client3/rdock/2013.1/src/exe/rbdock.cxx#4 $)

>  <Rbt.Library>
libRbt.so (2013.1, Build901 2013/11/27)

>  <Rbt.Parameter_File>
/export/apps/rDock/src/rDock_2013.1_src/data/scripts/dock_solv.prm

>  <Rbt.Receptor>
prm/pocket_docking_8.prm

>  <SCORE>
-39.1891

>  <SCORE.INTER>
-39.1891

>  <SCORE.INTER.CONST>
1

>  <SCORE.INTER.POLAR>
-1.91935

>  <SCORE.INTER.ROT>
0

>  <SCORE.INTER.SOLV>
9.82501

>  <SCORE.INTER.VDW>
-26.6032

>  <SCORE.INTER.norm>
-3.01455

>  <SCORE.INTRA>
0

>  <SCORE.INTRA.DIHEDRAL>
0

>  <SCORE.INTRA.DIHEDRAL.0>
0

>  <SCORE.INTRA.POLAR>
0

>  <SCORE.INTRA.POLAR.0>
0

>  <SCORE.INTRA.REPUL>
0

>  <SCORE.INTRA.REPUL.0>
0

>  <SCORE.INTRA.SOLV>
0

>  <SCORE.INTRA.SOLV.lig_0>
-12.9768

>  <SCORE.INTRA.VDW>
0

>  <SCORE.INTRA.VDW.0>
0

>  <SCORE.INTRA.norm>
0

>  <SCORE.RESTR>
0

>  <SCORE.RESTR.CAVITY>
0

>  <SCORE.RESTR.norm>
0

>  <SCORE.SYSTEM>
0

>  <SCORE.SYSTEM.CONST>
0

>  <SCORE.SYSTEM.DIHEDRAL>
0

>  <SCORE.SYSTEM.SOLV>
0

>  <SCORE.SYSTEM.norm>
0

>  <SCORE.heavy>
13

>  <SCORE.norm>
-3.01455

>  <RMSD>
0.767

$$$$
1eht cryst
 OpenBabel11021811383D
libRbt.so/2013.1/901 2013/11/27
 13 14  0  0  0  0  0  0  0  0999 V2000
   -4.7743   -7.8844   10.6483 C   0  0  0  0  0  0  0  0  0  0  0  0
   -5.2508   -7.0050   11.6164 N   0  0  0  0  0  0  0  0  0  0  0  0
   -5.6470   -7.5234   12.8222 C   0  0  0  0  0  0  0  0  0  0  0  0
   -5.5534   -8.7455   12.9520 O   0  0  0  0  0  0  0  0  0  0  0  0
   -6.1362   -6.7809   13.8670 N   0  0  0  0  0  0  0  0  0  0  0  0
   -6.5292   -7.3275   15.0777 C   0  0  0  0  0  0  0  0  0  0  0  0
   -6.1974   -5.4468   13.5914 C   0  0  0  0  0  0  0  0  0  0  0  0
   -5.8014   -4.9415   12.3870 C   0  0  0  0  0  0  0  0  0  0  0  0
   -5.2964   -5.6849   11.3048 C   0  0  0  0  0  0  0  0  0  0  0  0
   -4.9266   -5.2791   10.2040 O   0  0  0  0  0  0  0  0  0  0  0  0
   -6.0028   -3.5704   12.4693 N   0  0  0  0  0  0  0  0  0  0  0  0
   -6.5032   -3.3415   13.7066 C   0  0  0  0  0  0  0  0  0  0  0  0
   -6.6402   -4.4234   14.4220 N   0  0  0  0  0  0  0  0  0  0  0  0
  1  2  1  0  0  0  0
  2  9  1  0  0  0  0
  2  3  1  0  0  0  0
  3  5  1  0  0  0  0
  3  4  2  0  0  0  0
  5  6  1  0  0  0  0
  5  7  1  0  0  0  0
  7  8  2  0  0  0  0
  7 13  1  0  0  0  0
  8  9  1  0  0  0  0
  8 11  1  0  0  0  0
  9 10  2  0  0  0  0
 11 12  1  0  0  0  0
 12 13  2  0  0  0  0
M  END
>  <CHROM.1>
-5.77407220,-6.03891198,12.67159409,-0.78139657,1.18980722,-0.31304049

>  <Name>
1eht cryst

>  <RI>
0

>  <Rbt.Current_Directory>
/home/itssahil/PROJECTS/Mol_Feturizer/New_Systems/rnas/1eht

>  <Rbt.Executable>
rbdock ($Id: //depot/dev/client3/rdock/2013.1/src/exe/rbdock.cxx#4 $)

>  <Rbt.Library>
libRbt.so (2013.1, Build901 2013/11/27)

>  <Rbt.Parameter_File>
/export/apps/rDock/src/rDock_2013.1_src/data/scripts/dock_solv.prm

>  <Rbt.Receptor>
prm/pocket_docking_8.prm

>  <SCORE>
-39.2114

>  <SCORE.INTER>
-39.2114

>  <SCORE.INTER.CONST>
1

>  <SCORE.INTER.POLAR>
-1.92389

>  <SCORE.INTER.ROT>
0

>  <SCORE.INTER.SOLV>
9.83781

>  <SCORE.INTER.VDW>
-26.6072

>  <SCORE.INTER.norm>
-3.01626

>  <SCORE.INTRA>
0

>  <SCORE.INTRA.DIHEDRAL>
0

>  <SCORE.INTRA.DIHEDRAL.0>
0

>  <SCORE.INTRA.POLAR>
0

>  <SCORE.INTRA.POLAR.0>
0

>  <SCORE.INTRA.REPUL>
0

>  <SCORE.INTRA.REPUL.0>
0

>  <SCORE.INTRA.SOLV>
0

>  <SCORE.INTRA.SOLV.lig_0>
-12.9768

>  <SCORE.INTRA.VDW>
0

>  <SCORE.INTRA.VDW.0>
0

>  <SCORE.INTRA.norm>
0

>  <SCORE.RESTR>
0

>  <SCORE.RESTR.CAVITY>
0

>  <SCORE.RESTR.norm>
0

>  <SCORE.SYSTEM>
0

>  <SCORE.SYSTEM.CONST>
0

>  <SCORE.SYSTEM.DIHEDRAL>
0

>  <SCORE.SYSTEM.SOLV>
0

>  <SCORE.SYSTEM.norm>
0

>  <SCORE.heavy>
13

>  <SCORE.norm>
-3.01626

>  <RMSD>
0.767

$$$$
1eht cryst
 OpenBabel11021811383D
libRbt.so/2013.1/901 2013/11/27
 13 14  0  0  0  0  0  0  0  0999 V2000
   -4.7795   -7.8844   10.6595 C   0  0  0  0  0  0  0  0  0  0  0  0
   -5.2536   -7.0157   11.6383 N   0  0  0  0  0  0  0  0  0  0  0  0
   -5.6539   -7.5479   12.8367 C   0  0  0  0  0  0  0  0  0  0  0  0
   -5.5658   -8.7721   12.9507 O   0  0  0  0  0  0  0  0  0  0  0  0
   -6.1416   -6.8170   13.8903 N   0  0  0  0  0  0  0  0  0  0  0  0
   -6.5388   -7.3776   15.0932 C   0  0  0  0  0  0  0  0  0  0  0  0
   -6.1966   -5.4792   13.6320 C   0  0  0  0  0  0  0  0  0  0  0  0
   -5.7965   -4.9600   12.4349 C   0  0  0  0  0  0  0  0  0  0  0  0
   -5.2931   -5.6914   11.3439 C   0  0  0  0  0  0  0  0  0  0  0  0
   -4.9198   -5.2730   10.2489 O   0  0  0  0  0  0  0  0  0  0  0  0
   -5.9922   -3.5892   12.5347 N   0  0  0  0  0  0  0  0  0  0  0  0
   -6.4935   -3.3742   13.7741 C   0  0  0  0  0  0  0  0  0  0  0  0
   -6.6363   -4.4647   14.4752 N   0  0  0  0  0  0  0  0  0  0  0  0
  1  2  1  0  0  0  0
  2  9  1  0  0  0  0
  2  3  1  0  0  0  0
  3  5  1  0  0  0  0
  3  4  2  0  0  0  0
  5  6  1  0  0  0  0
  5  7  1  0  0  0  0
  7  8  2  0  0  0  0
  7 13  1  0  0  0  0
  8  9  1  0  0  0  0
  8 11  1  0  0  0  0
  9 10  2  0  0  0  0
 11 12  1  0  0  0  0
 12 13  2  0  0  0  0
M  END
>  <CHROM.1>
-5.77438860,-6.06108919,12.70519897,-0.79369963,1.18963615,-0.28860611

>  <Name>
1eht cryst

>  <RI>
0

>  <Rbt.Current_Directory>
/home/itssahil/PROJECTS/Mol_Feturizer/New_Systems/rnas/1eht

>  <Rbt.Executable>
rbdock ($Id: //depot/dev/client3/rdock/2013.1/src/exe/rbdock.cxx#4 $)

>  <Rbt.Library>
libRbt.so (2013.1, Build901 2013/11/27)

>  <Rbt.Parameter_File>
/export/apps/rDock/src/rDock_2013.1_src/data/scripts/dock_solv.prm

>  <Rbt.Receptor>
prm/pocket_docking_8.prm

>  <SCORE>
-39.129

>  <SCORE.INTER>
-39.129

>  <SCORE.INTER.CONST>
1

>  <SCORE.INTER.POLAR>
-1.91589

>  <SCORE.INTER.ROT>
0

>  <SCORE.INTER.SOLV>
9.81994

>  <SCORE.INTER.VDW>
-26.573

>  <SCORE.INTER.norm>
-3.00992

>  <SCORE.INTRA>
0

>  <SCORE.INTRA.DIHEDRAL>
0

>  <SCORE.INTRA.DIHEDRAL.0>
0

>  <SCORE.INTRA.POLAR>
0

>  <SCORE.INTRA.POLAR.0>
0

>  <SCORE.INTRA.REPUL>
0

>  <SCORE.INTRA.REPUL.0>
0

>  <SCORE.INTRA.SOLV>
0

>  <SCORE.INTRA.SOLV.lig_0>
-12.9768

>  <SCORE.INTRA.VDW>
0

>  <SCORE.INTRA.VDW.0>
0

>  <SCORE.INTRA.norm>
0

>  <SCORE.RESTR>
0

>  <SCORE.RESTR.CAVITY>
0

>  <SCORE.RESTR.norm>
0

>  <SCORE.SYSTEM>
0

>  <SCORE.SYSTEM.CONST>
0

>  <SCORE.SYSTEM.DIHEDRAL>
0

>  <SCORE.SYSTEM.SOLV>
0

>  <SCORE.SYSTEM.norm>
0

>  <SCORE.heavy>
13

>  <SCORE.norm>
-3.00992

>  <RMSD>
0.767

$$$$
1eht cryst
 OpenBabel11021811383D
libRbt.so/2013.1/901 2013/11/27
 13 14  0  0  0  0  0  0  0  0999 V2000
   -4.7731   -7.8844   10.6485 C   0  0  0  0  0  0  0  0  0  0  0  0
   -5.2501   -7.0048   11.6162 N   0  0  0  0  0  0  0  0  0  0  0  0
   -5.6461   -7.5228   12.8222 C   0  0  0  0  0  0  0  0  0  0  0  0
   -5.5520   -8.7449   12.9525 O   0  0  0  0  0  0  0  0  0  0  0  0
   -6.1358   -6.7801   13.8666 N   0  0  0  0  0  0  0  0  0  0  0  0
   -6.5286   -7.3263   15.0775 C   0  0  0  0  0  0  0  0  0  0  0  0
   -6.1975   -5.4461   13.5905 C   0  0  0  0  0  0  0  0  0  0  0  0
   -5.8016   -4.9412   12.3859 C   0  0  0  0  0  0  0  0  0  0  0  0
   -5.2962   -5.6849   11.3040 C   0  0  0  0  0  0  0  0  0  0  0  0
   -4.9265   -5.2794   10.2030 O   0  0  0  0  0  0  0  0  0  0  0  0
   -6.0036   -3.5702   12.4675 N   0  0  0  0  0  0  0  0  0  0  0  0
   -6.5042   -3.3409   13.7047 C   0  0  0  0  0  0  0  0  0  0  0  0
   -6.6408   -4.4226   14.4206 N   0  0  0  0  0  0  0  0  0  0  0  0
  1  2  1  0  0  0  0
  2  9  1  0  0  0  0
  2  3  1  0  0  0  0
  3  5  1  0  0  0  0
  3  4  2  0  0  0  0
  5  6  1  0  0  0  0
  5  7  1  0  0  0  0
  7  8  2  0  0  0  0
  7 13  1  0  0  0  0
  8  9  1  0  0  0  0
  8 11  1  0  0  0  0
  9 10  2  0  0  0  0
 11 12  1  0  0  0  0
 12 13  2  0  0  0  0
M  END
>  <CHROM.1>
-5.77382842,-6.03847868,12.67092046,-0.78036954,1.18961325,-0.31443169

>  <Name>
1eht cryst

>  <RI>
0

>  <Rbt.Current_Directory>
/home/itssahil/PROJECTS/Mol_Feturizer/New_Systems/rnas/1eht

>  <Rbt.Executable>
rbdock ($Id: //depot/dev/client3/rdock/2013.1/src/exe/rbdock.cxx#4 $)

>  <Rbt.Library>
libRbt.so (2013.1, Build901 2013/11/27)

>  <Rbt.Parameter_File>
/export/apps/rDock/src/rDock_2013.1_src/data/scripts/dock_solv.prm

>  <Rbt.Receptor>
prm/blind_docking_20.prm

>  <SCORE>
-39.2103

>  <SCORE.INTER>
-39.2103

>  <SCORE.INTER.CONST>
1

>  <SCORE.INTER.POLAR>
-1.92409

>  <SCORE.INTER.ROT>
0

>  <SCORE.INTER.SOLV>
9.83766

>  <SCORE.INTER.VDW>
-26.6058

>  <SCORE.INTER.norm>
-3.01618

>  <SCORE.INTRA>
0

>  <SCORE.INTRA.DIHEDRAL>
0

>  <SCORE.INTRA.DIHEDRAL.0>
0

>  <SCORE.INTRA.POLAR>
0

>  <SCORE.INTRA.POLAR.0>
0

>  <SCORE.INTRA.REPUL>
0

>  <SCORE.INTRA.REPUL.0>
0

>  <SCORE.INTRA.SOLV>
0

>  <SCORE.INTRA.SOLV.lig_0>
-12.9768

>  <SCORE.INTRA.VDW>
0

>  <SCORE.INTRA.VDW.0>
0

>  <SCORE.INTRA.norm>
0

>  <SCORE.RESTR>
0

>  <SCORE.RESTR.CAVITY>
0

>  <SCORE.RESTR.norm>
0

>  <SCORE.SYSTEM>
0

>  <SCORE.SYSTEM.CONST>
0

>  <SCORE.SYSTEM.DIHEDRAL>
0

>  <SCORE.SYSTEM.SOLV>
0

>  <SCORE.SYSTEM.norm>
0

>  <SCORE.heavy>
13

>  <SCORE.norm>
-3.01618

>  <RMSD>
0.768

$$$$
1eht cryst
 OpenBabel11021811383D
libRbt.so/2013.1/901 2013/11/27
 13 14  0  0  0  0  0  0  0  0999 V2000
   -4.7783   -7.8862   10.6494 C   0  0  0  0  0  0  0  0  0  0  0  0
   -5.2583   -7.0076   11.6164 N   0  0  0  0  0  0  0  0  0  0  0  0
   -5.6529   -7.5261   12.8227 C   0  0  0  0  0  0  0  0  0  0  0  0
   -5.5547   -8.7477   12.9539 O   0  0  0  0  0  0  0  0  0  0  0  0
   -6.1451   -6.7843   13.8666 N   0  0  0  0  0  0  0  0  0  0  0  0
   -6.5364   -7.3309   15.0778 C   0  0  0  0  0  0  0  0  0  0  0  0
   -6.2112   -5.4507   13.5895 C   0  0  0  0  0  0  0  0  0  0  0  0
   -5.8168   -4.9453   12.3846 C   0  0  0  0  0  0  0  0  0  0  0  0
   -5.3088   -5.6880   11.3034 C   0  0  0  0  0  0  0  0  0  0  0  0
   -4.9402   -5.2821   10.2022 O   0  0  0  0  0  0  0  0  0  0  0  0
   -6.0234   -3.5749   12.4654 N   0  0  0  0  0  0  0  0  0  0  0  0
   -6.5249   -3.3464   13.7023 C   0  0  0  0  0  0  0  0  0  0  0  0
   -6.6580   -4.4280   14.4189 N   0  0  0  0  0  0  0  0  0  0  0  0
  1  2  1  0  0  0  0
  2  9  1  0  0  0  0
  2  3  1  0  0  0  0
  3  5  1  0  0  0  0
  3  4  2  0  0  0  0
  5  6  1  0  0  0  0
  5  7  1  0  0  0  0
  7  8  2  0  0  0  0
  7 13  1  0  0  0  0
  8  9  1  0  0  0  0
  8 11  1  0  0  0  0
  9 10  2  0  0  0  0
 11 12  1  0  0  0  0
 12 13  2  0  0  0  0
M  END
>  <CHROM.1>
-5.78545415,-6.04224684,12.67045364,-0.77210601,1.18840361,-0.32276490

>  <Name>
1eht cryst

>  <RI>
0

>  <Rbt.Current_Directory>
/home/itssahil/PROJECTS/Mol_Feturizer/New_Systems/rnas/1eht

>  <Rbt.Executable>
rbdock ($Id: //depot/dev/client3/rdock/2013.1/src/exe/rbdock.cxx#4 $)

>  <Rbt.Library>
libRbt.so (2013.1, Build901 2013/11/27)

>  <Rbt.Parameter_File>
/export/apps/rDock/src/rDock_2013.1_src/data/scripts/dock_solv.prm

>  <Rbt.Receptor>
prm/blind_docking_20.prm

>  <SCORE>
-39.1877

>  <SCORE.INTER>
-39.1877

>  <SCORE.INTER.CONST>
1

>  <SCORE.INTER.POLAR>
-1.92242

>  <SCORE.INTER.ROT>
0

>  <SCORE.INTER.SOLV>
9.82041

>  <SCORE.INTER.VDW>
-26.5905

>  <SCORE.INTER.norm>
-3.01444

>  <SCORE.INTRA>
0

>  <SCORE.INTRA.DIHEDRAL>
0

>  <SCORE.INTRA.DIHEDRAL.0>
0

>  <SCORE.INTRA.POLAR>
0

>  <SCORE.INTRA.POLAR.0>
0

>  <SCORE.INTRA.REPUL>
0

>  <SCORE.INTRA.REPUL.0>
0

>  <SCORE.INTRA.SOLV>
0

>  <SCORE.INTRA.SOLV.lig_0>
-12.9768

>  <SCORE.INTRA.VDW>
0

>  <SCORE.INTRA.VDW.0>
0

>  <SCORE.INTRA.norm>
0

>  <SCORE.RESTR>
0

>  <SCORE.RESTR.CAVITY>
0

>  <SCORE.RESTR.norm>
0

>  <SCORE.SYSTEM>
0

>  <SCORE.SYSTEM.CONST>
0

>  <SCORE.SYSTEM.DIHEDRAL>
0

>  <SCORE.SYSTEM.SOLV>
0

>  <SCORE.SYSTEM.norm>
0

>  <SCORE.heavy>
13

>  <SCORE.norm>
-3.01444

>  <RMSD>
0.768

$$$$
1eht cryst
 OpenBabel11021811383D
libRbt.so/2013.1/901 2013/11/27
 13 14  0  0  0  0  0  0  0  0999 V2000
   -4.7648   -7.8816   10.6522 C   0  0  0  0  0  0  0  0  0  0  0  0
   -5.2473   -7.0037   11.6186 N   0  0  0  0  0  0  0  0  0  0  0  0
   -5.6471   -7.5233   12.8227 C   0  0  0  0  0  0  0  0  0  0  0  0
   -5.5510   -8.7453   12.9526 O   0  0  0  0  0  0  0  0  0  0  0  0
   -6.1424   -6.7823   13.8658 N   0  0  0  0  0  0  0  0  0  0  0  0
   -6.5389   -7.3301   15.0747 C   0  0  0  0  0  0  0  0  0  0  0  0
   -6.2057   -5.4483   13.5902 C   0  0  0  0  0  0  0  0  0  0  0  0
   -5.8061   -4.9417   12.3875 C   0  0  0  0  0  0  0  0  0  0  0  0
   -5.2950   -5.6836   11.3072 C   0  0  0  0  0  0  0  0  0  0  0  0
   -4.9217   -5.2767   10.2080 O   0  0  0  0  0  0  0  0  0  0  0  0
   -6.0112   -3.5712   12.4694 N   0  0  0  0  0  0  0  0  0  0  0  0
   -6.5171   -3.3437   13.7047 C   0  0  0  0  0  0  0  0  0  0  0  0
   -6.6543   -4.4262   14.4193 N   0  0  0  0  0  0  0  0  0  0  0  0
  1  2  1  0  0  0  0
  2  9  1  0  0  0  0
  2  3  1  0  0  0  0
  3  5  1  0  0  0  0
  3  4  2  0  0  0  0
  5  6  1  0  0  0  0
  5  7  1  0  0  0  0
  7  8  2  0  0  0  0
  7 13  1  0  0  0  0
  8  9  1  0  0  0  0
  8 11  1  0  0  0  0
  9 10  2  0  0  0  0
 11 12  1  0  0  0  0
 12 13  2  0  0  0  0
M  END
>  <CHROM.1>
-5.77723741,-6.03912141,12.67197529,-0.77848229,1.18523461,-0.31549420

>  <Name>
1eht cryst

>  <RI>
0

>  <Rbt.Current_Directory>
/home/itssahil/PROJECTS/Mol_Feturizer/New_Systems/rnas/1eht

>  <Rbt.Executable>
rbdock ($Id: //depot/dev/client3/rdock/2013.1/src/exe/rbdock.cxx#4 $)

>  <Rbt.Library>
libRbt.so (2013.1, Build901 2013/11/27)

>  <Rbt.Parameter_File>
/export/apps/rDock/src/rDock_2013.1_src/data/scripts/dock_solv.prm

>  <Rbt.Receptor>
prm/pocket_docking_3.prm

>  <SCORE>
-39.22

>  <SCORE.INTER>
-39.22

>  <SCORE.INTER.CONST>
1

>  <SCORE.INTER.POLAR>
-1.92616

>  <SCORE.INTER.ROT>
0

>  <SCORE.INTER.SOLV>
9.83792

>  <SCORE.INTER.VDW>
-26.6054

>  <SCORE.INTER.norm>
-3.01692

>  <SCORE.INTRA>
0

>  <SCORE.INTRA.DIHEDRAL>
0

>  <SCORE.INTRA.DIHEDRAL.0>
0

>  <SCORE.INTRA.POLAR>
0

>  <SCORE.INTRA.POLAR.0>
0

>  <SCORE.INTRA.REPUL>
0

>  <SCORE.INTRA.REPUL.0>
0

>  <SCORE.INTRA.SOLV>
0

>  <SCORE.INTRA.SOLV.lig_0>
-12.9768

>  <SCORE.INTRA.VDW>
0

>  <SCORE.INTRA.VDW.0>
0

>  <SCORE.INTRA.norm>
0

>  <SCORE.RESTR>
0

>  <SCORE.RESTR.CAVITY>
0

>  <SCORE.RESTR.norm>
0

>  <SCORE.SYSTEM>
0

>  <SCORE.SYSTEM.CONST>
0

>  <SCORE.SYSTEM.DIHEDRAL>
0

>  <SCORE.SYSTEM.SOLV>
0

>  <SCORE.SYSTEM.norm>
0

>  <SCORE.heavy>
13

>  <SCORE.norm>
-3.01692

>  <RMSD>
0.768

$$$$
1eht cryst
 OpenBabel11021811383D
libRbt.so/2013.1/901 2013/11/27
 13 14  0  0  0  0  0  0  0  0999 V2000
   -4.7795   -7.8847   10.6472 C   0  0  0  0  0  0  0  0  0  0  0  0
   -5.2544   -7.0047   11.6154 N   0  0  0  0  0  0  0  0  0  0  0  0
   -5.6521   -7.5227   12.8209 C   0  0  0  0  0  0  0  0  0  0  0  0
   -5.5611   -8.7451   12.9503 O   0  0  0  0  0  0  0  0  0  0  0  0
   -6.1402   -6.7796   13.8658 N   0  0  0  0  0  0  0  0  0  0  0  0
   -6.5348   -7.3258   15.0761 C   0  0  0  0  0  0  0  0  0  0  0  0
   -6.1985   -5.4453   13.5907 C   0  0  0  0  0  0  0  0  0  0  0  0
   -5.8010   -4.9404   12.3867 C   0  0  0  0  0  0  0  0  0  0  0  0
   -5.2972   -5.6844   11.3044 C   0  0  0  0  0  0  0  0  0  0  0  0
   -4.9261   -5.2790   10.2038 O   0  0  0  0  0  0  0  0  0  0  0  0
   -5.9996   -3.5689   12.4694 N   0  0  0  0  0  0  0  0  0  0  0  0
   -6.4999   -3.3393   13.7066 C   0  0  0  0  0  0  0  0  0  0  0  0
   -6.6394   -4.4213   14.4216 N   0  0  0  0  0  0  0  0  0  0  0  0
  1  2  1  0  0  0  0
  2  9  1  0  0  0  0
  2  3  1  0  0  0  0
  3  5  1  0  0  0  0
  3  4  2  0  0  0  0
  5  6  1  0  0  0  0
  5  7  1  0  0  0  0
  7  8  2  0  0  0  0
  7 13  1  0  0  0  0
  8  9  1  0  0  0  0
  8 11  1  0  0  0  0
  9 10  2  0  0  0  0
 11 12  1  0  0  0  0
 12 13  2  0  0  0  0
M  END
>  <CHROM.1>
-5.77607523,-6.03791457,12.67082935,-0.78706921,1.19011218,-0.30738610

>  <Name>
1eht cryst

>  <RI>
0

>  <Rbt.Current_Directory>
/home/itssahil/PROJECTS/Mol_Feturizer/New_Systems/rnas/1eht

>  <Rbt.Executable>
rbdock ($Id: //depot/dev/client3/rdock/2013.1/src/exe/rbdock.cxx#4 $)

>  <Rbt.Library>
libRbt.so (2013.1, Build901 2013/11/27)

>  <Rbt.Parameter_File>
/export/apps/rDock/src/rDock_2013.1_src/data/scripts/dock_solv.prm

>  <Rbt.Receptor>
prm/pocket_docking_4.prm

>  <SCORE>
-39.2057

>  <SCORE.INTER>
-39.2057

>  <SCORE.INTER.CONST>
1

>  <SCORE.INTER.POLAR>
-1.92437

>  <SCORE.INTER.ROT>
0

>  <SCORE.INTER.SOLV>
9.84219

>  <SCORE.INTER.VDW>
-26.6033

>  <SCORE.INTER.norm>
-3.01582

>  <SCORE.INTRA>
0

>  <SCORE.INTRA.DIHEDRAL>
0

>  <SCORE.INTRA.DIHEDRAL.0>
0

>  <SCORE.INTRA.POLAR>
0

>  <SCORE.INTRA.POLAR.0>
0

>  <SCORE.INTRA.REPUL>
0

>  <SCORE.INTRA.REPUL.0>
0

>  <SCORE.INTRA.SOLV>
0

>  <SCORE.INTRA.SOLV.lig_0>
-12.9768

>  <SCORE.INTRA.VDW>
0

>  <SCORE.INTRA.VDW.0>
0

>  <SCORE.INTRA.norm>
0

>  <SCORE.RESTR>
0

>  <SCORE.RESTR.CAVITY>
0

>  <SCORE.RESTR.norm>
0

>  <SCORE.SYSTEM>
0

>  <SCORE.SYSTEM.CONST>
0

>  <SCORE.SYSTEM.DIHEDRAL>
0

>  <SCORE.SYSTEM.SOLV>
0

>  <SCORE.SYSTEM.norm>
0

>  <SCORE.heavy>
13

>  <SCORE.norm>
-3.01582

>  <RMSD>
0.768

$$$$
1eht cryst
 OpenBabel11021811383D
libRbt.so/2013.1/901 2013/11/27
 13 14  0  0  0  0  0  0  0  0999 V2000
   -4.7619   -7.8808   10.6515 C   0  0  0  0  0  0  0  0  0  0  0  0
   -5.2498   -7.0040   11.6161 N   0  0  0  0  0  0  0  0  0  0  0  0
   -5.6533   -7.5246   12.8186 C   0  0  0  0  0  0  0  0  0  0  0  0
   -5.5553   -8.7463   12.9487 O   0  0  0  0  0  0  0  0  0  0  0  0
   -6.1540   -6.7846   13.8598 N   0  0  0  0  0  0  0  0  0  0  0  0
   -6.5542   -7.3334   15.0671 C   0  0  0  0  0  0  0  0  0  0  0  0
   -6.2189   -5.4507   13.5842 C   0  0  0  0  0  0  0  0  0  0  0  0
   -5.8156   -4.9432   12.3831 C   0  0  0  0  0  0  0  0  0  0  0  0
   -5.2988   -5.6839   11.3047 C   0  0  0  0  0  0  0  0  0  0  0  0
   -4.9221   -5.2761   10.2070 O   0  0  0  0  0  0  0  0  0  0  0  0
   -6.0237   -3.5731   12.4644 N   0  0  0  0  0  0  0  0  0  0  0  0
   -6.5349   -3.3468   13.6977 C   0  0  0  0  0  0  0  0  0  0  0  0
   -6.6728   -4.4296   14.4117 N   0  0  0  0  0  0  0  0  0  0  0  0
  1  2  1  0  0  0  0
  2  9  1  0  0  0  0
  2  3  1  0  0  0  0
  3  5  1  0  0  0  0
  3  4  2  0  0  0  0
  5  6  1  0  0  0  0
  5  7  1  0  0  0  0
  7  8  2  0  0  0  0
  7 13  1  0  0  0  0
  8  9  1  0  0  0  0
  8 11  1  0  0  0  0
  9 10  2  0  0  0  0
 11 12  1  0  0  0  0
 12 13  2  0  0  0  0
M  END
>  <CHROM.1>
-5.78571006,-6.04059227,12.66753115,-0.77680365,1.18092211,-0.31690301

>  <Name>
1eht cryst

>  <RI>
0

>  <Rbt.Current_Directory>
/home/itssahil/PROJECTS/Mol_Feturizer/New_Systems/rnas/1eht

>  <Rbt.Executable>
rbdock ($Id: //depot/dev/client3/rdock/2013.1/src/exe/rbdock.cxx#4 $)

>  <Rbt.Library>
libRbt.so (2013.1, Build901 2013/11/27)

>  <Rbt.Parameter_File>
/export/apps/rDock/src/rDock_2013.1_src/data/scripts/dock_solv.prm

>  <Rbt.Receptor>
prm/pocket_docking_4.prm

>  <SCORE>
-39.1821

>  <SCORE.INTER>
-39.1821

>  <SCORE.INTER.CONST>
1

>  <SCORE.INTER.POLAR>
-1.93112

>  <SCORE.INTER.ROT>
0

>  <SCORE.INTER.SOLV>
9.83199

>  <SCORE.INTER.VDW>
-26.5617

>  <SCORE.INTER.norm>
-3.01401

>  <SCORE.INTRA>
0

>  <SCORE.INTRA.DIHEDRAL>
0

>  <SCORE.INTRA.DIHEDRAL.0>
0

>  <SCORE.INTRA.POLAR>
0

>  <SCORE.INTRA.POLAR.0>
0

>  <SCORE.INTRA.REPUL>
0

>  <SCORE.INTRA.REPUL.0>
0

>  <SCORE.INTRA.SOLV>
0

>  <SCORE.INTRA.SOLV.lig_0>
-12.9768

>  <SCORE.INTRA.VDW>
0

>  <SCORE.INTRA.VDW.0>
0

>  <SCORE.INTRA.norm>
0

>  <SCORE.RESTR>
0

>  <SCORE.RESTR.CAVITY>
0

>  <SCORE.RESTR.norm>
0

>  <SCORE.SYSTEM>
0

>  <SCORE.SYSTEM.CONST>
0

>  <SCORE.SYSTEM.DIHEDRAL>
0

>  <SCORE.SYSTEM.SOLV>
0

>  <SCORE.SYSTEM.norm>
0

>  <SCORE.heavy>
13

>  <SCORE.norm>
-3.01401

>  <RMSD>
0.768

$$$$
1eht cryst
 OpenBabel11021811383D
libRbt.so/2013.1/901 2013/11/27
 13 14  0  0  0  0  0  0  0  0999 V2000
   -4.7676   -7.8811   10.6511 C   0  0  0  0  0  0  0  0  0  0  0  0
   -5.2493   -7.0032   11.6180 N   0  0  0  0  0  0  0  0  0  0  0  0
   -5.6474   -7.5229   12.8226 C   0  0  0  0  0  0  0  0  0  0  0  0
   -5.5506   -8.7448   12.9525 O   0  0  0  0  0  0  0  0  0  0  0  0
   -6.1417   -6.7820   13.8662 N   0  0  0  0  0  0  0  0  0  0  0  0
   -6.5364   -7.3299   15.0757 C   0  0  0  0  0  0  0  0  0  0  0  0
   -6.2059   -5.4481   13.5907 C   0  0  0  0  0  0  0  0  0  0  0  0
   -5.8081   -4.9415   12.3874 C   0  0  0  0  0  0  0  0  0  0  0  0
   -5.2979   -5.6832   11.3065 C   0  0  0  0  0  0  0  0  0  0  0  0
   -4.9262   -5.2762   10.2068 O   0  0  0  0  0  0  0  0  0  0  0  0
   -6.0137   -3.5710   12.4694 N   0  0  0  0  0  0  0  0  0  0  0  0
   -6.5182   -3.3437   13.7053 C   0  0  0  0  0  0  0  0  0  0  0  0
   -6.6540   -4.4261   14.4202 N   0  0  0  0  0  0  0  0  0  0  0  0
  1  2  1  0  0  0  0
  2  9  1  0  0  0  0
  2  3  1  0  0  0  0
  3  5  1  0  0  0  0
  3  4  2  0  0  0  0
  5  6  1  0  0  0  0
  5  7  1  0  0  0  0
  7  8  2  0  0  0  0
  7 13  1  0  0  0  0
  8  9  1  0  0  0  0
  8 11  1  0  0  0  0
  9 10  2  0  0  0  0
 11 12  1  0  0  0  0
 12 13  2  0  0  0  0
M  END
>  <CHROM.1>
-5.77835593,-6.03881133,12.67192629,-0.77633246,1.18626880,-0.31757614

>  <Name>
1eht cryst

>  <RI>
0

>  <Rbt.Current_Directory>
/home/itssahil/PROJECTS/Mol_Feturizer/New_Systems/rnas/1eht

>  <Rbt.Executable>
rbdock ($Id: //depot/dev/client3/rdock/2013.1/src/exe/rbdock.cxx#4 $)

>  <Rbt.Library>
libRbt.so (2013.1, Build901 2013/11/27)

>  <Rbt.Parameter_File>
/export/apps/rDock/src/rDock_2013.1_src/data/scripts/dock_solv.prm

>  <Rbt.Receptor>
prm/pocket_docking_5.prm

>  <SCORE>
-39.2125

>  <SCORE.INTER>
-39.2125

>  <SCORE.INTER.CONST>
1

>  <SCORE.INTER.POLAR>
-1.9238

>  <SCORE.INTER.ROT>
0

>  <SCORE.INTER.SOLV>
9.83606

>  <SCORE.INTER.VDW>
-26.6077

>  <SCORE.INTER.norm>
-3.01635

>  <SCORE.INTRA>
0

>  <SCORE.INTRA.DIHEDRAL>
0

>  <SCORE.INTRA.DIHEDRAL.0>
0

>  <SCORE.INTRA.POLAR>
0

>  <SCORE.INTRA.POLAR.0>
0

>  <SCORE.INTRA.REPUL>
0

>  <SCORE.INTRA.REPUL.0>
0

>  <SCORE.INTRA.SOLV>
0

>  <SCORE.INTRA.SOLV.lig_0>
-12.9768

>  <SCORE.INTRA.VDW>
0

>  <SCORE.INTRA.VDW.0>
0

>  <SCORE.INTRA.norm>
0

>  <SCORE.RESTR>
0

>  <SCORE.RESTR.CAVITY>
0

>  <SCORE.RESTR.norm>
0

>  <SCORE.SYSTEM>
0

>  <SCORE.SYSTEM.CONST>
0

>  <SCORE.SYSTEM.DIHEDRAL>
0

>  <SCORE.SYSTEM.SOLV>
0

>  <SCORE.SYSTEM.norm>
0

>  <SCORE.heavy>
13

>  <SCORE.norm>
-3.01635

>  <RMSD>
0.768

$$$$
1eht cryst
 OpenBabel11021811383D
libRbt.so/2013.1/901 2013/11/27
 13 14  0  0  0  0  0  0  0  0999 V2000
   -4.7663   -7.8813   10.6504 C   0  0  0  0  0  0  0  0  0  0  0  0
   -5.2443   -7.0022   11.6181 N   0  0  0  0  0  0  0  0  0  0  0  0
   -5.6422   -7.5210   12.8232 C   0  0  0  0  0  0  0  0  0  0  0  0
   -5.5486   -8.7432   12.9528 O   0  0  0  0  0  0  0  0  0  0  0  0
   -6.1331   -6.7789   13.8675 N   0  0  0  0  0  0  0  0  0  0  0  0
   -6.5277   -7.3259   15.0774 C   0  0  0  0  0  0  0  0  0  0  0  0
   -6.1940   -5.4447   13.5922 C   0  0  0  0  0  0  0  0  0  0  0  0
   -5.7963   -4.9391   12.3885 C   0  0  0  0  0  0  0  0  0  0  0  0
   -5.2897   -5.6820   11.3068 C   0  0  0  0  0  0  0  0  0  0  0  0
   -4.9183   -5.2759   10.2067 O   0  0  0  0  0  0  0  0  0  0  0  0
   -5.9980   -3.5680   12.4709 N   0  0  0  0  0  0  0  0  0  0  0  0
   -6.5003   -3.3395   13.7076 C   0  0  0  0  0  0  0  0  0  0  0  0
   -6.6382   -4.4216   14.4225 N   0  0  0  0  0  0  0  0  0  0  0  0
  1  2  1  0  0  0  0
  2  9  1  0  0  0  0
  2  3  1  0  0  0  0
  3  5  1  0  0  0  0
  3  4  2  0  0  0  0
  5  6  1  0  0  0  0
  5  7  1  0  0  0  0
  7  8  2  0  0  0  0
  7 13  1  0  0  0  0
  8  9  1  0  0  0  0
  8 11  1  0  0  0  0
  9 10  2  0  0  0  0
 11 12  1  0  0  0  0
 12 13  2  0  0  0  0
M  END
>  <CHROM.1>
-5.76925906,-6.03650922,12.67281932,-0.78225464,1.18838155,-0.31194197

>  <Name>
1eht cryst

>  <RI>
0

>  <Rbt.Current_Directory>
/home/itssahil/PROJECTS/Mol_Feturizer/New_Systems/rnas/1eht

>  <Rbt.Executable>
rbdock ($Id: //depot/dev/client3/rdock/2013.1/src/exe/rbdock.cxx#4 $)

>  <Rbt.Library>
libRbt.so (2013.1, Build901 2013/11/27)

>  <Rbt.Parameter_File>
/export/apps/rDock/src/rDock_2013.1_src/data/scripts/dock_solv.prm

>  <Rbt.Receptor>
prm/pocket_docking_6.prm

>  <SCORE>
-39.2185

>  <SCORE.INTER>
-39.2185

>  <SCORE.INTER.CONST>
1

>  <SCORE.INTER.POLAR>
-1.92385

>  <SCORE.INTER.ROT>
0

>  <SCORE.INTER.SOLV>
9.84696

>  <SCORE.INTER.VDW>
-26.6151

>  <SCORE.INTER.norm>
-3.01681

>  <SCORE.INTRA>
0

>  <SCORE.INTRA.DIHEDRAL>
0

>  <SCORE.INTRA.DIHEDRAL.0>
0

>  <SCORE.INTRA.POLAR>
0

>  <SCORE.INTRA.POLAR.0>
0

>  <SCORE.INTRA.REPUL>
0

>  <SCORE.INTRA.REPUL.0>
0

>  <SCORE.INTRA.SOLV>
0

>  <SCORE.INTRA.SOLV.lig_0>
-12.9768

>  <SCORE.INTRA.VDW>
0

>  <SCORE.INTRA.VDW.0>
0

>  <SCORE.INTRA.norm>
0

>  <SCORE.RESTR>
0

>  <SCORE.RESTR.CAVITY>
0

>  <SCORE.RESTR.norm>
0

>  <SCORE.SYSTEM>
0

>  <SCORE.SYSTEM.CONST>
0

>  <SCORE.SYSTEM.DIHEDRAL>
0

>  <SCORE.SYSTEM.SOLV>
0

>  <SCORE.SYSTEM.norm>
0

>  <SCORE.heavy>
13

>  <SCORE.norm>
-3.01681

>  <RMSD>
0.768

$$$$
1eht cryst
 OpenBabel11021811383D
libRbt.so/2013.1/901 2013/11/27
 13 14  0  0  0  0  0  0  0  0999 V2000
   -4.7736   -7.8836   10.6488 C   0  0  0  0  0  0  0  0  0  0  0  0
   -5.2492   -7.0038   11.6169 N   0  0  0  0  0  0  0  0  0  0  0  0
   -5.6452   -7.5217   12.8230 C   0  0  0  0  0  0  0  0  0  0  0  0
   -5.5522   -8.7439   12.9530 O   0  0  0  0  0  0  0  0  0  0  0  0
   -6.1336   -6.7787   13.8679 N   0  0  0  0  0  0  0  0  0  0  0  0
   -6.5263   -7.3249   15.0788 C   0  0  0  0  0  0  0  0  0  0  0  0
   -6.1940   -5.4446   13.5921 C   0  0  0  0  0  0  0  0  0  0  0  0
   -5.7983   -4.9398   12.3874 C   0  0  0  0  0  0  0  0  0  0  0  0
   -5.2942   -5.6837   11.3052 C   0  0  0  0  0  0  0  0  0  0  0  0
   -4.9246   -5.2784   10.2041 O   0  0  0  0  0  0  0  0  0  0  0  0
   -5.9988   -3.5686   12.4696 N   0  0  0  0  0  0  0  0  0  0  0  0
   -6.4986   -3.3391   13.7070 C   0  0  0  0  0  0  0  0  0  0  0  0
   -6.6359   -4.4208   14.4227 N   0  0  0  0  0  0  0  0  0  0  0  0
  1  2  1  0  0  0  0
  2  9  1  0  0  0  0
  2  3  1  0  0  0  0
  3  5  1  0  0  0  0
  3  4  2  0  0  0  0
  5  6  1  0  0  0  0
  5  7  1  0  0  0  0
  7  8  2  0  0  0  0
  7 13  1  0  0  0  0
  8  9  1  0  0  0  0
  8 11  1  0  0  0  0
  9 10  2  0  0  0  0
 11 12  1  0  0  0  0
 12 13  2  0  0  0  0
M  END
>  <CHROM.1>
-5.77146506,-6.03718308,12.67220879,-0.78256564,1.19038904,-0.31213346

>  <Name>
1eht cryst

>  <RI>
0

>  <Rbt.Current_Directory>
/home/itssahil/PROJECTS/Mol_Feturizer/New_Systems/rnas/1eht

>  <Rbt.Executable>
rbdock ($Id: //depot/dev/client3/rdock/2013.1/src/exe/rbdock.cxx#4 $)

>  <Rbt.Library>
libRbt.so (2013.1, Build901 2013/11/27)

>  <Rbt.Parameter_File>
/export/apps/rDock/src/rDock_2013.1_src/data/scripts/dock_solv.prm

>  <Rbt.Receptor>
prm/pocket_docking_6.prm

>  <SCORE>
-39.2144

>  <SCORE.INTER>
-39.2144

>  <SCORE.INTER.CONST>
1

>  <SCORE.INTER.POLAR>
-1.92276

>  <SCORE.INTER.ROT>
0

>  <SCORE.INTER.SOLV>
9.84261

>  <SCORE.INTER.VDW>
-26.6146

>  <SCORE.INTER.norm>
-3.01649

>  <SCORE.INTRA>
0

>  <SCORE.INTRA.DIHEDRAL>
0

>  <SCORE.INTRA.DIHEDRAL.0>
0

>  <SCORE.INTRA.POLAR>
0

>  <SCORE.INTRA.POLAR.0>
0

>  <SCORE.INTRA.REPUL>
0

>  <SCORE.INTRA.REPUL.0>
0

>  <SCORE.INTRA.SOLV>
0

>  <SCORE.INTRA.SOLV.lig_0>
-12.9768

>  <SCORE.INTRA.VDW>
0

>  <SCORE.INTRA.VDW.0>
0

>  <SCORE.INTRA.norm>
0

>  <SCORE.RESTR>
0

>  <SCORE.RESTR.CAVITY>
0

>  <SCORE.RESTR.norm>
0

>  <SCORE.SYSTEM>
0

>  <SCORE.SYSTEM.CONST>
0

>  <SCORE.SYSTEM.DIHEDRAL>
0

>  <SCORE.SYSTEM.SOLV>
0

>  <SCORE.SYSTEM.norm>
0

>  <SCORE.heavy>
13

>  <SCORE.norm>
-3.01649

>  <RMSD>
0.768

$$$$
1eht cryst
 OpenBabel11021811383D
libRbt.so/2013.1/901 2013/11/27
 13 14  0  0  0  0  0  0  0  0999 V2000
   -4.7640   -7.8820   10.6515 C   0  0  0  0  0  0  0  0  0  0  0  0
   -5.2467   -7.0042   11.6179 N   0  0  0  0  0  0  0  0  0  0  0  0
   -5.6457   -7.5239   12.8222 C   0  0  0  0  0  0  0  0  0  0  0  0
   -5.5488   -8.7457   12.9523 O   0  0  0  0  0  0  0  0  0  0  0  0
   -6.1410   -6.7830   13.8653 N   0  0  0  0  0  0  0  0  0  0  0  0
   -6.5367   -7.3309   15.0745 C   0  0  0  0  0  0  0  0  0  0  0  0
   -6.2053   -5.4490   13.5896 C   0  0  0  0  0  0  0  0  0  0  0  0
   -5.8065   -4.9424   12.3867 C   0  0  0  0  0  0  0  0  0  0  0  0
   -5.2953   -5.6841   11.3063 C   0  0  0  0  0  0  0  0  0  0  0  0
   -4.9228   -5.2771   10.2068 O   0  0  0  0  0  0  0  0  0  0  0  0
   -6.0124   -3.5720   12.4684 N   0  0  0  0  0  0  0  0  0  0  0  0
   -6.5180   -3.3447   13.7039 C   0  0  0  0  0  0  0  0  0  0  0  0
   -6.6543   -4.4271   14.4187 N   0  0  0  0  0  0  0  0  0  0  0  0
  1  2  1  0  0  0  0
  2  9  1  0  0  0  0
  2  3  1  0  0  0  0
  3  5  1  0  0  0  0
  3  4  2  0  0  0  0
  5  6  1  0  0  0  0
  5  7  1  0  0  0  0
  7  8  2  0  0  0  0
  7 13  1  0  0  0  0
  8  9  1  0  0  0  0
  8 11  1  0  0  0  0
  9 10  2  0  0  0  0
 11 12  1  0  0  0  0
 12 13  2  0  0  0  0
M  END
>  <CHROM.1>
-5.77681086,-6.03976409,12.67129818,-0.77655365,1.18540354,-0.31743395

>  <Name>
1eht cryst

>  <RI>
0

>  <Rbt.Current_Directory>
/home/itssahil/PROJECTS/Mol_Feturizer/New_Systems/rnas/1eht

>  <Rbt.Executable>
rbdock ($Id: //depot/dev/client3/rdock/2013.1/src/exe/rbdock.cxx#4 $)

>  <Rbt.Library>
libRbt.so (2013.1, Build901 2013/11/27)

>  <Rbt.Parameter_File>
/export/apps/rDock/src/rDock_2013.1_src/data/scripts/dock_solv.prm

>  <Rbt.Receptor>
prm/pocket_docking_6.prm

>  <SCORE>
-39.2217

>  <SCORE.INTER>
-39.2217

>  <SCORE.INTER.CONST>
1

>  <SCORE.INTER.POLAR>
-1.92618

>  <SCORE.INTER.ROT>
0

>  <SCORE.INTER.SOLV>
9.83527

>  <SCORE.INTER.VDW>
-26.6056

>  <SCORE.INTER.norm>
-3.01705

>  <SCORE.INTRA>
0

>  <SCORE.INTRA.DIHEDRAL>
0

>  <SCORE.INTRA.DIHEDRAL.0>
0

>  <SCORE.INTRA.POLAR>
0

>  <SCORE.INTRA.POLAR.0>
0

>  <SCORE.INTRA.REPUL>
0

>  <SCORE.INTRA.REPUL.0>
0

>  <SCORE.INTRA.SOLV>
0

>  <SCORE.INTRA.SOLV.lig_0>
-12.9768

>  <SCORE.INTRA.VDW>
0

>  <SCORE.INTRA.VDW.0>
0

>  <SCORE.INTRA.norm>
0

>  <SCORE.RESTR>
0

>  <SCORE.RESTR.CAVITY>
0

>  <SCORE.RESTR.norm>
0

>  <SCORE.SYSTEM>
0

>  <SCORE.SYSTEM.CONST>
0

>  <SCORE.SYSTEM.DIHEDRAL>
0

>  <SCORE.SYSTEM.SOLV>
0

>  <SCORE.SYSTEM.norm>
0

>  <SCORE.heavy>
13

>  <SCORE.norm>
-3.01705

>  <RMSD>
0.768

$$$$
1eht cryst
 OpenBabel11021811383D
libRbt.so/2013.1/901 2013/11/27
 13 14  0  0  0  0  0  0  0  0999 V2000
   -4.7683   -7.8826   10.6505 C   0  0  0  0  0  0  0  0  0  0  0  0
   -5.2462   -7.0036   11.6182 N   0  0  0  0  0  0  0  0  0  0  0  0
   -5.6443   -7.5224   12.8232 C   0  0  0  0  0  0  0  0  0  0  0  0
   -5.5510   -8.7446   12.9527 O   0  0  0  0  0  0  0  0  0  0  0  0
   -6.1351   -6.7803   13.8676 N   0  0  0  0  0  0  0  0  0  0  0  0
   -6.5300   -7.3273   15.0774 C   0  0  0  0  0  0  0  0  0  0  0  0
   -6.1958   -5.4461   13.5924 C   0  0  0  0  0  0  0  0  0  0  0  0
   -5.7979   -4.9404   12.3888 C   0  0  0  0  0  0  0  0  0  0  0  0
   -5.2913   -5.6834   11.3071 C   0  0  0  0  0  0  0  0  0  0  0  0
   -4.9197   -5.2772   10.2070 O   0  0  0  0  0  0  0  0  0  0  0  0
   -5.9994   -3.5693   12.4713 N   0  0  0  0  0  0  0  0  0  0  0  0
   -6.5017   -3.3408   13.7079 C   0  0  0  0  0  0  0  0  0  0  0  0
   -6.6398   -4.4230   14.4227 N   0  0  0  0  0  0  0  0  0  0  0  0
  1  2  1  0  0  0  0
  2  9  1  0  0  0  0
  2  3  1  0  0  0  0
  3  5  1  0  0  0  0
  3  4  2  0  0  0  0
  5  6  1  0  0  0  0
  5  7  1  0  0  0  0
  7  8  2  0  0  0  0
  7 13  1  0  0  0  0
  8  9  1  0  0  0  0
  8 11  1  0  0  0  0
  9 10  2  0  0  0  0
 11 12  1  0  0  0  0
 12 13  2  0  0  0  0
M  END
>  <CHROM.1>
-5.77107892,-6.03788418,12.67299650,-0.78284029,1.18835087,-0.31130396

>  <Name>
1eht cryst

>  <RI>
224

>  <Rbt.Current_Directory>
/home/itssahil/PROJECTS/Mol_Feturizer/New_Systems/rnas/1eht

>  <Rbt.Executable>
rbdock ($Id: //depot/dev/client3/rdock/2013.1/src/exe/rbdock.cxx#4 $)

>  <Rbt.Library>
libRbt.so (2013.1, Build901 2013/11/27)

>  <Rbt.Parameter_File>
/export/apps/rDock/src/rDock_2013.1_src/data/scripts/dock_solv.prm

>  <Rbt.Receptor>
prm/pocket_docking_7.prm

>  <SCORE>
-39.2192

>  <SCORE.INTER>
-39.2192

>  <SCORE.INTER.CONST>
1

>  <SCORE.INTER.POLAR>
-1.92486

>  <SCORE.INTER.ROT>
0

>  <SCORE.INTER.SOLV>
9.84385

>  <SCORE.INTER.VDW>
-26.6112

>  <SCORE.INTER.norm>
-3.01686

>  <SCORE.INTRA>
0

>  <SCORE.INTRA.DIHEDRAL>
0

>  <SCORE.INTRA.DIHEDRAL.0>
0

>  <SCORE.INTRA.POLAR>
0

>  <SCORE.INTRA.POLAR.0>
0

>  <SCORE.INTRA.REPUL>
0

>  <SCORE.INTRA.REPUL.0>
0

>  <SCORE.INTRA.SOLV>
0

>  <SCORE.INTRA.SOLV.lig_0>
-12.9768

>  <SCORE.INTRA.VDW>
0

>  <SCORE.INTRA.VDW.0>
0

>  <SCORE.INTRA.norm>
0

>  <SCORE.RESTR>
0

>  <SCORE.RESTR.CAVITY>
0

>  <SCORE.RESTR.norm>
0

>  <SCORE.SYSTEM>
0

>  <SCORE.SYSTEM.CONST>
0

>  <SCORE.SYSTEM.DIHEDRAL>
0

>  <SCORE.SYSTEM.SOLV>
0

>  <SCORE.SYSTEM.norm>
0

>  <SCORE.heavy>
13

>  <SCORE.norm>
-3.01686

>  <RMSD>
0.768

$$$$
1eht cryst
 OpenBabel11021811383D
libRbt.so/2013.1/901 2013/11/27
 13 14  0  0  0  0  0  0  0  0999 V2000
   -4.7760   -7.8842   10.6487 C   0  0  0  0  0  0  0  0  0  0  0  0
   -5.2505   -7.0039   11.6169 N   0  0  0  0  0  0  0  0  0  0  0  0
   -5.6455   -7.5212   12.8236 C   0  0  0  0  0  0  0  0  0  0  0  0
   -5.5526   -8.7433   12.9540 O   0  0  0  0  0  0  0  0  0  0  0  0
   -6.1327   -6.7777   13.8686 N   0  0  0  0  0  0  0  0  0  0  0  0
   -6.5245   -7.3232   15.0802 C   0  0  0  0  0  0  0  0  0  0  0  0
   -6.1932   -5.4437   13.5923 C   0  0  0  0  0  0  0  0  0  0  0  0
   -5.7984   -4.9395   12.3871 C   0  0  0  0  0  0  0  0  0  0  0  0
   -5.2955   -5.6839   11.3046 C   0  0  0  0  0  0  0  0  0  0  0  0
   -4.9269   -5.2791   10.2030 O   0  0  0  0  0  0  0  0  0  0  0  0
   -5.9986   -3.5681   12.4688 N   0  0  0  0  0  0  0  0  0  0  0  0
   -6.4972   -3.3380   13.7066 C   0  0  0  0  0  0  0  0  0  0  0  0
   -6.6340   -4.4194   14.4229 N   0  0  0  0  0  0  0  0  0  0  0  0
  1  2  1  0  0  0  0
  2  9  1  0  0  0  0
  2  3  1  0  0  0  0
  3  5  1  0  0  0  0
  3  4  2  0  0  0  0
  5  6  1  0  0  0  0
  5  7  1  0  0  0  0
  7  8  2  0  0  0  0
  7 13  1  0  0  0  0
  8  9  1  0  0  0  0
  8 11  1  0  0  0  0
  9 10  2  0  0  0  0
 11 12  1  0  0  0  0
 12 13  2  0  0  0  0
M  END
>  <CHROM.1>
-5.77157642,-6.03668549,12.67226508,-0.78232773,1.19134710,-0.31277925

>  <Name>
1eht cryst

>  <RI>
224

>  <Rbt.Current_Directory>
/home/itssahil/PROJECTS/Mol_Feturizer/New_Systems/rnas/1eht

>  <Rbt.Executable>
rbdock ($Id: //depot/dev/client3/rdock/2013.1/src/exe/rbdock.cxx#4 $)

>  <Rbt.Library>
libRbt.so (2013.1, Build901 2013/11/27)

>  <Rbt.Parameter_File>
/export/apps/rDock/src/rDock_2013.1_src/data/scripts/dock_solv.prm

>  <Rbt.Receptor>
prm/pocket_docking_7.prm

>  <SCORE>
-39.211

>  <SCORE.INTER>
-39.211

>  <SCORE.INTER.CONST>
1

>  <SCORE.INTER.POLAR>
-1.92154

>  <SCORE.INTER.ROT>
0

>  <SCORE.INTER.SOLV>
9.84222

>  <SCORE.INTER.VDW>
-26.6163

>  <SCORE.INTER.norm>
-3.01623

>  <SCORE.INTRA>
0

>  <SCORE.INTRA.DIHEDRAL>
0

>  <SCORE.INTRA.DIHEDRAL.0>
0

>  <SCORE.INTRA.POLAR>
0

>  <SCORE.INTRA.POLAR.0>
0

>  <SCORE.INTRA.REPUL>
0

>  <SCORE.INTRA.REPUL.0>
0

>  <SCORE.INTRA.SOLV>
0

>  <SCORE.INTRA.SOLV.lig_0>
-12.9768

>  <SCORE.INTRA.VDW>
0

>  <SCORE.INTRA.VDW.0>
0

>  <SCORE.INTRA.norm>
0

>  <SCORE.RESTR>
0

>  <SCORE.RESTR.CAVITY>
0

>  <SCORE.RESTR.norm>
0

>  <SCORE.SYSTEM>
0

>  <SCORE.SYSTEM.CONST>
0

>  <SCORE.SYSTEM.DIHEDRAL>
0

>  <SCORE.SYSTEM.SOLV>
0

>  <SCORE.SYSTEM.norm>
0

>  <SCORE.heavy>
13

>  <SCORE.norm>
-3.01623

>  <RMSD>
0.768

$$$$
1eht cryst
 OpenBabel11021811383D
libRbt.so/2013.1/901 2013/11/27
 13 14  0  0  0  0  0  0  0  0999 V2000
   -4.7776   -7.8850   10.6491 C   0  0  0  0  0  0  0  0  0  0  0  0
   -5.2514   -7.0049   11.6177 N   0  0  0  0  0  0  0  0  0  0  0  0
   -5.6449   -7.5223   12.8248 C   0  0  0  0  0  0  0  0  0  0  0  0
   -5.5513   -8.7443   12.9553 O   0  0  0  0  0  0  0  0  0  0  0  0
   -6.1314   -6.7789   13.8703 N   0  0  0  0  0  0  0  0  0  0  0  0
   -6.5216   -7.3245   15.0823 C   0  0  0  0  0  0  0  0  0  0  0  0
   -6.1927   -5.4450   13.5940 C   0  0  0  0  0  0  0  0  0  0  0  0
   -5.7995   -4.9407   12.3883 C   0  0  0  0  0  0  0  0  0  0  0  0
   -5.2974   -5.6849   11.3054 C   0  0  0  0  0  0  0  0  0  0  0  0
   -4.9301   -5.2800   10.2034 O   0  0  0  0  0  0  0  0  0  0  0  0
   -6.0003   -3.5694   12.4701 N   0  0  0  0  0  0  0  0  0  0  0  0
   -6.4976   -3.3395   13.7085 C   0  0  0  0  0  0  0  0  0  0  0  0
   -6.6332   -4.4209   14.4249 N   0  0  0  0  0  0  0  0  0  0  0  0
  1  2  1  0  0  0  0
  2  9  1  0  0  0  0
  2  3  1  0  0  0  0
  3  5  1  0  0  0  0
  3  4  2  0  0  0  0
  5  6  1  0  0  0  0
  5  7  1  0  0  0  0
  7  8  2  0  0  0  0
  7 13  1  0  0  0  0
  8  9  1  0  0  0  0
  8 11  1  0  0  0  0
  9 10  2  0  0  0  0
 11 12  1  0  0  0  0
 12 13  2  0  0  0  0
M  END
>  <CHROM.1>
-5.77184137,-6.03784824,12.67354158,-0.78022426,1.19219976,-0.31480676

>  <Name>
1eht cryst

>  <RI>
0

>  <Rbt.Current_Directory>
/home/itssahil/PROJECTS/Mol_Feturizer/New_Systems/rnas/1eht

>  <Rbt.Executable>
rbdock ($Id: //depot/dev/client3/rdock/2013.1/src/exe/rbdock.cxx#4 $)

>  <Rbt.Library>
libRbt.so (2013.1, Build901 2013/11/27)

>  <Rbt.Parameter_File>
/export/apps/rDock/src/rDock_2013.1_src/data/scripts/dock_solv.prm

>  <Rbt.Receptor>
prm/pocket_docking_8.prm

>  <SCORE>
-39.2102

>  <SCORE.INTER>
-39.2102

>  <SCORE.INTER.CONST>
1

>  <SCORE.INTER.POLAR>
-1.92024

>  <SCORE.INTER.ROT>
0

>  <SCORE.INTER.SOLV>
9.83817

>  <SCORE.INTER.VDW>
-26.6187

>  <SCORE.INTER.norm>
-3.01617

>  <SCORE.INTRA>
0

>  <SCORE.INTRA.DIHEDRAL>
0

>  <SCORE.INTRA.DIHEDRAL.0>
0

>  <SCORE.INTRA.POLAR>
0

>  <SCORE.INTRA.POLAR.0>
0

>  <SCORE.INTRA.REPUL>
0

>  <SCORE.INTRA.REPUL.0>
0

>  <SCORE.INTRA.SOLV>
0

>  <SCORE.INTRA.SOLV.lig_0>
-12.9768

>  <SCORE.INTRA.VDW>
0

>  <SCORE.INTRA.VDW.0>
0

>  <SCORE.INTRA.norm>
0

>  <SCORE.RESTR>
0

>  <SCORE.RESTR.CAVITY>
0

>  <SCORE.RESTR.norm>
0

>  <SCORE.SYSTEM>
0

>  <SCORE.SYSTEM.CONST>
0

>  <SCORE.SYSTEM.DIHEDRAL>
0

>  <SCORE.SYSTEM.SOLV>
0

>  <SCORE.SYSTEM.norm>
0

>  <SCORE.heavy>
13

>  <SCORE.norm>
-3.01617

>  <RMSD>
0.768

$$$$
1eht cryst
 OpenBabel11021811383D
libRbt.so/2013.1/901 2013/11/27
 13 14  0  0  0  0  0  0  0  0999 V2000
   -4.8028   -7.8895   10.6454 C   0  0  0  0  0  0  0  0  0  0  0  0
   -5.2714   -7.0079   11.6153 N   0  0  0  0  0  0  0  0  0  0  0  0
   -5.6613   -7.5239   12.8242 C   0  0  0  0  0  0  0  0  0  0  0  0
   -5.5697   -8.7461   12.9549 O   0  0  0  0  0  0  0  0  0  0  0  0
   -6.1425   -6.7791   13.8711 N   0  0  0  0  0  0  0  0  0  0  0  0
   -6.5293   -7.3233   15.0848 C   0  0  0  0  0  0  0  0  0  0  0  0
   -6.2023   -5.4452   13.5943 C   0  0  0  0  0  0  0  0  0  0  0  0
   -5.8126   -4.9422   12.3868 C   0  0  0  0  0  0  0  0  0  0  0  0
   -5.3160   -5.6881   11.3025 C   0  0  0  0  0  0  0  0  0  0  0  0
   -4.9520   -5.2844   10.1989 O   0  0  0  0  0  0  0  0  0  0  0  0
   -6.0104   -3.5706   12.4687 N   0  0  0  0  0  0  0  0  0  0  0  0
   -6.5027   -3.3390   13.7088 C   0  0  0  0  0  0  0  0  0  0  0  0
   -6.6378   -4.4198   14.4263 N   0  0  0  0  0  0  0  0  0  0  0  0
  1  2  1  0  0  0  0
  2  9  1  0  0  0  0
  2  3  1  0  0  0  0
  3  5  1  0  0  0  0
  3  4  2  0  0  0  0
  5  6  1  0  0  0  0
  5  7  1  0  0  0  0
  7  8  2  0  0  0  0
  7 13  1  0  0  0  0
  8  9  1  0  0  0  0
  8 11  1  0  0  0  0
  9 10  2  0  0  0  0
 11 12  1  0  0  0  0
 12 13  2  0  0  0  0
M  END
>  <CHROM.1>
-5.78602017,-6.03934314,12.67256834,-0.78210777,1.19633530,-0.31357913

>  <Name>
1eht cryst

>  <RI>
0

>  <Rbt.Current_Directory>
/home/itssahil/PROJECTS/Mol_Feturizer/New_Systems/rnas/1eht

>  <Rbt.Executable>
rbdock ($Id: //depot/dev/client3/rdock/2013.1/src/exe/rbdock.cxx#4 $)

>  <Rbt.Library>
libRbt.so (2013.1, Build901 2013/11/27)

>  <Rbt.Parameter_File>
/export/apps/rDock/src/rDock_2013.1_src/data/scripts/dock_solv.prm

>  <Rbt.Receptor>
prm/blind_docking_100.prm

>  <SCORE>
-39.1651

>  <SCORE.INTER>
-39.1651

>  <SCORE.INTER.CONST>
1

>  <SCORE.INTER.POLAR>
-1.91569

>  <SCORE.INTER.ROT>
0

>  <SCORE.INTER.SOLV>
9.82698

>  <SCORE.INTER.VDW>
-26.6001

>  <SCORE.INTER.norm>
-3.0127

>  <SCORE.INTRA>
0

>  <SCORE.INTRA.DIHEDRAL>
0

>  <SCORE.INTRA.DIHEDRAL.0>
0

>  <SCORE.INTRA.POLAR>
0

>  <SCORE.INTRA.POLAR.0>
0

>  <SCORE.INTRA.REPUL>
0

>  <SCORE.INTRA.REPUL.0>
0

>  <SCORE.INTRA.SOLV>
0

>  <SCORE.INTRA.SOLV.lig_0>
-12.9768

>  <SCORE.INTRA.VDW>
0

>  <SCORE.INTRA.VDW.0>
0

>  <SCORE.INTRA.norm>
0

>  <SCORE.RESTR>
0

>  <SCORE.RESTR.CAVITY>
0

>  <SCORE.RESTR.norm>
0

>  <SCORE.SYSTEM>
0

>  <SCORE.SYSTEM.CONST>
0

>  <SCORE.SYSTEM.DIHEDRAL>
0

>  <SCORE.SYSTEM.SOLV>
0

>  <SCORE.SYSTEM.norm>
0

>  <SCORE.heavy>
13

>  <SCORE.norm>
-3.0127

>  <RMSD>
0.769

$$$$
1eht cryst
 OpenBabel11021811383D
libRbt.so/2013.1/901 2013/11/27
 13 14  0  0  0  0  0  0  0  0999 V2000
   -4.7704   -7.8807   10.6517 C   0  0  0  0  0  0  0  0  0  0  0  0
   -5.2486   -7.0018   11.6193 N   0  0  0  0  0  0  0  0  0  0  0  0
   -5.6496   -7.5210   12.8231 C   0  0  0  0  0  0  0  0  0  0  0  0
   -5.5584   -8.7435   12.9517 O   0  0  0  0  0  0  0  0  0  0  0  0
   -6.1411   -6.7790   13.8673 N   0  0  0  0  0  0  0  0  0  0  0  0
   -6.5389   -7.3265   15.0760 C   0  0  0  0  0  0  0  0  0  0  0  0
   -6.1991   -5.4445   13.5932 C   0  0  0  0  0  0  0  0  0  0  0  0
   -5.7983   -4.9384   12.3907 C   0  0  0  0  0  0  0  0  0  0  0  0
   -5.2910   -5.6812   11.3092 C   0  0  0  0  0  0  0  0  0  0  0  0
   -4.9169   -5.2747   10.2101 O   0  0  0  0  0  0  0  0  0  0  0  0
   -5.9978   -3.5670   12.4741 N   0  0  0  0  0  0  0  0  0  0  0  0
   -6.5019   -3.3388   13.7100 C   0  0  0  0  0  0  0  0  0  0  0  0
   -6.6430   -4.4214   14.4236 N   0  0  0  0  0  0  0  0  0  0  0  0
  1  2  1  0  0  0  0
  2  9  1  0  0  0  0
  2  3  1  0  0  0  0
  3  5  1  0  0  0  0
  3  4  2  0  0  0  0
  5  6  1  0  0  0  0
  5  7  1  0  0  0  0
  7  8  2  0  0  0  0
  7 13  1  0  0  0  0
  8  9  1  0  0  0  0
  8 11  1  0  0  0  0
  9 10  2  0  0  0  0
 11 12  1  0  0  0  0
 12 13  2  0  0  0  0
M  END
>  <CHROM.1>
-5.77375915,-6.03612813,12.67398964,-0.78827550,1.18717190,-0.30539993

>  <Name>
1eht cryst

>  <RI>
0

>  <Rbt.Current_Directory>
/home/itssahil/PROJECTS/Mol_Feturizer/New_Systems/rnas/1eht

>  <Rbt.Executable>
rbdock ($Id: //depot/dev/client3/rdock/2013.1/src/exe/rbdock.cxx#4 $)

>  <Rbt.Library>
libRbt.so (2013.1, Build901 2013/11/27)

>  <Rbt.Parameter_File>
/export/apps/rDock/src/rDock_2013.1_src/data/scripts/dock_solv.prm

>  <Rbt.Receptor>
prm/pocket_docking_3.prm

>  <SCORE>
-39.2068

>  <SCORE.INTER>
-39.2068

>  <SCORE.INTER.CONST>
1

>  <SCORE.INTER.POLAR>
-1.9249

>  <SCORE.INTER.ROT>
0

>  <SCORE.INTER.SOLV>
9.85133

>  <SCORE.INTER.VDW>
-26.6053

>  <SCORE.INTER.norm>
-3.01591

>  <SCORE.INTRA>
0

>  <SCORE.INTRA.DIHEDRAL>
0

>  <SCORE.INTRA.DIHEDRAL.0>
0

>  <SCORE.INTRA.POLAR>
0

>  <SCORE.INTRA.POLAR.0>
0

>  <SCORE.INTRA.REPUL>
0

>  <SCORE.INTRA.REPUL.0>
0

>  <SCORE.INTRA.SOLV>
0

>  <SCORE.INTRA.SOLV.lig_0>
-12.9768

>  <SCORE.INTRA.VDW>
0

>  <SCORE.INTRA.VDW.0>
0

>  <SCORE.INTRA.norm>
0

>  <SCORE.RESTR>
0

>  <SCORE.RESTR.CAVITY>
0

>  <SCORE.RESTR.norm>
0

>  <SCORE.SYSTEM>
0

>  <SCORE.SYSTEM.CONST>
0

>  <SCORE.SYSTEM.DIHEDRAL>
0

>  <SCORE.SYSTEM.SOLV>
0

>  <SCORE.SYSTEM.norm>
0

>  <SCORE.heavy>
13

>  <SCORE.norm>
-3.01591

>  <RMSD>
0.769

$$$$
1eht cryst
 OpenBabel11021811383D
libRbt.so/2013.1/901 2013/11/27
 13 14  0  0  0  0  0  0  0  0999 V2000
   -4.7625   -7.8788   10.6688 C   0  0  0  0  0  0  0  0  0  0  0  0
   -5.2408   -7.0146   11.6496 N   0  0  0  0  0  0  0  0  0  0  0  0
   -5.6556   -7.5535   12.8401 C   0  0  0  0  0  0  0  0  0  0  0  0
   -5.5758   -8.7789   12.9457 O   0  0  0  0  0  0  0  0  0  0  0  0
   -6.1489   -6.8276   13.8946 N   0  0  0  0  0  0  0  0  0  0  0  0
   -6.5608   -7.3948   15.0894 C   0  0  0  0  0  0  0  0  0  0  0  0
   -6.1935   -5.4875   13.6460 C   0  0  0  0  0  0  0  0  0  0  0  0
   -5.7791   -4.9618   12.4566 C   0  0  0  0  0  0  0  0  0  0  0  0
   -5.2697   -5.6880   11.3649 C   0  0  0  0  0  0  0  0  0  0  0  0
   -4.8836   -5.2635   10.2767 O   0  0  0  0  0  0  0  0  0  0  0  0
   -5.9676   -3.5906   12.5650 N   0  0  0  0  0  0  0  0  0  0  0  0
   -6.4794   -3.3820   13.8012 C   0  0  0  0  0  0  0  0  0  0  0  0
   -6.6352   -4.4769   14.4926 N   0  0  0  0  0  0  0  0  0  0  0  0
  1  2  1  0  0  0  0
  2  9  1  0  0  0  0
  2  3  1  0  0  0  0
  3  5  1  0  0  0  0
  3  4  2  0  0  0  0
  5  6  1  0  0  0  0
  5  7  1  0  0  0  0
  7  8  2  0  0  0  0
  7 13  1  0  0  0  0
  8  9  1  0  0  0  0
  8 11  1  0  0  0  0
  9 10  2  0  0  0  0
 11 12  1  0  0  0  0
 12 13  2  0  0  0  0
M  END
>  <CHROM.1>
-5.76602895,-6.06497955,12.71877667,-0.81577576,1.18213586,-0.26059516

>  <Name>
1eht cryst

>  <RI>
0

>  <Rbt.Current_Directory>
/home/itssahil/PROJECTS/Mol_Feturizer/New_Systems/rnas/1eht

>  <Rbt.Executable>
rbdock ($Id: //depot/dev/client3/rdock/2013.1/src/exe/rbdock.cxx#4 $)

>  <Rbt.Library>
libRbt.so (2013.1, Build901 2013/11/27)

>  <Rbt.Parameter_File>
/export/apps/rDock/src/rDock_2013.1_src/data/scripts/dock_solv.prm

>  <Rbt.Receptor>
prm/blind_docking_40.prm

>  <SCORE>
-39.1908

>  <SCORE.INTER>
-39.1908

>  <SCORE.INTER.CONST>
1

>  <SCORE.INTER.POLAR>
-1.92309

>  <SCORE.INTER.ROT>
0

>  <SCORE.INTER.SOLV>
9.8438

>  <SCORE.INTER.VDW>
-26.5982

>  <SCORE.INTER.norm>
-3.01468

>  <SCORE.INTRA>
0

>  <SCORE.INTRA.DIHEDRAL>
0

>  <SCORE.INTRA.DIHEDRAL.0>
0

>  <SCORE.INTRA.POLAR>
0

>  <SCORE.INTRA.POLAR.0>
0

>  <SCORE.INTRA.REPUL>
0

>  <SCORE.INTRA.REPUL.0>
0

>  <SCORE.INTRA.SOLV>
0

>  <SCORE.INTRA.SOLV.lig_0>
-12.9768

>  <SCORE.INTRA.VDW>
0

>  <SCORE.INTRA.VDW.0>
0

>  <SCORE.INTRA.norm>
0

>  <SCORE.RESTR>
0

>  <SCORE.RESTR.CAVITY>
0

>  <SCORE.RESTR.norm>
0

>  <SCORE.SYSTEM>
0

>  <SCORE.SYSTEM.CONST>
0

>  <SCORE.SYSTEM.DIHEDRAL>
0

>  <SCORE.SYSTEM.SOLV>
0

>  <SCORE.SYSTEM.norm>
0

>  <SCORE.heavy>
13

>  <SCORE.norm>
-3.01468

>  <RMSD>
0.770

$$$$
1eht cryst
 OpenBabel11021811383D
libRbt.so/2013.1/901 2013/11/27
 13 14  0  0  0  0  0  0  0  0999 V2000
   -4.7763   -7.8953   10.6524 C   0  0  0  0  0  0  0  0  0  0  0  0
   -5.2561   -7.0148   11.6178 N   0  0  0  0  0  0  0  0  0  0  0  0
   -5.6506   -7.5309   12.8251 C   0  0  0  0  0  0  0  0  0  0  0  0
   -5.5526   -8.7523   12.9586 O   0  0  0  0  0  0  0  0  0  0  0  0
   -6.1428   -6.7870   13.8676 N   0  0  0  0  0  0  0  0  0  0  0  0
   -6.5340   -7.3314   15.0798 C   0  0  0  0  0  0  0  0  0  0  0  0
   -6.2087   -5.4540   13.5879 C   0  0  0  0  0  0  0  0  0  0  0  0
   -5.8144   -4.9510   12.3821 C   0  0  0  0  0  0  0  0  0  0  0  0
   -5.3065   -5.6958   11.3022 C   0  0  0  0  0  0  0  0  0  0  0  0
   -4.9380   -5.2920   10.2002 O   0  0  0  0  0  0  0  0  0  0  0  0
   -6.0208   -3.5803   12.4602 N   0  0  0  0  0  0  0  0  0  0  0  0
   -6.5222   -3.3495   13.6967 C   0  0  0  0  0  0  0  0  0  0  0  0
   -6.6554   -4.4297   14.4154 N   0  0  0  0  0  0  0  0  0  0  0  0
  1  2  1  0  0  0  0
  2  9  1  0  0  0  0
  2  3  1  0  0  0  0
  3  5  1  0  0  0  0
  3  4  2  0  0  0  0
  5  6  1  0  0  0  0
  5  7  1  0  0  0  0
  7  8  2  0  0  0  0
  7 13  1  0  0  0  0
  8  9  1  0  0  0  0
  8 11  1  0  0  0  0
  9 10  2  0  0  0  0
 11 12  1  0  0  0  0
 12 13  2  0  0  0  0
M  END
>  <CHROM.1>
-5.78310751,-6.04735972,12.66997587,-0.77226590,1.18851361,-0.32453573

>  <Name>
1eht cryst

>  <RI>
0

>  <Rbt.Current_Directory>
/home/itssahil/PROJECTS/Mol_Feturizer/New_Systems/rnas/1eht

>  <Rbt.Executable>
rbdock ($Id: //depot/dev/client3/rdock/2013.1/src/exe/rbdock.cxx#4 $)

>  <Rbt.Library>
libRbt.so (2013.1, Build901 2013/11/27)

>  <Rbt.Parameter_File>
/export/apps/rDock/src/rDock_2013.1_src/data/scripts/dock_solv.prm

>  <Rbt.Receptor>
prm/pocket_docking_4.prm

>  <SCORE>
-39.1859

>  <SCORE.INTER>
-39.1859

>  <SCORE.INTER.CONST>
1

>  <SCORE.INTER.POLAR>
-1.92829

>  <SCORE.INTER.ROT>
0

>  <SCORE.INTER.SOLV>
9.80864

>  <SCORE.INTER.VDW>
-26.5658

>  <SCORE.INTER.norm>
-3.0143

>  <SCORE.INTRA>
0

>  <SCORE.INTRA.DIHEDRAL>
0

>  <SCORE.INTRA.DIHEDRAL.0>
0

>  <SCORE.INTRA.POLAR>
0

>  <SCORE.INTRA.POLAR.0>
0

>  <SCORE.INTRA.REPUL>
0

>  <SCORE.INTRA.REPUL.0>
0

>  <SCORE.INTRA.SOLV>
0

>  <SCORE.INTRA.SOLV.lig_0>
-12.9768

>  <SCORE.INTRA.VDW>
0

>  <SCORE.INTRA.VDW.0>
0

>  <SCORE.INTRA.norm>
0

>  <SCORE.RESTR>
0

>  <SCORE.RESTR.CAVITY>
0

>  <SCORE.RESTR.norm>
0

>  <SCORE.SYSTEM>
0

>  <SCORE.SYSTEM.CONST>
0

>  <SCORE.SYSTEM.DIHEDRAL>
0

>  <SCORE.SYSTEM.SOLV>
0

>  <SCORE.SYSTEM.norm>
0

>  <SCORE.heavy>
13

>  <SCORE.norm>
-3.0143

>  <RMSD>
0.770

$$$$
1eht cryst
 OpenBabel11021811383D
libRbt.so/2013.1/901 2013/11/27
 13 14  0  0  0  0  0  0  0  0999 V2000
   -4.8012   -7.8956   10.6482 C   0  0  0  0  0  0  0  0  0  0  0  0
   -5.2685   -7.0125   11.6174 N   0  0  0  0  0  0  0  0  0  0  0  0
   -5.6595   -7.5271   12.8265 C   0  0  0  0  0  0  0  0  0  0  0  0
   -5.5699   -8.7494   12.9581 O   0  0  0  0  0  0  0  0  0  0  0  0
   -6.1396   -6.7808   13.8729 N   0  0  0  0  0  0  0  0  0  0  0  0
   -6.5275   -7.3236   15.0869 C   0  0  0  0  0  0  0  0  0  0  0  0
   -6.1972   -5.4470   13.5952 C   0  0  0  0  0  0  0  0  0  0  0  0
   -5.8064   -4.9455   12.3875 C   0  0  0  0  0  0  0  0  0  0  0  0
   -5.3108   -5.6928   11.3037 C   0  0  0  0  0  0  0  0  0  0  0  0
   -4.9459   -5.2905   10.1999 O   0  0  0  0  0  0  0  0  0  0  0  0
   -6.0019   -3.5734   12.4685 N   0  0  0  0  0  0  0  0  0  0  0  0
   -6.4940   -3.3402   13.7083 C   0  0  0  0  0  0  0  0  0  0  0  0
   -6.6310   -4.4203   14.4265 N   0  0  0  0  0  0  0  0  0  0  0  0
  1  2  1  0  0  0  0
  2  9  1  0  0  0  0
  2  3  1  0  0  0  0
  3  5  1  0  0  0  0
  3  4  2  0  0  0  0
  5  6  1  0  0  0  0
  5  7  1  0  0  0  0
  7  8  2  0  0  0  0
  7 13  1  0  0  0  0
  8  9  1  0  0  0  0
  8 11  1  0  0  0  0
  9 10  2  0  0  0  0
 11 12  1  0  0  0  0
 12 13  2  0  0  0  0
M  END
>  <CHROM.1>
-5.78166061,-6.04243360,12.67394839,-0.78662335,1.19667750,-0.31002196

>  <Name>
1eht cryst

>  <RI>
0

>  <Rbt.Current_Directory>
/home/itssahil/PROJECTS/Mol_Feturizer/New_Systems/rnas/1eht

>  <Rbt.Executable>
rbdock ($Id: //depot/dev/client3/rdock/2013.1/src/exe/rbdock.cxx#4 $)

>  <Rbt.Library>
libRbt.so (2013.1, Build901 2013/11/27)

>  <Rbt.Parameter_File>
/export/apps/rDock/src/rDock_2013.1_src/data/scripts/dock_solv.prm

>  <Rbt.Receptor>
prm/blind_docking_60.prm

>  <SCORE>
-39.1656

>  <SCORE.INTER>
-39.1656

>  <SCORE.INTER.CONST>
1

>  <SCORE.INTER.POLAR>
-1.91984

>  <SCORE.INTER.ROT>
0

>  <SCORE.INTER.SOLV>
9.82433

>  <SCORE.INTER.VDW>
-26.5857

>  <SCORE.INTER.norm>
-3.01274

>  <SCORE.INTRA>
0

>  <SCORE.INTRA.DIHEDRAL>
0

>  <SCORE.INTRA.DIHEDRAL.0>
0

>  <SCORE.INTRA.POLAR>
0

>  <SCORE.INTRA.POLAR.0>
0

>  <SCORE.INTRA.REPUL>
0

>  <SCORE.INTRA.REPUL.0>
0

>  <SCORE.INTRA.SOLV>
0

>  <SCORE.INTRA.SOLV.lig_0>
-12.9768

>  <SCORE.INTRA.VDW>
0

>  <SCORE.INTRA.VDW.0>
0

>  <SCORE.INTRA.norm>
0

>  <SCORE.RESTR>
0

>  <SCORE.RESTR.CAVITY>
0

>  <SCORE.RESTR.norm>
0

>  <SCORE.SYSTEM>
0

>  <SCORE.SYSTEM.CONST>
0

>  <SCORE.SYSTEM.DIHEDRAL>
0

>  <SCORE.SYSTEM.SOLV>
0

>  <SCORE.SYSTEM.norm>
0

>  <SCORE.heavy>
13

>  <SCORE.norm>
-3.01274

>  <RMSD>
0.771

$$$$
1eht cryst
 OpenBabel11021811383D
libRbt.so/2013.1/901 2013/11/27
 13 14  0  0  0  0  0  0  0  0999 V2000
   -4.7890   -7.8865   10.6526 C   0  0  0  0  0  0  0  0  0  0  0  0
   -5.2602   -7.0075   11.6237 N   0  0  0  0  0  0  0  0  0  0  0  0
   -5.6571   -7.5273   12.8286 C   0  0  0  0  0  0  0  0  0  0  0  0
   -5.5688   -8.7502   12.9551 O   0  0  0  0  0  0  0  0  0  0  0  0
   -6.1416   -6.7854   13.8761 N   0  0  0  0  0  0  0  0  0  0  0  0
   -6.5354   -7.3334   15.0859 C   0  0  0  0  0  0  0  0  0  0  0  0
   -6.1971   -5.4503   13.6041 C   0  0  0  0  0  0  0  0  0  0  0  0
   -5.8004   -4.9436   12.4005 C   0  0  0  0  0  0  0  0  0  0  0  0
   -5.3003   -5.6864   11.3157 C   0  0  0  0  0  0  0  0  0  0  0  0
   -4.9302   -5.2794   10.2154 O   0  0  0  0  0  0  0  0  0  0  0  0
   -5.9956   -3.5719   12.4867 N   0  0  0  0  0  0  0  0  0  0  0  0
   -6.4933   -3.3439   13.7253 C   0  0  0  0  0  0  0  0  0  0  0  0
   -6.6342   -4.4271   14.4380 N   0  0  0  0  0  0  0  0  0  0  0  0
  1  2  1  0  0  0  0
  2  9  1  0  0  0  0
  2  3  1  0  0  0  0
  3  5  1  0  0  0  0
  3  4  2  0  0  0  0
  5  6  1  0  0  0  0
  5  7  1  0  0  0  0
  7  8  2  0  0  0  0
  7 13  1  0  0  0  0
  8  9  1  0  0  0  0
  8 11  1  0  0  0  0
  9 10  2  0  0  0  0
 11 12  1  0  0  0  0
 12 13  2  0  0  0  0
M  END
>  <CHROM.1>
-5.77769427,-6.04187512,12.68215011,-0.79188890,1.19246967,-0.30064627

>  <Name>
1eht cryst

>  <RI>
0

>  <Rbt.Current_Directory>
/home/itssahil/PROJECTS/Mol_Feturizer/New_Systems/rnas/1eht

>  <Rbt.Executable>
rbdock ($Id: //depot/dev/client3/rdock/2013.1/src/exe/rbdock.cxx#4 $)

>  <Rbt.Library>
libRbt.so (2013.1, Build901 2013/11/27)

>  <Rbt.Parameter_File>
/export/apps/rDock/src/rDock_2013.1_src/data/scripts/dock_solv.prm

>  <Rbt.Receptor>
prm/pocket_docking_3.prm

>  <SCORE>
-39.1668

>  <SCORE.INTER>
-39.1668

>  <SCORE.INTER.CONST>
1

>  <SCORE.INTER.POLAR>
-1.91919

>  <SCORE.INTER.ROT>
0

>  <SCORE.INTER.SOLV>
9.83974

>  <SCORE.INTER.VDW>
-26.5938

>  <SCORE.INTER.norm>
-3.01283

>  <SCORE.INTRA>
0

>  <SCORE.INTRA.DIHEDRAL>
0

>  <SCORE.INTRA.DIHEDRAL.0>
0

>  <SCORE.INTRA.POLAR>
0

>  <SCORE.INTRA.POLAR.0>
0

>  <SCORE.INTRA.REPUL>
0

>  <SCORE.INTRA.REPUL.0>
0

>  <SCORE.INTRA.SOLV>
0

>  <SCORE.INTRA.SOLV.lig_0>
-12.9768

>  <SCORE.INTRA.VDW>
0

>  <SCORE.INTRA.VDW.0>
0

>  <SCORE.INTRA.norm>
0

>  <SCORE.RESTR>
0

>  <SCORE.RESTR.CAVITY>
0

>  <SCORE.RESTR.norm>
0

>  <SCORE.SYSTEM>
0

>  <SCORE.SYSTEM.CONST>
0

>  <SCORE.SYSTEM.DIHEDRAL>
0

>  <SCORE.SYSTEM.SOLV>
0

>  <SCORE.SYSTEM.norm>
0

>  <SCORE.heavy>
13

>  <SCORE.norm>
-3.01283

>  <RMSD>
0.771

$$$$
1eht cryst
 OpenBabel11021811383D
libRbt.so/2013.1/901 2013/11/27
 13 14  0  0  0  0  0  0  0  0999 V2000
   -4.7801   -7.8835   10.6518 C   0  0  0  0  0  0  0  0  0  0  0  0
   -5.2544   -7.0032   11.6202 N   0  0  0  0  0  0  0  0  0  0  0  0
   -5.6526   -7.5211   12.8256 C   0  0  0  0  0  0  0  0  0  0  0  0
   -5.5626   -8.7435   12.9548 O   0  0  0  0  0  0  0  0  0  0  0  0
   -6.1401   -6.7777   13.8706 N   0  0  0  0  0  0  0  0  0  0  0  0
   -6.5352   -7.3237   15.0808 C   0  0  0  0  0  0  0  0  0  0  0  0
   -6.1972   -5.4432   13.5957 C   0  0  0  0  0  0  0  0  0  0  0  0
   -5.7992   -4.9385   12.3917 C   0  0  0  0  0  0  0  0  0  0  0  0
   -5.2960   -5.6828   11.3093 C   0  0  0  0  0  0  0  0  0  0  0  0
   -4.9245   -5.2776   10.2088 O   0  0  0  0  0  0  0  0  0  0  0  0
   -5.9966   -3.5669   12.4746 N   0  0  0  0  0  0  0  0  0  0  0  0
   -6.4969   -3.3371   13.7118 C   0  0  0  0  0  0  0  0  0  0  0  0
   -6.6373   -4.4190   14.4266 N   0  0  0  0  0  0  0  0  0  0  0  0
  1  2  1  0  0  0  0
  2  9  1  0  0  0  0
  2  3  1  0  0  0  0
  3  5  1  0  0  0  0
  3  4  2  0  0  0  0
  5  6  1  0  0  0  0
  5  7  1  0  0  0  0
  7  8  2  0  0  0  0
  7 13  1  0  0  0  0
  8  9  1  0  0  0  0
  8 11  1  0  0  0  0
  9 10  2  0  0  0  0
 11 12  1  0  0  0  0
 12 13  2  0  0  0  0
M  END
>  <CHROM.1>
-5.77523923,-6.03612166,12.67569385,-0.78930891,1.19030812,-0.30517193

>  <Name>
1eht cryst

>  <RI>
224

>  <Rbt.Current_Directory>
/home/itssahil/PROJECTS/Mol_Feturizer/New_Systems/rnas/1eht

>  <Rbt.Executable>
rbdock ($Id: //depot/dev/client3/rdock/2013.1/src/exe/rbdock.cxx#4 $)

>  <Rbt.Library>
libRbt.so (2013.1, Build901 2013/11/27)

>  <Rbt.Parameter_File>
/export/apps/rDock/src/rDock_2013.1_src/data/scripts/dock_solv.prm

>  <Rbt.Receptor>
prm/pocket_docking_7.prm

>  <SCORE>
-39.2007

>  <SCORE.INTER>
-39.2007

>  <SCORE.INTER.CONST>
1

>  <SCORE.INTER.POLAR>
-1.92121

>  <SCORE.INTER.ROT>
0

>  <SCORE.INTER.SOLV>
9.84843

>  <SCORE.INTER.VDW>
-26.6126

>  <SCORE.INTER.norm>
-3.01544

>  <SCORE.INTRA>
0

>  <SCORE.INTRA.DIHEDRAL>
0

>  <SCORE.INTRA.DIHEDRAL.0>
0

>  <SCORE.INTRA.POLAR>
0

>  <SCORE.INTRA.POLAR.0>
0

>  <SCORE.INTRA.REPUL>
0

>  <SCORE.INTRA.REPUL.0>
0

>  <SCORE.INTRA.SOLV>
0

>  <SCORE.INTRA.SOLV.lig_0>
-12.9768

>  <SCORE.INTRA.VDW>
0

>  <SCORE.INTRA.VDW.0>
0

>  <SCORE.INTRA.norm>
0

>  <SCORE.RESTR>
0

>  <SCORE.RESTR.CAVITY>
0

>  <SCORE.RESTR.norm>
0

>  <SCORE.SYSTEM>
0

>  <SCORE.SYSTEM.CONST>
0

>  <SCORE.SYSTEM.DIHEDRAL>
0

>  <SCORE.SYSTEM.SOLV>
0

>  <SCORE.SYSTEM.norm>
0

>  <SCORE.heavy>
13

>  <SCORE.norm>
-3.01544

>  <RMSD>
0.771

$$$$
1eht cryst
 OpenBabel11021811383D
libRbt.so/2013.1/901 2013/11/27
 13 14  0  0  0  0  0  0  0  0999 V2000
   -4.7804   -7.8964   10.6510 C   0  0  0  0  0  0  0  0  0  0  0  0
   -5.2592   -7.0156   11.6166 N   0  0  0  0  0  0  0  0  0  0  0  0
   -5.6598   -7.5324   12.8217 C   0  0  0  0  0  0  0  0  0  0  0  0
   -5.5676   -8.7545   12.9530 O   0  0  0  0  0  0  0  0  0  0  0  0
   -6.1518   -6.7885   13.8642 N   0  0  0  0  0  0  0  0  0  0  0  0
   -6.5492   -7.3335   15.0741 C   0  0  0  0  0  0  0  0  0  0  0  0
   -6.2109   -5.4546   13.5870 C   0  0  0  0  0  0  0  0  0  0  0  0
   -5.8105   -4.9509   12.3834 C   0  0  0  0  0  0  0  0  0  0  0  0
   -5.3027   -5.6958   11.3036 C   0  0  0  0  0  0  0  0  0  0  0  0
   -4.9290   -5.2915   10.2036 O   0  0  0  0  0  0  0  0  0  0  0  0
   -6.0111   -3.5795   12.4637 N   0  0  0  0  0  0  0  0  0  0  0  0
   -6.5153   -3.3489   13.6991 C   0  0  0  0  0  0  0  0  0  0  0  0
   -6.6555   -4.4300   14.4151 N   0  0  0  0  0  0  0  0  0  0  0  0
  1  2  1  0  0  0  0
  2  9  1  0  0  0  0
  2  3  1  0  0  0  0
  3  5  1  0  0  0  0
  3  4  2  0  0  0  0
  5  6  1  0  0  0  0
  5  7  1  0  0  0  0
  7  8  2  0  0  0  0
  7 13  1  0  0  0  0
  8  9  1  0  0  0  0
  8 11  1  0  0  0  0
  9 10  2  0  0  0  0
 11 12  1  0  0  0  0
 12 13  2  0  0  0  0
M  END
>  <CHROM.1>
-5.78510144,-6.04800421,12.66917037,-0.78627679,1.18698014,-0.30952001

>  <Name>
1eht cryst

>  <RI>
0

>  <Rbt.Current_Directory>
/home/itssahil/PROJECTS/Mol_Feturizer/New_Systems/rnas/1eht

>  <Rbt.Executable>
rbdock ($Id: //depot/dev/client3/rdock/2013.1/src/exe/rbdock.cxx#4 $)

>  <Rbt.Library>
libRbt.so (2013.1, Build901 2013/11/27)

>  <Rbt.Parameter_File>
/export/apps/rDock/src/rDock_2013.1_src/data/scripts/dock_solv.prm

>  <Rbt.Receptor>
prm/pocket_docking_8.prm

>  <SCORE>
-39.1698

>  <SCORE.INTER>
-39.1698

>  <SCORE.INTER.CONST>
1

>  <SCORE.INTER.POLAR>
-1.93488

>  <SCORE.INTER.ROT>
0

>  <SCORE.INTER.SOLV>
9.8179

>  <SCORE.INTER.VDW>
-26.5362

>  <SCORE.INTER.norm>
-3.01306

>  <SCORE.INTRA>
0

>  <SCORE.INTRA.DIHEDRAL>
0

>  <SCORE.INTRA.DIHEDRAL.0>
0

>  <SCORE.INTRA.POLAR>
0

>  <SCORE.INTRA.POLAR.0>
0

>  <SCORE.INTRA.REPUL>
0

>  <SCORE.INTRA.REPUL.0>
0

>  <SCORE.INTRA.SOLV>
0

>  <SCORE.INTRA.SOLV.lig_0>
-12.9768

>  <SCORE.INTRA.VDW>
0

>  <SCORE.INTRA.VDW.0>
0

>  <SCORE.INTRA.norm>
0

>  <SCORE.RESTR>
0

>  <SCORE.RESTR.CAVITY>
0

>  <SCORE.RESTR.norm>
0

>  <SCORE.SYSTEM>
0

>  <SCORE.SYSTEM.CONST>
0

>  <SCORE.SYSTEM.DIHEDRAL>
0

>  <SCORE.SYSTEM.SOLV>
0

>  <SCORE.SYSTEM.norm>
0

>  <SCORE.heavy>
13

>  <SCORE.norm>
-3.01306

>  <RMSD>
0.771

$$$$
1eht cryst
 OpenBabel11021811383D
libRbt.so/2013.1/901 2013/11/27
 13 14  0  0  0  0  0  0  0  0999 V2000
   -4.7670   -7.8798   10.6569 C   0  0  0  0  0  0  0  0  0  0  0  0
   -5.2490   -7.0008   11.6226 N   0  0  0  0  0  0  0  0  0  0  0  0
   -5.6517   -7.5197   12.8261 C   0  0  0  0  0  0  0  0  0  0  0  0
   -5.5584   -8.7419   12.9560 O   0  0  0  0  0  0  0  0  0  0  0  0
   -6.1469   -6.7777   13.8684 N   0  0  0  0  0  0  0  0  0  0  0  0
   -6.5464   -7.3248   15.0767 C   0  0  0  0  0  0  0  0  0  0  0  0
   -6.2069   -5.4435   13.5930 C   0  0  0  0  0  0  0  0  0  0  0  0
   -5.8044   -4.9378   12.3909 C   0  0  0  0  0  0  0  0  0  0  0  0
   -5.2933   -5.6806   11.3113 C   0  0  0  0  0  0  0  0  0  0  0  0
   -4.9175   -5.2744   10.2126 O   0  0  0  0  0  0  0  0  0  0  0  0
   -6.0067   -3.5667   12.4726 N   0  0  0  0  0  0  0  0  0  0  0  0
   -6.5139   -3.3383   13.7072 C   0  0  0  0  0  0  0  0  0  0  0  0
   -6.6546   -4.4205   14.4215 N   0  0  0  0  0  0  0  0  0  0  0  0
  1  2  1  0  0  0  0
  2  9  1  0  0  0  0
  2  3  1  0  0  0  0
  3  5  1  0  0  0  0
  3  4  2  0  0  0  0
  5  6  1  0  0  0  0
  5  7  1  0  0  0  0
  7  8  2  0  0  0  0
  7 13  1  0  0  0  0
  8  9  1  0  0  0  0
  8 11  1  0  0  0  0
  9 10  2  0  0  0  0
 11 12  1  0  0  0  0
 12 13  2  0  0  0  0
M  END
>  <CHROM.1>
-5.77836298,-6.03521691,12.67528318,-0.78520043,1.18447825,-0.30917519

>  <Name>
1eht cryst

>  <RI>
0

>  <Rbt.Current_Directory>
/home/itssahil/PROJECTS/Mol_Feturizer/New_Systems/rnas/1eht

>  <Rbt.Executable>
rbdock ($Id: //depot/dev/client3/rdock/2013.1/src/exe/rbdock.cxx#4 $)

>  <Rbt.Library>
libRbt.so (2013.1, Build901 2013/11/27)

>  <Rbt.Parameter_File>
/export/apps/rDock/src/rDock_2013.1_src/data/scripts/dock_solv.prm

>  <Rbt.Receptor>
prm/pocket_docking_4.prm

>  <SCORE>
-39.2089

>  <SCORE.INTER>
-39.2089

>  <SCORE.INTER.CONST>
1

>  <SCORE.INTER.POLAR>
-1.92497

>  <SCORE.INTER.ROT>
0

>  <SCORE.INTER.SOLV>
9.8504

>  <SCORE.INTER.VDW>
-26.6062

>  <SCORE.INTER.norm>
-3.01607

>  <SCORE.INTRA>
0

>  <SCORE.INTRA.DIHEDRAL>
0

>  <SCORE.INTRA.DIHEDRAL.0>
0

>  <SCORE.INTRA.POLAR>
0

>  <SCORE.INTRA.POLAR.0>
0

>  <SCORE.INTRA.REPUL>
0

>  <SCORE.INTRA.REPUL.0>
0

>  <SCORE.INTRA.SOLV>
0

>  <SCORE.INTRA.SOLV.lig_0>
-12.9768

>  <SCORE.INTRA.VDW>
0

>  <SCORE.INTRA.VDW.0>
0

>  <SCORE.INTRA.norm>
0

>  <SCORE.RESTR>
0

>  <SCORE.RESTR.CAVITY>
0

>  <SCORE.RESTR.norm>
0

>  <SCORE.SYSTEM>
0

>  <SCORE.SYSTEM.CONST>
0

>  <SCORE.SYSTEM.DIHEDRAL>
0

>  <SCORE.SYSTEM.SOLV>
0

>  <SCORE.SYSTEM.norm>
0

>  <SCORE.heavy>
13

>  <SCORE.norm>
-3.01607

>  <RMSD>
0.772

$$$$
1eht cryst
 OpenBabel11021811383D
libRbt.so/2013.1/901 2013/11/27
 13 14  0  0  0  0  0  0  0  0999 V2000
   -4.7799   -7.8987   10.6530 C   0  0  0  0  0  0  0  0  0  0  0  0
   -5.2588   -7.0172   11.6180 N   0  0  0  0  0  0  0  0  0  0  0  0
   -5.6560   -7.5327   12.8247 C   0  0  0  0  0  0  0  0  0  0  0  0
   -5.5611   -8.7544   12.9580 O   0  0  0  0  0  0  0  0  0  0  0  0
   -6.1476   -6.7879   13.8668 N   0  0  0  0  0  0  0  0  0  0  0  0
   -6.5416   -7.3316   15.0784 C   0  0  0  0  0  0  0  0  0  0  0  0
   -6.2100   -5.4547   13.5875 C   0  0  0  0  0  0  0  0  0  0  0  0
   -5.8129   -4.9523   12.3822 C   0  0  0  0  0  0  0  0  0  0  0  0
   -5.3056   -5.6980   11.3028 C   0  0  0  0  0  0  0  0  0  0  0  0
   -4.9347   -5.2948   10.2013 O   0  0  0  0  0  0  0  0  0  0  0  0
   -6.0161   -3.5812   12.4604 N   0  0  0  0  0  0  0  0  0  0  0  0
   -6.5185   -3.3494   13.6964 C   0  0  0  0  0  0  0  0  0  0  0  0
   -6.6552   -4.4295   14.4146 N   0  0  0  0  0  0  0  0  0  0  0  0
  1  2  1  0  0  0  0
  2  9  1  0  0  0  0
  2  3  1  0  0  0  0
  3  5  1  0  0  0  0
  3  4  2  0  0  0  0
  5  6  1  0  0  0  0
  5  7  1  0  0  0  0
  7  8  2  0  0  0  0
  7 13  1  0  0  0  0
  8  9  1  0  0  0  0
  8 11  1  0  0  0  0
  9 10  2  0  0  0  0
 11 12  1  0  0  0  0
 12 13  2  0  0  0  0
M  END
>  <CHROM.1>
-5.78469605,-6.04881882,12.66984459,-0.77948878,1.18811334,-0.31757044

>  <Name>
1eht cryst

>  <RI>
0

>  <Rbt.Current_Directory>
/home/itssahil/PROJECTS/Mol_Feturizer/New_Systems/rnas/1eht

>  <Rbt.Executable>
rbdock ($Id: //depot/dev/client3/rdock/2013.1/src/exe/rbdock.cxx#4 $)

>  <Rbt.Library>
libRbt.so (2013.1, Build901 2013/11/27)

>  <Rbt.Parameter_File>
/export/apps/rDock/src/rDock_2013.1_src/data/scripts/dock_solv.prm

>  <Rbt.Receptor>
prm/pocket_docking_8.prm

>  <SCORE>
-39.1935

>  <SCORE.INTER>
-39.1935

>  <SCORE.INTER.CONST>
1

>  <SCORE.INTER.POLAR>
-1.93241

>  <SCORE.INTER.ROT>
0

>  <SCORE.INTER.SOLV>
9.80976

>  <SCORE.INTER.VDW>
-26.5575

>  <SCORE.INTER.norm>
-3.01489

>  <SCORE.INTRA>
0

>  <SCORE.INTRA.DIHEDRAL>
0

>  <SCORE.INTRA.DIHEDRAL.0>
0

>  <SCORE.INTRA.POLAR>
0

>  <SCORE.INTRA.POLAR.0>
0

>  <SCORE.INTRA.REPUL>
0

>  <SCORE.INTRA.REPUL.0>
0

>  <SCORE.INTRA.SOLV>
0

>  <SCORE.INTRA.SOLV.lig_0>
-12.9768

>  <SCORE.INTRA.VDW>
0

>  <SCORE.INTRA.VDW.0>
0

>  <SCORE.INTRA.norm>
0

>  <SCORE.RESTR>
0

>  <SCORE.RESTR.CAVITY>
0

>  <SCORE.RESTR.norm>
0

>  <SCORE.SYSTEM>
0

>  <SCORE.SYSTEM.CONST>
0

>  <SCORE.SYSTEM.DIHEDRAL>
0

>  <SCORE.SYSTEM.SOLV>
0

>  <SCORE.SYSTEM.norm>
0

>  <SCORE.heavy>
13

>  <SCORE.norm>
-3.01489

>  <RMSD>
0.772

$$$$
1eht cryst
 OpenBabel11021811383D
libRbt.so/2013.1/901 2013/11/27
 13 14  0  0  0  0  0  0  0  0999 V2000
   -4.7806   -7.9006   10.6538 C   0  0  0  0  0  0  0  0  0  0  0  0
   -5.2596   -7.0182   11.6179 N   0  0  0  0  0  0  0  0  0  0  0  0
   -5.6569   -7.5326   12.8250 C   0  0  0  0  0  0  0  0  0  0  0  0
   -5.5619   -8.7541   12.9596 O   0  0  0  0  0  0  0  0  0  0  0  0
   -6.1487   -6.7869   13.8664 N   0  0  0  0  0  0  0  0  0  0  0  0
   -6.5427   -7.3295   15.0785 C   0  0  0  0  0  0  0  0  0  0  0  0
   -6.2112   -5.4539   13.5857 C   0  0  0  0  0  0  0  0  0  0  0  0
   -5.8141   -4.9526   12.3800 C   0  0  0  0  0  0  0  0  0  0  0  0
   -5.3066   -5.6993   11.3013 C   0  0  0  0  0  0  0  0  0  0  0  0
   -4.9357   -5.2972   10.1995 O   0  0  0  0  0  0  0  0  0  0  0  0
   -6.0175   -3.5815   12.4569 N   0  0  0  0  0  0  0  0  0  0  0  0
   -6.5200   -3.3486   13.6926 C   0  0  0  0  0  0  0  0  0  0  0  0
   -6.6566   -4.4280   14.4119 N   0  0  0  0  0  0  0  0  0  0  0  0
  1  2  1  0  0  0  0
  2  9  1  0  0  0  0
  2  3  1  0  0  0  0
  3  5  1  0  0  0  0
  3  4  2  0  0  0  0
  5  6  1  0  0  0  0
  5  7  1  0  0  0  0
  7  8  2  0  0  0  0
  7 13  1  0  0  0  0
  8  9  1  0  0  0  0
  8 11  1  0  0  0  0
  9 10  2  0  0  0  0
 11 12  1  0  0  0  0
 12 13  2  0  0  0  0
M  END
>  <CHROM.1>
-5.78576270,-6.04887855,12.66873857,-0.77922214,1.18801225,-0.31877740

>  <Name>
1eht cryst

>  <RI>
0

>  <Rbt.Current_Directory>
/home/itssahil/PROJECTS/Mol_Feturizer/New_Systems/rnas/1eht

>  <Rbt.Executable>
rbdock ($Id: //depot/dev/client3/rdock/2013.1/src/exe/rbdock.cxx#4 $)

>  <Rbt.Library>
libRbt.so (2013.1, Build901 2013/11/27)

>  <Rbt.Parameter_File>
/export/apps/rDock/src/rDock_2013.1_src/data/scripts/dock_solv.prm

>  <Rbt.Receptor>
prm/pocket_docking_5.prm

>  <SCORE>
-39.1887

>  <SCORE.INTER>
-39.1887

>  <SCORE.INTER.CONST>
1

>  <SCORE.INTER.POLAR>
-1.93353

>  <SCORE.INTER.ROT>
0

>  <SCORE.INTER.SOLV>
9.80758

>  <SCORE.INTER.VDW>
-26.5499

>  <SCORE.INTER.norm>
-3.01452

>  <SCORE.INTRA>
0

>  <SCORE.INTRA.DIHEDRAL>
0

>  <SCORE.INTRA.DIHEDRAL.0>
0

>  <SCORE.INTRA.POLAR>
0

>  <SCORE.INTRA.POLAR.0>
0

>  <SCORE.INTRA.REPUL>
0

>  <SCORE.INTRA.REPUL.0>
0

>  <SCORE.INTRA.SOLV>
0

>  <SCORE.INTRA.SOLV.lig_0>
-12.9768

>  <SCORE.INTRA.VDW>
0

>  <SCORE.INTRA.VDW.0>
0

>  <SCORE.INTRA.norm>
0

>  <SCORE.RESTR>
0

>  <SCORE.RESTR.CAVITY>
0

>  <SCORE.RESTR.norm>
0

>  <SCORE.SYSTEM>
0

>  <SCORE.SYSTEM.CONST>
0

>  <SCORE.SYSTEM.DIHEDRAL>
0

>  <SCORE.SYSTEM.SOLV>
0

>  <SCORE.SYSTEM.norm>
0

>  <SCORE.heavy>
13

>  <SCORE.norm>
-3.01452

>  <RMSD>
0.773

$$$$
1eht cryst
 OpenBabel11021811383D
libRbt.so/2013.1/901 2013/11/27
 13 14  0  0  0  0  0  0  0  0999 V2000
   -4.7855   -7.8976   10.6530 C   0  0  0  0  0  0  0  0  0  0  0  0
   -5.2592   -7.0150   11.6194 N   0  0  0  0  0  0  0  0  0  0  0  0
   -5.6528   -7.5293   12.8279 C   0  0  0  0  0  0  0  0  0  0  0  0
   -5.5593   -8.7511   12.9613 O   0  0  0  0  0  0  0  0  0  0  0  0
   -6.1392   -6.7833   13.8715 N   0  0  0  0  0  0  0  0  0  0  0  0
   -6.5295   -7.3259   15.0848 C   0  0  0  0  0  0  0  0  0  0  0  0
   -6.2005   -5.4501   13.5918 C   0  0  0  0  0  0  0  0  0  0  0  0
   -5.8072   -4.9488   12.3848 C   0  0  0  0  0  0  0  0  0  0  0  0
   -5.3051   -5.6958   11.3038 C   0  0  0  0  0  0  0  0  0  0  0  0
   -4.9378   -5.2937   10.2008 O   0  0  0  0  0  0  0  0  0  0  0  0
   -6.0079   -3.5774   12.4633 N   0  0  0  0  0  0  0  0  0  0  0  0
   -6.5052   -3.3443   13.7010 C   0  0  0  0  0  0  0  0  0  0  0  0
   -6.6409   -4.4239   14.4202 N   0  0  0  0  0  0  0  0  0  0  0  0
  1  2  1  0  0  0  0
  2  9  1  0  0  0  0
  2  3  1  0  0  0  0
  3  5  1  0  0  0  0
  3  4  2  0  0  0  0
  5  6  1  0  0  0  0
  5  7  1  0  0  0  0
  7  8  2  0  0  0  0
  7 13  1  0  0  0  0
  8  9  1  0  0  0  0
  8 11  1  0  0  0  0
  9 10  2  0  0  0  0
 11 12  1  0  0  0  0
 12 13  2  0  0  0  0
M  END
>  <CHROM.1>
-5.77963925,-6.04528584,12.67284711,-0.78042879,1.19220477,-0.31711256

>  <Name>
1eht cryst

>  <RI>
0

>  <Rbt.Current_Directory>
/home/itssahil/PROJECTS/Mol_Feturizer/New_Systems/rnas/1eht

>  <Rbt.Executable>
rbdock ($Id: //depot/dev/client3/rdock/2013.1/src/exe/rbdock.cxx#4 $)

>  <Rbt.Library>
libRbt.so (2013.1, Build901 2013/11/27)

>  <Rbt.Parameter_File>
/export/apps/rDock/src/rDock_2013.1_src/data/scripts/dock_solv.prm

>  <Rbt.Receptor>
prm/pocket_docking_5.prm

>  <SCORE>
-39.1797

>  <SCORE.INTER>
-39.1797

>  <SCORE.INTER.CONST>
1

>  <SCORE.INTER.POLAR>
-1.92612

>  <SCORE.INTER.ROT>
0

>  <SCORE.INTER.SOLV>
9.81696

>  <SCORE.INTER.VDW>
-26.5717

>  <SCORE.INTER.norm>
-3.01382

>  <SCORE.INTRA>
0

>  <SCORE.INTRA.DIHEDRAL>
0

>  <SCORE.INTRA.DIHEDRAL.0>
0

>  <SCORE.INTRA.POLAR>
0

>  <SCORE.INTRA.POLAR.0>
0

>  <SCORE.INTRA.REPUL>
0

>  <SCORE.INTRA.REPUL.0>
0

>  <SCORE.INTRA.SOLV>
0

>  <SCORE.INTRA.SOLV.lig_0>
-12.9768

>  <SCORE.INTRA.VDW>
0

>  <SCORE.INTRA.VDW.0>
0

>  <SCORE.INTRA.norm>
0

>  <SCORE.RESTR>
0

>  <SCORE.RESTR.CAVITY>
0

>  <SCORE.RESTR.norm>
0

>  <SCORE.SYSTEM>
0

>  <SCORE.SYSTEM.CONST>
0

>  <SCORE.SYSTEM.DIHEDRAL>
0

>  <SCORE.SYSTEM.SOLV>
0

>  <SCORE.SYSTEM.norm>
0

>  <SCORE.heavy>
13

>  <SCORE.norm>
-3.01382

>  <RMSD>
0.773

$$$$
1eht cryst
 OpenBabel11021811383D
libRbt.so/2013.1/901 2013/11/27
 13 14  0  0  0  0  0  0  0  0999 V2000
   -4.7917   -7.9005   10.6521 C   0  0  0  0  0  0  0  0  0  0  0  0
   -5.2638   -7.0172   11.6187 N   0  0  0  0  0  0  0  0  0  0  0  0
   -5.6563   -7.5308   12.8278 C   0  0  0  0  0  0  0  0  0  0  0  0
   -5.5635   -8.7525   12.9617 O   0  0  0  0  0  0  0  0  0  0  0  0
   -6.1411   -6.7840   13.8717 N   0  0  0  0  0  0  0  0  0  0  0  0
   -6.5304   -7.3258   15.0857 C   0  0  0  0  0  0  0  0  0  0  0  0
   -6.2018   -5.4508   13.5915 C   0  0  0  0  0  0  0  0  0  0  0  0
   -5.8095   -4.9503   12.3839 C   0  0  0  0  0  0  0  0  0  0  0  0
   -5.3092   -5.6981   11.3026 C   0  0  0  0  0  0  0  0  0  0  0  0
   -4.9428   -5.2967   10.1990 O   0  0  0  0  0  0  0  0  0  0  0  0
   -6.0092   -3.5787   12.4620 N   0  0  0  0  0  0  0  0  0  0  0  0
   -6.5050   -3.3448   13.7002 C   0  0  0  0  0  0  0  0  0  0  0  0
   -6.6406   -4.4240   14.4200 N   0  0  0  0  0  0  0  0  0  0  0  0
  1  2  1  0  0  0  0
  2  9  1  0  0  0  0
  2  3  1  0  0  0  0
  3  5  1  0  0  0  0
  3  4  2  0  0  0  0
  5  6  1  0  0  0  0
  5  7  1  0  0  0  0
  7  8  2  0  0  0  0
  7 13  1  0  0  0  0
  8  9  1  0  0  0  0
  8 11  1  0  0  0  0
  9 10  2  0  0  0  0
 11 12  1  0  0  0  0
 12 13  2  0  0  0  0
M  END
>  <CHROM.1>
-5.78238120,-6.04670400,12.67232315,-0.78117751,1.19349408,-0.31682448

>  <Name>
1eht cryst

>  <RI>
0

>  <Rbt.Current_Directory>
/home/itssahil/PROJECTS/Mol_Feturizer/New_Systems/rnas/1eht

>  <Rbt.Executable>
rbdock ($Id: //depot/dev/client3/rdock/2013.1/src/exe/rbdock.cxx#4 $)

>  <Rbt.Library>
libRbt.so (2013.1, Build901 2013/11/27)

>  <Rbt.Parameter_File>
/export/apps/rDock/src/rDock_2013.1_src/data/scripts/dock_solv.prm

>  <Rbt.Receptor>
prm/pocket_docking_8.prm

>  <SCORE>
-39.1743

>  <SCORE.INTER>
-39.1743

>  <SCORE.INTER.CONST>
1

>  <SCORE.INTER.POLAR>
-1.92615

>  <SCORE.INTER.ROT>
0

>  <SCORE.INTER.SOLV>
9.81199

>  <SCORE.INTER.VDW>
-26.5664

>  <SCORE.INTER.norm>
-3.01341

>  <SCORE.INTRA>
0

>  <SCORE.INTRA.DIHEDRAL>
0

>  <SCORE.INTRA.DIHEDRAL.0>
0

>  <SCORE.INTRA.POLAR>
0

>  <SCORE.INTRA.POLAR.0>
0

>  <SCORE.INTRA.REPUL>
0

>  <SCORE.INTRA.REPUL.0>
0

>  <SCORE.INTRA.SOLV>
0

>  <SCORE.INTRA.SOLV.lig_0>
-12.9768

>  <SCORE.INTRA.VDW>
0

>  <SCORE.INTRA.VDW.0>
0

>  <SCORE.INTRA.norm>
0

>  <SCORE.RESTR>
0

>  <SCORE.RESTR.CAVITY>
0

>  <SCORE.RESTR.norm>
0

>  <SCORE.SYSTEM>
0

>  <SCORE.SYSTEM.CONST>
0

>  <SCORE.SYSTEM.DIHEDRAL>
0

>  <SCORE.SYSTEM.SOLV>
0

>  <SCORE.SYSTEM.norm>
0

>  <SCORE.heavy>
13

>  <SCORE.norm>
-3.01341

>  <RMSD>
0.773

$$$$
1eht cryst
 OpenBabel11021811383D
libRbt.so/2013.1/901 2013/11/27
 13 14  0  0  0  0  0  0  0  0999 V2000
   -4.7806   -7.8909   10.6594 C   0  0  0  0  0  0  0  0  0  0  0  0
   -5.2592   -7.0091   11.6242 N   0  0  0  0  0  0  0  0  0  0  0  0
   -5.6614   -7.5248   12.8292 C   0  0  0  0  0  0  0  0  0  0  0  0
   -5.5708   -8.7469   12.9613 O   0  0  0  0  0  0  0  0  0  0  0  0
   -6.1534   -6.7797   13.8709 N   0  0  0  0  0  0  0  0  0  0  0  0
   -6.5524   -7.3236   15.0807 C   0  0  0  0  0  0  0  0  0  0  0  0
   -6.2106   -5.4459   13.5930 C   0  0  0  0  0  0  0  0  0  0  0  0
   -5.8087   -4.9433   12.3894 C   0  0  0  0  0  0  0  0  0  0  0  0
   -5.3008   -5.6894   11.3104 C   0  0  0  0  0  0  0  0  0  0  0  0
   -4.9257   -5.2861   10.2105 O   0  0  0  0  0  0  0  0  0  0  0  0
   -6.0076   -3.5717   12.4688 N   0  0  0  0  0  0  0  0  0  0  0  0
   -6.5126   -3.3398   13.7037 C   0  0  0  0  0  0  0  0  0  0  0  0
   -6.6547   -4.4203   14.4202 N   0  0  0  0  0  0  0  0  0  0  0  0
  1  2  1  0  0  0  0
  2  9  1  0  0  0  0
  2  3  1  0  0  0  0
  3  5  1  0  0  0  0
  3  4  2  0  0  0  0
  5  6  1  0  0  0  0
  5  7  1  0  0  0  0
  7  8  2  0  0  0  0
  7 13  1  0  0  0  0
  8  9  1  0  0  0  0
  8 11  1  0  0  0  0
  9 10  2  0  0  0  0
 11 12  1  0  0  0  0
 12 13  2  0  0  0  0
M  END
>  <CHROM.1>
-5.78478699,-6.04029815,12.67579946,-0.78998665,1.18654377,-0.30660237

>  <Name>
1eht cryst

>  <RI>
0

>  <Rbt.Current_Directory>
/home/itssahil/PROJECTS/Mol_Feturizer/New_Systems/rnas/1eht

>  <Rbt.Executable>
rbdock ($Id: //depot/dev/client3/rdock/2013.1/src/exe/rbdock.cxx#4 $)

>  <Rbt.Library>
libRbt.so (2013.1, Build901 2013/11/27)

>  <Rbt.Parameter_File>
/export/apps/rDock/src/rDock_2013.1_src/data/scripts/dock_solv.prm

>  <Rbt.Receptor>
prm/blind_docking_100.prm

>  <SCORE>
-39.1769

>  <SCORE.INTER>
-39.1769

>  <SCORE.INTER.CONST>
1

>  <SCORE.INTER.POLAR>
-1.92834

>  <SCORE.INTER.ROT>
0

>  <SCORE.INTER.SOLV>
9.83622

>  <SCORE.INTER.VDW>
-26.5689

>  <SCORE.INTER.norm>
-3.01361

>  <SCORE.INTRA>
0

>  <SCORE.INTRA.DIHEDRAL>
0

>  <SCORE.INTRA.DIHEDRAL.0>
0

>  <SCORE.INTRA.POLAR>
0

>  <SCORE.INTRA.POLAR.0>
0

>  <SCORE.INTRA.REPUL>
0

>  <SCORE.INTRA.REPUL.0>
0

>  <SCORE.INTRA.SOLV>
0

>  <SCORE.INTRA.SOLV.lig_0>
-12.9768

>  <SCORE.INTRA.VDW>
0

>  <SCORE.INTRA.VDW.0>
0

>  <SCORE.INTRA.norm>
0

>  <SCORE.RESTR>
0

>  <SCORE.RESTR.CAVITY>
0

>  <SCORE.RESTR.norm>
0

>  <SCORE.SYSTEM>
0

>  <SCORE.SYSTEM.CONST>
0

>  <SCORE.SYSTEM.DIHEDRAL>
0

>  <SCORE.SYSTEM.SOLV>
0

>  <SCORE.SYSTEM.norm>
0

>  <SCORE.heavy>
13

>  <SCORE.norm>
-3.01361

>  <RMSD>
0.776

$$$$
1eht cryst
 OpenBabel11021811383D
libRbt.so/2013.1/901 2013/11/27
 13 14  0  0  0  0  0  0  0  0999 V2000
   -4.8001   -7.9090   10.6550 C   0  0  0  0  0  0  0  0  0  0  0  0
   -5.2702   -7.0240   11.6210 N   0  0  0  0  0  0  0  0  0  0  0  0
   -5.6613   -7.5356   12.8314 C   0  0  0  0  0  0  0  0  0  0  0  0
   -5.5691   -8.7573   12.9668 O   0  0  0  0  0  0  0  0  0  0  0  0
   -6.1440   -6.7871   13.8749 N   0  0  0  0  0  0  0  0  0  0  0  0
   -6.5319   -7.3269   15.0902 C   0  0  0  0  0  0  0  0  0  0  0  0
   -6.2043   -5.4543   13.5930 C   0  0  0  0  0  0  0  0  0  0  0  0
   -5.8134   -4.9557   12.3841 C   0  0  0  0  0  0  0  0  0  0  0  0
   -5.3151   -5.7053   11.3031 C   0  0  0  0  0  0  0  0  0  0  0  0
   -4.9501   -5.3057   10.1984 O   0  0  0  0  0  0  0  0  0  0  0  0
   -6.0121   -3.5838   12.4606 N   0  0  0  0  0  0  0  0  0  0  0  0
   -6.5059   -3.3479   13.6992 C   0  0  0  0  0  0  0  0  0  0  0  0
   -6.6412   -4.4260   14.4207 N   0  0  0  0  0  0  0  0  0  0  0  0
  1  2  1  0  0  0  0
  2  9  1  0  0  0  0
  2  3  1  0  0  0  0
  3  5  1  0  0  0  0
  3  4  2  0  0  0  0
  5  6  1  0  0  0  0
  5  7  1  0  0  0  0
  7  8  2  0  0  0  0
  7 13  1  0  0  0  0
  8  9  1  0  0  0  0
  8 11  1  0  0  0  0
  9 10  2  0  0  0  0
 11 12  1  0  0  0  0
 12 13  2  0  0  0  0
M  END
>  <CHROM.1>
-5.78656422,-6.05169366,12.67400776,-0.78166638,1.19508858,-0.31776983

>  <Name>
1eht cryst

>  <RI>
0

>  <Rbt.Current_Directory>
/home/itssahil/PROJECTS/Mol_Feturizer/New_Systems/rnas/1eht

>  <Rbt.Executable>
rbdock ($Id: //depot/dev/client3/rdock/2013.1/src/exe/rbdock.cxx#4 $)

>  <Rbt.Library>
libRbt.so (2013.1, Build901 2013/11/27)

>  <Rbt.Parameter_File>
/export/apps/rDock/src/rDock_2013.1_src/data/scripts/dock_solv.prm

>  <Rbt.Receptor>
prm/blind_docking_100.prm

>  <SCORE>
-39.1682

>  <SCORE.INTER>
-39.1682

>  <SCORE.INTER.CONST>
1

>  <SCORE.INTER.POLAR>
-1.92714

>  <SCORE.INTER.ROT>
0

>  <SCORE.INTER.SOLV>
9.79793

>  <SCORE.INTER.VDW>
-26.5543

>  <SCORE.INTER.norm>
-3.01294

>  <SCORE.INTRA>
0

>  <SCORE.INTRA.DIHEDRAL>
0

>  <SCORE.INTRA.DIHEDRAL.0>
0

>  <SCORE.INTRA.POLAR>
0

>  <SCORE.INTRA.POLAR.0>
0

>  <SCORE.INTRA.REPUL>
0

>  <SCORE.INTRA.REPUL.0>
0

>  <SCORE.INTRA.SOLV>
0

>  <SCORE.INTRA.SOLV.lig_0>
-12.9768

>  <SCORE.INTRA.VDW>
0

>  <SCORE.INTRA.VDW.0>
0

>  <SCORE.INTRA.norm>
0

>  <SCORE.RESTR>
0

>  <SCORE.RESTR.CAVITY>
0

>  <SCORE.RESTR.norm>
0

>  <SCORE.SYSTEM>
0

>  <SCORE.SYSTEM.CONST>
0

>  <SCORE.SYSTEM.DIHEDRAL>
0

>  <SCORE.SYSTEM.SOLV>
0

>  <SCORE.SYSTEM.norm>
0

>  <SCORE.heavy>
13

>  <SCORE.norm>
-3.01294

>  <RMSD>
0.776

$$$$
1eht cryst
 OpenBabel11021811383D
libRbt.so/2013.1/901 2013/11/27
 13 14  0  0  0  0  0  0  0  0999 V2000
   -4.8429   -7.9198   10.6420 C   0  0  0  0  0  0  0  0  0  0  0  0
   -5.3006   -7.0296   11.6092 N   0  0  0  0  0  0  0  0  0  0  0  0
   -5.6842   -7.5357   12.8243 C   0  0  0  0  0  0  0  0  0  0  0  0
   -5.5969   -8.7573   12.9627 O   0  0  0  0  0  0  0  0  0  0  0  0
   -6.1546   -6.7816   13.8695 N   0  0  0  0  0  0  0  0  0  0  0  0
   -6.5351   -7.3159   15.0896 C   0  0  0  0  0  0  0  0  0  0  0  0
   -6.2106   -5.4494   13.5840 C   0  0  0  0  0  0  0  0  0  0  0  0
   -5.8274   -4.9564   12.3704 C   0  0  0  0  0  0  0  0  0  0  0  0
   -5.3417   -5.7117   11.2877 C   0  0  0  0  0  0  0  0  0  0  0  0
   -4.9839   -5.3172   10.1788 O   0  0  0  0  0  0  0  0  0  0  0  0
   -6.0187   -3.5833   12.4443 N   0  0  0  0  0  0  0  0  0  0  0  0
   -6.5011   -3.3412   13.6862 C   0  0  0  0  0  0  0  0  0  0  0  0
   -6.6356   -4.4164   14.4121 N   0  0  0  0  0  0  0  0  0  0  0  0
  1  2  1  0  0  0  0
  2  9  1  0  0  0  0
  2  3  1  0  0  0  0
  3  5  1  0  0  0  0
  3  4  2  0  0  0  0
  5  6  1  0  0  0  0
  5  7  1  0  0  0  0
  7  8  2  0  0  0  0
  7 13  1  0  0  0  0
  8  9  1  0  0  0  0
  8 11  1  0  0  0  0
  9 10  2  0  0  0  0
 11 12  1  0  0  0  0
 12 13  2  0  0  0  0
M  END
>  <CHROM.1>
-5.80348630,-6.05159600,12.66344196,-0.78746269,1.20446551,-0.31539951

>  <Name>
1eht cryst

>  <RI>
224

>  <Rbt.Current_Directory>
/home/itssahil/PROJECTS/Mol_Feturizer/New_Systems/rnas/1eht

>  <Rbt.Executable>
rbdock ($Id: //depot/dev/client3/rdock/2013.1/src/exe/rbdock.cxx#4 $)

>  <Rbt.Library>
libRbt.so (2013.1, Build901 2013/11/27)

>  <Rbt.Parameter_File>
/export/apps/rDock/src/rDock_2013.1_src/data/scripts/dock_solv.prm

>  <Rbt.Receptor>
prm/pocket_docking_7.prm

>  <SCORE>
-39.1141

>  <SCORE.INTER>
-39.1141

>  <SCORE.INTER.CONST>
1

>  <SCORE.INTER.POLAR>
-1.92414

>  <SCORE.INTER.ROT>
0

>  <SCORE.INTER.SOLV>
9.78359

>  <SCORE.INTER.VDW>
-26.5234

>  <SCORE.INTER.norm>
-3.00877

>  <SCORE.INTRA>
0

>  <SCORE.INTRA.DIHEDRAL>
0

>  <SCORE.INTRA.DIHEDRAL.0>
0

>  <SCORE.INTRA.POLAR>
0

>  <SCORE.INTRA.POLAR.0>
0

>  <SCORE.INTRA.REPUL>
0

>  <SCORE.INTRA.REPUL.0>
0

>  <SCORE.INTRA.SOLV>
0

>  <SCORE.INTRA.SOLV.lig_0>
-12.9768

>  <SCORE.INTRA.VDW>
0

>  <SCORE.INTRA.VDW.0>
0

>  <SCORE.INTRA.norm>
0

>  <SCORE.RESTR>
0

>  <SCORE.RESTR.CAVITY>
0

>  <SCORE.RESTR.norm>
0

>  <SCORE.SYSTEM>
0

>  <SCORE.SYSTEM.CONST>
0

>  <SCORE.SYSTEM.DIHEDRAL>
0

>  <SCORE.SYSTEM.SOLV>
0

>  <SCORE.SYSTEM.norm>
0

>  <SCORE.heavy>
13

>  <SCORE.norm>
-3.00877

>  <RMSD>
0.777

$$$$
1eht cryst
 OpenBabel11021811383D
libRbt.so/2013.1/901 2013/11/27
 13 14  0  0  0  0  0  0  0  0999 V2000
   -4.7710   -7.9062   10.6657 C   0  0  0  0  0  0  0  0  0  0  0  0
   -5.2524   -7.0231   11.6280 N   0  0  0  0  0  0  0  0  0  0  0  0
   -5.6504   -7.5363   12.8354 C   0  0  0  0  0  0  0  0  0  0  0  0
   -5.5539   -8.7575   12.9718 O   0  0  0  0  0  0  0  0  0  0  0  0
   -6.1443   -6.7898   13.8751 N   0  0  0  0  0  0  0  0  0  0  0  0
   -6.5390   -7.3311   15.0876 C   0  0  0  0  0  0  0  0  0  0  0  0
   -6.2082   -5.4572   13.5926 C   0  0  0  0  0  0  0  0  0  0  0  0
   -5.8104   -4.9571   12.3866 C   0  0  0  0  0  0  0  0  0  0  0  0
   -5.3006   -5.7047   11.3096 C   0  0  0  0  0  0  0  0  0  0  0  0
   -4.9290   -5.3036   10.2076 O   0  0  0  0  0  0  0  0  0  0  0  0
   -6.0156   -3.5861   12.4613 N   0  0  0  0  0  0  0  0  0  0  0  0
   -6.5199   -3.3522   13.6961 C   0  0  0  0  0  0  0  0  0  0  0  0
   -6.6559   -4.4308   14.4167 N   0  0  0  0  0  0  0  0  0  0  0  0
  1  2  1  0  0  0  0
  2  9  1  0  0  0  0
  2  3  1  0  0  0  0
  3  5  1  0  0  0  0
  3  4  2  0  0  0  0
  5  6  1  0  0  0  0
  5  7  1  0  0  0  0
  7  8  2  0  0  0  0
  7 13  1  0  0  0  0
  8  9  1  0  0  0  0
  8 11  1  0  0  0  0
  9 10  2  0  0  0  0
 11 12  1  0  0  0  0
 12 13  2  0  0  0  0
M  END
>  <CHROM.1>
-5.78094951,-6.05295696,12.67687946,-0.77693526,1.18649206,-0.32230327

>  <Name>
1eht cryst

>  <RI>
0

>  <Rbt.Current_Directory>
/home/itssahil/PROJECTS/Mol_Feturizer/New_Systems/rnas/1eht

>  <Rbt.Executable>
rbdock ($Id: //depot/dev/client3/rdock/2013.1/src/exe/rbdock.cxx#4 $)

>  <Rbt.Library>
libRbt.so (2013.1, Build901 2013/11/27)

>  <Rbt.Parameter_File>
/export/apps/rDock/src/rDock_2013.1_src/data/scripts/dock_solv.prm

>  <Rbt.Receptor>
prm/blind_docking_60.prm

>  <SCORE>
-39.1516

>  <SCORE.INTER>
-39.1516

>  <SCORE.INTER.CONST>
1

>  <SCORE.INTER.POLAR>
-1.93472

>  <SCORE.INTER.ROT>
0

>  <SCORE.INTER.SOLV>
9.8006

>  <SCORE.INTER.VDW>
-26.5189

>  <SCORE.INTER.norm>
-3.01166

>  <SCORE.INTRA>
0

>  <SCORE.INTRA.DIHEDRAL>
0

>  <SCORE.INTRA.DIHEDRAL.0>
0

>  <SCORE.INTRA.POLAR>
0

>  <SCORE.INTRA.POLAR.0>
0

>  <SCORE.INTRA.REPUL>
0

>  <SCORE.INTRA.REPUL.0>
0

>  <SCORE.INTRA.SOLV>
0

>  <SCORE.INTRA.SOLV.lig_0>
-12.9768

>  <SCORE.INTRA.VDW>
0

>  <SCORE.INTRA.VDW.0>
0

>  <SCORE.INTRA.norm>
0

>  <SCORE.RESTR>
0

>  <SCORE.RESTR.CAVITY>
0

>  <SCORE.RESTR.norm>
0

>  <SCORE.SYSTEM>
0

>  <SCORE.SYSTEM.CONST>
0

>  <SCORE.SYSTEM.DIHEDRAL>
0

>  <SCORE.SYSTEM.SOLV>
0

>  <SCORE.SYSTEM.norm>
0

>  <SCORE.heavy>
13

>  <SCORE.norm>
-3.01166

>  <RMSD>
0.779

$$$$
1eht cryst
 OpenBabel11021811383D
libRbt.so/2013.1/901 2013/11/27
 13 14  0  0  0  0  0  0  0  0999 V2000
   -4.7635   -7.9137   10.6795 C   0  0  0  0  0  0  0  0  0  0  0  0
   -5.2503   -7.0296   11.6382 N   0  0  0  0  0  0  0  0  0  0  0  0
   -5.6420   -7.5398   12.8489 C   0  0  0  0  0  0  0  0  0  0  0  0
   -5.5355   -8.7595   12.9913 O   0  0  0  0  0  0  0  0  0  0  0  0
   -6.1402   -6.7919   13.8857 N   0  0  0  0  0  0  0  0  0  0  0  0
   -6.5284   -7.3303   15.1015 C   0  0  0  0  0  0  0  0  0  0  0  0
   -6.2153   -5.4615   13.5964 C   0  0  0  0  0  0  0  0  0  0  0  0
   -5.8236   -4.9643   12.3872 C   0  0  0  0  0  0  0  0  0  0  0  0
   -5.3097   -5.7133   11.3131 C   0  0  0  0  0  0  0  0  0  0  0  0
   -4.9432   -5.3149   10.2085 O   0  0  0  0  0  0  0  0  0  0  0  0
   -6.0397   -3.5947   12.4553 N   0  0  0  0  0  0  0  0  0  0  0  0
   -6.5437   -3.3585   13.6898 C   0  0  0  0  0  0  0  0  0  0  0  0
   -6.6698   -4.4344   14.4161 N   0  0  0  0  0  0  0  0  0  0  0  0
  1  2  1  0  0  0  0
  2  9  1  0  0  0  0
  2  3  1  0  0  0  0
  3  5  1  0  0  0  0
  3  4  2  0  0  0  0
  5  6  1  0  0  0  0
  5  7  1  0  0  0  0
  7  8  2  0  0  0  0
  7 13  1  0  0  0  0
  8  9  1  0  0  0  0
  8 11  1  0  0  0  0
  9 10  2  0  0  0  0
 11 12  1  0  0  0  0
 12 13  2  0  0  0  0
M  END
>  <CHROM.1>
-5.78483322,-6.05838412,12.68301049,-0.75514070,1.18551525,-0.34761356

>  <Name>
1eht cryst

>  <RI>
0

>  <Rbt.Current_Directory>
/home/itssahil/PROJECTS/Mol_Feturizer/New_Systems/rnas/1eht

>  <Rbt.Executable>
rbdock ($Id: //depot/dev/client3/rdock/2013.1/src/exe/rbdock.cxx#4 $)

>  <Rbt.Library>
libRbt.so (2013.1, Build901 2013/11/27)

>  <Rbt.Parameter_File>
/export/apps/rDock/src/rDock_2013.1_src/data/scripts/dock_solv.prm

>  <Rbt.Receptor>
prm/pocket_docking_3.prm

>  <SCORE>
-39.1609

>  <SCORE.INTER>
-39.1609

>  <SCORE.INTER.CONST>
1

>  <SCORE.INTER.POLAR>
-1.92964

>  <SCORE.INTER.ROT>
0

>  <SCORE.INTER.SOLV>
9.77199

>  <SCORE.INTER.VDW>
-26.5325

>  <SCORE.INTER.norm>
-3.01238

>  <SCORE.INTRA>
0

>  <SCORE.INTRA.DIHEDRAL>
0

>  <SCORE.INTRA.DIHEDRAL.0>
0

>  <SCORE.INTRA.POLAR>
0

>  <SCORE.INTRA.POLAR.0>
0

>  <SCORE.INTRA.REPUL>
0

>  <SCORE.INTRA.REPUL.0>
0

>  <SCORE.INTRA.SOLV>
0

>  <SCORE.INTRA.SOLV.lig_0>
-12.9768

>  <SCORE.INTRA.VDW>
0

>  <SCORE.INTRA.VDW.0>
0

>  <SCORE.INTRA.norm>
0

>  <SCORE.RESTR>
0

>  <SCORE.RESTR.CAVITY>
0

>  <SCORE.RESTR.norm>
0

>  <SCORE.SYSTEM>
0

>  <SCORE.SYSTEM.CONST>
0

>  <SCORE.SYSTEM.DIHEDRAL>
0

>  <SCORE.SYSTEM.SOLV>
0

>  <SCORE.SYSTEM.norm>
0

>  <SCORE.heavy>
13

>  <SCORE.norm>
-3.01238

>  <RMSD>
0.786

$$$$
1eht cryst
 OpenBabel11021811383D
libRbt.so/2013.1/901 2013/11/27
 13 14  0  0  0  0  0  0  0  0999 V2000
   -4.7536   -7.9148   10.6816 C   0  0  0  0  0  0  0  0  0  0  0  0
   -5.2435   -7.0304   11.6383 N   0  0  0  0  0  0  0  0  0  0  0  0
   -5.6394   -7.5402   12.8479 C   0  0  0  0  0  0  0  0  0  0  0  0
   -5.5333   -8.7598   12.9910 O   0  0  0  0  0  0  0  0  0  0  0  0
   -6.1409   -6.7920   13.8828 N   0  0  0  0  0  0  0  0  0  0  0  0
   -6.5333   -7.3300   15.0975 C   0  0  0  0  0  0  0  0  0  0  0  0
   -6.2151   -5.4616   13.5928 C   0  0  0  0  0  0  0  0  0  0  0  0
   -5.8193   -4.9649   12.3848 C   0  0  0  0  0  0  0  0  0  0  0  0
   -5.3019   -5.7142   11.3126 C   0  0  0  0  0  0  0  0  0  0  0  0
   -4.9317   -5.3161   10.2091 O   0  0  0  0  0  0  0  0  0  0  0  0
   -6.0356   -3.5952   12.4518 N   0  0  0  0  0  0  0  0  0  0  0  0
   -6.5437   -3.3586   13.6845 C   0  0  0  0  0  0  0  0  0  0  0  0
   -6.6723   -4.4343   14.4107 N   0  0  0  0  0  0  0  0  0  0  0  0
  1  2  1  0  0  0  0
  2  9  1  0  0  0  0
  2  3  1  0  0  0  0
  3  5  1  0  0  0  0
  3  4  2  0  0  0  0
  5  6  1  0  0  0  0
  5  7  1  0  0  0  0
  7  8  2  0  0  0  0
  7 13  1  0  0  0  0
  8  9  1  0  0  0  0
  8 11  1  0  0  0  0
  9 10  2  0  0  0  0
 11 12  1  0  0  0  0
 12 13  2  0  0  0  0
M  END
>  <CHROM.1>
-5.78156453,-6.05884333,12.68108188,-0.75821259,1.18237730,-0.34508039

>  <Name>
1eht cryst

>  <RI>
0

>  <Rbt.Current_Directory>
/home/itssahil/PROJECTS/Mol_Feturizer/New_Systems/rnas/1eht

>  <Rbt.Executable>
rbdock ($Id: //depot/dev/client3/rdock/2013.1/src/exe/rbdock.cxx#4 $)

>  <Rbt.Library>
libRbt.so (2013.1, Build901 2013/11/27)

>  <Rbt.Parameter_File>
/export/apps/rDock/src/rDock_2013.1_src/data/scripts/dock_solv.prm

>  <Rbt.Receptor>
prm/blind_docking_20.prm

>  <SCORE>
-39.1828

>  <SCORE.INTER>
-39.1828

>  <SCORE.INTER.CONST>
1

>  <SCORE.INTER.POLAR>
-1.93642

>  <SCORE.INTER.ROT>
0

>  <SCORE.INTER.SOLV>
9.77496

>  <SCORE.INTER.VDW>
-26.5254

>  <SCORE.INTER.norm>
-3.01406

>  <SCORE.INTRA>
0

>  <SCORE.INTRA.DIHEDRAL>
0

>  <SCORE.INTRA.DIHEDRAL.0>
0

>  <SCORE.INTRA.POLAR>
0

>  <SCORE.INTRA.POLAR.0>
0

>  <SCORE.INTRA.REPUL>
0

>  <SCORE.INTRA.REPUL.0>
0

>  <SCORE.INTRA.SOLV>
0

>  <SCORE.INTRA.SOLV.lig_0>
-12.9768

>  <SCORE.INTRA.VDW>
0

>  <SCORE.INTRA.VDW.0>
0

>  <SCORE.INTRA.norm>
0

>  <SCORE.RESTR>
0

>  <SCORE.RESTR.CAVITY>
0

>  <SCORE.RESTR.norm>
0

>  <SCORE.SYSTEM>
0

>  <SCORE.SYSTEM.CONST>
0

>  <SCORE.SYSTEM.DIHEDRAL>
0

>  <SCORE.SYSTEM.SOLV>
0

>  <SCORE.SYSTEM.norm>
0

>  <SCORE.heavy>
13

>  <SCORE.norm>
-3.01406

>  <RMSD>
0.787

$$$$
1eht cryst
 OpenBabel11021811383D
libRbt.so/2013.1/901 2013/11/27
 13 14  0  0  0  0  0  0  0  0999 V2000
   -4.7512   -7.9122   10.6824 C   0  0  0  0  0  0  0  0  0  0  0  0
   -5.2413   -7.0286   11.6398 N   0  0  0  0  0  0  0  0  0  0  0  0
   -5.6359   -7.5393   12.8494 C   0  0  0  0  0  0  0  0  0  0  0  0
   -5.5286   -8.7588   12.9921 O   0  0  0  0  0  0  0  0  0  0  0  0
   -6.1375   -6.7919   13.8849 N   0  0  0  0  0  0  0  0  0  0  0  0
   -6.5284   -7.3307   15.0997 C   0  0  0  0  0  0  0  0  0  0  0  0
   -6.2131   -5.4615   13.5955 C   0  0  0  0  0  0  0  0  0  0  0  0
   -5.8186   -4.9639   12.3874 C   0  0  0  0  0  0  0  0  0  0  0  0
   -5.3011   -5.7124   11.3146 C   0  0  0  0  0  0  0  0  0  0  0  0
   -4.9321   -5.3135   10.2110 O   0  0  0  0  0  0  0  0  0  0  0  0
   -6.0362   -3.5945   12.4550 N   0  0  0  0  0  0  0  0  0  0  0  0
   -6.5436   -3.3588   13.6881 C   0  0  0  0  0  0  0  0  0  0  0  0
   -6.6707   -4.4349   14.4141 N   0  0  0  0  0  0  0  0  0  0  0  0
  1  2  1  0  0  0  0
  2  9  1  0  0  0  0
  2  3  1  0  0  0  0
  3  5  1  0  0  0  0
  3  4  2  0  0  0  0
  5  6  1  0  0  0  0
  5  7  1  0  0  0  0
  7  8  2  0  0  0  0
  7 13  1  0  0  0  0
  8  9  1  0  0  0  0
  8 11  1  0  0  0  0
  9 10  2  0  0  0  0
 11 12  1  0  0  0  0
 12 13  2  0  0  0  0
M  END
>  <CHROM.1>
-5.77959595,-6.05797010,12.68325942,-0.75523935,1.18268623,-0.34747510

>  <Name>
1eht cryst

>  <RI>
224

>  <Rbt.Current_Directory>
/home/itssahil/PROJECTS/Mol_Feturizer/New_Systems/rnas/1eht

>  <Rbt.Executable>
rbdock ($Id: //depot/dev/client3/rdock/2013.1/src/exe/rbdock.cxx#4 $)

>  <Rbt.Library>
libRbt.so (2013.1, Build901 2013/11/27)

>  <Rbt.Parameter_File>
/export/apps/rDock/src/rDock_2013.1_src/data/scripts/dock_solv.prm

>  <Rbt.Receptor>
prm/pocket_docking_7.prm

>  <SCORE>
-39.1818

>  <SCORE.INTER>
-39.1818

>  <SCORE.INTER.CONST>
1

>  <SCORE.INTER.POLAR>
-1.93319

>  <SCORE.INTER.ROT>
0

>  <SCORE.INTER.SOLV>
9.7763

>  <SCORE.INTER.VDW>
-26.536

>  <SCORE.INTER.norm>
-3.01398

>  <SCORE.INTRA>
0

>  <SCORE.INTRA.DIHEDRAL>
0

>  <SCORE.INTRA.DIHEDRAL.0>
0

>  <SCORE.INTRA.POLAR>
0

>  <SCORE.INTRA.POLAR.0>
0

>  <SCORE.INTRA.REPUL>
0

>  <SCORE.INTRA.REPUL.0>
0

>  <SCORE.INTRA.SOLV>
0

>  <SCORE.INTRA.SOLV.lig_0>
-12.9768

>  <SCORE.INTRA.VDW>
0

>  <SCORE.INTRA.VDW.0>
0

>  <SCORE.INTRA.norm>
0

>  <SCORE.RESTR>
0

>  <SCORE.RESTR.CAVITY>
0

>  <SCORE.RESTR.norm>
0

>  <SCORE.SYSTEM>
0

>  <SCORE.SYSTEM.CONST>
0

>  <SCORE.SYSTEM.DIHEDRAL>
0

>  <SCORE.SYSTEM.SOLV>
0

>  <SCORE.SYSTEM.norm>
0

>  <SCORE.heavy>
13

>  <SCORE.norm>
-3.01398

>  <RMSD>
0.787

$$$$
1eht cryst
 OpenBabel11021811383D
libRbt.so/2013.1/901 2013/11/27
 13 14  0  0  0  0  0  0  0  0999 V2000
   -4.6694   -7.9022   10.7961 C   0  0  0  0  0  0  0  0  0  0  0  0
   -5.1841   -7.0136   11.7358 N   0  0  0  0  0  0  0  0  0  0  0  0
   -5.6089   -7.5178   12.9379 C   0  0  0  0  0  0  0  0  0  0  0  0
   -5.5047   -8.7364   13.0900 O   0  0  0  0  0  0  0  0  0  0  0  0
   -6.1370   -6.7649   13.9561 N   0  0  0  0  0  0  0  0  0  0  0  0
   -6.5585   -7.2971   15.1635 C   0  0  0  0  0  0  0  0  0  0  0  0
   -6.2059   -5.4362   13.6574 C   0  0  0  0  0  0  0  0  0  0  0  0
   -5.7811   -4.9452   12.4569 C   0  0  0  0  0  0  0  0  0  0  0  0
   -5.2362   -5.6992   11.4018 C   0  0  0  0  0  0  0  0  0  0  0  0
   -4.8395   -5.3064   10.3057 O   0  0  0  0  0  0  0  0  0  0  0  0
   -6.0011   -3.5755   12.5113 N   0  0  0  0  0  0  0  0  0  0  0  0
   -6.5398   -3.3332   13.7298 C   0  0  0  0  0  0  0  0  0  0  0  0
   -6.6847   -4.4053   14.4583 N   0  0  0  0  0  0  0  0  0  0  0  0
  1  2  1  0  0  0  0
  2  9  1  0  0  0  0
  2  3  1  0  0  0  0
  3  5  1  0  0  0  0
  3  4  2  0  0  0  0
  5  6  1  0  0  0  0
  5  7  1  0  0  0  0
  7  8  2  0  0  0  0
  7 13  1  0  0  0  0
  8  9  1  0  0  0  0
  8 11  1  0  0  0  0
  9 10  2  0  0  0  0
 11 12  1  0  0  0  0
 12 13  2  0  0  0  0
M  END
>  <CHROM.1>
-5.74913263,-6.03749334,12.75978520,-0.77565251,1.15855470,-0.33427424

>  <Name>
1eht cryst

>  <RI>
0

>  <Rbt.Current_Directory>
/home/itssahil/PROJECTS/Mol_Feturizer/New_Systems/rnas/1eht

>  <Rbt.Executable>
rbdock ($Id: //depot/dev/client3/rdock/2013.1/src/exe/rbdock.cxx#4 $)

>  <Rbt.Library>
libRbt.so (2013.1, Build901 2013/11/27)

>  <Rbt.Parameter_File>
/export/apps/rDock/src/rDock_2013.1_src/data/scripts/dock_solv.prm

>  <Rbt.Receptor>
prm/blind_docking_80.prm

>  <SCORE>
-38.9241

>  <SCORE.INTER>
-38.9886

>  <SCORE.INTER.CONST>
1

>  <SCORE.INTER.POLAR>
-1.92021

>  <SCORE.INTER.ROT>
0

>  <SCORE.INTER.SOLV>
9.88971

>  <SCORE.INTER.VDW>
-26.4882

>  <SCORE.INTER.norm>
-2.99912

>  <SCORE.INTRA>
0

>  <SCORE.INTRA.DIHEDRAL>
0

>  <SCORE.INTRA.DIHEDRAL.0>
0

>  <SCORE.INTRA.POLAR>
0

>  <SCORE.INTRA.POLAR.0>
0

>  <SCORE.INTRA.REPUL>
0

>  <SCORE.INTRA.REPUL.0>
0

>  <SCORE.INTRA.SOLV>
0

>  <SCORE.INTRA.SOLV.lig_0>
-12.9768

>  <SCORE.INTRA.VDW>
0

>  <SCORE.INTRA.VDW.0>
0

>  <SCORE.INTRA.norm>
0

>  <SCORE.RESTR>
0.0644162

>  <SCORE.RESTR.CAVITY>
0.0644162

>  <SCORE.RESTR.norm>
0.00495509

>  <SCORE.SYSTEM>
0

>  <SCORE.SYSTEM.CONST>
0

>  <SCORE.SYSTEM.DIHEDRAL>
0

>  <SCORE.SYSTEM.SOLV>
0

>  <SCORE.SYSTEM.norm>
0

>  <SCORE.heavy>
13

>  <SCORE.norm>
-2.99416

>  <RMSD>
0.849

$$$$
1eht cryst
 OpenBabel11021811383D
libRbt.so/2013.1/901 2013/11/27
 13 14  0  0  0  0  0  0  0  0999 V2000
   -4.6555   -7.9070   10.8031 C   0  0  0  0  0  0  0  0  0  0  0  0
   -5.1757   -7.0169   11.7383 N   0  0  0  0  0  0  0  0  0  0  0  0
   -5.5988   -7.5178   12.9423 C   0  0  0  0  0  0  0  0  0  0  0  0
   -5.4882   -8.7353   13.1001 O   0  0  0  0  0  0  0  0  0  0  0  0
   -6.1317   -6.7632   13.9567 N   0  0  0  0  0  0  0  0  0  0  0  0
   -6.5513   -7.2922   15.1663 C   0  0  0  0  0  0  0  0  0  0  0  0
   -6.2074   -5.4363   13.6519 C   0  0  0  0  0  0  0  0  0  0  0  0
   -5.7844   -4.9484   12.4496 C   0  0  0  0  0  0  0  0  0  0  0  0
   -5.2346   -5.7044   11.3983 C   0  0  0  0  0  0  0  0  0  0  0  0
   -4.8391   -5.3143   10.3007 O   0  0  0  0  0  0  0  0  0  0  0  0
   -6.0116   -3.5797   12.4975 N   0  0  0  0  0  0  0  0  0  0  0  0
   -6.5526   -3.3348   13.7145 C   0  0  0  0  0  0  0  0  0  0  0  0
   -6.6924   -4.4044   14.4478 N   0  0  0  0  0  0  0  0  0  0  0  0
  1  2  1  0  0  0  0
  2  9  1  0  0  0  0
  2  3  1  0  0  0  0
  3  5  1  0  0  0  0
  3  4  2  0  0  0  0
  5  6  1  0  0  0  0
  5  7  1  0  0  0  0
  7  8  2  0  0  0  0
  7 13  1  0  0  0  0
  8  9  1  0  0  0  0
  8 11  1  0  0  0  0
  9 10  2  0  0  0  0
 11 12  1  0  0  0  0
 12 13  2  0  0  0  0
M  END
>  <CHROM.1>
-5.74675524,-6.03917591,12.75743211,-0.76377792,1.15603701,-0.34968728

>  <Name>
1eht cryst

>  <RI>
0

>  <Rbt.Current_Directory>
/home/itssahil/PROJECTS/Mol_Feturizer/New_Systems/rnas/1eht

>  <Rbt.Executable>
rbdock ($Id: //depot/dev/client3/rdock/2013.1/src/exe/rbdock.cxx#4 $)

>  <Rbt.Library>
libRbt.so (2013.1, Build901 2013/11/27)

>  <Rbt.Parameter_File>
/export/apps/rDock/src/rDock_2013.1_src/data/scripts/dock_solv.prm

>  <Rbt.Receptor>
prm/blind_docking_80.prm

>  <SCORE>
-38.9162

>  <SCORE.INTER>
-38.9767

>  <SCORE.INTER.CONST>
1

>  <SCORE.INTER.POLAR>
-1.92547

>  <SCORE.INTER.ROT>
0

>  <SCORE.INTER.SOLV>
9.87837

>  <SCORE.INTER.VDW>
-26.459

>  <SCORE.INTER.norm>
-2.99821

>  <SCORE.INTRA>
0

>  <SCORE.INTRA.DIHEDRAL>
0

>  <SCORE.INTRA.DIHEDRAL.0>
0

>  <SCORE.INTRA.POLAR>
0

>  <SCORE.INTRA.POLAR.0>
0

>  <SCORE.INTRA.REPUL>
0

>  <SCORE.INTRA.REPUL.0>
0

>  <SCORE.INTRA.SOLV>
0

>  <SCORE.INTRA.SOLV.lig_0>
-12.9768

>  <SCORE.INTRA.VDW>
0

>  <SCORE.INTRA.VDW.0>
0

>  <SCORE.INTRA.norm>
0

>  <SCORE.RESTR>
0.0604725

>  <SCORE.RESTR.CAVITY>
0.0604725

>  <SCORE.RESTR.norm>
0.00465173

>  <SCORE.SYSTEM>
0

>  <SCORE.SYSTEM.CONST>
0

>  <SCORE.SYSTEM.DIHEDRAL>
0

>  <SCORE.SYSTEM.SOLV>
0

>  <SCORE.SYSTEM.norm>
0

>  <SCORE.heavy>
13

>  <SCORE.norm>
-2.99356

>  <RMSD>
0.853

$$$$
1eht cryst
 OpenBabel11021811383D
libRbt.so/2013.1/901 2013/11/27
 13 14  0  0  0  0  0  0  0  0999 V2000
   -4.6621   -7.9057   10.8011 C   0  0  0  0  0  0  0  0  0  0  0  0
   -5.1776   -7.0148   11.7382 N   0  0  0  0  0  0  0  0  0  0  0  0
   -5.5991   -7.5155   12.9429 C   0  0  0  0  0  0  0  0  0  0  0  0
   -5.4914   -8.7333   13.0995 O   0  0  0  0  0  0  0  0  0  0  0  0
   -6.1276   -6.7602   13.9591 N   0  0  0  0  0  0  0  0  0  0  0  0
   -6.5456   -7.2889   15.1693 C   0  0  0  0  0  0  0  0  0  0  0  0
   -6.2004   -5.4328   13.6554 C   0  0  0  0  0  0  0  0  0  0  0  0
   -5.7789   -4.9452   12.4524 C   0  0  0  0  0  0  0  0  0  0  0  0
   -5.2338   -5.7019   11.3993 C   0  0  0  0  0  0  0  0  0  0  0  0
   -4.8398   -5.3122   10.3010 O   0  0  0  0  0  0  0  0  0  0  0  0
   -6.0024   -3.5759   12.5019 N   0  0  0  0  0  0  0  0  0  0  0  0
   -6.5398   -3.3304   13.7203 C   0  0  0  0  0  0  0  0  0  0  0  0
   -6.6806   -4.4001   14.4532 N   0  0  0  0  0  0  0  0  0  0  0  0
  1  2  1  0  0  0  0
  2  9  1  0  0  0  0
  2  3  1  0  0  0  0
  3  5  1  0  0  0  0
  3  4  2  0  0  0  0
  5  6  1  0  0  0  0
  5  7  1  0  0  0  0
  7  8  2  0  0  0  0
  7 13  1  0  0  0  0
  8  9  1  0  0  0  0
  8 11  1  0  0  0  0
  9 10  2  0  0  0  0
 11 12  1  0  0  0  0
 12 13  2  0  0  0  0
M  END
>  <CHROM.1>
-5.74354425,-6.03628450,12.75939394,-0.76806850,1.15922842,-0.34504738

>  <Name>
1eht cryst

>  <RI>
0

>  <Rbt.Current_Directory>
/home/itssahil/PROJECTS/Mol_Feturizer/New_Systems/rnas/1eht

>  <Rbt.Executable>
rbdock ($Id: //depot/dev/client3/rdock/2013.1/src/exe/rbdock.cxx#4 $)

>  <Rbt.Library>
libRbt.so (2013.1, Build901 2013/11/27)

>  <Rbt.Parameter_File>
/export/apps/rDock/src/rDock_2013.1_src/data/scripts/dock_solv.prm

>  <Rbt.Receptor>
prm/blind_docking_80.prm

>  <SCORE>
-38.9358

>  <SCORE.INTER>
-38.9972

>  <SCORE.INTER.CONST>
1

>  <SCORE.INTER.POLAR>
-1.91833

>  <SCORE.INTER.ROT>
0

>  <SCORE.INTER.SOLV>
9.88655

>  <SCORE.INTER.VDW>
-26.4992

>  <SCORE.INTER.norm>
-2.99978

>  <SCORE.INTRA>
0

>  <SCORE.INTRA.DIHEDRAL>
0

>  <SCORE.INTRA.DIHEDRAL.0>
0

>  <SCORE.INTRA.POLAR>
0

>  <SCORE.INTRA.POLAR.0>
0

>  <SCORE.INTRA.REPUL>
0

>  <SCORE.INTRA.REPUL.0>
0

>  <SCORE.INTRA.SOLV>
0

>  <SCORE.INTRA.SOLV.lig_0>
-12.9768

>  <SCORE.INTRA.VDW>
0

>  <SCORE.INTRA.VDW.0>
0

>  <SCORE.INTRA.norm>
0

>  <SCORE.RESTR>
0.0613872

>  <SCORE.RESTR.CAVITY>
0.0613872

>  <SCORE.RESTR.norm>
0.0047221

>  <SCORE.SYSTEM>
0

>  <SCORE.SYSTEM.CONST>
0

>  <SCORE.SYSTEM.DIHEDRAL>
0

>  <SCORE.SYSTEM.SOLV>
0

>  <SCORE.SYSTEM.norm>
0

>  <SCORE.heavy>
13

>  <SCORE.norm>
-2.99506

>  <RMSD>
0.853

$$$$
1eht cryst
 OpenBabel11021811383D
libRbt.so/2013.1/901 2013/11/27
 13 14  0  0  0  0  0  0  0  0999 V2000
   -4.6624   -7.9057   10.8043 C   0  0  0  0  0  0  0  0  0  0  0  0
   -5.1825   -7.0150   11.7390 N   0  0  0  0  0  0  0  0  0  0  0  0
   -5.6095   -7.5158   12.9418 C   0  0  0  0  0  0  0  0  0  0  0  0
   -5.5021   -8.7335   13.0989 O   0  0  0  0  0  0  0  0  0  0  0  0
   -6.1428   -6.7606   13.9555 N   0  0  0  0  0  0  0  0  0  0  0  0
   -6.5663   -7.2894   15.1637 C   0  0  0  0  0  0  0  0  0  0  0  0
   -6.2148   -5.4332   13.6514 C   0  0  0  0  0  0  0  0  0  0  0  0
   -5.7879   -4.9456   12.4503 C   0  0  0  0  0  0  0  0  0  0  0  0
   -5.2376   -5.7021   11.3998 C   0  0  0  0  0  0  0  0  0  0  0  0
   -4.8387   -5.3123   10.3033 O   0  0  0  0  0  0  0  0  0  0  0  0
   -6.0120   -3.5764   12.4987 N   0  0  0  0  0  0  0  0  0  0  0  0
   -6.5551   -3.3310   13.7147 C   0  0  0  0  0  0  0  0  0  0  0  0
   -6.6990   -4.4007   14.4469 N   0  0  0  0  0  0  0  0  0  0  0  0
  1  2  1  0  0  0  0
  2  9  1  0  0  0  0
  2  3  1  0  0  0  0
  3  5  1  0  0  0  0
  3  4  2  0  0  0  0
  5  6  1  0  0  0  0
  5  7  1  0  0  0  0
  7  8  2  0  0  0  0
  7 13  1  0  0  0  0
  8  9  1  0  0  0  0
  8 11  1  0  0  0  0
  9 10  2  0  0  0  0
 11 12  1  0  0  0  0
 12 13  2  0  0  0  0
M  END
>  <CHROM.1>
-5.75351833,-6.03661901,12.75753454,-0.77114795,1.15476654,-0.34226565

>  <Name>
1eht cryst

>  <RI>
0

>  <Rbt.Current_Directory>
/home/itssahil/PROJECTS/Mol_Feturizer/New_Systems/rnas/1eht

>  <Rbt.Executable>
rbdock ($Id: //depot/dev/client3/rdock/2013.1/src/exe/rbdock.cxx#4 $)

>  <Rbt.Library>
libRbt.so (2013.1, Build901 2013/11/27)

>  <Rbt.Parameter_File>
/export/apps/rDock/src/rDock_2013.1_src/data/scripts/dock_solv.prm

>  <Rbt.Receptor>
prm/blind_docking_80.prm

>  <SCORE>
-38.913

>  <SCORE.INTER>
-38.972

>  <SCORE.INTER.CONST>
1

>  <SCORE.INTER.POLAR>
-1.92621

>  <SCORE.INTER.ROT>
0

>  <SCORE.INTER.SOLV>
9.88673

>  <SCORE.INTER.VDW>
-26.4562

>  <SCORE.INTER.norm>
-2.99785

>  <SCORE.INTRA>
0

>  <SCORE.INTRA.DIHEDRAL>
0

>  <SCORE.INTRA.DIHEDRAL.0>
0

>  <SCORE.INTRA.POLAR>
0

>  <SCORE.INTRA.POLAR.0>
0

>  <SCORE.INTRA.REPUL>
0

>  <SCORE.INTRA.REPUL.0>
0

>  <SCORE.INTRA.SOLV>
0

>  <SCORE.INTRA.SOLV.lig_0>
-12.9768

>  <SCORE.INTRA.VDW>
0

>  <SCORE.INTRA.VDW.0>
0

>  <SCORE.INTRA.norm>
0

>  <SCORE.RESTR>
0.0589615

>  <SCORE.RESTR.CAVITY>
0.0589615

>  <SCORE.RESTR.norm>
0.0045355

>  <SCORE.SYSTEM>
0

>  <SCORE.SYSTEM.CONST>
0

>  <SCORE.SYSTEM.DIHEDRAL>
0

>  <SCORE.SYSTEM.SOLV>
0

>  <SCORE.SYSTEM.norm>
0

>  <SCORE.heavy>
13

>  <SCORE.norm>
-2.99331

>  <RMSD>
0.855

$$$$
1eht cryst
 OpenBabel11021811383D
libRbt.so/2013.1/901 2013/11/27
 13 14  0  0  0  0  0  0  0  0999 V2000
   -4.6569   -7.8937   10.8101 C   0  0  0  0  0  0  0  0  0  0  0  0
   -5.1794   -7.0081   11.7483 N   0  0  0  0  0  0  0  0  0  0  0  0
   -5.6067   -7.5150   12.9483 C   0  0  0  0  0  0  0  0  0  0  0  0
   -5.4974   -8.7332   13.1001 O   0  0  0  0  0  0  0  0  0  0  0  0
   -6.1424   -6.7653   13.9649 N   0  0  0  0  0  0  0  0  0  0  0  0
   -6.5662   -7.3002   15.1703 C   0  0  0  0  0  0  0  0  0  0  0  0
   -6.2163   -5.4367   13.6668 C   0  0  0  0  0  0  0  0  0  0  0  0
   -5.7890   -4.9429   12.4683 C   0  0  0  0  0  0  0  0  0  0  0  0
   -5.2364   -5.6937   11.4149 C   0  0  0  0  0  0  0  0  0  0  0  0
   -4.8371   -5.2983   10.3207 O   0  0  0  0  0  0  0  0  0  0  0  0
   -6.0155   -3.5743   12.5227 N   0  0  0  0  0  0  0  0  0  0  0  0
   -6.5602   -3.3353   13.7392 C   0  0  0  0  0  0  0  0  0  0  0  0
   -6.7030   -4.4086   14.4664 N   0  0  0  0  0  0  0  0  0  0  0  0
  1  2  1  0  0  0  0
  2  9  1  0  0  0  0
  2  3  1  0  0  0  0
  3  5  1  0  0  0  0
  3  4  2  0  0  0  0
  5  6  1  0  0  0  0
  5  7  1  0  0  0  0
  7  8  2  0  0  0  0
  7 13  1  0  0  0  0
  8  9  1  0  0  0  0
  8 11  1  0  0  0  0
  9 10  2  0  0  0  0
 11 12  1  0  0  0  0
 12 13  2  0  0  0  0
M  END
>  <CHROM.1>
-5.75311102,-6.03525121,12.77062562,-0.76804459,1.15325040,-0.34059067

>  <Name>
1eht cryst

>  <RI>
0

>  <Rbt.Current_Directory>
/home/itssahil/PROJECTS/Mol_Feturizer/New_Systems/rnas/1eht

>  <Rbt.Executable>
rbdock ($Id: //depot/dev/client3/rdock/2013.1/src/exe/rbdock.cxx#4 $)

>  <Rbt.Library>
libRbt.so (2013.1, Build901 2013/11/27)

>  <Rbt.Parameter_File>
/export/apps/rDock/src/rDock_2013.1_src/data/scripts/dock_solv.prm

>  <Rbt.Receptor>
prm/blind_docking_80.prm

>  <SCORE>
-38.8151

>  <SCORE.INTER>
-38.8654

>  <SCORE.INTER.CONST>
1

>  <SCORE.INTER.POLAR>
-1.91462

>  <SCORE.INTER.ROT>
0

>  <SCORE.INTER.SOLV>
9.89535

>  <SCORE.INTER.VDW>
-26.4266

>  <SCORE.INTER.norm>
-2.98964

>  <SCORE.INTRA>
0

>  <SCORE.INTRA.DIHEDRAL>
0

>  <SCORE.INTRA.DIHEDRAL.0>
0

>  <SCORE.INTRA.POLAR>
0

>  <SCORE.INTRA.POLAR.0>
0

>  <SCORE.INTRA.REPUL>
0

>  <SCORE.INTRA.REPUL.0>
0

>  <SCORE.INTRA.SOLV>
0

>  <SCORE.INTRA.SOLV.lig_0>
-12.9768

>  <SCORE.INTRA.VDW>
0

>  <SCORE.INTRA.VDW.0>
0

>  <SCORE.INTRA.norm>
0

>  <SCORE.RESTR>
0.0502173

>  <SCORE.RESTR.CAVITY>
0.0502173

>  <SCORE.RESTR.norm>
0.00386287

>  <SCORE.SYSTEM>
0

>  <SCORE.SYSTEM.CONST>
0

>  <SCORE.SYSTEM.DIHEDRAL>
0

>  <SCORE.SYSTEM.SOLV>
0

>  <SCORE.SYSTEM.norm>
0

>  <SCORE.heavy>
13

>  <SCORE.norm>
-2.98578

>  <RMSD>
0.855

$$$$
1eht cryst
 OpenBabel11021811383D
libRbt.so/2013.1/901 2013/11/27
 13 14  0  0  0  0  0  0  0  0999 V2000
   -4.6649   -7.9050   10.8046 C   0  0  0  0  0  0  0  0  0  0  0  0
   -5.1836   -7.0146   11.7404 N   0  0  0  0  0  0  0  0  0  0  0  0
   -5.6103   -7.5159   12.9430 C   0  0  0  0  0  0  0  0  0  0  0  0
   -5.5041   -8.7339   13.0991 O   0  0  0  0  0  0  0  0  0  0  0  0
   -6.1423   -6.7610   13.9576 N   0  0  0  0  0  0  0  0  0  0  0  0
   -6.5656   -7.2904   15.1657 C   0  0  0  0  0  0  0  0  0  0  0  0
   -6.2131   -5.4333   13.6547 C   0  0  0  0  0  0  0  0  0  0  0  0
   -5.7864   -4.9451   12.4538 C   0  0  0  0  0  0  0  0  0  0  0  0
   -5.2375   -5.7013   11.4023 C   0  0  0  0  0  0  0  0  0  0  0  0
   -4.8389   -5.3110   10.3059 O   0  0  0  0  0  0  0  0  0  0  0  0
   -6.0091   -3.5757   12.5035 N   0  0  0  0  0  0  0  0  0  0  0  0
   -6.5513   -3.3308   13.7199 C   0  0  0  0  0  0  0  0  0  0  0  0
   -6.6958   -4.4010   14.4514 N   0  0  0  0  0  0  0  0  0  0  0  0
  1  2  1  0  0  0  0
  2  9  1  0  0  0  0
  2  3  1  0  0  0  0
  3  5  1  0  0  0  0
  3  4  2  0  0  0  0
  5  6  1  0  0  0  0
  5  7  1  0  0  0  0
  7  8  2  0  0  0  0
  7 13  1  0  0  0  0
  8  9  1  0  0  0  0
  8 11  1  0  0  0  0
  9 10  2  0  0  0  0
 11 12  1  0  0  0  0
 12 13  2  0  0  0  0
M  END
>  <CHROM.1>
-5.75300421,-6.03643204,12.76006576,-0.77302580,1.15566865,-0.33971567

>  <Name>
1eht cryst

>  <RI>
0

>  <Rbt.Current_Directory>
/home/itssahil/PROJECTS/Mol_Feturizer/New_Systems/rnas/1eht

>  <Rbt.Executable>
rbdock ($Id: //depot/dev/client3/rdock/2013.1/src/exe/rbdock.cxx#4 $)

>  <Rbt.Library>
libRbt.so (2013.1, Build901 2013/11/27)

>  <Rbt.Parameter_File>
/export/apps/rDock/src/rDock_2013.1_src/data/scripts/dock_solv.prm

>  <Rbt.Receptor>
prm/blind_docking_80.prm

>  <SCORE>
-38.9131

>  <SCORE.INTER>
-38.9714

>  <SCORE.INTER.CONST>
1

>  <SCORE.INTER.POLAR>
-1.92394

>  <SCORE.INTER.ROT>
0

>  <SCORE.INTER.SOLV>
9.88938

>  <SCORE.INTER.VDW>
-26.4642

>  <SCORE.INTER.norm>
-2.9978

>  <SCORE.INTRA>
0

>  <SCORE.INTRA.DIHEDRAL>
0

>  <SCORE.INTRA.DIHEDRAL.0>
0

>  <SCORE.INTRA.POLAR>
0

>  <SCORE.INTRA.POLAR.0>
0

>  <SCORE.INTRA.REPUL>
0

>  <SCORE.INTRA.REPUL.0>
0

>  <SCORE.INTRA.SOLV>
0

>  <SCORE.INTRA.SOLV.lig_0>
-12.9768

>  <SCORE.INTRA.VDW>
0

>  <SCORE.INTRA.VDW.0>
0

>  <SCORE.INTRA.norm>
0

>  <SCORE.RESTR>
0.0582441

>  <SCORE.RESTR.CAVITY>
0.0582441

>  <SCORE.RESTR.norm>
0.00448031

>  <SCORE.SYSTEM>
0

>  <SCORE.SYSTEM.CONST>
0

>  <SCORE.SYSTEM.DIHEDRAL>
0

>  <SCORE.SYSTEM.SOLV>
0

>  <SCORE.SYSTEM.norm>
0

>  <SCORE.heavy>
13

>  <SCORE.norm>
-2.99332

>  <RMSD>
0.855

$$$$
1eht cryst
 OpenBabel11021811383D
libRbt.so/2013.1/901 2013/11/27
 13 14  0  0  0  0  0  0  0  0999 V2000
   -4.6545   -7.9033   10.8065 C   0  0  0  0  0  0  0  0  0  0  0  0
   -5.1764   -7.0137   11.7413 N   0  0  0  0  0  0  0  0  0  0  0  0
   -5.6027   -7.5155   12.9439 C   0  0  0  0  0  0  0  0  0  0  0  0
   -5.4931   -8.7331   13.1008 O   0  0  0  0  0  0  0  0  0  0  0  0
   -6.1376   -6.7615   13.9577 N   0  0  0  0  0  0  0  0  0  0  0  0
   -6.5603   -7.2913   15.1658 C   0  0  0  0  0  0  0  0  0  0  0  0
   -6.2119   -5.4342   13.6539 C   0  0  0  0  0  0  0  0  0  0  0  0
   -5.7856   -4.9455   12.4530 C   0  0  0  0  0  0  0  0  0  0  0  0
   -5.2338   -5.7008   11.4024 C   0  0  0  0  0  0  0  0  0  0  0  0
   -4.8355   -5.3100   10.3061 O   0  0  0  0  0  0  0  0  0  0  0  0
   -6.0123   -3.5767   12.5016 N   0  0  0  0  0  0  0  0  0  0  0  0
   -6.5560   -3.3326   13.7175 C   0  0  0  0  0  0  0  0  0  0  0  0
   -6.6981   -4.4027   14.4495 N   0  0  0  0  0  0  0  0  0  0  0  0
  1  2  1  0  0  0  0
  2  9  1  0  0  0  0
  2  3  1  0  0  0  0
  3  5  1  0  0  0  0
  3  4  2  0  0  0  0
  5  6  1  0  0  0  0
  5  7  1  0  0  0  0
  7  8  2  0  0  0  0
  7 13  1  0  0  0  0
  8  9  1  0  0  0  0
  8 11  1  0  0  0  0
  9 10  2  0  0  0  0
 11 12  1  0  0  0  0
 12 13  2  0  0  0  0
M  END
>  <CHROM.1>
-5.74938286,-6.03654780,12.75995506,-0.76706966,1.15400279,-0.34578752

>  <Name>
1eht cryst

>  <RI>
0

>  <Rbt.Current_Directory>
/home/itssahil/PROJECTS/Mol_Feturizer/New_Systems/rnas/1eht

>  <Rbt.Executable>
rbdock ($Id: //depot/dev/client3/rdock/2013.1/src/exe/rbdock.cxx#4 $)

>  <Rbt.Library>
libRbt.so (2013.1, Build901 2013/11/27)

>  <Rbt.Parameter_File>
/export/apps/rDock/src/rDock_2013.1_src/data/scripts/dock_solv.prm

>  <Rbt.Receptor>
prm/blind_docking_80.prm

>  <SCORE>
-38.9073

>  <SCORE.INTER>
-38.9662

>  <SCORE.INTER.CONST>
1

>  <SCORE.INTER.POLAR>
-1.92451

>  <SCORE.INTER.ROT>
0

>  <SCORE.INTER.SOLV>
9.88746

>  <SCORE.INTER.VDW>
-26.4583

>  <SCORE.INTER.norm>
-2.9974

>  <SCORE.INTRA>
0

>  <SCORE.INTRA.DIHEDRAL>
0

>  <SCORE.INTRA.DIHEDRAL.0>
0

>  <SCORE.INTRA.POLAR>
0

>  <SCORE.INTRA.POLAR.0>
0

>  <SCORE.INTRA.REPUL>
0

>  <SCORE.INTRA.REPUL.0>
0

>  <SCORE.INTRA.SOLV>
0

>  <SCORE.INTRA.SOLV.lig_0>
-12.9768

>  <SCORE.INTRA.VDW>
0

>  <SCORE.INTRA.VDW.0>
0

>  <SCORE.INTRA.norm>
0

>  <SCORE.RESTR>
0.0589423

>  <SCORE.RESTR.CAVITY>
0.0589423

>  <SCORE.RESTR.norm>
0.00453402

>  <SCORE.SYSTEM>
0

>  <SCORE.SYSTEM.CONST>
0

>  <SCORE.SYSTEM.DIHEDRAL>
0

>  <SCORE.SYSTEM.SOLV>
0

>  <SCORE.SYSTEM.norm>
0

>  <SCORE.heavy>
13

>  <SCORE.norm>
-2.99287

>  <RMSD>
0.855

$$$$
1eht cryst
 OpenBabel11021811383D
libRbt.so/2013.1/901 2013/11/27
 13 14  0  0  0  0  0  0  0  0999 V2000
   -4.6635   -7.9037   10.8057 C   0  0  0  0  0  0  0  0  0  0  0  0
   -5.1829   -7.0135   11.7412 N   0  0  0  0  0  0  0  0  0  0  0  0
   -5.6101   -7.5149   12.9436 C   0  0  0  0  0  0  0  0  0  0  0  0
   -5.5037   -8.7329   13.0996 O   0  0  0  0  0  0  0  0  0  0  0  0
   -6.1428   -6.7603   13.9580 N   0  0  0  0  0  0  0  0  0  0  0  0
   -6.5666   -7.2898   15.1658 C   0  0  0  0  0  0  0  0  0  0  0  0
   -6.2138   -5.4326   13.6551 C   0  0  0  0  0  0  0  0  0  0  0  0
   -5.7866   -4.9442   12.4544 C   0  0  0  0  0  0  0  0  0  0  0  0
   -5.2370   -5.7002   11.4032 C   0  0  0  0  0  0  0  0  0  0  0  0
   -4.8379   -5.3097   10.3071 O   0  0  0  0  0  0  0  0  0  0  0  0
   -6.0097   -3.5748   12.5041 N   0  0  0  0  0  0  0  0  0  0  0  0
   -6.5525   -3.3301   13.7203 C   0  0  0  0  0  0  0  0  0  0  0  0
   -6.6971   -4.4004   14.4516 N   0  0  0  0  0  0  0  0  0  0  0  0
  1  2  1  0  0  0  0
  2  9  1  0  0  0  0
  2  3  1  0  0  0  0
  3  5  1  0  0  0  0
  3  4  2  0  0  0  0
  5  6  1  0  0  0  0
  5  7  1  0  0  0  0
  7  8  2  0  0  0  0
  7 13  1  0  0  0  0
  8  9  1  0  0  0  0
  8 11  1  0  0  0  0
  9 10  2  0  0  0  0
 11 12  1  0  0  0  0
 12 13  2  0  0  0  0
M  END
>  <CHROM.1>
-5.75307712,-6.03552950,12.76067063,-0.77288712,1.15510099,-0.33977956

>  <Name>
1eht cryst

>  <RI>
0

>  <Rbt.Current_Directory>
/home/itssahil/PROJECTS/Mol_Feturizer/New_Systems/rnas/1eht

>  <Rbt.Executable>
rbdock ($Id: //depot/dev/client3/rdock/2013.1/src/exe/rbdock.cxx#4 $)

>  <Rbt.Library>
libRbt.so (2013.1, Build901 2013/11/27)

>  <Rbt.Parameter_File>
/export/apps/rDock/src/rDock_2013.1_src/data/scripts/dock_solv.prm

>  <Rbt.Receptor>
prm/blind_docking_80.prm

>  <SCORE>
-38.9094

>  <SCORE.INTER>
-38.9667

>  <SCORE.INTER.CONST>
1

>  <SCORE.INTER.POLAR>
-1.92355

>  <SCORE.INTER.ROT>
0

>  <SCORE.INTER.SOLV>
9.8916

>  <SCORE.INTER.VDW>
-26.4632

>  <SCORE.INTER.norm>
-2.99744

>  <SCORE.INTRA>
0

>  <SCORE.INTRA.DIHEDRAL>
0

>  <SCORE.INTRA.DIHEDRAL.0>
0

>  <SCORE.INTRA.POLAR>
0

>  <SCORE.INTRA.POLAR.0>
0

>  <SCORE.INTRA.REPUL>
0

>  <SCORE.INTRA.REPUL.0>
0

>  <SCORE.INTRA.SOLV>
0

>  <SCORE.INTRA.SOLV.lig_0>
-12.9768

>  <SCORE.INTRA.VDW>
0

>  <SCORE.INTRA.VDW.0>
0

>  <SCORE.INTRA.norm>
0

>  <SCORE.RESTR>
0.0573319

>  <SCORE.RESTR.CAVITY>
0.0573319

>  <SCORE.RESTR.norm>
0.00441014

>  <SCORE.SYSTEM>
0

>  <SCORE.SYSTEM.CONST>
0

>  <SCORE.SYSTEM.DIHEDRAL>
0

>  <SCORE.SYSTEM.SOLV>
0

>  <SCORE.SYSTEM.norm>
0

>  <SCORE.heavy>
13

>  <SCORE.norm>
-2.99303

>  <RMSD>
0.856

$$$$
1eht cryst
 OpenBabel11021811383D
libRbt.so/2013.1/901 2013/11/27
 13 14  0  0  0  0  0  0  0  0999 V2000
   -4.6602   -7.9058   10.8060 C   0  0  0  0  0  0  0  0  0  0  0  0
   -5.1803   -7.0154   11.7410 N   0  0  0  0  0  0  0  0  0  0  0  0
   -5.6072   -7.5165   12.9436 C   0  0  0  0  0  0  0  0  0  0  0  0
   -5.4998   -8.7343   13.1004 O   0  0  0  0  0  0  0  0  0  0  0  0
   -6.1405   -6.7616   13.9576 N   0  0  0  0  0  0  0  0  0  0  0  0
   -6.5639   -7.2908   15.1657 C   0  0  0  0  0  0  0  0  0  0  0  0
   -6.2125   -5.4342   13.6540 C   0  0  0  0  0  0  0  0  0  0  0  0
   -5.7856   -4.9461   12.4530 C   0  0  0  0  0  0  0  0  0  0  0  0
   -5.2354   -5.7023   11.4022 C   0  0  0  0  0  0  0  0  0  0  0  0
   -4.8366   -5.3122   10.3059 O   0  0  0  0  0  0  0  0  0  0  0  0
   -6.0097   -3.5769   12.5018 N   0  0  0  0  0  0  0  0  0  0  0  0
   -6.5528   -3.3319   13.7179 C   0  0  0  0  0  0  0  0  0  0  0  0
   -6.6966   -4.4019   14.4498 N   0  0  0  0  0  0  0  0  0  0  0  0
  1  2  1  0  0  0  0
  2  9  1  0  0  0  0
  2  3  1  0  0  0  0
  3  5  1  0  0  0  0
  3  4  2  0  0  0  0
  5  6  1  0  0  0  0
  5  7  1  0  0  0  0
  7  8  2  0  0  0  0
  7 13  1  0  0  0  0
  8  9  1  0  0  0  0
  8 11  1  0  0  0  0
  9 10  2  0  0  0  0
 11 12  1  0  0  0  0
 12 13  2  0  0  0  0
M  END
>  <CHROM.1>
-5.75127091,-6.03728506,12.75985618,-0.77112665,1.15481240,-0.34197987

>  <Name>
1eht cryst

>  <RI>
0

>  <Rbt.Current_Directory>
/home/itssahil/PROJECTS/Mol_Feturizer/New_Systems/rnas/1eht

>  <Rbt.Executable>
rbdock ($Id: //depot/dev/client3/rdock/2013.1/src/exe/rbdock.cxx#4 $)

>  <Rbt.Library>
libRbt.so (2013.1, Build901 2013/11/27)

>  <Rbt.Parameter_File>
/export/apps/rDock/src/rDock_2013.1_src/data/scripts/dock_solv.prm

>  <Rbt.Receptor>
prm/blind_docking_80.prm

>  <SCORE>
-38.9126

>  <SCORE.INTER>
-38.9715

>  <SCORE.INTER.CONST>
1

>  <SCORE.INTER.POLAR>
-1.9251

>  <SCORE.INTER.ROT>
0

>  <SCORE.INTER.SOLV>
9.88766

>  <SCORE.INTER.VDW>
-26.4599

>  <SCORE.INTER.norm>
-2.99781

>  <SCORE.INTRA>
0

>  <SCORE.INTRA.DIHEDRAL>
0

>  <SCORE.INTRA.DIHEDRAL.0>
0

>  <SCORE.INTRA.POLAR>
0

>  <SCORE.INTRA.POLAR.0>
0

>  <SCORE.INTRA.REPUL>
0

>  <SCORE.INTRA.REPUL.0>
0

>  <SCORE.INTRA.SOLV>
0

>  <SCORE.INTRA.SOLV.lig_0>
-12.9768

>  <SCORE.INTRA.VDW>
0

>  <SCORE.INTRA.VDW.0>
0

>  <SCORE.INTRA.norm>
0

>  <SCORE.RESTR>
0.058863

>  <SCORE.RESTR.CAVITY>
0.058863

>  <SCORE.RESTR.norm>
0.00452792

>  <SCORE.SYSTEM>
0

>  <SCORE.SYSTEM.CONST>
0

>  <SCORE.SYSTEM.DIHEDRAL>
0

>  <SCORE.SYSTEM.SOLV>
0

>  <SCORE.SYSTEM.norm>
0

>  <SCORE.heavy>
13

>  <SCORE.norm>
-2.99328

>  <RMSD>
0.856

$$$$
1eht cryst
 OpenBabel11021811383D
libRbt.so/2013.1/901 2013/11/27
 13 14  0  0  0  0  0  0  0  0999 V2000
   -4.6732   -7.9156   10.8129 C   0  0  0  0  0  0  0  0  0  0  0  0
   -5.1905   -7.0270   11.7511 N   0  0  0  0  0  0  0  0  0  0  0  0
   -5.6263   -7.5322   12.9488 C   0  0  0  0  0  0  0  0  0  0  0  0
   -5.5287   -8.7517   13.0986 O   0  0  0  0  0  0  0  0  0  0  0  0
   -6.1582   -6.7795   13.9651 N   0  0  0  0  0  0  0  0  0  0  0  0
   -6.5907   -7.3128   15.1682 C   0  0  0  0  0  0  0  0  0  0  0  0
   -6.2189   -5.4497   13.6693 C   0  0  0  0  0  0  0  0  0  0  0  0
   -5.7833   -4.9576   12.4732 C   0  0  0  0  0  0  0  0  0  0  0  0
   -5.2343   -5.7116   11.4201 C   0  0  0  0  0  0  0  0  0  0  0  0
   -4.8279   -5.3178   10.3278 O   0  0  0  0  0  0  0  0  0  0  0  0
   -5.9974   -3.5871   12.5294 N   0  0  0  0  0  0  0  0  0  0  0  0
   -6.5437   -3.3455   13.7446 C   0  0  0  0  0  0  0  0  0  0  0  0
   -6.6987   -4.4187   14.4694 N   0  0  0  0  0  0  0  0  0  0  0  0
  1  2  1  0  0  0  0
  2  9  1  0  0  0  0
  2  3  1  0  0  0  0
  3  5  1  0  0  0  0
  3  4  2  0  0  0  0
  5  6  1  0  0  0  0
  5  7  1  0  0  0  0
  7  8  2  0  0  0  0
  7 13  1  0  0  0  0
  8  9  1  0  0  0  0
  8 11  1  0  0  0  0
  9 10  2  0  0  0  0
 11 12  1  0  0  0  0
 12 13  2  0  0  0  0
M  END
>  <CHROM.1>
-5.75845650,-6.05086873,12.77348832,-0.79206974,1.15323222,-0.31672506

>  <Name>
1eht cryst

>  <RI>
0

>  <Rbt.Current_Directory>
/home/itssahil/PROJECTS/Mol_Feturizer/New_Systems/rnas/1eht

>  <Rbt.Executable>
rbdock ($Id: //depot/dev/client3/rdock/2013.1/src/exe/rbdock.cxx#4 $)

>  <Rbt.Library>
libRbt.so (2013.1, Build901 2013/11/27)

>  <Rbt.Parameter_File>
/export/apps/rDock/src/rDock_2013.1_src/data/scripts/dock_solv.prm

>  <Rbt.Receptor>
prm/blind_docking_80.prm

>  <SCORE>
-38.8651

>  <SCORE.INTER>
-38.921

>  <SCORE.INTER.CONST>
1

>  <SCORE.INTER.POLAR>
-1.92685

>  <SCORE.INTER.ROT>
0

>  <SCORE.INTER.SOLV>
9.88472

>  <SCORE.INTER.VDW>
-26.4194

>  <SCORE.INTER.norm>
-2.99393

>  <SCORE.INTRA>
0

>  <SCORE.INTRA.DIHEDRAL>
0

>  <SCORE.INTRA.DIHEDRAL.0>
0

>  <SCORE.INTRA.POLAR>
0

>  <SCORE.INTRA.POLAR.0>
0

>  <SCORE.INTRA.REPUL>
0

>  <SCORE.INTRA.REPUL.0>
0

>  <SCORE.INTRA.SOLV>
0

>  <SCORE.INTRA.SOLV.lig_0>
-12.9768

>  <SCORE.INTRA.VDW>
0

>  <SCORE.INTRA.VDW.0>
0

>  <SCORE.INTRA.norm>
0

>  <SCORE.RESTR>
0.0559367

>  <SCORE.RESTR.CAVITY>
0.0559367

>  <SCORE.RESTR.norm>
0.00430282

>  <SCORE.SYSTEM>
0

>  <SCORE.SYSTEM.CONST>
0

>  <SCORE.SYSTEM.DIHEDRAL>
0

>  <SCORE.SYSTEM.SOLV>
0

>  <SCORE.SYSTEM.norm>
0

>  <SCORE.heavy>
13

>  <SCORE.norm>
-2.98962

>  <RMSD>
0.860

$$$$
1eht cryst
 OpenBabel11021811383D
libRbt.so/2013.1/901 2013/11/27
 13 14  0  0  0  0  0  0  0  0999 V2000
   -4.7808   -6.6678    9.8960 C   0  0  0  0  0  0  0  0  0  0  0  0
   -5.2679   -6.4369   11.1794 N   0  0  0  0  0  0  0  0  0  0  0  0
   -5.5890   -5.1503   11.5275 C   0  0  0  0  0  0  0  0  0  0  0  0
   -5.4125   -4.2876   10.6651 O   0  0  0  0  0  0  0  0  0  0  0  0
   -6.0779   -4.7731   12.7527 N   0  0  0  0  0  0  0  0  0  0  0  0
   -6.3968   -3.4657   13.0811 C   0  0  0  0  0  0  0  0  0  0  0  0
   -6.2174   -5.8187   13.6169 C   0  0  0  0  0  0  0  0  0  0  0  0
   -5.8935   -7.0957   13.2602 C   0  0  0  0  0  0  0  0  0  0  0  0
   -5.3927   -7.5027   12.0103 C   0  0  0  0  0  0  0  0  0  0  0  0
   -5.0875   -8.6355   11.6402 O   0  0  0  0  0  0  0  0  0  0  0  0
   -6.1626   -7.8778   14.3752 N   0  0  0  0  0  0  0  0  0  0  0  0
   -6.6261   -7.0284   15.3224 C   0  0  0  0  0  0  0  0  0  0  0  0
   -6.6820   -5.7867   14.9270 N   0  0  0  0  0  0  0  0  0  0  0  0
  1  2  1  0  0  0  0
  2  9  1  0  0  0  0
  2  3  1  0  0  0  0
  3  5  1  0  0  0  0
  3  4  2  0  0  0  0
  5  6  1  0  0  0  0
  5  7  1  0  0  0  0
  7  8  2  0  0  0  0
  7 13  1  0  0  0  0
  8  9  1  0  0  0  0
  8 11  1  0  0  0  0
  9 10  2  0  0  0  0
 11 12  1  0  0  0  0
 12 13  2  0  0  0  0
M  END
>  <CHROM.1>
-5.79794669,-6.18892868,12.58589284,-0.60691277,-1.20447309,2.72550342

>  <Name>
1eht cryst

>  <RI>
0

>  <Rbt.Current_Directory>
/home/itssahil/PROJECTS/Mol_Feturizer/New_Systems/rnas/1eht

>  <Rbt.Executable>
rbdock ($Id: //depot/dev/client3/rdock/2013.1/src/exe/rbdock.cxx#4 $)

>  <Rbt.Library>
libRbt.so (2013.1, Build901 2013/11/27)

>  <Rbt.Parameter_File>
/export/apps/rDock/src/rDock_2013.1_src/data/scripts/dock_solv.prm

>  <Rbt.Receptor>
prm/blind_docking_20.prm

>  <SCORE>
-33.4958

>  <SCORE.INTER>
-33.4958

>  <SCORE.INTER.CONST>
1

>  <SCORE.INTER.POLAR>
-0.98544

>  <SCORE.INTER.ROT>
0

>  <SCORE.INTER.SOLV>
9.51862

>  <SCORE.INTER.VDW>
-25.8186

>  <SCORE.INTER.norm>
-2.5766

>  <SCORE.INTRA>
0

>  <SCORE.INTRA.DIHEDRAL>
0

>  <SCORE.INTRA.DIHEDRAL.0>
0

>  <SCORE.INTRA.POLAR>
0

>  <SCORE.INTRA.POLAR.0>
0

>  <SCORE.INTRA.REPUL>
0

>  <SCORE.INTRA.REPUL.0>
0

>  <SCORE.INTRA.SOLV>
0

>  <SCORE.INTRA.SOLV.lig_0>
-12.9768

>  <SCORE.INTRA.VDW>
0

>  <SCORE.INTRA.VDW.0>
0

>  <SCORE.INTRA.norm>
0

>  <SCORE.RESTR>
0

>  <SCORE.RESTR.CAVITY>
0

>  <SCORE.RESTR.norm>
0

>  <SCORE.SYSTEM>
0

>  <SCORE.SYSTEM.CONST>
0

>  <SCORE.SYSTEM.DIHEDRAL>
0

>  <SCORE.SYSTEM.SOLV>
0

>  <SCORE.SYSTEM.norm>
0

>  <SCORE.heavy>
13

>  <SCORE.norm>
-2.5766

>  <RMSD>
3.023

$$$$
1eht cryst
 OpenBabel11021811383D
libRbt.so/2013.1/901 2013/11/27
 13 14  0  0  0  0  0  0  0  0999 V2000
   -4.8490   -5.8589   10.1042 C   0  0  0  0  0  0  0  0  0  0  0  0
   -5.3425   -5.8858   11.4055 N   0  0  0  0  0  0  0  0  0  0  0  0
   -5.6866   -4.6950   11.9914 C   0  0  0  0  0  0  0  0  0  0  0  0
   -5.5235   -3.6806   11.3107 O   0  0  0  0  0  0  0  0  0  0  0  0
   -6.1844   -4.5673   13.2636 N   0  0  0  0  0  0  0  0  0  0  0  0
   -6.5266   -3.3523   13.8341 C   0  0  0  0  0  0  0  0  0  0  0  0
   -6.3073   -5.7610   13.9112 C   0  0  0  0  0  0  0  0  0  0  0  0
   -5.9606   -6.9406   13.3187 C   0  0  0  0  0  0  0  0  0  0  0  0
   -5.4503   -7.0927   12.0167 C   0  0  0  0  0  0  0  0  0  0  0  0
   -5.1248   -8.1286   11.4385 O   0  0  0  0  0  0  0  0  0  0  0  0
   -6.2181   -7.9259   14.2622 N   0  0  0  0  0  0  0  0  0  0  0  0
   -6.6981   -7.2811   15.3519 C   0  0  0  0  0  0  0  0  0  0  0  0
   -6.7749   -5.9879   15.2008 N   0  0  0  0  0  0  0  0  0  0  0  0
  1  2  1  0  0  0  0
  2  9  1  0  0  0  0
  2  3  1  0  0  0  0
  3  5  1  0  0  0  0
  3  4  2  0  0  0  0
  5  6  1  0  0  0  0
  5  7  1  0  0  0  0
  7  8  2  0  0  0  0
  7 13  1  0  0  0  0
  8  9  1  0  0  0  0
  8 11  1  0  0  0  0
  9 10  2  0  0  0  0
 11 12  1  0  0  0  0
 12 13  2  0  0  0  0
M  END
>  <CHROM.1>
-5.87948419,-5.92022963,12.83065491,-0.64823967,-1.19539136,2.87935980

>  <Name>
1eht cryst

>  <RI>
0

>  <Rbt.Current_Directory>
/home/itssahil/PROJECTS/Mol_Feturizer/New_Systems/rnas/1eht

>  <Rbt.Executable>
rbdock ($Id: //depot/dev/client3/rdock/2013.1/src/exe/rbdock.cxx#4 $)

>  <Rbt.Library>
libRbt.so (2013.1, Build901 2013/11/27)

>  <Rbt.Parameter_File>
/export/apps/rDock/src/rDock_2013.1_src/data/scripts/dock_solv.prm

>  <Rbt.Receptor>
prm/pocket_docking_8.prm

>  <SCORE>
-33.8001

>  <SCORE.INTER>
-33.8001

>  <SCORE.INTER.CONST>
1

>  <SCORE.INTER.POLAR>
-0.843545

>  <SCORE.INTER.ROT>
0

>  <SCORE.INTER.SOLV>
10.0554

>  <SCORE.INTER.VDW>
-26.6734

>  <SCORE.INTER.norm>
-2.60001

>  <SCORE.INTRA>
0

>  <SCORE.INTRA.DIHEDRAL>
0

>  <SCORE.INTRA.DIHEDRAL.0>
0

>  <SCORE.INTRA.POLAR>
0

>  <SCORE.INTRA.POLAR.0>
0

>  <SCORE.INTRA.REPUL>
0

>  <SCORE.INTRA.REPUL.0>
0

>  <SCORE.INTRA.SOLV>
0

>  <SCORE.INTRA.SOLV.lig_0>
-12.9768

>  <SCORE.INTRA.VDW>
0

>  <SCORE.INTRA.VDW.0>
0

>  <SCORE.INTRA.norm>
0

>  <SCORE.RESTR>
0

>  <SCORE.RESTR.CAVITY>
0

>  <SCORE.RESTR.norm>
0

>  <SCORE.SYSTEM>
0

>  <SCORE.SYSTEM.CONST>
0

>  <SCORE.SYSTEM.DIHEDRAL>
0

>  <SCORE.SYSTEM.SOLV>
0

>  <SCORE.SYSTEM.norm>
0

>  <SCORE.heavy>
13

>  <SCORE.norm>
-2.60001

>  <RMSD>
3.102

$$$$
1eht cryst
 OpenBabel11021811383D
libRbt.so/2013.1/901 2013/11/27
 13 14  0  0  0  0  0  0  0  0999 V2000
   -4.8997   -5.8450   10.1004 C   0  0  0  0  0  0  0  0  0  0  0  0
   -5.3706   -5.9061   11.4088 N   0  0  0  0  0  0  0  0  0  0  0  0
   -5.7171   -4.7325   12.0270 C   0  0  0  0  0  0  0  0  0  0  0  0
   -5.5763   -3.7014   11.3664 O   0  0  0  0  0  0  0  0  0  0  0  0
   -6.1944   -4.6384   13.3098 N   0  0  0  0  0  0  0  0  0  0  0  0
   -6.5396   -3.4401   13.9131 C   0  0  0  0  0  0  0  0  0  0  0  0
   -6.2938   -5.8474   13.9326 C   0  0  0  0  0  0  0  0  0  0  0  0
   -5.9449   -7.0098   13.3081 C   0  0  0  0  0  0  0  0  0  0  0  0
   -5.4553   -7.1274   11.9946 C   0  0  0  0  0  0  0  0  0  0  0  0
   -5.1288   -8.1466   11.3881 O   0  0  0  0  0  0  0  0  0  0  0  0
   -6.1759   -8.0184   14.2336 N   0  0  0  0  0  0  0  0  0  0  0  0
   -6.6440   -7.4032   15.3454 C   0  0  0  0  0  0  0  0  0  0  0  0
   -6.7369   -6.1079   15.2245 N   0  0  0  0  0  0  0  0  0  0  0  0
  1  2  1  0  0  0  0
  2  9  1  0  0  0  0
  2  3  1  0  0  0  0
  3  5  1  0  0  0  0
  3  4  2  0  0  0  0
  5  6  1  0  0  0  0
  5  7  1  0  0  0  0
  7  8  2  0  0  0  0
  7 13  1  0  0  0  0
  8  9  1  0  0  0  0
  8 11  1  0  0  0  0
  9 10  2  0  0  0  0
 11 12  1  0  0  0  0
 12 13  2  0  0  0  0
M  END
>  <CHROM.1>
-5.88281227,-5.97798037,12.84173564,-0.68932576,-1.20886668,2.86328924

>  <Name>
1eht cryst

>  <RI>
0

>  <Rbt.Current_Directory>
/home/itssahil/PROJECTS/Mol_Feturizer/New_Systems/rnas/1eht

>  <Rbt.Executable>
rbdock ($Id: //depot/dev/client3/rdock/2013.1/src/exe/rbdock.cxx#4 $)

>  <Rbt.Library>
libRbt.so (2013.1, Build901 2013/11/27)

>  <Rbt.Parameter_File>
/export/apps/rDock/src/rDock_2013.1_src/data/scripts/dock_solv.prm

>  <Rbt.Receptor>
prm/blind_docking_80.prm

>  <SCORE>
-33.8041

>  <SCORE.INTER>
-33.8041

>  <SCORE.INTER.CONST>
1

>  <SCORE.INTER.POLAR>
-0.804152

>  <SCORE.INTER.ROT>
0

>  <SCORE.INTER.SOLV>
9.89229

>  <SCORE.INTER.VDW>
-26.753

>  <SCORE.INTER.norm>
-2.60032

>  <SCORE.INTRA>
0

>  <SCORE.INTRA.DIHEDRAL>
0

>  <SCORE.INTRA.DIHEDRAL.0>
0

>  <SCORE.INTRA.POLAR>
0

>  <SCORE.INTRA.POLAR.0>
0

>  <SCORE.INTRA.REPUL>
0

>  <SCORE.INTRA.REPUL.0>
0

>  <SCORE.INTRA.SOLV>
0

>  <SCORE.INTRA.SOLV.lig_0>
-12.9768

>  <SCORE.INTRA.VDW>
0

>  <SCORE.INTRA.VDW.0>
0

>  <SCORE.INTRA.norm>
0

>  <SCORE.RESTR>
0

>  <SCORE.RESTR.CAVITY>
0

>  <SCORE.RESTR.norm>
0

>  <SCORE.SYSTEM>
0

>  <SCORE.SYSTEM.CONST>
0

>  <SCORE.SYSTEM.DIHEDRAL>
0

>  <SCORE.SYSTEM.SOLV>
0

>  <SCORE.SYSTEM.norm>
0

>  <SCORE.heavy>
13

>  <SCORE.norm>
-2.60032

>  <RMSD>
3.109

$$$$
1eht cryst
 OpenBabel11021811383D
libRbt.so/2013.1/901 2013/11/27
 13 14  0  0  0  0  0  0  0  0999 V2000
   -6.4627   -7.4589   15.0488 C   0  0  0  0  0  0  0  0  0  0  0  0
   -6.0895   -6.8773   13.8405 N   0  0  0  0  0  0  0  0  0  0  0  0
   -5.5451   -7.6844   12.8751 C   0  0  0  0  0  0  0  0  0  0  0  0
   -5.4228   -8.8770   13.1611 O   0  0  0  0  0  0  0  0  0  0  0  0
   -5.1319   -7.2527   11.6401 N   0  0  0  0  0  0  0  0  0  0  0  0
   -4.5857   -8.0880   10.6795 C   0  0  0  0  0  0  0  0  0  0  0  0
   -5.3132   -5.9140   11.4542 C   0  0  0  0  0  0  0  0  0  0  0  0
   -5.8550   -5.1195   12.4226 C   0  0  0  0  0  0  0  0  0  0  0  0
   -6.2856   -5.5425   13.6932 C   0  0  0  0  0  0  0  0  0  0  0  0
   -6.7791   -4.8697   14.5971 O   0  0  0  0  0  0  0  0  0  0  0  0
   -5.8848   -3.8393   11.8864 N   0  0  0  0  0  0  0  0  0  0  0  0
   -5.3629   -3.9452   10.6414 C   0  0  0  0  0  0  0  0  0  0  0  0
   -5.0051   -5.1596   10.3275 N   0  0  0  0  0  0  0  0  0  0  0  0
  1  2  1  0  0  0  0
  2  9  1  0  0  0  0
  2  3  1  0  0  0  0
  3  5  1  0  0  0  0
  3  4  2  0  0  0  0
  5  6  1  0  0  0  0
  5  7  1  0  0  0  0
  7  8  2  0  0  0  0
  7 13  1  0  0  0  0
  8  9  1  0  0  0  0
  8 11  1  0  0  0  0
  9 10  2  0  0  0  0
 11 12  1  0  0  0  0
 12 13  2  0  0  0  0
M  END
>  <CHROM.1>
-5.68010609,-6.23561130,12.52085242,1.90698418,-1.15129399,2.69529373

>  <Name>
1eht cryst

>  <RI>
0

>  <Rbt.Current_Directory>
/home/itssahil/PROJECTS/Mol_Feturizer/New_Systems/rnas/1eht

>  <Rbt.Executable>
rbdock ($Id: //depot/dev/client3/rdock/2013.1/src/exe/rbdock.cxx#4 $)

>  <Rbt.Library>
libRbt.so (2013.1, Build901 2013/11/27)

>  <Rbt.Parameter_File>
/export/apps/rDock/src/rDock_2013.1_src/data/scripts/dock_solv.prm

>  <Rbt.Receptor>
prm/pocket_docking_6.prm

>  <SCORE>
-34.4156

>  <SCORE.INTER>
-34.4156

>  <SCORE.INTER.CONST>
1

>  <SCORE.INTER.POLAR>
-1.09476

>  <SCORE.INTER.ROT>
0

>  <SCORE.INTER.SOLV>
9.90959

>  <SCORE.INTER.VDW>
-26.1978

>  <SCORE.INTER.norm>
-2.64736

>  <SCORE.INTRA>
0

>  <SCORE.INTRA.DIHEDRAL>
0

>  <SCORE.INTRA.DIHEDRAL.0>
0

>  <SCORE.INTRA.POLAR>
0

>  <SCORE.INTRA.POLAR.0>
0

>  <SCORE.INTRA.REPUL>
0

>  <SCORE.INTRA.REPUL.0>
0

>  <SCORE.INTRA.SOLV>
0

>  <SCORE.INTRA.SOLV.lig_0>
-12.9768

>  <SCORE.INTRA.VDW>
0

>  <SCORE.INTRA.VDW.0>
0

>  <SCORE.INTRA.norm>
0

>  <SCORE.RESTR>
0

>  <SCORE.RESTR.CAVITY>
0

>  <SCORE.RESTR.norm>
0

>  <SCORE.SYSTEM>
0

>  <SCORE.SYSTEM.CONST>
0

>  <SCORE.SYSTEM.DIHEDRAL>
0

>  <SCORE.SYSTEM.SOLV>
0

>  <SCORE.SYSTEM.norm>
0

>  <SCORE.heavy>
13

>  <SCORE.norm>
-2.64736

>  <RMSD>
3.158

$$$$
1eht cryst
 OpenBabel11021811383D
libRbt.so/2013.1/901 2013/11/27
 13 14  0  0  0  0  0  0  0  0999 V2000
   -6.4694   -7.4413   15.0563 C   0  0  0  0  0  0  0  0  0  0  0  0
   -6.1061   -6.8651   13.8424 N   0  0  0  0  0  0  0  0  0  0  0  0
   -5.5943   -7.6810   12.8667 C   0  0  0  0  0  0  0  0  0  0  0  0
   -5.4900   -8.8762   13.1491 O   0  0  0  0  0  0  0  0  0  0  0  0
   -5.1943   -7.2554   11.6252 N   0  0  0  0  0  0  0  0  0  0  0  0
   -4.6811   -8.0996   10.6543 C   0  0  0  0  0  0  0  0  0  0  0  0
   -5.3530   -5.9132   11.4442 C   0  0  0  0  0  0  0  0  0  0  0  0
   -5.8626   -5.1099   12.4229 C   0  0  0  0  0  0  0  0  0  0  0  0
   -6.2791   -5.5266   13.7003 C   0  0  0  0  0  0  0  0  0  0  0  0
   -6.7438   -4.8458   14.6135 O   0  0  0  0  0  0  0  0  0  0  0  0
   -5.8770   -3.8286   11.8889 N   0  0  0  0  0  0  0  0  0  0  0  0
   -5.3790   -3.9425   10.6348 C   0  0  0  0  0  0  0  0  0  0  0  0
   -5.0501   -5.1630   10.3133 N   0  0  0  0  0  0  0  0  0  0  0  0
  1  2  1  0  0  0  0
  2  9  1  0  0  0  0
  2  3  1  0  0  0  0
  3  5  1  0  0  0  0
  3  4  2  0  0  0  0
  5  6  1  0  0  0  0
  5  7  1  0  0  0  0
  7  8  2  0  0  0  0
  7 13  1  0  0  0  0
  8  9  1  0  0  0  0
  8 11  1  0  0  0  0
  9 10  2  0  0  0  0
 11 12  1  0  0  0  0
 12 13  2  0  0  0  0
M  END
>  <CHROM.1>
-5.70748097,-6.22936141,12.51669114,1.93256087,-1.17516585,2.72018534

>  <Name>
1eht cryst

>  <RI>
0

>  <Rbt.Current_Directory>
/home/itssahil/PROJECTS/Mol_Feturizer/New_Systems/rnas/1eht

>  <Rbt.Executable>
rbdock ($Id: //depot/dev/client3/rdock/2013.1/src/exe/rbdock.cxx#4 $)

>  <Rbt.Library>
libRbt.so (2013.1, Build901 2013/11/27)

>  <Rbt.Parameter_File>
/export/apps/rDock/src/rDock_2013.1_src/data/scripts/dock_solv.prm

>  <Rbt.Receptor>
prm/blind_docking_100.prm

>  <SCORE>
-34.4524

>  <SCORE.INTER>
-34.4524

>  <SCORE.INTER.CONST>
1

>  <SCORE.INTER.POLAR>
-1.06453

>  <SCORE.INTER.ROT>
0

>  <SCORE.INTER.SOLV>
9.9126

>  <SCORE.INTER.VDW>
-26.3241

>  <SCORE.INTER.norm>
-2.65019

>  <SCORE.INTRA>
0

>  <SCORE.INTRA.DIHEDRAL>
0

>  <SCORE.INTRA.DIHEDRAL.0>
0

>  <SCORE.INTRA.POLAR>
0

>  <SCORE.INTRA.POLAR.0>
0

>  <SCORE.INTRA.REPUL>
0

>  <SCORE.INTRA.REPUL.0>
0

>  <SCORE.INTRA.SOLV>
0

>  <SCORE.INTRA.SOLV.lig_0>
-12.9768

>  <SCORE.INTRA.VDW>
0

>  <SCORE.INTRA.VDW.0>
0

>  <SCORE.INTRA.norm>
0

>  <SCORE.RESTR>
0

>  <SCORE.RESTR.CAVITY>
0

>  <SCORE.RESTR.norm>
0

>  <SCORE.SYSTEM>
0

>  <SCORE.SYSTEM.CONST>
0

>  <SCORE.SYSTEM.DIHEDRAL>
0

>  <SCORE.SYSTEM.SOLV>
0

>  <SCORE.SYSTEM.norm>
0

>  <SCORE.heavy>
13

>  <SCORE.norm>
-2.65019

>  <RMSD>
3.159

$$$$
1eht cryst
 OpenBabel11021811383D
libRbt.so/2013.1/901 2013/11/27
 13 14  0  0  0  0  0  0  0  0999 V2000
   -6.4586   -7.4486   15.0559 C   0  0  0  0  0  0  0  0  0  0  0  0
   -6.0928   -6.8720   13.8430 N   0  0  0  0  0  0  0  0  0  0  0  0
   -5.5626   -7.6846   12.8744 C   0  0  0  0  0  0  0  0  0  0  0  0
   -5.4453   -8.8774   13.1619 O   0  0  0  0  0  0  0  0  0  0  0  0
   -5.1579   -7.2582   11.6347 N   0  0  0  0  0  0  0  0  0  0  0  0
   -4.6259   -8.0991   10.6710 C   0  0  0  0  0  0  0  0  0  0  0  0
   -5.3323   -5.9188   11.4476 C   0  0  0  0  0  0  0  0  0  0  0  0
   -5.8601   -5.1188   12.4192 C   0  0  0  0  0  0  0  0  0  0  0  0
   -6.2817   -5.5363   13.6946 C   0  0  0  0  0  0  0  0  0  0  0  0
   -6.7626   -4.8584   14.6016 O   0  0  0  0  0  0  0  0  0  0  0  0
   -5.8866   -3.8395   11.8805 N   0  0  0  0  0  0  0  0  0  0  0  0
   -5.3768   -3.9514   10.6310 C   0  0  0  0  0  0  0  0  0  0  0  0
   -5.0298   -5.1687   10.3165 N   0  0  0  0  0  0  0  0  0  0  0  0
  1  2  1  0  0  0  0
  2  9  1  0  0  0  0
  2  3  1  0  0  0  0
  3  5  1  0  0  0  0
  3  4  2  0  0  0  0
  5  6  1  0  0  0  0
  5  7  1  0  0  0  0
  7  8  2  0  0  0  0
  7 13  1  0  0  0  0
  8  9  1  0  0  0  0
  8 11  1  0  0  0  0
  9 10  2  0  0  0  0
 11 12  1  0  0  0  0
 12 13  2  0  0  0  0
M  END
>  <CHROM.1>
-5.69147462,-6.23576817,12.51825017,1.91160809,-1.16235258,2.69738167

>  <Name>
1eht cryst

>  <RI>
0

>  <Rbt.Current_Directory>
/home/itssahil/PROJECTS/Mol_Feturizer/New_Systems/rnas/1eht

>  <Rbt.Executable>
rbdock ($Id: //depot/dev/client3/rdock/2013.1/src/exe/rbdock.cxx#4 $)

>  <Rbt.Library>
libRbt.so (2013.1, Build901 2013/11/27)

>  <Rbt.Parameter_File>
/export/apps/rDock/src/rDock_2013.1_src/data/scripts/dock_solv.prm

>  <Rbt.Receptor>
prm/pocket_docking_6.prm

>  <SCORE>
-34.4551

>  <SCORE.INTER>
-34.4551

>  <SCORE.INTER.CONST>
1

>  <SCORE.INTER.POLAR>
-1.08165

>  <SCORE.INTER.ROT>
0

>  <SCORE.INTER.SOLV>
9.90267

>  <SCORE.INTER.VDW>
-26.2655

>  <SCORE.INTER.norm>
-2.65039

>  <SCORE.INTRA>
0

>  <SCORE.INTRA.DIHEDRAL>
0

>  <SCORE.INTRA.DIHEDRAL.0>
0

>  <SCORE.INTRA.POLAR>
0

>  <SCORE.INTRA.POLAR.0>
0

>  <SCORE.INTRA.REPUL>
0

>  <SCORE.INTRA.REPUL.0>
0

>  <SCORE.INTRA.SOLV>
0

>  <SCORE.INTRA.SOLV.lig_0>
-12.9768

>  <SCORE.INTRA.VDW>
0

>  <SCORE.INTRA.VDW.0>
0

>  <SCORE.INTRA.norm>
0

>  <SCORE.RESTR>
0

>  <SCORE.RESTR.CAVITY>
0

>  <SCORE.RESTR.norm>
0

>  <SCORE.SYSTEM>
0

>  <SCORE.SYSTEM.CONST>
0

>  <SCORE.SYSTEM.DIHEDRAL>
0

>  <SCORE.SYSTEM.SOLV>
0

>  <SCORE.SYSTEM.norm>
0

>  <SCORE.heavy>
13

>  <SCORE.norm>
-2.65039

>  <RMSD>
3.159

$$$$
1eht cryst
 OpenBabel11021811383D
libRbt.so/2013.1/901 2013/11/27
 13 14  0  0  0  0  0  0  0  0999 V2000
   -6.0891   -3.7962   11.8953 C   0  0  0  0  0  0  0  0  0  0  0  0
   -5.9721   -5.0805   12.4191 N   0  0  0  0  0  0  0  0  0  0  0  0
   -5.4724   -6.0666   11.6082 C   0  0  0  0  0  0  0  0  0  0  0  0
   -5.1676   -5.7328   10.4615 O   0  0  0  0  0  0  0  0  0  0  0  0
   -5.3010   -7.3744   11.9861 N   0  0  0  0  0  0  0  0  0  0  0  0
   -4.7923   -8.3536   11.1487 C   0  0  0  0  0  0  0  0  0  0  0  0
   -5.6844   -7.6130   13.2728 C   0  0  0  0  0  0  0  0  0  0  0  0
   -6.1818   -6.6240   14.0710 C   0  0  0  0  0  0  0  0  0  0  0  0
   -6.3639   -5.2784   13.7033 C   0  0  0  0  0  0  0  0  0  0  0  0
   -6.8054   -4.3526   14.3824 O   0  0  0  0  0  0  0  0  0  0  0  0
   -6.4582   -7.2275   15.2903 N   0  0  0  0  0  0  0  0  0  0  0  0
   -6.1130   -8.5291   15.1479 C   0  0  0  0  0  0  0  0  0  0  0  0
   -5.6439   -8.8178   13.9656 N   0  0  0  0  0  0  0  0  0  0  0  0
  1  2  1  0  0  0  0
  2  9  1  0  0  0  0
  2  3  1  0  0  0  0
  3  5  1  0  0  0  0
  3  4  2  0  0  0  0
  5  6  1  0  0  0  0
  5  7  1  0  0  0  0
  7  8  2  0  0  0  0
  7 13  1  0  0  0  0
  8  9  1  0  0  0  0
  8 11  1  0  0  0  0
  9 10  2  0  0  0  0
 11 12  1  0  0  0  0
 12 13  2  0  0  0  0
M  END
>  <CHROM.1>
-5.84865259,-6.48500799,12.99597176,1.40894482,1.18262103,-0.59321276

>  <Name>
1eht cryst

>  <RI>
0

>  <Rbt.Current_Directory>
/home/itssahil/PROJECTS/Mol_Feturizer/New_Systems/rnas/1eht

>  <Rbt.Executable>
rbdock ($Id: //depot/dev/client3/rdock/2013.1/src/exe/rbdock.cxx#4 $)

>  <Rbt.Library>
libRbt.so (2013.1, Build901 2013/11/27)

>  <Rbt.Parameter_File>
/export/apps/rDock/src/rDock_2013.1_src/data/scripts/dock_solv.prm

>  <Rbt.Receptor>
prm/pocket_docking_5.prm

>  <SCORE>
-39.083

>  <SCORE.INTER>
-39.083

>  <SCORE.INTER.CONST>
1

>  <SCORE.INTER.POLAR>
-2.13884

>  <SCORE.INTER.ROT>
0

>  <SCORE.INTER.SOLV>
9.91448

>  <SCORE.INTER.VDW>
-25.8307

>  <SCORE.INTER.norm>
-3.00638

>  <SCORE.INTRA>
0

>  <SCORE.INTRA.DIHEDRAL>
0

>  <SCORE.INTRA.DIHEDRAL.0>
0

>  <SCORE.INTRA.POLAR>
0

>  <SCORE.INTRA.POLAR.0>
0

>  <SCORE.INTRA.REPUL>
0

>  <SCORE.INTRA.REPUL.0>
0

>  <SCORE.INTRA.SOLV>
0

>  <SCORE.INTRA.SOLV.lig_0>
-12.9768

>  <SCORE.INTRA.VDW>
0

>  <SCORE.INTRA.VDW.0>
0

>  <SCORE.INTRA.norm>
0

>  <SCORE.RESTR>
0

>  <SCORE.RESTR.CAVITY>
0

>  <SCORE.RESTR.norm>
0

>  <SCORE.SYSTEM>
0

>  <SCORE.SYSTEM.CONST>
0

>  <SCORE.SYSTEM.DIHEDRAL>
0

>  <SCORE.SYSTEM.SOLV>
0

>  <SCORE.SYSTEM.norm>
0

>  <SCORE.heavy>
13

>  <SCORE.norm>
-3.00638

>  <RMSD>
3.373

$$$$
1eht cryst
 OpenBabel11021811383D
libRbt.so/2013.1/901 2013/11/27
 13 14  0  0  0  0  0  0  0  0999 V2000
   -6.0441   -3.8292   11.9074 C   0  0  0  0  0  0  0  0  0  0  0  0
   -5.9457   -5.1137   12.4347 N   0  0  0  0  0  0  0  0  0  0  0  0
   -5.4491   -6.1067   11.6303 C   0  0  0  0  0  0  0  0  0  0  0  0
   -5.1303   -5.7785   10.4859 O   0  0  0  0  0  0  0  0  0  0  0  0
   -5.2953   -7.4154   12.0123 N   0  0  0  0  0  0  0  0  0  0  0  0
   -4.7893   -8.4017   11.1815 C   0  0  0  0  0  0  0  0  0  0  0  0
   -5.6929   -7.6473   13.2959 C   0  0  0  0  0  0  0  0  0  0  0  0
   -6.1870   -6.6514   14.0876 C   0  0  0  0  0  0  0  0  0  0  0  0
   -6.3513   -5.3048   13.7156 C   0  0  0  0  0  0  0  0  0  0  0  0
   -6.7891   -4.3729   14.3888 O   0  0  0  0  0  0  0  0  0  0  0  0
   -6.4810   -7.2495   15.3054 N   0  0  0  0  0  0  0  0  0  0  0  0
   -6.1485   -8.5550   15.1688 C   0  0  0  0  0  0  0  0  0  0  0  0
   -5.6717   -8.8511   13.9914 N   0  0  0  0  0  0  0  0  0  0  0  0
  1  2  1  0  0  0  0
  2  9  1  0  0  0  0
  2  3  1  0  0  0  0
  3  5  1  0  0  0  0
  3  4  2  0  0  0  0
  5  6  1  0  0  0  0
  5  7  1  0  0  0  0
  7  8  2  0  0  0  0
  7 13  1  0  0  0  0
  8  9  1  0  0  0  0
  8 11  1  0  0  0  0
  9 10  2  0  0  0  0
 11 12  1  0  0  0  0
 12 13  2  0  0  0  0
M  END
>  <CHROM.1>
-5.84257823,-6.51823670,13.01538002,1.37212395,1.18075028,-0.56112635

>  <Name>
1eht cryst

>  <RI>
0

>  <Rbt.Current_Directory>
/home/itssahil/PROJECTS/Mol_Feturizer/New_Systems/rnas/1eht

>  <Rbt.Executable>
rbdock ($Id: //depot/dev/client3/rdock/2013.1/src/exe/rbdock.cxx#4 $)

>  <Rbt.Library>
libRbt.so (2013.1, Build901 2013/11/27)

>  <Rbt.Parameter_File>
/export/apps/rDock/src/rDock_2013.1_src/data/scripts/dock_solv.prm

>  <Rbt.Receptor>
prm/pocket_docking_6.prm

>  <SCORE>
-39.0374

>  <SCORE.INTER>
-39.0374

>  <SCORE.INTER.CONST>
1

>  <SCORE.INTER.POLAR>
-2.1417

>  <SCORE.INTER.ROT>
0

>  <SCORE.INTER.SOLV>
9.9167

>  <SCORE.INTER.VDW>
-25.7915

>  <SCORE.INTER.norm>
-3.00288

>  <SCORE.INTRA>
0

>  <SCORE.INTRA.DIHEDRAL>
0

>  <SCORE.INTRA.DIHEDRAL.0>
0

>  <SCORE.INTRA.POLAR>
0

>  <SCORE.INTRA.POLAR.0>
0

>  <SCORE.INTRA.REPUL>
0

>  <SCORE.INTRA.REPUL.0>
0

>  <SCORE.INTRA.SOLV>
0

>  <SCORE.INTRA.SOLV.lig_0>
-12.9768

>  <SCORE.INTRA.VDW>
0

>  <SCORE.INTRA.VDW.0>
0

>  <SCORE.INTRA.norm>
0

>  <SCORE.RESTR>
0

>  <SCORE.RESTR.CAVITY>
0

>  <SCORE.RESTR.norm>
0

>  <SCORE.SYSTEM>
0

>  <SCORE.SYSTEM.CONST>
0

>  <SCORE.SYSTEM.DIHEDRAL>
0

>  <SCORE.SYSTEM.SOLV>
0

>  <SCORE.SYSTEM.norm>
0

>  <SCORE.heavy>
13

>  <SCORE.norm>
-3.00288

>  <RMSD>
3.373

$$$$
1eht cryst
 OpenBabel11021811383D
libRbt.so/2013.1/901 2013/11/27
 13 14  0  0  0  0  0  0  0  0999 V2000
   -6.0855   -3.7939   11.9013 C   0  0  0  0  0  0  0  0  0  0  0  0
   -5.9707   -5.0791   12.4232 N   0  0  0  0  0  0  0  0  0  0  0  0
   -5.4765   -6.0658   11.6096 C   0  0  0  0  0  0  0  0  0  0  0  0
   -5.1744   -5.7316   10.4623 O   0  0  0  0  0  0  0  0  0  0  0  0
   -5.3078   -7.3745   11.9855 N   0  0  0  0  0  0  0  0  0  0  0  0
   -4.8046   -8.3543   11.1454 C   0  0  0  0  0  0  0  0  0  0  0  0
   -5.6876   -7.6134   13.2732 C   0  0  0  0  0  0  0  0  0  0  0  0
   -6.1795   -6.6238   14.0741 C   0  0  0  0  0  0  0  0  0  0  0  0
   -6.3588   -5.2773   13.7085 C   0  0  0  0  0  0  0  0  0  0  0  0
   -6.7954   -4.3510   14.3900 O   0  0  0  0  0  0  0  0  0  0  0  0
   -6.4537   -7.2279   15.2936 N   0  0  0  0  0  0  0  0  0  0  0  0
   -6.1128   -8.5303   15.1487 C   0  0  0  0  0  0  0  0  0  0  0  0
   -5.6485   -8.8191   13.9646 N   0  0  0  0  0  0  0  0  0  0  0  0
  1  2  1  0  0  0  0
  2  9  1  0  0  0  0
  2  3  1  0  0  0  0
  3  5  1  0  0  0  0
  3  4  2  0  0  0  0
  5  6  1  0  0  0  0
  5  7  1  0  0  0  0
  7  8  2  0  0  0  0
  7 13  1  0  0  0  0
  8  9  1  0  0  0  0
  8 11  1  0  0  0  0
  9 10  2  0  0  0  0
 11 12  1  0  0  0  0
 12 13  2  0  0  0  0
M  END
>  <CHROM.1>
-5.84944512,-6.48463520,12.99814764,1.40727550,1.18696904,-0.59055426

>  <Name>
1eht cryst

>  <RI>
0

>  <Rbt.Current_Directory>
/home/itssahil/PROJECTS/Mol_Feturizer/New_Systems/rnas/1eht

>  <Rbt.Executable>
rbdock ($Id: //depot/dev/client3/rdock/2013.1/src/exe/rbdock.cxx#4 $)

>  <Rbt.Library>
libRbt.so (2013.1, Build901 2013/11/27)

>  <Rbt.Parameter_File>
/export/apps/rDock/src/rDock_2013.1_src/data/scripts/dock_solv.prm

>  <Rbt.Receptor>
prm/pocket_docking_3.prm

>  <SCORE>
-39.0879

>  <SCORE.INTER>
-39.0879

>  <SCORE.INTER.CONST>
1

>  <SCORE.INTER.POLAR>
-2.133

>  <SCORE.INTER.ROT>
0

>  <SCORE.INTER.SOLV>
9.91236

>  <SCORE.INTER.VDW>
-25.8527

>  <SCORE.INTER.norm>
-3.00676

>  <SCORE.INTRA>
0

>  <SCORE.INTRA.DIHEDRAL>
0

>  <SCORE.INTRA.DIHEDRAL.0>
0

>  <SCORE.INTRA.POLAR>
0

>  <SCORE.INTRA.POLAR.0>
0

>  <SCORE.INTRA.REPUL>
0

>  <SCORE.INTRA.REPUL.0>
0

>  <SCORE.INTRA.SOLV>
0

>  <SCORE.INTRA.SOLV.lig_0>
-12.9768

>  <SCORE.INTRA.VDW>
0

>  <SCORE.INTRA.VDW.0>
0

>  <SCORE.INTRA.norm>
0

>  <SCORE.RESTR>
0

>  <SCORE.RESTR.CAVITY>
0

>  <SCORE.RESTR.norm>
0

>  <SCORE.SYSTEM>
0

>  <SCORE.SYSTEM.CONST>
0

>  <SCORE.SYSTEM.DIHEDRAL>
0

>  <SCORE.SYSTEM.SOLV>
0

>  <SCORE.SYSTEM.norm>
0

>  <SCORE.heavy>
13

>  <SCORE.norm>
-3.00676

>  <RMSD>
3.375

$$$$
1eht cryst
 OpenBabel11021811383D
libRbt.so/2013.1/901 2013/11/27
 13 14  0  0  0  0  0  0  0  0999 V2000
   -6.1128   -3.7921   11.8969 C   0  0  0  0  0  0  0  0  0  0  0  0
   -5.9941   -5.0775   12.4177 N   0  0  0  0  0  0  0  0  0  0  0  0
   -5.5092   -6.0648   11.5992 C   0  0  0  0  0  0  0  0  0  0  0  0
   -5.2184   -5.7309   10.4489 O   0  0  0  0  0  0  0  0  0  0  0  0
   -5.3382   -7.3736   11.9734 N   0  0  0  0  0  0  0  0  0  0  0  0
   -4.8446   -8.3540   11.1283 C   0  0  0  0  0  0  0  0  0  0  0  0
   -5.7053   -7.6121   13.2648 C   0  0  0  0  0  0  0  0  0  0  0  0
   -6.1880   -6.6220   14.0707 C   0  0  0  0  0  0  0  0  0  0  0  0
   -6.3695   -5.2753   13.7068 C   0  0  0  0  0  0  0  0  0  0  0  0
   -6.7981   -4.3485   14.3927 O   0  0  0  0  0  0  0  0  0  0  0  0
   -6.4506   -7.2257   15.2929 N   0  0  0  0  0  0  0  0  0  0  0  0
   -6.1126   -8.5286   15.1446 C   0  0  0  0  0  0  0  0  0  0  0  0
   -5.6605   -8.8179   13.9558 N   0  0  0  0  0  0  0  0  0  0  0  0
  1  2  1  0  0  0  0
  2  9  1  0  0  0  0
  2  3  1  0  0  0  0
  3  5  1  0  0  0  0
  3  4  2  0  0  0  0
  5  6  1  0  0  0  0
  5  7  1  0  0  0  0
  7  8  2  0  0  0  0
  7 13  1  0  0  0  0
  8  9  1  0  0  0  0
  8 11  1  0  0  0  0
  9 10  2  0  0  0  0
 11 12  1  0  0  0  0
 12 13  2  0  0  0  0
M  END
>  <CHROM.1>
-5.86863815,-6.48317882,12.99142871,1.42008748,1.19592471,-0.60246991

>  <Name>
1eht cryst

>  <RI>
224

>  <Rbt.Current_Directory>
/home/itssahil/PROJECTS/Mol_Feturizer/New_Systems/rnas/1eht

>  <Rbt.Executable>
rbdock ($Id: //depot/dev/client3/rdock/2013.1/src/exe/rbdock.cxx#4 $)

>  <Rbt.Library>
libRbt.so (2013.1, Build901 2013/11/27)

>  <Rbt.Parameter_File>
/export/apps/rDock/src/rDock_2013.1_src/data/scripts/dock_solv.prm

>  <Rbt.Receptor>
prm/pocket_docking_7.prm

>  <SCORE>
-39.0895

>  <SCORE.INTER>
-39.0895

>  <SCORE.INTER.CONST>
1

>  <SCORE.INTER.POLAR>
-2.13185

>  <SCORE.INTER.ROT>
0

>  <SCORE.INTER.SOLV>
9.89066

>  <SCORE.INTER.VDW>
-25.8504

>  <SCORE.INTER.norm>
-3.00689

>  <SCORE.INTRA>
0

>  <SCORE.INTRA.DIHEDRAL>
0

>  <SCORE.INTRA.DIHEDRAL.0>
0

>  <SCORE.INTRA.POLAR>
0

>  <SCORE.INTRA.POLAR.0>
0

>  <SCORE.INTRA.REPUL>
0

>  <SCORE.INTRA.REPUL.0>
0

>  <SCORE.INTRA.SOLV>
0

>  <SCORE.INTRA.SOLV.lig_0>
-12.9768

>  <SCORE.INTRA.VDW>
0

>  <SCORE.INTRA.VDW.0>
0

>  <SCORE.INTRA.norm>
0

>  <SCORE.RESTR>
0

>  <SCORE.RESTR.CAVITY>
0

>  <SCORE.RESTR.norm>
0

>  <SCORE.SYSTEM>
0

>  <SCORE.SYSTEM.CONST>
0

>  <SCORE.SYSTEM.DIHEDRAL>
0

>  <SCORE.SYSTEM.SOLV>
0

>  <SCORE.SYSTEM.norm>
0

>  <SCORE.heavy>
13

>  <SCORE.norm>
-3.00689

>  <RMSD>
3.376

$$$$
1eht cryst
 OpenBabel11021811383D
libRbt.so/2013.1/901 2013/11/27
 13 14  0  0  0  0  0  0  0  0999 V2000
   -6.0672   -3.7673   11.9341 C   0  0  0  0  0  0  0  0  0  0  0  0
   -5.9582   -5.0572   12.4458 N   0  0  0  0  0  0  0  0  0  0  0  0
   -5.4744   -6.0409   11.6224 C   0  0  0  0  0  0  0  0  0  0  0  0
   -5.1757   -5.7001   10.4762 O   0  0  0  0  0  0  0  0  0  0  0  0
   -5.3124   -7.3535   11.9876 N   0  0  0  0  0  0  0  0  0  0  0  0
   -4.8198   -8.3302   11.1378 C   0  0  0  0  0  0  0  0  0  0  0  0
   -5.6875   -7.5996   13.2753 C   0  0  0  0  0  0  0  0  0  0  0  0
   -6.1690   -6.6129   14.0861 C   0  0  0  0  0  0  0  0  0  0  0  0
   -6.3413   -5.2626   13.7315 C   0  0  0  0  0  0  0  0  0  0  0  0
   -6.7685   -4.3385   14.4220 O   0  0  0  0  0  0  0  0  0  0  0  0
   -6.4412   -7.2243   15.3024 N   0  0  0  0  0  0  0  0  0  0  0  0
   -6.1096   -8.5278   15.1460 C   0  0  0  0  0  0  0  0  0  0  0  0
   -5.6529   -8.8107   13.9575 N   0  0  0  0  0  0  0  0  0  0  0  0
  1  2  1  0  0  0  0
  2  9  1  0  0  0  0
  2  3  1  0  0  0  0
  3  5  1  0  0  0  0
  3  4  2  0  0  0  0
  5  6  1  0  0  0  0
  5  7  1  0  0  0  0
  7  8  2  0  0  0  0
  7 13  1  0  0  0  0
  8  9  1  0  0  0  0
  8 11  1  0  0  0  0
  9 10  2  0  0  0  0
 11 12  1  0  0  0  0
 12 13  2  0  0  0  0
M  END
>  <CHROM.1>
-5.84333045,-6.46778281,13.00958813,1.39987392,1.19464783,-0.57617462

>  <Name>
1eht cryst

>  <RI>
0

>  <Rbt.Current_Directory>
/home/itssahil/PROJECTS/Mol_Feturizer/New_Systems/rnas/1eht

>  <Rbt.Executable>
rbdock ($Id: //depot/dev/client3/rdock/2013.1/src/exe/rbdock.cxx#4 $)

>  <Rbt.Library>
libRbt.so (2013.1, Build901 2013/11/27)

>  <Rbt.Parameter_File>
/export/apps/rDock/src/rDock_2013.1_src/data/scripts/dock_solv.prm

>  <Rbt.Receptor>
prm/pocket_docking_6.prm

>  <SCORE>
-39.0556

>  <SCORE.INTER>
-39.0556

>  <SCORE.INTER.CONST>
1

>  <SCORE.INTER.POLAR>
-2.11006

>  <SCORE.INTER.ROT>
0

>  <SCORE.INTER.SOLV>
9.93896

>  <SCORE.INTER.VDW>
-25.9165

>  <SCORE.INTER.norm>
-3.00428

>  <SCORE.INTRA>
0

>  <SCORE.INTRA.DIHEDRAL>
0

>  <SCORE.INTRA.DIHEDRAL.0>
0

>  <SCORE.INTRA.POLAR>
0

>  <SCORE.INTRA.POLAR.0>
0

>  <SCORE.INTRA.REPUL>
0

>  <SCORE.INTRA.REPUL.0>
0

>  <SCORE.INTRA.SOLV>
0

>  <SCORE.INTRA.SOLV.lig_0>
-12.9768

>  <SCORE.INTRA.VDW>
0

>  <SCORE.INTRA.VDW.0>
0

>  <SCORE.INTRA.norm>
0

>  <SCORE.RESTR>
0

>  <SCORE.RESTR.CAVITY>
0

>  <SCORE.RESTR.norm>
0

>  <SCORE.SYSTEM>
0

>  <SCORE.SYSTEM.CONST>
0

>  <SCORE.SYSTEM.DIHEDRAL>
0

>  <SCORE.SYSTEM.SOLV>
0

>  <SCORE.SYSTEM.norm>
0

>  <SCORE.heavy>
13

>  <SCORE.norm>
-3.00428

>  <RMSD>
3.384

$$$$
1eht cryst
 OpenBabel11021811383D
libRbt.so/2013.1/901 2013/11/27
 13 14  0  0  0  0  0  0  0  0999 V2000
   -6.0783   -3.7396   11.9282 C   0  0  0  0  0  0  0  0  0  0  0  0
   -5.9651   -5.0313   12.4344 N   0  0  0  0  0  0  0  0  0  0  0  0
   -5.4772   -6.0097   11.6071 C   0  0  0  0  0  0  0  0  0  0  0  0
   -5.1789   -5.6628   10.4626 O   0  0  0  0  0  0  0  0  0  0  0  0
   -5.3108   -7.3232   11.9667 N   0  0  0  0  0  0  0  0  0  0  0  0
   -4.8141   -8.2945   11.1130 C   0  0  0  0  0  0  0  0  0  0  0  0
   -5.6861   -7.5763   13.2530 C   0  0  0  0  0  0  0  0  0  0  0  0
   -6.1717   -6.5949   14.0677 C   0  0  0  0  0  0  0  0  0  0  0  0
   -6.3485   -5.2437   13.7188 C   0  0  0  0  0  0  0  0  0  0  0  0
   -6.7795   -4.3241   14.4131 O   0  0  0  0  0  0  0  0  0  0  0  0
   -6.4427   -7.2125   15.2811 N   0  0  0  0  0  0  0  0  0  0  0  0
   -6.1063   -8.5142   15.1193 C   0  0  0  0  0  0  0  0  0  0  0  0
   -5.6477   -8.7903   13.9299 N   0  0  0  0  0  0  0  0  0  0  0  0
  1  2  1  0  0  0  0
  2  9  1  0  0  0  0
  2  3  1  0  0  0  0
  3  5  1  0  0  0  0
  3  4  2  0  0  0  0
  5  6  1  0  0  0  0
  5  7  1  0  0  0  0
  7  8  2  0  0  0  0
  7 13  1  0  0  0  0
  8  9  1  0  0  0  0
  8 11  1  0  0  0  0
  9 10  2  0  0  0  0
 11 12  1  0  0  0  0
 12 13  2  0  0  0  0
M  END
>  <CHROM.1>
-5.84568254,-6.44391629,12.99208552,1.40678621,1.19206529,-0.57823777

>  <Name>
1eht cryst

>  <RI>
224

>  <Rbt.Current_Directory>
/home/itssahil/PROJECTS/Mol_Feturizer/New_Systems/rnas/1eht

>  <Rbt.Executable>
rbdock ($Id: //depot/dev/client3/rdock/2013.1/src/exe/rbdock.cxx#4 $)

>  <Rbt.Library>
libRbt.so (2013.1, Build901 2013/11/27)

>  <Rbt.Parameter_File>
/export/apps/rDock/src/rDock_2013.1_src/data/scripts/dock_solv.prm

>  <Rbt.Receptor>
prm/pocket_docking_7.prm

>  <SCORE>
-39.0203

>  <SCORE.INTER>
-39.0203

>  <SCORE.INTER.CONST>
1

>  <SCORE.INTER.POLAR>
-2.10924

>  <SCORE.INTER.ROT>
0

>  <SCORE.INTER.SOLV>
9.95413

>  <SCORE.INTER.VDW>
-25.9008

>  <SCORE.INTER.norm>
-3.00156

>  <SCORE.INTRA>
0

>  <SCORE.INTRA.DIHEDRAL>
0

>  <SCORE.INTRA.DIHEDRAL.0>
0

>  <SCORE.INTRA.POLAR>
0

>  <SCORE.INTRA.POLAR.0>
0

>  <SCORE.INTRA.REPUL>
0

>  <SCORE.INTRA.REPUL.0>
0

>  <SCORE.INTRA.SOLV>
0

>  <SCORE.INTRA.SOLV.lig_0>
-12.9768

>  <SCORE.INTRA.VDW>
0

>  <SCORE.INTRA.VDW.0>
0

>  <SCORE.INTRA.norm>
0

>  <SCORE.RESTR>
0

>  <SCORE.RESTR.CAVITY>
0

>  <SCORE.RESTR.norm>
0

>  <SCORE.SYSTEM>
0

>  <SCORE.SYSTEM.CONST>
0

>  <SCORE.SYSTEM.DIHEDRAL>
0

>  <SCORE.SYSTEM.SOLV>
0

>  <SCORE.SYSTEM.norm>
0

>  <SCORE.heavy>
13

>  <SCORE.norm>
-3.00156

>  <RMSD>
3.384

$$$$
1eht cryst
 OpenBabel11021811383D
libRbt.so/2013.1/901 2013/11/27
 13 14  0  0  0  0  0  0  0  0999 V2000
   -6.5292   -3.1770   13.0988 C   0  0  0  0  0  0  0  0  0  0  0  0
   -6.0884   -4.4386   12.7095 N   0  0  0  0  0  0  0  0  0  0  0  0
   -6.2285   -5.4748   13.5962 C   0  0  0  0  0  0  0  0  0  0  0  0
   -6.7359   -5.2007   14.6855 O   0  0  0  0  0  0  0  0  0  0  0  0
   -5.8407   -6.7679   13.3517 N   0  0  0  0  0  0  0  0  0  0  0  0
   -5.9940   -7.7994   14.2636 C   0  0  0  0  0  0  0  0  0  0  0  0
   -5.2868   -6.9348   12.1169 C   0  0  0  0  0  0  0  0  0  0  0  0
   -5.1510   -5.8959   11.2423 C   0  0  0  0  0  0  0  0  0  0  0  0
   -5.5429   -4.5648   11.4732 C   0  0  0  0  0  0  0  0  0  0  0  0
   -5.4437   -3.5965   10.7211 O   0  0  0  0  0  0  0  0  0  0  0  0
   -4.5578   -6.4336   10.1082 N   0  0  0  0  0  0  0  0  0  0  0  0
   -4.3758   -7.7493   10.3716 C   0  0  0  0  0  0  0  0  0  0  0  0
   -4.7927   -8.1067   11.5547 N   0  0  0  0  0  0  0  0  0  0  0  0
  1  2  1  0  0  0  0
  2  9  1  0  0  0  0
  2  3  1  0  0  0  0
  3  5  1  0  0  0  0
  3  4  2  0  0  0  0
  5  6  1  0  0  0  0
  5  7  1  0  0  0  0
  7  8  2  0  0  0  0
  7 13  1  0  0  0  0
  8  9  1  0  0  0  0
  8 11  1  0  0  0  0
  9 10  2  0  0  0  0
 11 12  1  0  0  0  0
 12 13  2  0  0  0  0
M  END
>  <CHROM.1>
-5.60195871,-5.81680302,12.27979686,-2.79203475,-1.12946324,2.65391734

>  <Name>
1eht cryst

>  <RI>
0

>  <Rbt.Current_Directory>
/home/itssahil/PROJECTS/Mol_Feturizer/New_Systems/rnas/1eht

>  <Rbt.Executable>
rbdock ($Id: //depot/dev/client3/rdock/2013.1/src/exe/rbdock.cxx#4 $)

>  <Rbt.Library>
libRbt.so (2013.1, Build901 2013/11/27)

>  <Rbt.Parameter_File>
/export/apps/rDock/src/rDock_2013.1_src/data/scripts/dock_solv.prm

>  <Rbt.Receptor>
prm/blind_docking_100.prm

>  <SCORE>
-35.6449

>  <SCORE.INTER>
-35.6449

>  <SCORE.INTER.CONST>
1

>  <SCORE.INTER.POLAR>
-1.76517

>  <SCORE.INTER.ROT>
0

>  <SCORE.INTER.SOLV>
10.3937

>  <SCORE.INTER.VDW>
-24.9439

>  <SCORE.INTER.norm>
-2.74191

>  <SCORE.INTRA>
0

>  <SCORE.INTRA.DIHEDRAL>
0

>  <SCORE.INTRA.DIHEDRAL.0>
0

>  <SCORE.INTRA.POLAR>
0

>  <SCORE.INTRA.POLAR.0>
0

>  <SCORE.INTRA.REPUL>
0

>  <SCORE.INTRA.REPUL.0>
0

>  <SCORE.INTRA.SOLV>
0

>  <SCORE.INTRA.SOLV.lig_0>
-12.9768

>  <SCORE.INTRA.VDW>
0

>  <SCORE.INTRA.VDW.0>
0

>  <SCORE.INTRA.norm>
0

>  <SCORE.RESTR>
0

>  <SCORE.RESTR.CAVITY>
0

>  <SCORE.RESTR.norm>
0

>  <SCORE.SYSTEM>
0

>  <SCORE.SYSTEM.CONST>
0

>  <SCORE.SYSTEM.DIHEDRAL>
0

>  <SCORE.SYSTEM.SOLV>
0

>  <SCORE.SYSTEM.norm>
0

>  <SCORE.heavy>
13

>  <SCORE.norm>
-2.74191

>  <RMSD>
3.388

$$$$
1eht cryst
 OpenBabel11021811383D
libRbt.so/2013.1/901 2013/11/27
 13 14  0  0  0  0  0  0  0  0999 V2000
   -6.5457   -3.1936   13.1787 C   0  0  0  0  0  0  0  0  0  0  0  0
   -6.1055   -4.4472   12.7637 N   0  0  0  0  0  0  0  0  0  0  0  0
   -6.2450   -5.5010   13.6296 C   0  0  0  0  0  0  0  0  0  0  0  0
   -6.7514   -5.2487   14.7247 O   0  0  0  0  0  0  0  0  0  0  0  0
   -5.8577   -6.7890   13.3589 N   0  0  0  0  0  0  0  0  0  0  0  0
   -6.0104   -7.8385   14.2501 C   0  0  0  0  0  0  0  0  0  0  0  0
   -5.3049   -6.9312   12.1205 C   0  0  0  0  0  0  0  0  0  0  0  0
   -5.1697   -5.8750   11.2668 C   0  0  0  0  0  0  0  0  0  0  0  0
   -5.5612   -4.5487   11.5247 C   0  0  0  0  0  0  0  0  0  0  0  0
   -5.4625   -3.5655   10.7920 O   0  0  0  0  0  0  0  0  0  0  0  0
   -4.5776   -6.3899   10.1216 N   0  0  0  0  0  0  0  0  0  0  0  0
   -4.3956   -7.7107   10.3584 C   0  0  0  0  0  0  0  0  0  0  0  0
   -4.8115   -8.0916   11.5345 N   0  0  0  0  0  0  0  0  0  0  0  0
  1  2  1  0  0  0  0
  2  9  1  0  0  0  0
  2  3  1  0  0  0  0
  3  5  1  0  0  0  0
  3  4  2  0  0  0  0
  5  6  1  0  0  0  0
  5  7  1  0  0  0  0
  7  8  2  0  0  0  0
  7 13  1  0  0  0  0
  8  9  1  0  0  0  0
  8 11  1  0  0  0  0
  9 10  2  0  0  0  0
 11 12  1  0  0  0  0
 12 13  2  0  0  0  0
M  END
>  <CHROM.1>
-5.61972083,-5.81663597,12.30605138,-2.79261594,-1.13033347,2.67344230

>  <Name>
1eht cryst

>  <RI>
0

>  <Rbt.Current_Directory>
/home/itssahil/PROJECTS/Mol_Feturizer/New_Systems/rnas/1eht

>  <Rbt.Executable>
rbdock ($Id: //depot/dev/client3/rdock/2013.1/src/exe/rbdock.cxx#4 $)

>  <Rbt.Library>
libRbt.so (2013.1, Build901 2013/11/27)

>  <Rbt.Parameter_File>
/export/apps/rDock/src/rDock_2013.1_src/data/scripts/dock_solv.prm

>  <Rbt.Receptor>
prm/blind_docking_100.prm

>  <SCORE>
-35.6362

>  <SCORE.INTER>
-35.6362

>  <SCORE.INTER.CONST>
1

>  <SCORE.INTER.POLAR>
-1.73073

>  <SCORE.INTER.ROT>
0

>  <SCORE.INTER.SOLV>
10.3936

>  <SCORE.INTER.VDW>
-25.0529

>  <SCORE.INTER.norm>
-2.74125

>  <SCORE.INTRA>
0

>  <SCORE.INTRA.DIHEDRAL>
0

>  <SCORE.INTRA.DIHEDRAL.0>
0

>  <SCORE.INTRA.POLAR>
0

>  <SCORE.INTRA.POLAR.0>
0

>  <SCORE.INTRA.REPUL>
0

>  <SCORE.INTRA.REPUL.0>
0

>  <SCORE.INTRA.SOLV>
0

>  <SCORE.INTRA.SOLV.lig_0>
-12.9768

>  <SCORE.INTRA.VDW>
0

>  <SCORE.INTRA.VDW.0>
0

>  <SCORE.INTRA.norm>
0

>  <SCORE.RESTR>
0

>  <SCORE.RESTR.CAVITY>
0

>  <SCORE.RESTR.norm>
0

>  <SCORE.SYSTEM>
0

>  <SCORE.SYSTEM.CONST>
0

>  <SCORE.SYSTEM.DIHEDRAL>
0

>  <SCORE.SYSTEM.SOLV>
0

>  <SCORE.SYSTEM.norm>
0

>  <SCORE.heavy>
13

>  <SCORE.norm>
-2.74125

>  <RMSD>
3.388

$$$$
1eht cryst
 OpenBabel11021811383D
libRbt.so/2013.1/901 2013/11/27
 13 14  0  0  0  0  0  0  0  0999 V2000
   -6.5340   -3.1653   13.0648 C   0  0  0  0  0  0  0  0  0  0  0  0
   -6.0924   -4.4298   12.6859 N   0  0  0  0  0  0  0  0  0  0  0  0
   -6.2351   -5.4594   13.5799 C   0  0  0  0  0  0  0  0  0  0  0  0
   -6.7455   -5.1772   14.6657 O   0  0  0  0  0  0  0  0  0  0  0  0
   -5.8469   -6.7544   13.3459 N   0  0  0  0  0  0  0  0  0  0  0  0
   -6.0029   -7.7790   14.2649 C   0  0  0  0  0  0  0  0  0  0  0  0
   -5.2896   -6.9304   12.1139 C   0  0  0  0  0  0  0  0  0  0  0  0
   -5.1513   -5.8980   11.2321 C   0  0  0  0  0  0  0  0  0  0  0  0
   -5.5435   -4.5651   11.4521 C   0  0  0  0  0  0  0  0  0  0  0  0
   -5.4420   -3.6024   10.6931 O   0  0  0  0  0  0  0  0  0  0  0  0
   -4.5550   -6.4441   10.1035 N   0  0  0  0  0  0  0  0  0  0  0  0
   -4.3740   -7.7579   10.3772 C   0  0  0  0  0  0  0  0  0  0  0  0
   -4.7943   -8.1064   11.5617 N   0  0  0  0  0  0  0  0  0  0  0  0
  1  2  1  0  0  0  0
  2  9  1  0  0  0  0
  2  3  1  0  0  0  0
  3  5  1  0  0  0  0
  3  4  2  0  0  0  0
  5  6  1  0  0  0  0
  5  7  1  0  0  0  0
  7  8  2  0  0  0  0
  7 13  1  0  0  0  0
  8  9  1  0  0  0  0
  8 11  1  0  0  0  0
  9 10  2  0  0  0  0
 11 12  1  0  0  0  0
 12 13  2  0  0  0  0
M  END
>  <CHROM.1>
-5.60503227,-5.81117662,12.26768909,-2.78858496,-1.12712730,2.64969663

>  <Name>
1eht cryst

>  <RI>
0

>  <Rbt.Current_Directory>
/home/itssahil/PROJECTS/Mol_Feturizer/New_Systems/rnas/1eht

>  <Rbt.Executable>
rbdock ($Id: //depot/dev/client3/rdock/2013.1/src/exe/rbdock.cxx#4 $)

>  <Rbt.Library>
libRbt.so (2013.1, Build901 2013/11/27)

>  <Rbt.Parameter_File>
/export/apps/rDock/src/rDock_2013.1_src/data/scripts/dock_solv.prm

>  <Rbt.Receptor>
prm/blind_docking_100.prm

>  <SCORE>
-35.6572

>  <SCORE.INTER>
-35.6572

>  <SCORE.INTER.CONST>
1

>  <SCORE.INTER.POLAR>
-1.78296

>  <SCORE.INTER.ROT>
0

>  <SCORE.INTER.SOLV>
10.4018

>  <SCORE.INTER.VDW>
-24.8955

>  <SCORE.INTER.norm>
-2.74286

>  <SCORE.INTRA>
0

>  <SCORE.INTRA.DIHEDRAL>
0

>  <SCORE.INTRA.DIHEDRAL.0>
0

>  <SCORE.INTRA.POLAR>
0

>  <SCORE.INTRA.POLAR.0>
0

>  <SCORE.INTRA.REPUL>
0

>  <SCORE.INTRA.REPUL.0>
0

>  <SCORE.INTRA.SOLV>
0

>  <SCORE.INTRA.SOLV.lig_0>
-12.9768

>  <SCORE.INTRA.VDW>
0

>  <SCORE.INTRA.VDW.0>
0

>  <SCORE.INTRA.norm>
0

>  <SCORE.RESTR>
0

>  <SCORE.RESTR.CAVITY>
0

>  <SCORE.RESTR.norm>
0

>  <SCORE.SYSTEM>
0

>  <SCORE.SYSTEM.CONST>
0

>  <SCORE.SYSTEM.DIHEDRAL>
0

>  <SCORE.SYSTEM.SOLV>
0

>  <SCORE.SYSTEM.norm>
0

>  <SCORE.heavy>
13

>  <SCORE.norm>
-2.74286

>  <RMSD>
3.388

$$$$
1eht cryst
 OpenBabel11021811383D
libRbt.so/2013.1/901 2013/11/27
 13 14  0  0  0  0  0  0  0  0999 V2000
   -6.0938   -3.7574   11.9291 C   0  0  0  0  0  0  0  0  0  0  0  0
   -5.9635   -5.0458   12.4395 N   0  0  0  0  0  0  0  0  0  0  0  0
   -5.4426   -6.0157   11.6223 C   0  0  0  0  0  0  0  0  0  0  0  0
   -5.1321   -5.6647   10.4823 O   0  0  0  0  0  0  0  0  0  0  0  0
   -5.2564   -7.3251   11.9871 N   0  0  0  0  0  0  0  0  0  0  0  0
   -4.7263   -8.2876   11.1436 C   0  0  0  0  0  0  0  0  0  0  0  0
   -5.6480   -7.5836   13.2675 C   0  0  0  0  0  0  0  0  0  0  0  0
   -6.1665   -6.6107   14.0721 C   0  0  0  0  0  0  0  0  0  0  0  0
   -6.3641   -5.2638   13.7178 C   0  0  0  0  0  0  0  0  0  0  0  0
   -6.8248   -4.3519   14.4030 O   0  0  0  0  0  0  0  0  0  0  0  0
   -6.4455   -7.2317   15.2819 N   0  0  0  0  0  0  0  0  0  0  0  0
   -6.0808   -8.5267   15.1282 C   0  0  0  0  0  0  0  0  0  0  0  0
   -5.5970   -8.7955   13.9472 N   0  0  0  0  0  0  0  0  0  0  0  0
  1  2  1  0  0  0  0
  2  9  1  0  0  0  0
  2  3  1  0  0  0  0
  3  5  1  0  0  0  0
  3  4  2  0  0  0  0
  5  6  1  0  0  0  0
  5  7  1  0  0  0  0
  7  8  2  0  0  0  0
  7 13  1  0  0  0  0
  8  9  1  0  0  0  0
  8 11  1  0  0  0  0
  9 10  2  0  0  0  0
 11 12  1  0  0  0  0
 12 13  2  0  0  0  0
M  END
>  <CHROM.1>
-5.82561145,-6.45494350,13.00179902,1.42563416,1.16716987,-0.59735776

>  <Name>
1eht cryst

>  <RI>
0

>  <Rbt.Current_Directory>
/home/itssahil/PROJECTS/Mol_Feturizer/New_Systems/rnas/1eht

>  <Rbt.Executable>
rbdock ($Id: //depot/dev/client3/rdock/2013.1/src/exe/rbdock.cxx#4 $)

>  <Rbt.Library>
libRbt.so (2013.1, Build901 2013/11/27)

>  <Rbt.Parameter_File>
/export/apps/rDock/src/rDock_2013.1_src/data/scripts/dock_solv.prm

>  <Rbt.Receptor>
prm/blind_docking_40.prm

>  <SCORE>
-39.0393

>  <SCORE.INTER>
-39.0393

>  <SCORE.INTER.CONST>
1

>  <SCORE.INTER.POLAR>
-2.13818

>  <SCORE.INTER.ROT>
0

>  <SCORE.INTER.SOLV>
9.95499

>  <SCORE.INTER.VDW>
-25.8173

>  <SCORE.INTER.norm>
-3.00303

>  <SCORE.INTRA>
0

>  <SCORE.INTRA.DIHEDRAL>
0

>  <SCORE.INTRA.DIHEDRAL.0>
0

>  <SCORE.INTRA.POLAR>
0

>  <SCORE.INTRA.POLAR.0>
0

>  <SCORE.INTRA.REPUL>
0

>  <SCORE.INTRA.REPUL.0>
0

>  <SCORE.INTRA.SOLV>
0

>  <SCORE.INTRA.SOLV.lig_0>
-12.9768

>  <SCORE.INTRA.VDW>
0

>  <SCORE.INTRA.VDW.0>
0

>  <SCORE.INTRA.norm>
0

>  <SCORE.RESTR>
0

>  <SCORE.RESTR.CAVITY>
0

>  <SCORE.RESTR.norm>
0

>  <SCORE.SYSTEM>
0

>  <SCORE.SYSTEM.CONST>
0

>  <SCORE.SYSTEM.DIHEDRAL>
0

>  <SCORE.SYSTEM.SOLV>
0

>  <SCORE.SYSTEM.norm>
0

>  <SCORE.heavy>
13

>  <SCORE.norm>
-3.00303

>  <RMSD>
3.388

$$$$
1eht cryst
 OpenBabel11021811383D
libRbt.so/2013.1/901 2013/11/27
 13 14  0  0  0  0  0  0  0  0999 V2000
   -6.5306   -3.2043   13.1985 C   0  0  0  0  0  0  0  0  0  0  0  0
   -6.0985   -4.4574   12.7735 N   0  0  0  0  0  0  0  0  0  0  0  0
   -6.2372   -5.5156   13.6342 C   0  0  0  0  0  0  0  0  0  0  0  0
   -6.7356   -5.2674   14.7339 O   0  0  0  0  0  0  0  0  0  0  0  0
   -5.8573   -6.8037   13.3535 N   0  0  0  0  0  0  0  0  0  0  0  0
   -6.0090   -7.8577   14.2395 C   0  0  0  0  0  0  0  0  0  0  0  0
   -5.3130   -6.9411   12.1108 C   0  0  0  0  0  0  0  0  0  0  0  0
   -5.1785   -5.8805   11.2624 C   0  0  0  0  0  0  0  0  0  0  0  0
   -5.5625   -4.5541   11.5305 C   0  0  0  0  0  0  0  0  0  0  0  0
   -5.4641   -3.5670   10.8029 O   0  0  0  0  0  0  0  0  0  0  0  0
   -4.5959   -6.3913   10.1105 N   0  0  0  0  0  0  0  0  0  0  0  0
   -4.4183   -7.7142   10.3385 C   0  0  0  0  0  0  0  0  0  0  0  0
   -4.8284   -8.1002   11.5149 N   0  0  0  0  0  0  0  0  0  0  0  0
  1  2  1  0  0  0  0
  2  9  1  0  0  0  0
  2  3  1  0  0  0  0
  3  5  1  0  0  0  0
  3  4  2  0  0  0  0
  5  6  1  0  0  0  0
  5  7  1  0  0  0  0
  7  8  2  0  0  0  0
  7 13  1  0  0  0  0
  8  9  1  0  0  0  0
  8 11  1  0  0  0  0
  9 10  2  0  0  0  0
 11 12  1  0  0  0  0
 12 13  2  0  0  0  0
M  END
>  <CHROM.1>
-5.62168729,-5.82624322,12.30483669,-2.79001654,-1.13796571,2.68162121

>  <Name>
1eht cryst

>  <RI>
0

>  <Rbt.Current_Directory>
/home/itssahil/PROJECTS/Mol_Feturizer/New_Systems/rnas/1eht

>  <Rbt.Executable>
rbdock ($Id: //depot/dev/client3/rdock/2013.1/src/exe/rbdock.cxx#4 $)

>  <Rbt.Library>
libRbt.so (2013.1, Build901 2013/11/27)

>  <Rbt.Parameter_File>
/export/apps/rDock/src/rDock_2013.1_src/data/scripts/dock_solv.prm

>  <Rbt.Receptor>
prm/blind_docking_100.prm

>  <SCORE>
-35.6263

>  <SCORE.INTER>
-35.6263

>  <SCORE.INTER.CONST>
1

>  <SCORE.INTER.POLAR>
-1.71209

>  <SCORE.INTER.ROT>
0

>  <SCORE.INTER.SOLV>
10.3716

>  <SCORE.INTER.VDW>
-25.1011

>  <SCORE.INTER.norm>
-2.74048

>  <SCORE.INTRA>
0

>  <SCORE.INTRA.DIHEDRAL>
0

>  <SCORE.INTRA.DIHEDRAL.0>
0

>  <SCORE.INTRA.POLAR>
0

>  <SCORE.INTRA.POLAR.0>
0

>  <SCORE.INTRA.REPUL>
0

>  <SCORE.INTRA.REPUL.0>
0

>  <SCORE.INTRA.SOLV>
0

>  <SCORE.INTRA.SOLV.lig_0>
-12.9768

>  <SCORE.INTRA.VDW>
0

>  <SCORE.INTRA.VDW.0>
0

>  <SCORE.INTRA.norm>
0

>  <SCORE.RESTR>
0

>  <SCORE.RESTR.CAVITY>
0

>  <SCORE.RESTR.norm>
0

>  <SCORE.SYSTEM>
0

>  <SCORE.SYSTEM.CONST>
0

>  <SCORE.SYSTEM.DIHEDRAL>
0

>  <SCORE.SYSTEM.SOLV>
0

>  <SCORE.SYSTEM.norm>
0

>  <SCORE.heavy>
13

>  <SCORE.norm>
-2.74048

>  <RMSD>
3.389

$$$$
1eht cryst
 OpenBabel11021811383D
libRbt.so/2013.1/901 2013/11/27
 13 14  0  0  0  0  0  0  0  0999 V2000
   -6.0772   -3.7441   11.9488 C   0  0  0  0  0  0  0  0  0  0  0  0
   -5.9568   -5.0345   12.4566 N   0  0  0  0  0  0  0  0  0  0  0  0
   -5.4424   -6.0064   11.6378 C   0  0  0  0  0  0  0  0  0  0  0  0
   -5.1284   -5.6553   10.4987 O   0  0  0  0  0  0  0  0  0  0  0  0
   -5.2660   -7.3179   11.9999 N   0  0  0  0  0  0  0  0  0  0  0  0
   -4.7423   -8.2825   11.1548 C   0  0  0  0  0  0  0  0  0  0  0  0
   -5.6605   -7.5762   13.2795 C   0  0  0  0  0  0  0  0  0  0  0  0
   -6.1725   -6.6012   14.0857 C   0  0  0  0  0  0  0  0  0  0  0  0
   -6.3600   -5.2521   13.7341 C   0  0  0  0  0  0  0  0  0  0  0  0
   -6.8145   -4.3384   14.4209 O   0  0  0  0  0  0  0  0  0  0  0  0
   -6.4570   -7.2227   15.2940 N   0  0  0  0  0  0  0  0  0  0  0  0
   -6.1016   -8.5200   15.1379 C   0  0  0  0  0  0  0  0  0  0  0  0
   -5.6189   -8.7898   13.9567 N   0  0  0  0  0  0  0  0  0  0  0  0
  1  2  1  0  0  0  0
  2  9  1  0  0  0  0
  2  3  1  0  0  0  0
  3  5  1  0  0  0  0
  3  4  2  0  0  0  0
  5  6  1  0  0  0  0
  5  7  1  0  0  0  0
  7  8  2  0  0  0  0
  7 13  1  0  0  0  0
  8  9  1  0  0  0  0
  8 11  1  0  0  0  0
  9 10  2  0  0  0  0
 11 12  1  0  0  0  0
 12 13  2  0  0  0  0
M  END
>  <CHROM.1>
-5.82961873,-6.44573420,13.01600033,1.40898484,1.17058838,-0.57995417

>  <Name>
1eht cryst

>  <RI>
0

>  <Rbt.Current_Directory>
/home/itssahil/PROJECTS/Mol_Feturizer/New_Systems/rnas/1eht

>  <Rbt.Executable>
rbdock ($Id: //depot/dev/client3/rdock/2013.1/src/exe/rbdock.cxx#4 $)

>  <Rbt.Library>
libRbt.so (2013.1, Build901 2013/11/27)

>  <Rbt.Parameter_File>
/export/apps/rDock/src/rDock_2013.1_src/data/scripts/dock_solv.prm

>  <Rbt.Receptor>
prm/pocket_docking_5.prm

>  <SCORE>
-39.0475

>  <SCORE.INTER>
-39.0475

>  <SCORE.INTER.CONST>
1

>  <SCORE.INTER.POLAR>
-2.12358

>  <SCORE.INTER.ROT>
0

>  <SCORE.INTER.SOLV>
9.99782

>  <SCORE.INTER.VDW>
-25.8857

>  <SCORE.INTER.norm>
-3.00366

>  <SCORE.INTRA>
0

>  <SCORE.INTRA.DIHEDRAL>
0

>  <SCORE.INTRA.DIHEDRAL.0>
0

>  <SCORE.INTRA.POLAR>
0

>  <SCORE.INTRA.POLAR.0>
0

>  <SCORE.INTRA.REPUL>
0

>  <SCORE.INTRA.REPUL.0>
0

>  <SCORE.INTRA.SOLV>
0

>  <SCORE.INTRA.SOLV.lig_0>
-12.9768

>  <SCORE.INTRA.VDW>
0

>  <SCORE.INTRA.VDW.0>
0

>  <SCORE.INTRA.norm>
0

>  <SCORE.RESTR>
0

>  <SCORE.RESTR.CAVITY>
0

>  <SCORE.RESTR.norm>
0

>  <SCORE.SYSTEM>
0

>  <SCORE.SYSTEM.CONST>
0

>  <SCORE.SYSTEM.DIHEDRAL>
0

>  <SCORE.SYSTEM.SOLV>
0

>  <SCORE.SYSTEM.norm>
0

>  <SCORE.heavy>
13

>  <SCORE.norm>
-3.00366

>  <RMSD>
3.390

$$$$
1eht cryst
 OpenBabel11021811383D
libRbt.so/2013.1/901 2013/11/27
 13 14  0  0  0  0  0  0  0  0999 V2000
   -6.4817   -3.3060   12.9447 C   0  0  0  0  0  0  0  0  0  0  0  0
   -6.0481   -4.5749   12.5711 N   0  0  0  0  0  0  0  0  0  0  0  0
   -6.1724   -5.5942   13.4795 C   0  0  0  0  0  0  0  0  0  0  0  0
   -6.6602   -5.2996   14.5724 O   0  0  0  0  0  0  0  0  0  0  0  0
   -5.7892   -6.8919   13.2523 N   0  0  0  0  0  0  0  0  0  0  0  0
   -5.9262   -7.9060   14.1859 C   0  0  0  0  0  0  0  0  0  0  0  0
   -5.2575   -7.0821   12.0111 C   0  0  0  0  0  0  0  0  0  0  0  0
   -5.1374   -6.0598   11.1149 C   0  0  0  0  0  0  0  0  0  0  0  0
   -5.5249   -4.7244   11.3279 C   0  0  0  0  0  0  0  0  0  0  0  0
   -5.4391   -3.7703   10.5561 O   0  0  0  0  0  0  0  0  0  0  0  0
   -4.5645   -6.6188    9.9806 N   0  0  0  0  0  0  0  0  0  0  0  0
   -4.3780   -7.9294   10.2653 C   0  0  0  0  0  0  0  0  0  0  0  0
   -4.7737   -8.2644   11.4621 N   0  0  0  0  0  0  0  0  0  0  0  0
  1  2  1  0  0  0  0
  2  9  1  0  0  0  0
  2  3  1  0  0  0  0
  3  5  1  0  0  0  0
  3  4  2  0  0  0  0
  5  6  1  0  0  0  0
  5  7  1  0  0  0  0
  7  8  2  0  0  0  0
  7 13  1  0  0  0  0
  8  9  1  0  0  0  0
  8 11  1  0  0  0  0
  9 10  2  0  0  0  0
 11 12  1  0  0  0  0
 12 13  2  0  0  0  0
M  END
>  <CHROM.1>
-5.56958342,-5.96107180,12.15865587,-2.81215909,-1.14527940,2.61695168

>  <Name>
1eht cryst

>  <RI>
0

>  <Rbt.Current_Directory>
/home/itssahil/PROJECTS/Mol_Feturizer/New_Systems/rnas/1eht

>  <Rbt.Executable>
rbdock ($Id: //depot/dev/client3/rdock/2013.1/src/exe/rbdock.cxx#4 $)

>  <Rbt.Library>
libRbt.so (2013.1, Build901 2013/11/27)

>  <Rbt.Parameter_File>
/export/apps/rDock/src/rDock_2013.1_src/data/scripts/dock_solv.prm

>  <Rbt.Receptor>
prm/pocket_docking_5.prm

>  <SCORE>
-35.9592

>  <SCORE.INTER>
-35.9592

>  <SCORE.INTER.CONST>
1

>  <SCORE.INTER.POLAR>
-1.84775

>  <SCORE.INTER.ROT>
0

>  <SCORE.INTER.SOLV>
10.0877

>  <SCORE.INTER.VDW>
-24.7762

>  <SCORE.INTER.norm>
-2.76609

>  <SCORE.INTRA>
0

>  <SCORE.INTRA.DIHEDRAL>
0

>  <SCORE.INTRA.DIHEDRAL.0>
0

>  <SCORE.INTRA.POLAR>
0

>  <SCORE.INTRA.POLAR.0>
0

>  <SCORE.INTRA.REPUL>
0

>  <SCORE.INTRA.REPUL.0>
0

>  <SCORE.INTRA.SOLV>
0

>  <SCORE.INTRA.SOLV.lig_0>
-12.9768

>  <SCORE.INTRA.VDW>
0

>  <SCORE.INTRA.VDW.0>
0

>  <SCORE.INTRA.norm>
0

>  <SCORE.RESTR>
0

>  <SCORE.RESTR.CAVITY>
0

>  <SCORE.RESTR.norm>
0

>  <SCORE.SYSTEM>
0

>  <SCORE.SYSTEM.CONST>
0

>  <SCORE.SYSTEM.DIHEDRAL>
0

>  <SCORE.SYSTEM.SOLV>
0

>  <SCORE.SYSTEM.norm>
0

>  <SCORE.heavy>
13

>  <SCORE.norm>
-2.76609

>  <RMSD>
3.390

$$$$
1eht cryst
 OpenBabel11021811383D
libRbt.so/2013.1/901 2013/11/27
 13 14  0  0  0  0  0  0  0  0999 V2000
   -6.4496   -3.3060   12.9730 C   0  0  0  0  0  0  0  0  0  0  0  0
   -6.0333   -4.5771   12.5875 N   0  0  0  0  0  0  0  0  0  0  0  0
   -6.1709   -5.6031   13.4864 C   0  0  0  0  0  0  0  0  0  0  0  0
   -6.6541   -5.3120   14.5823 O   0  0  0  0  0  0  0  0  0  0  0  0
   -5.8053   -6.9036   13.2469 N   0  0  0  0  0  0  0  0  0  0  0  0
   -5.9555   -7.9244   14.1711 C   0  0  0  0  0  0  0  0  0  0  0  0
   -5.2769   -7.0894   12.0036 C   0  0  0  0  0  0  0  0  0  0  0  0
   -5.1434   -6.0605   11.1169 C   0  0  0  0  0  0  0  0  0  0  0  0
   -5.5128   -4.7221   11.3425 C   0  0  0  0  0  0  0  0  0  0  0  0
   -5.4146   -3.7621   10.5796 O   0  0  0  0  0  0  0  0  0  0  0  0
   -4.5788   -6.6166    9.9771 N   0  0  0  0  0  0  0  0  0  0  0  0
   -4.4098   -7.9323   10.2495 C   0  0  0  0  0  0  0  0  0  0  0  0
   -4.8093   -8.2730   11.4434 N   0  0  0  0  0  0  0  0  0  0  0  0
  1  2  1  0  0  0  0
  2  9  1  0  0  0  0
  2  3  1  0  0  0  0
  3  5  1  0  0  0  0
  3  4  2  0  0  0  0
  5  6  1  0  0  0  0
  5  7  1  0  0  0  0
  7  8  2  0  0  0  0
  7 13  1  0  0  0  0
  8  9  1  0  0  0  0
  8 11  1  0  0  0  0
  9 10  2  0  0  0  0
 11 12  1  0  0  0  0
 12 13  2  0  0  0  0
M  END
>  <CHROM.1>
-5.57374689,-5.96569651,12.16180237,-2.78406306,-1.15232170,2.65188176

>  <Name>
1eht cryst

>  <RI>
0

>  <Rbt.Current_Directory>
/home/itssahil/PROJECTS/Mol_Feturizer/New_Systems/rnas/1eht

>  <Rbt.Executable>
rbdock ($Id: //depot/dev/client3/rdock/2013.1/src/exe/rbdock.cxx#4 $)

>  <Rbt.Library>
libRbt.so (2013.1, Build901 2013/11/27)

>  <Rbt.Parameter_File>
/export/apps/rDock/src/rDock_2013.1_src/data/scripts/dock_solv.prm

>  <Rbt.Receptor>
prm/blind_docking_40.prm

>  <SCORE>
-35.9989

>  <SCORE.INTER>
-35.9989

>  <SCORE.INTER.CONST>
1

>  <SCORE.INTER.POLAR>
-1.8417

>  <SCORE.INTER.ROT>
0

>  <SCORE.INTER.SOLV>
10.073

>  <SCORE.INTER.VDW>
-24.8179

>  <SCORE.INTER.norm>
-2.76915

>  <SCORE.INTRA>
0

>  <SCORE.INTRA.DIHEDRAL>
0

>  <SCORE.INTRA.DIHEDRAL.0>
0

>  <SCORE.INTRA.POLAR>
0

>  <SCORE.INTRA.POLAR.0>
0

>  <SCORE.INTRA.REPUL>
0

>  <SCORE.INTRA.REPUL.0>
0

>  <SCORE.INTRA.SOLV>
0

>  <SCORE.INTRA.SOLV.lig_0>
-12.9768

>  <SCORE.INTRA.VDW>
0

>  <SCORE.INTRA.VDW.0>
0

>  <SCORE.INTRA.norm>
0

>  <SCORE.RESTR>
0

>  <SCORE.RESTR.CAVITY>
0

>  <SCORE.RESTR.norm>
0

>  <SCORE.SYSTEM>
0

>  <SCORE.SYSTEM.CONST>
0

>  <SCORE.SYSTEM.DIHEDRAL>
0

>  <SCORE.SYSTEM.SOLV>
0

>  <SCORE.SYSTEM.norm>
0

>  <SCORE.heavy>
13

>  <SCORE.norm>
-2.76915

>  <RMSD>
3.391

$$$$
1eht cryst
 OpenBabel11021811383D
libRbt.so/2013.1/901 2013/11/27
 13 14  0  0  0  0  0  0  0  0999 V2000
   -6.5438   -3.1814   13.2954 C   0  0  0  0  0  0  0  0  0  0  0  0
   -6.1165   -4.4303   12.8536 N   0  0  0  0  0  0  0  0  0  0  0  0
   -6.2567   -5.4988   13.7011 C   0  0  0  0  0  0  0  0  0  0  0  0
   -6.7521   -5.2632   14.8048 O   0  0  0  0  0  0  0  0  0  0  0  0
   -5.8813   -6.7844   13.4033 N   0  0  0  0  0  0  0  0  0  0  0  0
   -6.0344   -7.8491   14.2762 C   0  0  0  0  0  0  0  0  0  0  0  0
   -5.3398   -6.9077   12.1579 C   0  0  0  0  0  0  0  0  0  0  0  0
   -5.2039   -5.8369   11.3227 C   0  0  0  0  0  0  0  0  0  0  0  0
   -5.5832   -4.5128   11.6084 C   0  0  0  0  0  0  0  0  0  0  0  0
   -5.4832   -3.5169   10.8932 O   0  0  0  0  0  0  0  0  0  0  0  0
   -4.6251   -6.3348   10.1633 N   0  0  0  0  0  0  0  0  0  0  0  0
   -4.4511   -7.6610   10.3741 C   0  0  0  0  0  0  0  0  0  0  0  0
   -4.8600   -8.0606   11.5464 N   0  0  0  0  0  0  0  0  0  0  0  0
  1  2  1  0  0  0  0
  2  9  1  0  0  0  0
  2  3  1  0  0  0  0
  3  5  1  0  0  0  0
  3  4  2  0  0  0  0
  5  6  1  0  0  0  0
  5  7  1  0  0  0  0
  7  8  2  0  0  0  0
  7 13  1  0  0  0  0
  8  9  1  0  0  0  0
  8 11  1  0  0  0  0
  9 10  2  0  0  0  0
 11 12  1  0  0  0  0
 12 13  2  0  0  0  0
M  END
>  <CHROM.1>
-5.64474750,-5.79448108,12.36665020,-2.78556424,-1.14110559,2.69834037

>  <Name>
1eht cryst

>  <RI>
0

>  <Rbt.Current_Directory>
/home/itssahil/PROJECTS/Mol_Feturizer/New_Systems/rnas/1eht

>  <Rbt.Executable>
rbdock ($Id: //depot/dev/client3/rdock/2013.1/src/exe/rbdock.cxx#4 $)

>  <Rbt.Library>
libRbt.so (2013.1, Build901 2013/11/27)

>  <Rbt.Parameter_File>
/export/apps/rDock/src/rDock_2013.1_src/data/scripts/dock_solv.prm

>  <Rbt.Receptor>
prm/blind_docking_80.prm

>  <SCORE>
-35.0301

>  <SCORE.INTER>
-35.2277

>  <SCORE.INTER.CONST>
1

>  <SCORE.INTER.POLAR>
-1.59759

>  <SCORE.INTER.ROT>
0

>  <SCORE.INTER.SOLV>
10.4051

>  <SCORE.INTER.VDW>
-25.2282

>  <SCORE.INTER.norm>
-2.70982

>  <SCORE.INTRA>
0

>  <SCORE.INTRA.DIHEDRAL>
0

>  <SCORE.INTRA.DIHEDRAL.0>
0

>  <SCORE.INTRA.POLAR>
0

>  <SCORE.INTRA.POLAR.0>
0

>  <SCORE.INTRA.REPUL>
0

>  <SCORE.INTRA.REPUL.0>
0

>  <SCORE.INTRA.SOLV>
0

>  <SCORE.INTRA.SOLV.lig_0>
-12.9768

>  <SCORE.INTRA.VDW>
0

>  <SCORE.INTRA.VDW.0>
0

>  <SCORE.INTRA.norm>
0

>  <SCORE.RESTR>
0.197593

>  <SCORE.RESTR.CAVITY>
0.197593

>  <SCORE.RESTR.norm>
0.0151995

>  <SCORE.SYSTEM>
0

>  <SCORE.SYSTEM.CONST>
0

>  <SCORE.SYSTEM.DIHEDRAL>
0

>  <SCORE.SYSTEM.SOLV>
0

>  <SCORE.SYSTEM.norm>
0

>  <SCORE.heavy>
13

>  <SCORE.norm>
-2.69462

>  <RMSD>
3.391

$$$$
1eht cryst
 OpenBabel11021811383D
libRbt.so/2013.1/901 2013/11/27
 13 14  0  0  0  0  0  0  0  0999 V2000
   -6.4463   -3.3159   12.9468 C   0  0  0  0  0  0  0  0  0  0  0  0
   -6.0248   -4.5876   12.5692 N   0  0  0  0  0  0  0  0  0  0  0  0
   -6.1612   -5.6091   13.4734 C   0  0  0  0  0  0  0  0  0  0  0  0
   -6.6482   -5.3137   14.5665 O   0  0  0  0  0  0  0  0  0  0  0  0
   -5.7906   -6.9097   13.2420 N   0  0  0  0  0  0  0  0  0  0  0  0
   -5.9397   -7.9259   14.1715 C   0  0  0  0  0  0  0  0  0  0  0  0
   -5.2583   -7.1005   12.0012 C   0  0  0  0  0  0  0  0  0  0  0  0
   -5.1260   -6.0761   11.1092 C   0  0  0  0  0  0  0  0  0  0  0  0
   -5.5006   -4.7377   11.3264 C   0  0  0  0  0  0  0  0  0  0  0  0
   -5.4036   -3.7816   10.5585 O   0  0  0  0  0  0  0  0  0  0  0  0
   -4.5566   -6.6365    9.9739 N   0  0  0  0  0  0  0  0  0  0  0  0
   -4.3839   -7.9500   10.2539 C   0  0  0  0  0  0  0  0  0  0  0  0
   -4.7853   -8.2856   11.4486 N   0  0  0  0  0  0  0  0  0  0  0  0
  1  2  1  0  0  0  0
  2  9  1  0  0  0  0
  2  3  1  0  0  0  0
  3  5  1  0  0  0  0
  3  4  2  0  0  0  0
  5  6  1  0  0  0  0
  5  7  1  0  0  0  0
  7  8  2  0  0  0  0
  7 13  1  0  0  0  0
  8  9  1  0  0  0  0
  8 11  1  0  0  0  0
  9 10  2  0  0  0  0
 11 12  1  0  0  0  0
 12 13  2  0  0  0  0
M  END
>  <CHROM.1>
-5.55940143,-5.97698597,12.15239799,-2.78838676,-1.14844054,2.64244336

>  <Name>
1eht cryst

>  <RI>
0

>  <Rbt.Current_Directory>
/home/itssahil/PROJECTS/Mol_Feturizer/New_Systems/rnas/1eht

>  <Rbt.Executable>
rbdock ($Id: //depot/dev/client3/rdock/2013.1/src/exe/rbdock.cxx#4 $)

>  <Rbt.Library>
libRbt.so (2013.1, Build901 2013/11/27)

>  <Rbt.Parameter_File>
/export/apps/rDock/src/rDock_2013.1_src/data/scripts/dock_solv.prm

>  <Rbt.Receptor>
prm/blind_docking_20.prm

>  <SCORE>
-35.9894

>  <SCORE.INTER>
-35.9894

>  <SCORE.INTER.CONST>
1

>  <SCORE.INTER.POLAR>
-1.85986

>  <SCORE.INTER.ROT>
0

>  <SCORE.INTER.SOLV>
10.051

>  <SCORE.INTER.VDW>
-24.7437

>  <SCORE.INTER.norm>
-2.76841

>  <SCORE.INTRA>
0

>  <SCORE.INTRA.DIHEDRAL>
0

>  <SCORE.INTRA.DIHEDRAL.0>
0

>  <SCORE.INTRA.POLAR>
0

>  <SCORE.INTRA.POLAR.0>
0

>  <SCORE.INTRA.REPUL>
0

>  <SCORE.INTRA.REPUL.0>
0

>  <SCORE.INTRA.SOLV>
0

>  <SCORE.INTRA.SOLV.lig_0>
-12.9768

>  <SCORE.INTRA.VDW>
0

>  <SCORE.INTRA.VDW.0>
0

>  <SCORE.INTRA.norm>
0

>  <SCORE.RESTR>
0

>  <SCORE.RESTR.CAVITY>
0

>  <SCORE.RESTR.norm>
0

>  <SCORE.SYSTEM>
0

>  <SCORE.SYSTEM.CONST>
0

>  <SCORE.SYSTEM.DIHEDRAL>
0

>  <SCORE.SYSTEM.SOLV>
0

>  <SCORE.SYSTEM.norm>
0

>  <SCORE.heavy>
13

>  <SCORE.norm>
-2.76841

>  <RMSD>
3.392

$$$$
1eht cryst
 OpenBabel11021811383D
libRbt.so/2013.1/901 2013/11/27
 13 14  0  0  0  0  0  0  0  0999 V2000
   -6.4460   -3.3149   12.9006 C   0  0  0  0  0  0  0  0  0  0  0  0
   -6.0193   -4.5891   12.5374 N   0  0  0  0  0  0  0  0  0  0  0  0
   -6.1586   -5.6025   13.4502 C   0  0  0  0  0  0  0  0  0  0  0  0
   -6.6527   -5.2981   14.5376 O   0  0  0  0  0  0  0  0  0  0  0  0
   -5.7837   -6.9043   13.2331 N   0  0  0  0  0  0  0  0  0  0  0  0
   -5.9359   -7.9122   14.1711 C   0  0  0  0  0  0  0  0  0  0  0  0
   -5.2436   -7.1054   11.9972 C   0  0  0  0  0  0  0  0  0  0  0  0
   -5.1085   -6.0889   11.0965 C   0  0  0  0  0  0  0  0  0  0  0  0
   -5.4874   -4.7495   11.2991 C   0  0  0  0  0  0  0  0  0  0  0  0
   -5.3881   -3.8003   10.5229 O   0  0  0  0  0  0  0  0  0  0  0  0
   -4.5311   -6.6585    9.9698 N   0  0  0  0  0  0  0  0  0  0  0  0
   -4.3570   -7.9690   10.2631 C   0  0  0  0  0  0  0  0  0  0  0  0
   -4.7647   -8.2944   11.4585 N   0  0  0  0  0  0  0  0  0  0  0  0
  1  2  1  0  0  0  0
  2  9  1  0  0  0  0
  2  3  1  0  0  0  0
  3  5  1  0  0  0  0
  3  4  2  0  0  0  0
  5  6  1  0  0  0  0
  5  7  1  0  0  0  0
  7  8  2  0  0  0  0
  7 13  1  0  0  0  0
  8  9  1  0  0  0  0
  8 11  1  0  0  0  0
  9 10  2  0  0  0  0
 11 12  1  0  0  0  0
 12 13  2  0  0  0  0
M  END
>  <CHROM.1>
-5.54822693,-5.98120433,12.13623014,-2.78652785,-1.14217308,2.63483629

>  <Name>
1eht cryst

>  <RI>
0

>  <Rbt.Current_Directory>
/home/itssahil/PROJECTS/Mol_Feturizer/New_Systems/rnas/1eht

>  <Rbt.Executable>
rbdock ($Id: //depot/dev/client3/rdock/2013.1/src/exe/rbdock.cxx#4 $)

>  <Rbt.Library>
libRbt.so (2013.1, Build901 2013/11/27)

>  <Rbt.Parameter_File>
/export/apps/rDock/src/rDock_2013.1_src/data/scripts/dock_solv.prm

>  <Rbt.Receptor>
prm/blind_docking_40.prm

>  <SCORE>
-36.0671

>  <SCORE.INTER>
-36.0671

>  <SCORE.INTER.CONST>
1

>  <SCORE.INTER.POLAR>
-1.88273

>  <SCORE.INTER.ROT>
0

>  <SCORE.INTER.SOLV>
10.0525

>  <SCORE.INTER.VDW>
-24.7198

>  <SCORE.INTER.norm>
-2.77439

>  <SCORE.INTRA>
0

>  <SCORE.INTRA.DIHEDRAL>
0

>  <SCORE.INTRA.DIHEDRAL.0>
0

>  <SCORE.INTRA.POLAR>
0

>  <SCORE.INTRA.POLAR.0>
0

>  <SCORE.INTRA.REPUL>
0

>  <SCORE.INTRA.REPUL.0>
0

>  <SCORE.INTRA.SOLV>
0

>  <SCORE.INTRA.SOLV.lig_0>
-12.9768

>  <SCORE.INTRA.VDW>
0

>  <SCORE.INTRA.VDW.0>
0

>  <SCORE.INTRA.norm>
0

>  <SCORE.RESTR>
0

>  <SCORE.RESTR.CAVITY>
0

>  <SCORE.RESTR.norm>
0

>  <SCORE.SYSTEM>
0

>  <SCORE.SYSTEM.CONST>
0

>  <SCORE.SYSTEM.DIHEDRAL>
0

>  <SCORE.SYSTEM.SOLV>
0

>  <SCORE.SYSTEM.norm>
0

>  <SCORE.heavy>
13

>  <SCORE.norm>
-2.77439

>  <RMSD>
3.392

$$$$
1eht cryst
 OpenBabel11021811383D
libRbt.so/2013.1/901 2013/11/27
 13 14  0  0  0  0  0  0  0  0999 V2000
   -6.4224   -3.2777   12.9364 C   0  0  0  0  0  0  0  0  0  0  0  0
   -6.0172   -4.5557   12.5619 N   0  0  0  0  0  0  0  0  0  0  0  0
   -6.1702   -5.5739   13.4671 C   0  0  0  0  0  0  0  0  0  0  0  0
   -6.6563   -5.2703   14.5583 O   0  0  0  0  0  0  0  0  0  0  0  0
   -5.8168   -6.8798   13.2387 N   0  0  0  0  0  0  0  0  0  0  0  0
   -5.9825   -7.8925   14.1692 C   0  0  0  0  0  0  0  0  0  0  0  0
   -5.2836   -7.0797   11.9997 C   0  0  0  0  0  0  0  0  0  0  0  0
   -5.1347   -6.0584   11.1066 C   0  0  0  0  0  0  0  0  0  0  0  0
   -5.4915   -4.7147   11.3209 C   0  0  0  0  0  0  0  0  0  0  0  0
   -5.3792   -3.7612   10.5519 O   0  0  0  0  0  0  0  0  0  0  0  0
   -4.5697   -6.6282    9.9737 N   0  0  0  0  0  0  0  0  0  0  0  0
   -4.4158   -7.9436   10.2562 C   0  0  0  0  0  0  0  0  0  0  0  0
   -4.8252   -8.2719   11.4502 N   0  0  0  0  0  0  0  0  0  0  0  0
  1  2  1  0  0  0  0
  2  9  1  0  0  0  0
  2  3  1  0  0  0  0
  3  5  1  0  0  0  0
  3  4  2  0  0  0  0
  5  6  1  0  0  0  0
  5  7  1  0  0  0  0
  7  8  2  0  0  0  0
  7 13  1  0  0  0  0
  8  9  1  0  0  0  0
  8 11  1  0  0  0  0
  9 10  2  0  0  0  0
 11 12  1  0  0  0  0
 12 13  2  0  0  0  0
M  END
>  <CHROM.1>
-5.56968436,-5.95190085,12.14841472,-2.75539967,-1.15224665,2.67111458

>  <Name>
1eht cryst

>  <RI>
0

>  <Rbt.Current_Directory>
/home/itssahil/PROJECTS/Mol_Feturizer/New_Systems/rnas/1eht

>  <Rbt.Executable>
rbdock ($Id: //depot/dev/client3/rdock/2013.1/src/exe/rbdock.cxx#4 $)

>  <Rbt.Library>
libRbt.so (2013.1, Build901 2013/11/27)

>  <Rbt.Parameter_File>
/export/apps/rDock/src/rDock_2013.1_src/data/scripts/dock_solv.prm

>  <Rbt.Receptor>
prm/blind_docking_40.prm

>  <SCORE>
-35.9599

>  <SCORE.INTER>
-35.9599

>  <SCORE.INTER.CONST>
1

>  <SCORE.INTER.POLAR>
-1.85668

>  <SCORE.INTER.ROT>
0

>  <SCORE.INTER.SOLV>
10.0968

>  <SCORE.INTER.VDW>
-24.7499

>  <SCORE.INTER.norm>
-2.76615

>  <SCORE.INTRA>
0

>  <SCORE.INTRA.DIHEDRAL>
0

>  <SCORE.INTRA.DIHEDRAL.0>
0

>  <SCORE.INTRA.POLAR>
0

>  <SCORE.INTRA.POLAR.0>
0

>  <SCORE.INTRA.REPUL>
0

>  <SCORE.INTRA.REPUL.0>
0

>  <SCORE.INTRA.SOLV>
0

>  <SCORE.INTRA.SOLV.lig_0>
-12.9768

>  <SCORE.INTRA.VDW>
0

>  <SCORE.INTRA.VDW.0>
0

>  <SCORE.INTRA.norm>
0

>  <SCORE.RESTR>
0

>  <SCORE.RESTR.CAVITY>
0

>  <SCORE.RESTR.norm>
0

>  <SCORE.SYSTEM>
0

>  <SCORE.SYSTEM.CONST>
0

>  <SCORE.SYSTEM.DIHEDRAL>
0

>  <SCORE.SYSTEM.SOLV>
0

>  <SCORE.SYSTEM.norm>
0

>  <SCORE.heavy>
13

>  <SCORE.norm>
-2.76615

>  <RMSD>
3.392

$$$$
1eht cryst
 OpenBabel11021811383D
libRbt.so/2013.1/901 2013/11/27
 13 14  0  0  0  0  0  0  0  0999 V2000
   -6.4369   -3.3135   12.9608 C   0  0  0  0  0  0  0  0  0  0  0  0
   -6.0232   -4.5859   12.5769 N   0  0  0  0  0  0  0  0  0  0  0  0
   -6.1634   -5.6106   13.4770 C   0  0  0  0  0  0  0  0  0  0  0  0
   -6.6466   -5.3172   14.5723 O   0  0  0  0  0  0  0  0  0  0  0  0
   -5.8005   -6.9122   13.2392 N   0  0  0  0  0  0  0  0  0  0  0  0
   -5.9534   -7.9316   14.1646 C   0  0  0  0  0  0  0  0  0  0  0  0
   -5.2718   -7.1006   11.9964 C   0  0  0  0  0  0  0  0  0  0  0  0
   -5.1357   -6.0730   11.1086 C   0  0  0  0  0  0  0  0  0  0  0  0
   -5.5023   -4.7335   11.3324 C   0  0  0  0  0  0  0  0  0  0  0  0
   -5.4016   -3.7746   10.5684 O   0  0  0  0  0  0  0  0  0  0  0  0
   -4.5716   -6.6316    9.9697 N   0  0  0  0  0  0  0  0  0  0  0  0
   -4.4057   -7.9473   10.2437 C   0  0  0  0  0  0  0  0  0  0  0  0
   -4.8066   -8.2858   11.4378 N   0  0  0  0  0  0  0  0  0  0  0  0
  1  2  1  0  0  0  0
  2  9  1  0  0  0  0
  2  3  1  0  0  0  0
  3  5  1  0  0  0  0
  3  4  2  0  0  0  0
  5  6  1  0  0  0  0
  5  7  1  0  0  0  0
  7  8  2  0  0  0  0
  7 13  1  0  0  0  0
  8  9  1  0  0  0  0
  8 11  1  0  0  0  0
  9 10  2  0  0  0  0
 11 12  1  0  0  0  0
 12 13  2  0  0  0  0
M  END
>  <CHROM.1>
-5.56637069,-5.97603377,12.15314102,-2.77876427,-1.15286063,2.65555935

>  <Name>
1eht cryst

>  <RI>
0

>  <Rbt.Current_Directory>
/home/itssahil/PROJECTS/Mol_Feturizer/New_Systems/rnas/1eht

>  <Rbt.Executable>
rbdock ($Id: //depot/dev/client3/rdock/2013.1/src/exe/rbdock.cxx#4 $)

>  <Rbt.Library>
libRbt.so (2013.1, Build901 2013/11/27)

>  <Rbt.Parameter_File>
/export/apps/rDock/src/rDock_2013.1_src/data/scripts/dock_solv.prm

>  <Rbt.Receptor>
prm/blind_docking_40.prm

>  <SCORE>
-35.9847

>  <SCORE.INTER>
-35.9847

>  <SCORE.INTER.CONST>
1

>  <SCORE.INTER.POLAR>
-1.85148

>  <SCORE.INTER.ROT>
0

>  <SCORE.INTER.SOLV>
10.0527

>  <SCORE.INTER.VDW>
-24.7691

>  <SCORE.INTER.norm>
-2.76805

>  <SCORE.INTRA>
0

>  <SCORE.INTRA.DIHEDRAL>
0

>  <SCORE.INTRA.DIHEDRAL.0>
0

>  <SCORE.INTRA.POLAR>
0

>  <SCORE.INTRA.POLAR.0>
0

>  <SCORE.INTRA.REPUL>
0

>  <SCORE.INTRA.REPUL.0>
0

>  <SCORE.INTRA.SOLV>
0

>  <SCORE.INTRA.SOLV.lig_0>
-12.9768

>  <SCORE.INTRA.VDW>
0

>  <SCORE.INTRA.VDW.0>
0

>  <SCORE.INTRA.norm>
0

>  <SCORE.RESTR>
0

>  <SCORE.RESTR.CAVITY>
0

>  <SCORE.RESTR.norm>
0

>  <SCORE.SYSTEM>
0

>  <SCORE.SYSTEM.CONST>
0

>  <SCORE.SYSTEM.DIHEDRAL>
0

>  <SCORE.SYSTEM.SOLV>
0

>  <SCORE.SYSTEM.norm>
0

>  <SCORE.heavy>
13

>  <SCORE.norm>
-2.76805

>  <RMSD>
3.392

$$$$
1eht cryst
 OpenBabel11021811383D
libRbt.so/2013.1/901 2013/11/27
 13 14  0  0  0  0  0  0  0  0999 V2000
   -6.4436   -3.3139   12.8981 C   0  0  0  0  0  0  0  0  0  0  0  0
   -6.0181   -4.5886   12.5354 N   0  0  0  0  0  0  0  0  0  0  0  0
   -6.1591   -5.6017   13.4484 C   0  0  0  0  0  0  0  0  0  0  0  0
   -6.6536   -5.2965   14.5354 O   0  0  0  0  0  0  0  0  0  0  0  0
   -5.7855   -6.9039   13.2318 N   0  0  0  0  0  0  0  0  0  0  0  0
   -5.9395   -7.9115   14.1699 C   0  0  0  0  0  0  0  0  0  0  0  0
   -5.2450   -7.1059   11.9963 C   0  0  0  0  0  0  0  0  0  0  0  0
   -5.1082   -6.0898   11.0954 C   0  0  0  0  0  0  0  0  0  0  0  0
   -5.4857   -4.7499   11.2975 C   0  0  0  0  0  0  0  0  0  0  0  0
   -5.3849   -3.8010   10.5212 O   0  0  0  0  0  0  0  0  0  0  0  0
   -4.5307   -6.6603    9.9692 N   0  0  0  0  0  0  0  0  0  0  0  0
   -4.3582   -7.9709   10.2629 C   0  0  0  0  0  0  0  0  0  0  0  0
   -4.7670   -8.2956   11.4582 N   0  0  0  0  0  0  0  0  0  0  0  0
  1  2  1  0  0  0  0
  2  9  1  0  0  0  0
  2  3  1  0  0  0  0
  3  5  1  0  0  0  0
  3  4  2  0  0  0  0
  5  6  1  0  0  0  0
  5  7  1  0  0  0  0
  7  8  2  0  0  0  0
  7 13  1  0  0  0  0
  8  9  1  0  0  0  0
  8 11  1  0  0  0  0
  9 10  2  0  0  0  0
 11 12  1  0  0  0  0
 12 13  2  0  0  0  0
M  END
>  <CHROM.1>
-5.54838870,-5.98135355,12.13486995,-2.78344863,-1.14218713,2.63741660

>  <Name>
1eht cryst

>  <RI>
0

>  <Rbt.Current_Directory>
/home/itssahil/PROJECTS/Mol_Feturizer/New_Systems/rnas/1eht

>  <Rbt.Executable>
rbdock ($Id: //depot/dev/client3/rdock/2013.1/src/exe/rbdock.cxx#4 $)

>  <Rbt.Library>
libRbt.so (2013.1, Build901 2013/11/27)

>  <Rbt.Parameter_File>
/export/apps/rDock/src/rDock_2013.1_src/data/scripts/dock_solv.prm

>  <Rbt.Receptor>
prm/blind_docking_60.prm

>  <SCORE>
-36.0632

>  <SCORE.INTER>
-36.0632

>  <SCORE.INTER.CONST>
1

>  <SCORE.INTER.POLAR>
-1.88388

>  <SCORE.INTER.ROT>
0

>  <SCORE.INTER.SOLV>
10.0517

>  <SCORE.INTER.VDW>
-24.7131

>  <SCORE.INTER.norm>
-2.77409

>  <SCORE.INTRA>
0

>  <SCORE.INTRA.DIHEDRAL>
0

>  <SCORE.INTRA.DIHEDRAL.0>
0

>  <SCORE.INTRA.POLAR>
0

>  <SCORE.INTRA.POLAR.0>
0

>  <SCORE.INTRA.REPUL>
0

>  <SCORE.INTRA.REPUL.0>
0

>  <SCORE.INTRA.SOLV>
0

>  <SCORE.INTRA.SOLV.lig_0>
-12.9768

>  <SCORE.INTRA.VDW>
0

>  <SCORE.INTRA.VDW.0>
0

>  <SCORE.INTRA.norm>
0

>  <SCORE.RESTR>
0

>  <SCORE.RESTR.CAVITY>
0

>  <SCORE.RESTR.norm>
0

>  <SCORE.SYSTEM>
0

>  <SCORE.SYSTEM.CONST>
0

>  <SCORE.SYSTEM.DIHEDRAL>
0

>  <SCORE.SYSTEM.SOLV>
0

>  <SCORE.SYSTEM.norm>
0

>  <SCORE.heavy>
13

>  <SCORE.norm>
-2.77409

>  <RMSD>
3.392

$$$$
1eht cryst
 OpenBabel11021811383D
libRbt.so/2013.1/901 2013/11/27
 13 14  0  0  0  0  0  0  0  0999 V2000
   -6.4426   -3.3113   12.8992 C   0  0  0  0  0  0  0  0  0  0  0  0
   -6.0175   -4.5859   12.5355 N   0  0  0  0  0  0  0  0  0  0  0  0
   -6.1521   -5.5982   13.4503 C   0  0  0  0  0  0  0  0  0  0  0  0
   -6.6409   -5.2925   14.5397 O   0  0  0  0  0  0  0  0  0  0  0  0
   -5.7781   -6.9002   13.2330 N   0  0  0  0  0  0  0  0  0  0  0  0
   -5.9255   -7.9069   14.1730 C   0  0  0  0  0  0  0  0  0  0  0  0
   -5.2441   -7.1027   11.9947 C   0  0  0  0  0  0  0  0  0  0  0  0
   -5.1136   -6.0874   11.0920 C   0  0  0  0  0  0  0  0  0  0  0  0
   -5.4917   -4.7478   11.2948 C   0  0  0  0  0  0  0  0  0  0  0  0
   -5.3965   -3.7996   10.5169 O   0  0  0  0  0  0  0  0  0  0  0  0
   -4.5417   -6.6583    9.9632 N   0  0  0  0  0  0  0  0  0  0  0  0
   -4.3659   -7.9684   10.2573 C   0  0  0  0  0  0  0  0  0  0  0  0
   -4.7676   -8.2924   11.4551 N   0  0  0  0  0  0  0  0  0  0  0  0
  1  2  1  0  0  0  0
  2  9  1  0  0  0  0
  2  3  1  0  0  0  0
  3  5  1  0  0  0  0
  3  4  2  0  0  0  0
  5  6  1  0  0  0  0
  5  7  1  0  0  0  0
  7  8  2  0  0  0  0
  7 13  1  0  0  0  0
  8  9  1  0  0  0  0
  8 11  1  0  0  0  0
  9 10  2  0  0  0  0
 11 12  1  0  0  0  0
 12 13  2  0  0  0  0
M  END
>  <CHROM.1>
-5.54820186,-5.97842730,12.13375475,-2.79271137,-1.14641188,2.62793922

>  <Name>
1eht cryst

>  <RI>
0

>  <Rbt.Current_Directory>
/home/itssahil/PROJECTS/Mol_Feturizer/New_Systems/rnas/1eht

>  <Rbt.Executable>
rbdock ($Id: //depot/dev/client3/rdock/2013.1/src/exe/rbdock.cxx#4 $)

>  <Rbt.Library>
libRbt.so (2013.1, Build901 2013/11/27)

>  <Rbt.Parameter_File>
/export/apps/rDock/src/rDock_2013.1_src/data/scripts/dock_solv.prm

>  <Rbt.Receptor>
prm/blind_docking_60.prm

>  <SCORE>
-36.0531

>  <SCORE.INTER>
-36.0531

>  <SCORE.INTER.CONST>
1

>  <SCORE.INTER.POLAR>
-1.87711

>  <SCORE.INTER.ROT>
0

>  <SCORE.INTER.SOLV>
10.0634

>  <SCORE.INTER.VDW>
-24.7328

>  <SCORE.INTER.norm>
-2.77332

>  <SCORE.INTRA>
0

>  <SCORE.INTRA.DIHEDRAL>
0

>  <SCORE.INTRA.DIHEDRAL.0>
0

>  <SCORE.INTRA.POLAR>
0

>  <SCORE.INTRA.POLAR.0>
0

>  <SCORE.INTRA.REPUL>
0

>  <SCORE.INTRA.REPUL.0>
0

>  <SCORE.INTRA.SOLV>
0

>  <SCORE.INTRA.SOLV.lig_0>
-12.9768

>  <SCORE.INTRA.VDW>
0

>  <SCORE.INTRA.VDW.0>
0

>  <SCORE.INTRA.norm>
0

>  <SCORE.RESTR>
0

>  <SCORE.RESTR.CAVITY>
0

>  <SCORE.RESTR.norm>
0

>  <SCORE.SYSTEM>
0

>  <SCORE.SYSTEM.CONST>
0

>  <SCORE.SYSTEM.DIHEDRAL>
0

>  <SCORE.SYSTEM.SOLV>
0

>  <SCORE.SYSTEM.norm>
0

>  <SCORE.heavy>
13

>  <SCORE.norm>
-2.77332

>  <RMSD>
3.392

$$$$
1eht cryst
 OpenBabel11021811383D
libRbt.so/2013.1/901 2013/11/27
 13 14  0  0  0  0  0  0  0  0999 V2000
   -6.5288   -3.1725   13.2847 C   0  0  0  0  0  0  0  0  0  0  0  0
   -6.1085   -4.4241   12.8440 N   0  0  0  0  0  0  0  0  0  0  0  0
   -6.2560   -5.4915   13.6918 C   0  0  0  0  0  0  0  0  0  0  0  0
   -6.7512   -5.2523   14.7949 O   0  0  0  0  0  0  0  0  0  0  0  0
   -5.8880   -6.7794   13.3951 N   0  0  0  0  0  0  0  0  0  0  0  0
   -6.0484   -7.8427   14.2683 C   0  0  0  0  0  0  0  0  0  0  0  0
   -5.3460   -6.9065   12.1503 C   0  0  0  0  0  0  0  0  0  0  0  0
   -5.2027   -5.8369   11.3147 C   0  0  0  0  0  0  0  0  0  0  0  0
   -5.5744   -4.5104   11.5994 C   0  0  0  0  0  0  0  0  0  0  0  0
   -5.4677   -3.5155   10.8838 O   0  0  0  0  0  0  0  0  0  0  0  0
   -4.6257   -6.3388   10.1561 N   0  0  0  0  0  0  0  0  0  0  0  0
   -4.4598   -7.6660   10.3678 C   0  0  0  0  0  0  0  0  0  0  0  0
   -4.8725   -8.0626   11.5398 N   0  0  0  0  0  0  0  0  0  0  0  0
  1  2  1  0  0  0  0
  2  9  1  0  0  0  0
  2  3  1  0  0  0  0
  3  5  1  0  0  0  0
  3  4  2  0  0  0  0
  5  6  1  0  0  0  0
  5  7  1  0  0  0  0
  7  8  2  0  0  0  0
  7 13  1  0  0  0  0
  8  9  1  0  0  0  0
  8 11  1  0  0  0  0
  9 10  2  0  0  0  0
 11 12  1  0  0  0  0
 12 13  2  0  0  0  0
M  END
>  <CHROM.1>
-5.64444994,-5.79137258,12.35818133,-2.77141288,-1.14267281,2.71074989

>  <Name>
1eht cryst

>  <RI>
0

>  <Rbt.Current_Directory>
/home/itssahil/PROJECTS/Mol_Feturizer/New_Systems/rnas/1eht

>  <Rbt.Executable>
rbdock ($Id: //depot/dev/client3/rdock/2013.1/src/exe/rbdock.cxx#4 $)

>  <Rbt.Library>
libRbt.so (2013.1, Build901 2013/11/27)

>  <Rbt.Parameter_File>
/export/apps/rDock/src/rDock_2013.1_src/data/scripts/dock_solv.prm

>  <Rbt.Receptor>
prm/blind_docking_80.prm

>  <SCORE>
-35.0348

>  <SCORE.INTER>
-35.2351

>  <SCORE.INTER.CONST>
1

>  <SCORE.INTER.POLAR>
-1.61175

>  <SCORE.INTER.ROT>
0

>  <SCORE.INTER.SOLV>
10.4055

>  <SCORE.INTER.VDW>
-25.1861

>  <SCORE.INTER.norm>
-2.71039

>  <SCORE.INTRA>
0

>  <SCORE.INTRA.DIHEDRAL>
0

>  <SCORE.INTRA.DIHEDRAL.0>
0

>  <SCORE.INTRA.POLAR>
0

>  <SCORE.INTRA.POLAR.0>
0

>  <SCORE.INTRA.REPUL>
0

>  <SCORE.INTRA.REPUL.0>
0

>  <SCORE.INTRA.SOLV>
0

>  <SCORE.INTRA.SOLV.lig_0>
-12.9768

>  <SCORE.INTRA.VDW>
0

>  <SCORE.INTRA.VDW.0>
0

>  <SCORE.INTRA.norm>
0

>  <SCORE.RESTR>
0.200326

>  <SCORE.RESTR.CAVITY>
0.200326

>  <SCORE.RESTR.norm>
0.0154097

>  <SCORE.SYSTEM>
0

>  <SCORE.SYSTEM.CONST>
0

>  <SCORE.SYSTEM.DIHEDRAL>
0

>  <SCORE.SYSTEM.SOLV>
0

>  <SCORE.SYSTEM.norm>
0

>  <SCORE.heavy>
13

>  <SCORE.norm>
-2.69498

>  <RMSD>
3.392

$$$$
1eht cryst
 OpenBabel11021811383D
libRbt.so/2013.1/901 2013/11/27
 13 14  0  0  0  0  0  0  0  0999 V2000
   -6.5377   -3.1663   13.2834 C   0  0  0  0  0  0  0  0  0  0  0  0
   -6.1163   -4.4179   12.8436 N   0  0  0  0  0  0  0  0  0  0  0  0
   -6.2646   -5.4851   13.6914 C   0  0  0  0  0  0  0  0  0  0  0  0
   -6.7614   -5.2459   14.7937 O   0  0  0  0  0  0  0  0  0  0  0  0
   -5.8956   -6.7730   13.3954 N   0  0  0  0  0  0  0  0  0  0  0  0
   -6.0568   -7.8362   14.2686 C   0  0  0  0  0  0  0  0  0  0  0  0
   -5.3518   -6.9001   12.1514 C   0  0  0  0  0  0  0  0  0  0  0  0
   -5.2078   -5.8306   11.3158 C   0  0  0  0  0  0  0  0  0  0  0  0
   -5.5804   -4.5042   11.5997 C   0  0  0  0  0  0  0  0  0  0  0  0
   -5.4731   -3.5094   10.8841 O   0  0  0  0  0  0  0  0  0  0  0  0
   -4.6289   -6.3325   10.1581 N   0  0  0  0  0  0  0  0  0  0  0  0
   -4.4629   -7.6596   10.3703 C   0  0  0  0  0  0  0  0  0  0  0  0
   -4.8770   -8.0561   11.5418 N   0  0  0  0  0  0  0  0  0  0  0  0
  1  2  1  0  0  0  0
  2  9  1  0  0  0  0
  2  3  1  0  0  0  0
  3  5  1  0  0  0  0
  3  4  2  0  0  0  0
  5  6  1  0  0  0  0
  5  7  1  0  0  0  0
  7  8  2  0  0  0  0
  7 13  1  0  0  0  0
  8  9  1  0  0  0  0
  8 11  1  0  0  0  0
  9 10  2  0  0  0  0
 11 12  1  0  0  0  0
 12 13  2  0  0  0  0
M  END
>  <CHROM.1>
-5.65100626,-5.78503538,12.35864322,-2.77087797,-1.14123559,2.71103285

>  <Name>
1eht cryst

>  <RI>
0

>  <Rbt.Current_Directory>
/home/itssahil/PROJECTS/Mol_Feturizer/New_Systems/rnas/1eht

>  <Rbt.Executable>
rbdock ($Id: //depot/dev/client3/rdock/2013.1/src/exe/rbdock.cxx#4 $)

>  <Rbt.Library>
libRbt.so (2013.1, Build901 2013/11/27)

>  <Rbt.Parameter_File>
/export/apps/rDock/src/rDock_2013.1_src/data/scripts/dock_solv.prm

>  <Rbt.Receptor>
prm/blind_docking_80.prm

>  <SCORE>
-34.9905

>  <SCORE.INTER>
-35.1815

>  <SCORE.INTER.CONST>
1

>  <SCORE.INTER.POLAR>
-1.61318

>  <SCORE.INTER.ROT>
0

>  <SCORE.INTER.SOLV>
10.4172

>  <SCORE.INTER.VDW>
-25.1495

>  <SCORE.INTER.norm>
-2.70627

>  <SCORE.INTRA>
0

>  <SCORE.INTRA.DIHEDRAL>
0

>  <SCORE.INTRA.DIHEDRAL.0>
0

>  <SCORE.INTRA.POLAR>
0

>  <SCORE.INTRA.POLAR.0>
0

>  <SCORE.INTRA.REPUL>
0

>  <SCORE.INTRA.REPUL.0>
0

>  <SCORE.INTRA.SOLV>
0

>  <SCORE.INTRA.SOLV.lig_0>
-12.9768

>  <SCORE.INTRA.VDW>
0

>  <SCORE.INTRA.VDW.0>
0

>  <SCORE.INTRA.norm>
0

>  <SCORE.RESTR>
0.191076

>  <SCORE.RESTR.CAVITY>
0.191076

>  <SCORE.RESTR.norm>
0.0146981

>  <SCORE.SYSTEM>
0

>  <SCORE.SYSTEM.CONST>
0

>  <SCORE.SYSTEM.DIHEDRAL>
0

>  <SCORE.SYSTEM.SOLV>
0

>  <SCORE.SYSTEM.norm>
0

>  <SCORE.heavy>
13

>  <SCORE.norm>
-2.69157

>  <RMSD>
3.392

$$$$
1eht cryst
 OpenBabel11021811383D
libRbt.so/2013.1/901 2013/11/27
 13 14  0  0  0  0  0  0  0  0999 V2000
   -6.4772   -3.4070   13.0162 C   0  0  0  0  0  0  0  0  0  0  0  0
   -6.0470   -4.6658   12.6064 N   0  0  0  0  0  0  0  0  0  0  0  0
   -6.1610   -5.7077   13.4902 C   0  0  0  0  0  0  0  0  0  0  0  0
   -6.6372   -5.4408   14.5953 O   0  0  0  0  0  0  0  0  0  0  0  0
   -5.7796   -6.9989   13.2265 N   0  0  0  0  0  0  0  0  0  0  0  0
   -5.9061   -8.0362   14.1358 C   0  0  0  0  0  0  0  0  0  0  0  0
   -5.2611   -7.1576   11.9753 C   0  0  0  0  0  0  0  0  0  0  0  0
   -5.1511   -6.1130   11.1037 C   0  0  0  0  0  0  0  0  0  0  0  0
   -5.5371   -4.7837   11.3542 C   0  0  0  0  0  0  0  0  0  0  0  0
   -5.4600   -3.8106   10.6057 O   0  0  0  0  0  0  0  0  0  0  0  0
   -4.5902   -6.6430    9.9497 N   0  0  0  0  0  0  0  0  0  0  0  0
   -4.4000   -7.9603   10.1995 C   0  0  0  0  0  0  0  0  0  0  0  0
   -4.7826   -8.3254   11.3917 N   0  0  0  0  0  0  0  0  0  0  0  0
  1  2  1  0  0  0  0
  2  9  1  0  0  0  0
  2  3  1  0  0  0  0
  3  5  1  0  0  0  0
  3  4  2  0  0  0  0
  5  6  1  0  0  0  0
  5  7  1  0  0  0  0
  7  8  2  0  0  0  0
  7 13  1  0  0  0  0
  8  9  1  0  0  0  0
  8 11  1  0  0  0  0
  9 10  2  0  0  0  0
 11 12  1  0  0  0  0
 12 13  2  0  0  0  0
M  END
>  <CHROM.1>
-5.57220045,-6.04084402,12.15419525,-2.82652874,-1.15425742,2.62887899

>  <Name>
1eht cryst

>  <RI>
0

>  <Rbt.Current_Directory>
/home/itssahil/PROJECTS/Mol_Feturizer/New_Systems/rnas/1eht

>  <Rbt.Executable>
rbdock ($Id: //depot/dev/client3/rdock/2013.1/src/exe/rbdock.cxx#4 $)

>  <Rbt.Library>
libRbt.so (2013.1, Build901 2013/11/27)

>  <Rbt.Parameter_File>
/export/apps/rDock/src/rDock_2013.1_src/data/scripts/dock_solv.prm

>  <Rbt.Receptor>
prm/pocket_docking_2.prm

>  <SCORE>
-35.7044

>  <SCORE.INTER>
-35.8183

>  <SCORE.INTER.CONST>
1

>  <SCORE.INTER.POLAR>
-1.8307

>  <SCORE.INTER.ROT>
0

>  <SCORE.INTER.SOLV>
9.93129

>  <SCORE.INTER.VDW>
-24.687

>  <SCORE.INTER.norm>
-2.75525

>  <SCORE.INTRA>
0

>  <SCORE.INTRA.DIHEDRAL>
0

>  <SCORE.INTRA.DIHEDRAL.0>
0

>  <SCORE.INTRA.POLAR>
0

>  <SCORE.INTRA.POLAR.0>
0

>  <SCORE.INTRA.REPUL>
0

>  <SCORE.INTRA.REPUL.0>
0

>  <SCORE.INTRA.SOLV>
0

>  <SCORE.INTRA.SOLV.lig_0>
-12.9768

>  <SCORE.INTRA.VDW>
0

>  <SCORE.INTRA.VDW.0>
0

>  <SCORE.INTRA.norm>
0

>  <SCORE.RESTR>
0.113951

>  <SCORE.RESTR.CAVITY>
0.113951

>  <SCORE.RESTR.norm>
0.00876543

>  <SCORE.SYSTEM>
0

>  <SCORE.SYSTEM.CONST>
0

>  <SCORE.SYSTEM.DIHEDRAL>
0

>  <SCORE.SYSTEM.SOLV>
0

>  <SCORE.SYSTEM.norm>
0

>  <SCORE.heavy>
13

>  <SCORE.norm>
-2.74649

>  <RMSD>
3.392

$$$$
1eht cryst
 OpenBabel11021811383D
libRbt.so/2013.1/901 2013/11/27
 13 14  0  0  0  0  0  0  0  0999 V2000
   -6.5017   -3.3494   12.9016 C   0  0  0  0  0  0  0  0  0  0  0  0
   -6.0654   -4.6172   12.5274 N   0  0  0  0  0  0  0  0  0  0  0  0
   -6.1769   -5.6349   13.4393 C   0  0  0  0  0  0  0  0  0  0  0  0
   -6.6565   -5.3397   14.5357 O   0  0  0  0  0  0  0  0  0  0  0  0
   -5.7896   -6.9313   13.2120 N   0  0  0  0  0  0  0  0  0  0  0  0
   -5.9136   -7.9437   14.1493 C   0  0  0  0  0  0  0  0  0  0  0  0
   -5.2678   -7.1221   11.9666 C   0  0  0  0  0  0  0  0  0  0  0  0
   -5.1604   -6.1014   11.0669 C   0  0  0  0  0  0  0  0  0  0  0  0
   -5.5524   -4.7674   11.2800 C   0  0  0  0  0  0  0  0  0  0  0  0
   -5.4778   -3.8149   10.5051 O   0  0  0  0  0  0  0  0  0  0  0  0
   -4.5949   -6.6606    9.9290 N   0  0  0  0  0  0  0  0  0  0  0  0
   -4.3997   -7.9696   10.2153 C   0  0  0  0  0  0  0  0  0  0  0  0
   -4.7833   -8.3035   11.4164 N   0  0  0  0  0  0  0  0  0  0  0  0
  1  2  1  0  0  0  0
  2  9  1  0  0  0  0
  2  3  1  0  0  0  0
  3  5  1  0  0  0  0
  3  4  2  0  0  0  0
  5  6  1  0  0  0  0
  5  7  1  0  0  0  0
  7  8  2  0  0  0  0
  7 13  1  0  0  0  0
  8  9  1  0  0  0  0
  8 11  1  0  0  0  0
  9 10  2  0  0  0  0
 11 12  1  0  0  0  0
 12 13  2  0  0  0  0
M  END
>  <CHROM.1>
-5.58393795,-6.00215275,12.11415029,-2.83291789,-1.15039498,2.59553468

>  <Name>
1eht cryst

>  <RI>
0

>  <Rbt.Current_Directory>
/home/itssahil/PROJECTS/Mol_Feturizer/New_Systems/rnas/1eht

>  <Rbt.Executable>
rbdock ($Id: //depot/dev/client3/rdock/2013.1/src/exe/rbdock.cxx#4 $)

>  <Rbt.Library>
libRbt.so (2013.1, Build901 2013/11/27)

>  <Rbt.Parameter_File>
/export/apps/rDock/src/rDock_2013.1_src/data/scripts/dock_solv.prm

>  <Rbt.Receptor>
prm/pocket_docking_2.prm

>  <SCORE>
-35.6968

>  <SCORE.INTER>
-35.7995

>  <SCORE.INTER.CONST>
1

>  <SCORE.INTER.POLAR>
-1.84737

>  <SCORE.INTER.ROT>
0

>  <SCORE.INTER.SOLV>
10.0161

>  <SCORE.INTER.VDW>
-24.6471

>  <SCORE.INTER.norm>
-2.7538

>  <SCORE.INTRA>
0

>  <SCORE.INTRA.DIHEDRAL>
0

>  <SCORE.INTRA.DIHEDRAL.0>
0

>  <SCORE.INTRA.POLAR>
0

>  <SCORE.INTRA.POLAR.0>
0

>  <SCORE.INTRA.REPUL>
0

>  <SCORE.INTRA.REPUL.0>
0

>  <SCORE.INTRA.SOLV>
0

>  <SCORE.INTRA.SOLV.lig_0>
-12.9768

>  <SCORE.INTRA.VDW>
0

>  <SCORE.INTRA.VDW.0>
0

>  <SCORE.INTRA.norm>
0

>  <SCORE.RESTR>
0.102625

>  <SCORE.RESTR.CAVITY>
0.102625

>  <SCORE.RESTR.norm>
0.00789424

>  <SCORE.SYSTEM>
0

>  <SCORE.SYSTEM.CONST>
0

>  <SCORE.SYSTEM.DIHEDRAL>
0

>  <SCORE.SYSTEM.SOLV>
0

>  <SCORE.SYSTEM.norm>
0

>  <SCORE.heavy>
13

>  <SCORE.norm>
-2.74591

>  <RMSD>
3.392

$$$$
1eht cryst
 OpenBabel11021811383D
libRbt.so/2013.1/901 2013/11/27
 13 14  0  0  0  0  0  0  0  0999 V2000
   -6.4378   -3.2904   12.8980 C   0  0  0  0  0  0  0  0  0  0  0  0
   -6.0187   -4.5674   12.5359 N   0  0  0  0  0  0  0  0  0  0  0  0
   -6.1610   -5.5785   13.4508 C   0  0  0  0  0  0  0  0  0  0  0  0
   -6.6506   -5.2697   14.5390 O   0  0  0  0  0  0  0  0  0  0  0  0
   -5.7935   -6.8826   13.2350 N   0  0  0  0  0  0  0  0  0  0  0  0
   -5.9485   -7.8881   14.1751 C   0  0  0  0  0  0  0  0  0  0  0  0
   -5.2578   -7.0886   11.9980 C   0  0  0  0  0  0  0  0  0  0  0  0
   -5.1197   -6.0744   11.0952 C   0  0  0  0  0  0  0  0  0  0  0  0
   -5.4910   -4.7327   11.2965 C   0  0  0  0  0  0  0  0  0  0  0  0
   -5.3888   -3.7854   10.5184 O   0  0  0  0  0  0  0  0  0  0  0  0
   -4.5483   -6.6490    9.9679 N   0  0  0  0  0  0  0  0  0  0  0  0
   -4.3803   -7.9599   10.2630 C   0  0  0  0  0  0  0  0  0  0  0  0
   -4.7866   -8.2811   11.4601 N   0  0  0  0  0  0  0  0  0  0  0  0
  1  2  1  0  0  0  0
  2  9  1  0  0  0  0
  2  3  1  0  0  0  0
  3  5  1  0  0  0  0
  3  4  2  0  0  0  0
  5  6  1  0  0  0  0
  5  7  1  0  0  0  0
  7  8  2  0  0  0  0
  7 13  1  0  0  0  0
  8  9  1  0  0  0  0
  8 11  1  0  0  0  0
  9 10  2  0  0  0  0
 11 12  1  0  0  0  0
 12 13  2  0  0  0  0
M  END
>  <CHROM.1>
-5.55610796,-5.96263421,12.13587631,-2.77844882,-1.14703546,2.64049029

>  <Name>
1eht cryst

>  <RI>
0

>  <Rbt.Current_Directory>
/home/itssahil/PROJECTS/Mol_Feturizer/New_Systems/rnas/1eht

>  <Rbt.Executable>
rbdock ($Id: //depot/dev/client3/rdock/2013.1/src/exe/rbdock.cxx#4 $)

>  <Rbt.Library>
libRbt.so (2013.1, Build901 2013/11/27)

>  <Rbt.Parameter_File>
/export/apps/rDock/src/rDock_2013.1_src/data/scripts/dock_solv.prm

>  <Rbt.Receptor>
prm/pocket_docking_3.prm

>  <SCORE>
-36.0253

>  <SCORE.INTER>
-36.0253

>  <SCORE.INTER.CONST>
1

>  <SCORE.INTER.POLAR>
-1.87302

>  <SCORE.INTER.ROT>
0

>  <SCORE.INTER.SOLV>
10.0906

>  <SCORE.INTER.VDW>
-24.737

>  <SCORE.INTER.norm>
-2.77118

>  <SCORE.INTRA>
0

>  <SCORE.INTRA.DIHEDRAL>
0

>  <SCORE.INTRA.DIHEDRAL.0>
0

>  <SCORE.INTRA.POLAR>
0

>  <SCORE.INTRA.POLAR.0>
0

>  <SCORE.INTRA.REPUL>
0

>  <SCORE.INTRA.REPUL.0>
0

>  <SCORE.INTRA.SOLV>
0

>  <SCORE.INTRA.SOLV.lig_0>
-12.9768

>  <SCORE.INTRA.VDW>
0

>  <SCORE.INTRA.VDW.0>
0

>  <SCORE.INTRA.norm>
0

>  <SCORE.RESTR>
0

>  <SCORE.RESTR.CAVITY>
0

>  <SCORE.RESTR.norm>
0

>  <SCORE.SYSTEM>
0

>  <SCORE.SYSTEM.CONST>
0

>  <SCORE.SYSTEM.DIHEDRAL>
0

>  <SCORE.SYSTEM.SOLV>
0

>  <SCORE.SYSTEM.norm>
0

>  <SCORE.heavy>
13

>  <SCORE.norm>
-2.77118

>  <RMSD>
3.392

$$$$
1eht cryst
 OpenBabel11021811383D
libRbt.so/2013.1/901 2013/11/27
 13 14  0  0  0  0  0  0  0  0999 V2000
   -6.4440   -3.3160   12.8978 C   0  0  0  0  0  0  0  0  0  0  0  0
   -6.0172   -4.5903   12.5349 N   0  0  0  0  0  0  0  0  0  0  0  0
   -6.1536   -5.6029   13.4491 C   0  0  0  0  0  0  0  0  0  0  0  0
   -6.6455   -5.2977   14.5373 O   0  0  0  0  0  0  0  0  0  0  0  0
   -5.7783   -6.9046   13.2325 N   0  0  0  0  0  0  0  0  0  0  0  0
   -5.9276   -7.9117   14.1718 C   0  0  0  0  0  0  0  0  0  0  0  0
   -5.2409   -7.1065   11.9955 C   0  0  0  0  0  0  0  0  0  0  0  0
   -5.1086   -6.0909   11.0935 C   0  0  0  0  0  0  0  0  0  0  0  0
   -5.4880   -4.7515   11.2956 C   0  0  0  0  0  0  0  0  0  0  0  0
   -5.3913   -3.8031   10.5182 O   0  0  0  0  0  0  0  0  0  0  0  0
   -4.5334   -6.6612    9.9660 N   0  0  0  0  0  0  0  0  0  0  0  0
   -4.3576   -7.9713   10.2602 C   0  0  0  0  0  0  0  0  0  0  0  0
   -4.7623   -8.2957   11.4569 N   0  0  0  0  0  0  0  0  0  0  0  0
  1  2  1  0  0  0  0
  2  9  1  0  0  0  0
  2  3  1  0  0  0  0
  3  5  1  0  0  0  0
  3  4  2  0  0  0  0
  5  6  1  0  0  0  0
  5  7  1  0  0  0  0
  7  8  2  0  0  0  0
  7 13  1  0  0  0  0
  8  9  1  0  0  0  0
  8 11  1  0  0  0  0
  9 10  2  0  0  0  0
 11 12  1  0  0  0  0
 12 13  2  0  0  0  0
M  END
>  <CHROM.1>
-5.54602500,-5.98242495,12.13409815,-2.79076786,-1.14383011,2.62996656

>  <Name>
1eht cryst

>  <RI>
0

>  <Rbt.Current_Directory>
/home/itssahil/PROJECTS/Mol_Feturizer/New_Systems/rnas/1eht

>  <Rbt.Executable>
rbdock ($Id: //depot/dev/client3/rdock/2013.1/src/exe/rbdock.cxx#4 $)

>  <Rbt.Library>
libRbt.so (2013.1, Build901 2013/11/27)

>  <Rbt.Parameter_File>
/export/apps/rDock/src/rDock_2013.1_src/data/scripts/dock_solv.prm

>  <Rbt.Receptor>
prm/pocket_docking_3.prm

>  <SCORE>
-36.0557

>  <SCORE.INTER>
-36.0557

>  <SCORE.INTER.CONST>
1

>  <SCORE.INTER.POLAR>
-1.88217

>  <SCORE.INTER.ROT>
0

>  <SCORE.INTER.SOLV>
10.0534

>  <SCORE.INTER.VDW>
-24.7143

>  <SCORE.INTER.norm>
-2.77351

>  <SCORE.INTRA>
0

>  <SCORE.INTRA.DIHEDRAL>
0

>  <SCORE.INTRA.DIHEDRAL.0>
0

>  <SCORE.INTRA.POLAR>
0

>  <SCORE.INTRA.POLAR.0>
0

>  <SCORE.INTRA.REPUL>
0

>  <SCORE.INTRA.REPUL.0>
0

>  <SCORE.INTRA.SOLV>
0

>  <SCORE.INTRA.SOLV.lig_0>
-12.9768

>  <SCORE.INTRA.VDW>
0

>  <SCORE.INTRA.VDW.0>
0

>  <SCORE.INTRA.norm>
0

>  <SCORE.RESTR>
0

>  <SCORE.RESTR.CAVITY>
0

>  <SCORE.RESTR.norm>
0

>  <SCORE.SYSTEM>
0

>  <SCORE.SYSTEM.CONST>
0

>  <SCORE.SYSTEM.DIHEDRAL>
0

>  <SCORE.SYSTEM.SOLV>
0

>  <SCORE.SYSTEM.norm>
0

>  <SCORE.heavy>
13

>  <SCORE.norm>
-2.77351

>  <RMSD>
3.392

$$$$
1eht cryst
 OpenBabel11021811383D
libRbt.so/2013.1/901 2013/11/27
 13 14  0  0  0  0  0  0  0  0999 V2000
   -6.4409   -3.3052   12.8969 C   0  0  0  0  0  0  0  0  0  0  0  0
   -6.0191   -4.5810   12.5338 N   0  0  0  0  0  0  0  0  0  0  0  0
   -6.1612   -5.5936   13.4472 C   0  0  0  0  0  0  0  0  0  0  0  0
   -6.6531   -5.2870   14.5349 O   0  0  0  0  0  0  0  0  0  0  0  0
   -5.7911   -6.8968   13.2302 N   0  0  0  0  0  0  0  0  0  0  0  0
   -5.9460   -7.9038   14.1687 C   0  0  0  0  0  0  0  0  0  0  0  0
   -5.2531   -7.1003   11.9938 C   0  0  0  0  0  0  0  0  0  0  0  0
   -5.1153   -6.0846   11.0926 C   0  0  0  0  0  0  0  0  0  0  0  0
   -5.4891   -4.7438   11.2951 C   0  0  0  0  0  0  0  0  0  0  0  0
   -5.3873   -3.7953   10.5184 O   0  0  0  0  0  0  0  0  0  0  0  0
   -4.5410   -6.6567    9.9655 N   0  0  0  0  0  0  0  0  0  0  0  0
   -4.3713   -7.9677   10.2591 C   0  0  0  0  0  0  0  0  0  0  0  0
   -4.7789   -8.2912   11.4551 N   0  0  0  0  0  0  0  0  0  0  0  0
  1  2  1  0  0  0  0
  2  9  1  0  0  0  0
  2  3  1  0  0  0  0
  3  5  1  0  0  0  0
  3  4  2  0  0  0  0
  5  6  1  0  0  0  0
  5  7  1  0  0  0  0
  7  8  2  0  0  0  0
  7 13  1  0  0  0  0
  8  9  1  0  0  0  0
  8 11  1  0  0  0  0
  9 10  2  0  0  0  0
 11 12  1  0  0  0  0
 12 13  2  0  0  0  0
M  END
>  <CHROM.1>
-5.55350211,-5.97494607,12.13268799,-2.78016575,-1.14480355,2.64024596

>  <Name>
1eht cryst

>  <RI>
0

>  <Rbt.Current_Directory>
/home/itssahil/PROJECTS/Mol_Feturizer/New_Systems/rnas/1eht

>  <Rbt.Executable>
rbdock ($Id: //depot/dev/client3/rdock/2013.1/src/exe/rbdock.cxx#4 $)

>  <Rbt.Library>
libRbt.so (2013.1, Build901 2013/11/27)

>  <Rbt.Parameter_File>
/export/apps/rDock/src/rDock_2013.1_src/data/scripts/dock_solv.prm

>  <Rbt.Receptor>
prm/pocket_docking_4.prm

>  <SCORE>
-36.0472

>  <SCORE.INTER>
-36.0472

>  <SCORE.INTER.CONST>
1

>  <SCORE.INTER.POLAR>
-1.87883

>  <SCORE.INTER.ROT>
0

>  <SCORE.INTER.SOLV>
10.066

>  <SCORE.INTER.VDW>
-24.724

>  <SCORE.INTER.norm>
-2.77286

>  <SCORE.INTRA>
0

>  <SCORE.INTRA.DIHEDRAL>
0

>  <SCORE.INTRA.DIHEDRAL.0>
0

>  <SCORE.INTRA.POLAR>
0

>  <SCORE.INTRA.POLAR.0>
0

>  <SCORE.INTRA.REPUL>
0

>  <SCORE.INTRA.REPUL.0>
0

>  <SCORE.INTRA.SOLV>
0

>  <SCORE.INTRA.SOLV.lig_0>
-12.9768

>  <SCORE.INTRA.VDW>
0

>  <SCORE.INTRA.VDW.0>
0

>  <SCORE.INTRA.norm>
0

>  <SCORE.RESTR>
0

>  <SCORE.RESTR.CAVITY>
0

>  <SCORE.RESTR.norm>
0

>  <SCORE.SYSTEM>
0

>  <SCORE.SYSTEM.CONST>
0

>  <SCORE.SYSTEM.DIHEDRAL>
0

>  <SCORE.SYSTEM.SOLV>
0

>  <SCORE.SYSTEM.norm>
0

>  <SCORE.heavy>
13

>  <SCORE.norm>
-2.77286

>  <RMSD>
3.392

$$$$
1eht cryst
 OpenBabel11021811383D
libRbt.so/2013.1/901 2013/11/27
 13 14  0  0  0  0  0  0  0  0999 V2000
   -6.4420   -3.3034   12.8987 C   0  0  0  0  0  0  0  0  0  0  0  0
   -6.0184   -4.5789   12.5365 N   0  0  0  0  0  0  0  0  0  0  0  0
   -6.1591   -5.5911   13.4505 C   0  0  0  0  0  0  0  0  0  0  0  0
   -6.6516   -5.2844   14.5380 O   0  0  0  0  0  0  0  0  0  0  0  0
   -5.7872   -6.8939   13.2345 N   0  0  0  0  0  0  0  0  0  0  0  0
   -5.9408   -7.9005   14.1737 C   0  0  0  0  0  0  0  0  0  0  0  0
   -5.2488   -7.0975   11.9983 C   0  0  0  0  0  0  0  0  0  0  0  0
   -5.1122   -6.0823   11.0964 C   0  0  0  0  0  0  0  0  0  0  0  0
   -5.4880   -4.7418   11.2979 C   0  0  0  0  0  0  0  0  0  0  0  0
   -5.3873   -3.7937   10.5206 O   0  0  0  0  0  0  0  0  0  0  0  0
   -4.5371   -6.6544    9.9698 N   0  0  0  0  0  0  0  0  0  0  0  0
   -4.3656   -7.9649   10.2643 C   0  0  0  0  0  0  0  0  0  0  0  0
   -4.7729   -8.2881   11.4604 N   0  0  0  0  0  0  0  0  0  0  0  0
  1  2  1  0  0  0  0
  2  9  1  0  0  0  0
  2  3  1  0  0  0  0
  3  5  1  0  0  0  0
  3  4  2  0  0  0  0
  5  6  1  0  0  0  0
  5  7  1  0  0  0  0
  7  8  2  0  0  0  0
  7 13  1  0  0  0  0
  8  9  1  0  0  0  0
  8 11  1  0  0  0  0
  9 10  2  0  0  0  0
 11 12  1  0  0  0  0
 12 13  2  0  0  0  0
M  END
>  <CHROM.1>
-5.55076942,-5.97247700,12.13638039,-2.78292529,-1.14403373,2.63704746

>  <Name>
1eht cryst

>  <RI>
0

>  <Rbt.Current_Directory>
/home/itssahil/PROJECTS/Mol_Feturizer/New_Systems/rnas/1eht

>  <Rbt.Executable>
rbdock ($Id: //depot/dev/client3/rdock/2013.1/src/exe/rbdock.cxx#4 $)

>  <Rbt.Library>
libRbt.so (2013.1, Build901 2013/11/27)

>  <Rbt.Parameter_File>
/export/apps/rDock/src/rDock_2013.1_src/data/scripts/dock_solv.prm

>  <Rbt.Receptor>
prm/pocket_docking_5.prm

>  <SCORE>
-36.0522

>  <SCORE.INTER>
-36.0522

>  <SCORE.INTER.CONST>
1

>  <SCORE.INTER.POLAR>
-1.87937

>  <SCORE.INTER.ROT>
0

>  <SCORE.INTER.SOLV>
10.0707

>  <SCORE.INTER.VDW>
-24.7271

>  <SCORE.INTER.norm>
-2.77324

>  <SCORE.INTRA>
0

>  <SCORE.INTRA.DIHEDRAL>
0

>  <SCORE.INTRA.DIHEDRAL.0>
0

>  <SCORE.INTRA.POLAR>
0

>  <SCORE.INTRA.POLAR.0>
0

>  <SCORE.INTRA.REPUL>
0

>  <SCORE.INTRA.REPUL.0>
0

>  <SCORE.INTRA.SOLV>
0

>  <SCORE.INTRA.SOLV.lig_0>
-12.9768

>  <SCORE.INTRA.VDW>
0

>  <SCORE.INTRA.VDW.0>
0

>  <SCORE.INTRA.norm>
0

>  <SCORE.RESTR>
0

>  <SCORE.RESTR.CAVITY>
0

>  <SCORE.RESTR.norm>
0

>  <SCORE.SYSTEM>
0

>  <SCORE.SYSTEM.CONST>
0

>  <SCORE.SYSTEM.DIHEDRAL>
0

>  <SCORE.SYSTEM.SOLV>
0

>  <SCORE.SYSTEM.norm>
0

>  <SCORE.heavy>
13

>  <SCORE.norm>
-2.77324

>  <RMSD>
3.392

$$$$
1eht cryst
 OpenBabel11021811383D
libRbt.so/2013.1/901 2013/11/27
 13 14  0  0  0  0  0  0  0  0999 V2000
   -6.4376   -3.3001   12.8989 C   0  0  0  0  0  0  0  0  0  0  0  0
   -6.0212   -4.5772   12.5340 N   0  0  0  0  0  0  0  0  0  0  0  0
   -6.1690   -5.5908   13.4454 C   0  0  0  0  0  0  0  0  0  0  0  0
   -6.6609   -5.2839   14.5331 O   0  0  0  0  0  0  0  0  0  0  0  0
   -5.8047   -6.8953   13.2265 N   0  0  0  0  0  0  0  0  0  0  0  0
   -5.9654   -7.9032   14.1630 C   0  0  0  0  0  0  0  0  0  0  0  0
   -5.2660   -7.0990   11.9904 C   0  0  0  0  0  0  0  0  0  0  0  0
   -5.1224   -6.0824   11.0912 C   0  0  0  0  0  0  0  0  0  0  0  0
   -5.4904   -4.7402   11.2956 C   0  0  0  0  0  0  0  0  0  0  0  0
   -5.3832   -3.7908   10.5208 O   0  0  0  0  0  0  0  0  0  0  0  0
   -4.5494   -6.6551    9.9638 N   0  0  0  0  0  0  0  0  0  0  0  0
   -4.3861   -7.9673   10.2553 C   0  0  0  0  0  0  0  0  0  0  0  0
   -4.7967   -8.2911   11.4501 N   0  0  0  0  0  0  0  0  0  0  0  0
  1  2  1  0  0  0  0
  2  9  1  0  0  0  0
  2  3  1  0  0  0  0
  3  5  1  0  0  0  0
  3  4  2  0  0  0  0
  5  6  1  0  0  0  0
  5  7  1  0  0  0  0
  7  8  2  0  0  0  0
  7 13  1  0  0  0  0
  8  9  1  0  0  0  0
  8 11  1  0  0  0  0
  9 10  2  0  0  0  0
 11 12  1  0  0  0  0
 12 13  2  0  0  0  0
M  END
>  <CHROM.1>
-5.56147569,-5.97254069,12.13095326,-2.76894603,-1.14587086,2.65226343

>  <Name>
1eht cryst

>  <RI>
0

>  <Rbt.Current_Directory>
/home/itssahil/PROJECTS/Mol_Feturizer/New_Systems/rnas/1eht

>  <Rbt.Executable>
rbdock ($Id: //depot/dev/client3/rdock/2013.1/src/exe/rbdock.cxx#4 $)

>  <Rbt.Library>
libRbt.so (2013.1, Build901 2013/11/27)

>  <Rbt.Parameter_File>
/export/apps/rDock/src/rDock_2013.1_src/data/scripts/dock_solv.prm

>  <Rbt.Receptor>
prm/pocket_docking_5.prm

>  <SCORE>
-36.0185

>  <SCORE.INTER>
-36.0185

>  <SCORE.INTER.CONST>
1

>  <SCORE.INTER.POLAR>
-1.87592

>  <SCORE.INTER.ROT>
0

>  <SCORE.INTER.SOLV>
10.0658

>  <SCORE.INTER.VDW>
-24.7145

>  <SCORE.INTER.norm>
-2.77065

>  <SCORE.INTRA>
0

>  <SCORE.INTRA.DIHEDRAL>
0

>  <SCORE.INTRA.DIHEDRAL.0>
0

>  <SCORE.INTRA.POLAR>
0

>  <SCORE.INTRA.POLAR.0>
0

>  <SCORE.INTRA.REPUL>
0

>  <SCORE.INTRA.REPUL.0>
0

>  <SCORE.INTRA.SOLV>
0

>  <SCORE.INTRA.SOLV.lig_0>
-12.9768

>  <SCORE.INTRA.VDW>
0

>  <SCORE.INTRA.VDW.0>
0

>  <SCORE.INTRA.norm>
0

>  <SCORE.RESTR>
0

>  <SCORE.RESTR.CAVITY>
0

>  <SCORE.RESTR.norm>
0

>  <SCORE.SYSTEM>
0

>  <SCORE.SYSTEM.CONST>
0

>  <SCORE.SYSTEM.DIHEDRAL>
0

>  <SCORE.SYSTEM.SOLV>
0

>  <SCORE.SYSTEM.norm>
0

>  <SCORE.heavy>
13

>  <SCORE.norm>
-2.77065

>  <RMSD>
3.392

$$$$
1eht cryst
 OpenBabel11021811383D
libRbt.so/2013.1/901 2013/11/27
 13 14  0  0  0  0  0  0  0  0999 V2000
   -6.4372   -3.3042   12.8977 C   0  0  0  0  0  0  0  0  0  0  0  0
   -6.0168   -4.5805   12.5344 N   0  0  0  0  0  0  0  0  0  0  0  0
   -6.1606   -5.5931   13.4474 C   0  0  0  0  0  0  0  0  0  0  0  0
   -6.6528   -5.2862   14.5350 O   0  0  0  0  0  0  0  0  0  0  0  0
   -5.7921   -6.8967   13.2303 N   0  0  0  0  0  0  0  0  0  0  0  0
   -5.9488   -7.9038   14.1684 C   0  0  0  0  0  0  0  0  0  0  0  0
   -5.2536   -7.1005   11.9941 C   0  0  0  0  0  0  0  0  0  0  0  0
   -5.1140   -6.0848   11.0933 C   0  0  0  0  0  0  0  0  0  0  0  0
   -5.4863   -4.7435   11.2959 C   0  0  0  0  0  0  0  0  0  0  0  0
   -5.3828   -3.7949   10.5196 O   0  0  0  0  0  0  0  0  0  0  0  0
   -4.5398   -6.6573    9.9664 N   0  0  0  0  0  0  0  0  0  0  0  0
   -4.3719   -7.9686   10.2597 C   0  0  0  0  0  0  0  0  0  0  0  0
   -4.7806   -8.2919   11.4554 N   0  0  0  0  0  0  0  0  0  0  0  0
  1  2  1  0  0  0  0
  2  9  1  0  0  0  0
  2  3  1  0  0  0  0
  3  5  1  0  0  0  0
  3  4  2  0  0  0  0
  5  6  1  0  0  0  0
  5  7  1  0  0  0  0
  7  8  2  0  0  0  0
  7 13  1  0  0  0  0
  8  9  1  0  0  0  0
  8 11  1  0  0  0  0
  9 10  2  0  0  0  0
 11 12  1  0  0  0  0
 12 13  2  0  0  0  0
M  END
>  <CHROM.1>
-5.55268424,-5.97485287,12.13317042,-2.77681005,-1.14488404,2.64358482

>  <Name>
1eht cryst

>  <RI>
0

>  <Rbt.Current_Directory>
/home/itssahil/PROJECTS/Mol_Feturizer/New_Systems/rnas/1eht

>  <Rbt.Executable>
rbdock ($Id: //depot/dev/client3/rdock/2013.1/src/exe/rbdock.cxx#4 $)

>  <Rbt.Library>
libRbt.so (2013.1, Build901 2013/11/27)

>  <Rbt.Parameter_File>
/export/apps/rDock/src/rDock_2013.1_src/data/scripts/dock_solv.prm

>  <Rbt.Receptor>
prm/pocket_docking_6.prm

>  <SCORE>
-36.0493

>  <SCORE.INTER>
-36.0493

>  <SCORE.INTER.CONST>
1

>  <SCORE.INTER.POLAR>
-1.87998

>  <SCORE.INTER.ROT>
0

>  <SCORE.INTER.SOLV>
10.0651

>  <SCORE.INTER.VDW>
-24.7213

>  <SCORE.INTER.norm>
-2.77302

>  <SCORE.INTRA>
0

>  <SCORE.INTRA.DIHEDRAL>
0

>  <SCORE.INTRA.DIHEDRAL.0>
0

>  <SCORE.INTRA.POLAR>
0

>  <SCORE.INTRA.POLAR.0>
0

>  <SCORE.INTRA.REPUL>
0

>  <SCORE.INTRA.REPUL.0>
0

>  <SCORE.INTRA.SOLV>
0

>  <SCORE.INTRA.SOLV.lig_0>
-12.9768

>  <SCORE.INTRA.VDW>
0

>  <SCORE.INTRA.VDW.0>
0

>  <SCORE.INTRA.norm>
0

>  <SCORE.RESTR>
0

>  <SCORE.RESTR.CAVITY>
0

>  <SCORE.RESTR.norm>
0

>  <SCORE.SYSTEM>
0

>  <SCORE.SYSTEM.CONST>
0

>  <SCORE.SYSTEM.DIHEDRAL>
0

>  <SCORE.SYSTEM.SOLV>
0

>  <SCORE.SYSTEM.norm>
0

>  <SCORE.heavy>
13

>  <SCORE.norm>
-2.77302

>  <RMSD>
3.392

$$$$
1eht cryst
 OpenBabel11021811383D
libRbt.so/2013.1/901 2013/11/27
 13 14  0  0  0  0  0  0  0  0999 V2000
   -6.4502   -3.3114   12.8952 C   0  0  0  0  0  0  0  0  0  0  0  0
   -6.0226   -4.5858   12.5338 N   0  0  0  0  0  0  0  0  0  0  0  0
   -6.1606   -5.5979   13.4482 C   0  0  0  0  0  0  0  0  0  0  0  0
   -6.6544   -5.2923   14.5354 O   0  0  0  0  0  0  0  0  0  0  0  0
   -5.7848   -6.8997   13.2329 N   0  0  0  0  0  0  0  0  0  0  0  0
   -5.9357   -7.9063   14.1725 C   0  0  0  0  0  0  0  0  0  0  0  0
   -5.2452   -7.1023   11.9970 C   0  0  0  0  0  0  0  0  0  0  0  0
   -5.1114   -6.0871   11.0947 C   0  0  0  0  0  0  0  0  0  0  0  0
   -5.4913   -4.7476   11.2955 C   0  0  0  0  0  0  0  0  0  0  0  0
   -5.3932   -3.7996   10.5177 O   0  0  0  0  0  0  0  0  0  0  0  0
   -4.5341   -6.6579    9.9686 N   0  0  0  0  0  0  0  0  0  0  0  0
   -4.3588   -7.9678   10.2638 C   0  0  0  0  0  0  0  0  0  0  0  0
   -4.7656   -8.2917   11.4599 N   0  0  0  0  0  0  0  0  0  0  0  0
  1  2  1  0  0  0  0
  2  9  1  0  0  0  0
  2  3  1  0  0  0  0
  3  5  1  0  0  0  0
  3  4  2  0  0  0  0
  5  6  1  0  0  0  0
  5  7  1  0  0  0  0
  7  8  2  0  0  0  0
  7 13  1  0  0  0  0
  8  9  1  0  0  0  0
  8 11  1  0  0  0  0
  9 10  2  0  0  0  0
 11 12  1  0  0  0  0
 12 13  2  0  0  0  0
M  END
>  <CHROM.1>
-5.55066318,-5.97810679,12.13448974,-2.78885406,-1.14224302,2.63118947

>  <Name>
1eht cryst

>  <RI>
0

>  <Rbt.Current_Directory>
/home/itssahil/PROJECTS/Mol_Feturizer/New_Systems/rnas/1eht

>  <Rbt.Executable>
rbdock ($Id: //depot/dev/client3/rdock/2013.1/src/exe/rbdock.cxx#4 $)

>  <Rbt.Library>
libRbt.so (2013.1, Build901 2013/11/27)

>  <Rbt.Parameter_File>
/export/apps/rDock/src/rDock_2013.1_src/data/scripts/dock_solv.prm

>  <Rbt.Receptor>
prm/pocket_docking_6.prm

>  <SCORE>
-36.0519

>  <SCORE.INTER>
-36.0519

>  <SCORE.INTER.CONST>
1

>  <SCORE.INTER.POLAR>
-1.88128

>  <SCORE.INTER.ROT>
0

>  <SCORE.INTER.SOLV>
10.0598

>  <SCORE.INTER.VDW>
-24.7169

>  <SCORE.INTER.norm>
-2.77322

>  <SCORE.INTRA>
0

>  <SCORE.INTRA.DIHEDRAL>
0

>  <SCORE.INTRA.DIHEDRAL.0>
0

>  <SCORE.INTRA.POLAR>
0

>  <SCORE.INTRA.POLAR.0>
0

>  <SCORE.INTRA.REPUL>
0

>  <SCORE.INTRA.REPUL.0>
0

>  <SCORE.INTRA.SOLV>
0

>  <SCORE.INTRA.SOLV.lig_0>
-12.9768

>  <SCORE.INTRA.VDW>
0

>  <SCORE.INTRA.VDW.0>
0

>  <SCORE.INTRA.norm>
0

>  <SCORE.RESTR>
0

>  <SCORE.RESTR.CAVITY>
0

>  <SCORE.RESTR.norm>
0

>  <SCORE.SYSTEM>
0

>  <SCORE.SYSTEM.CONST>
0

>  <SCORE.SYSTEM.DIHEDRAL>
0

>  <SCORE.SYSTEM.SOLV>
0

>  <SCORE.SYSTEM.norm>
0

>  <SCORE.heavy>
13

>  <SCORE.norm>
-2.77322

>  <RMSD>
3.392

$$$$
1eht cryst
 OpenBabel11021811383D
libRbt.so/2013.1/901 2013/11/27
 13 14  0  0  0  0  0  0  0  0999 V2000
   -6.4235   -3.3683   13.0184 C   0  0  0  0  0  0  0  0  0  0  0  0
   -6.0072   -4.6344   12.6170 N   0  0  0  0  0  0  0  0  0  0  0  0
   -6.1563   -5.6739   13.4985 C   0  0  0  0  0  0  0  0  0  0  0  0
   -6.6492   -5.3985   14.5941 O   0  0  0  0  0  0  0  0  0  0  0  0
   -5.7922   -6.9716   13.2422 N   0  0  0  0  0  0  0  0  0  0  0  0
   -5.9542   -8.0062   14.1490 C   0  0  0  0  0  0  0  0  0  0  0  0
   -5.2524   -7.1396   12.0013 C   0  0  0  0  0  0  0  0  0  0  0  0
   -5.1075   -6.0974   11.1321 C   0  0  0  0  0  0  0  0  0  0  0  0
   -5.4752   -4.7616   11.3750 C   0  0  0  0  0  0  0  0  0  0  0  0
   -5.3669   -3.7902   10.6281 O   0  0  0  0  0  0  0  0  0  0  0  0
   -4.5335   -6.6374    9.9892 N   0  0  0  0  0  0  0  0  0  0  0  0
   -4.3709   -7.9577   10.2426 C   0  0  0  0  0  0  0  0  0  0  0  0
   -4.7829   -8.3158   11.4272 N   0  0  0  0  0  0  0  0  0  0  0  0
  1  2  1  0  0  0  0
  2  9  1  0  0  0  0
  2  3  1  0  0  0  0
  3  5  1  0  0  0  0
  3  4  2  0  0  0  0
  5  6  1  0  0  0  0
  5  7  1  0  0  0  0
  7  8  2  0  0  0  0
  7 13  1  0  0  0  0
  8  9  1  0  0  0  0
  8 11  1  0  0  0  0
  9 10  2  0  0  0  0
 11 12  1  0  0  0  0
 12 13  2  0  0  0  0
M  END
>  <CHROM.1>
-5.54754783,-6.01762755,12.17416343,-2.76704112,-1.14514959,2.68299001

>  <Name>
1eht cryst

>  <RI>
0

>  <Rbt.Current_Directory>
/home/itssahil/PROJECTS/Mol_Feturizer/New_Systems/rnas/1eht

>  <Rbt.Executable>
rbdock ($Id: //depot/dev/client3/rdock/2013.1/src/exe/rbdock.cxx#4 $)

>  <Rbt.Library>
libRbt.so (2013.1, Build901 2013/11/27)

>  <Rbt.Parameter_File>
/export/apps/rDock/src/rDock_2013.1_src/data/scripts/dock_solv.prm

>  <Rbt.Receptor>
prm/pocket_docking_6.prm

>  <SCORE>
-35.9031

>  <SCORE.INTER>
-35.9031

>  <SCORE.INTER.CONST>
1

>  <SCORE.INTER.POLAR>
-1.86677

>  <SCORE.INTER.ROT>
0

>  <SCORE.INTER.SOLV>
9.97587

>  <SCORE.INTER.VDW>
-24.6381

>  <SCORE.INTER.norm>
-2.76178

>  <SCORE.INTRA>
0

>  <SCORE.INTRA.DIHEDRAL>
0

>  <SCORE.INTRA.DIHEDRAL.0>
0

>  <SCORE.INTRA.POLAR>
0

>  <SCORE.INTRA.POLAR.0>
0

>  <SCORE.INTRA.REPUL>
0

>  <SCORE.INTRA.REPUL.0>
0

>  <SCORE.INTRA.SOLV>
0

>  <SCORE.INTRA.SOLV.lig_0>
-12.9768

>  <SCORE.INTRA.VDW>
0

>  <SCORE.INTRA.VDW.0>
0

>  <SCORE.INTRA.norm>
0

>  <SCORE.RESTR>
0

>  <SCORE.RESTR.CAVITY>
0

>  <SCORE.RESTR.norm>
0

>  <SCORE.SYSTEM>
0

>  <SCORE.SYSTEM.CONST>
0

>  <SCORE.SYSTEM.DIHEDRAL>
0

>  <SCORE.SYSTEM.SOLV>
0

>  <SCORE.SYSTEM.norm>
0

>  <SCORE.heavy>
13

>  <SCORE.norm>
-2.76178

>  <RMSD>
3.392

$$$$
1eht cryst
 OpenBabel11021811383D
libRbt.so/2013.1/901 2013/11/27
 13 14  0  0  0  0  0  0  0  0999 V2000
   -6.4431   -3.3128   12.8988 C   0  0  0  0  0  0  0  0  0  0  0  0
   -6.0176   -4.5876   12.5362 N   0  0  0  0  0  0  0  0  0  0  0  0
   -6.1585   -5.6006   13.4492 C   0  0  0  0  0  0  0  0  0  0  0  0
   -6.6527   -5.2953   14.5363 O   0  0  0  0  0  0  0  0  0  0  0  0
   -5.7849   -6.9028   13.2326 N   0  0  0  0  0  0  0  0  0  0  0  0
   -5.9386   -7.9103   14.1708 C   0  0  0  0  0  0  0  0  0  0  0  0
   -5.2445   -7.1049   11.9970 C   0  0  0  0  0  0  0  0  0  0  0  0
   -5.1079   -6.0888   11.0961 C   0  0  0  0  0  0  0  0  0  0  0  0
   -5.4854   -4.7489   11.2982 C   0  0  0  0  0  0  0  0  0  0  0  0
   -5.3847   -3.8001   10.5217 O   0  0  0  0  0  0  0  0  0  0  0  0
   -4.5306   -6.6594    9.9698 N   0  0  0  0  0  0  0  0  0  0  0  0
   -4.3580   -7.9700   10.2636 C   0  0  0  0  0  0  0  0  0  0  0  0
   -4.7666   -8.2946   11.4589 N   0  0  0  0  0  0  0  0  0  0  0  0
  1  2  1  0  0  0  0
  2  9  1  0  0  0  0
  2  3  1  0  0  0  0
  3  5  1  0  0  0  0
  3  4  2  0  0  0  0
  5  6  1  0  0  0  0
  5  7  1  0  0  0  0
  7  8  2  0  0  0  0
  7 13  1  0  0  0  0
  8  9  1  0  0  0  0
  8 11  1  0  0  0  0
  9 10  2  0  0  0  0
 11 12  1  0  0  0  0
 12 13  2  0  0  0  0
M  END
>  <CHROM.1>
-5.54791939,-5.98030174,12.13559644,-2.78366265,-1.14231504,2.63716258

>  <Name>
1eht cryst

>  <RI>
224

>  <Rbt.Current_Directory>
/home/itssahil/PROJECTS/Mol_Feturizer/New_Systems/rnas/1eht

>  <Rbt.Executable>
rbdock ($Id: //depot/dev/client3/rdock/2013.1/src/exe/rbdock.cxx#4 $)

>  <Rbt.Library>
libRbt.so (2013.1, Build901 2013/11/27)

>  <Rbt.Parameter_File>
/export/apps/rDock/src/rDock_2013.1_src/data/scripts/dock_solv.prm

>  <Rbt.Receptor>
prm/pocket_docking_7.prm

>  <SCORE>
-36.0649

>  <SCORE.INTER>
-36.0649

>  <SCORE.INTER.CONST>
1

>  <SCORE.INTER.POLAR>
-1.88378

>  <SCORE.INTER.ROT>
0

>  <SCORE.INTER.SOLV>
10.054

>  <SCORE.INTER.VDW>
-24.7154

>  <SCORE.INTER.norm>
-2.77423

>  <SCORE.INTRA>
0

>  <SCORE.INTRA.DIHEDRAL>
0

>  <SCORE.INTRA.DIHEDRAL.0>
0

>  <SCORE.INTRA.POLAR>
0

>  <SCORE.INTRA.POLAR.0>
0

>  <SCORE.INTRA.REPUL>
0

>  <SCORE.INTRA.REPUL.0>
0

>  <SCORE.INTRA.SOLV>
0

>  <SCORE.INTRA.SOLV.lig_0>
-12.9768

>  <SCORE.INTRA.VDW>
0

>  <SCORE.INTRA.VDW.0>
0

>  <SCORE.INTRA.norm>
0

>  <SCORE.RESTR>
0

>  <SCORE.RESTR.CAVITY>
0

>  <SCORE.RESTR.norm>
0

>  <SCORE.SYSTEM>
0

>  <SCORE.SYSTEM.CONST>
0

>  <SCORE.SYSTEM.DIHEDRAL>
0

>  <SCORE.SYSTEM.SOLV>
0

>  <SCORE.SYSTEM.norm>
0

>  <SCORE.heavy>
13

>  <SCORE.norm>
-2.77423

>  <RMSD>
3.392

$$$$
1eht cryst
 OpenBabel11021811383D
libRbt.so/2013.1/901 2013/11/27
 13 14  0  0  0  0  0  0  0  0999 V2000
   -6.4461   -3.3113   12.9007 C   0  0  0  0  0  0  0  0  0  0  0  0
   -6.0210   -4.5859   12.5370 N   0  0  0  0  0  0  0  0  0  0  0  0
   -6.1601   -5.5992   13.4500 C   0  0  0  0  0  0  0  0  0  0  0  0
   -6.6525   -5.2943   14.5381 O   0  0  0  0  0  0  0  0  0  0  0  0
   -5.7866   -6.9013   13.2325 N   0  0  0  0  0  0  0  0  0  0  0  0
   -5.9385   -7.9091   14.1707 C   0  0  0  0  0  0  0  0  0  0  0  0
   -5.2484   -7.1029   11.9959 C   0  0  0  0  0  0  0  0  0  0  0  0
   -5.1135   -6.0866   11.0950 C   0  0  0  0  0  0  0  0  0  0  0  0
   -5.4910   -4.7468   11.2981 C   0  0  0  0  0  0  0  0  0  0  0  0
   -5.3919   -3.7977   10.5217 O   0  0  0  0  0  0  0  0  0  0  0  0
   -4.5381   -6.6567    9.9675 N   0  0  0  0  0  0  0  0  0  0  0  0
   -4.3648   -7.9673   10.2606 C   0  0  0  0  0  0  0  0  0  0  0  0
   -4.7712   -8.2923   11.4566 N   0  0  0  0  0  0  0  0  0  0  0  0
  1  2  1  0  0  0  0
  2  9  1  0  0  0  0
  2  3  1  0  0  0  0
  3  5  1  0  0  0  0
  3  4  2  0  0  0  0
  5  6  1  0  0  0  0
  5  7  1  0  0  0  0
  7  8  2  0  0  0  0
  7 13  1  0  0  0  0
  8  9  1  0  0  0  0
  8 11  1  0  0  0  0
  9 10  2  0  0  0  0
 11 12  1  0  0  0  0
 12 13  2  0  0  0  0
M  END
>  <CHROM.1>
-5.55178119,-5.97842856,12.13525306,-2.78617009,-1.14376696,2.63514246

>  <Name>
1eht cryst

>  <RI>
0

>  <Rbt.Current_Directory>
/home/itssahil/PROJECTS/Mol_Feturizer/New_Systems/rnas/1eht

>  <Rbt.Executable>
rbdock ($Id: //depot/dev/client3/rdock/2013.1/src/exe/rbdock.cxx#4 $)

>  <Rbt.Library>
libRbt.so (2013.1, Build901 2013/11/27)

>  <Rbt.Parameter_File>
/export/apps/rDock/src/rDock_2013.1_src/data/scripts/dock_solv.prm

>  <Rbt.Receptor>
prm/pocket_docking_8.prm

>  <SCORE>
-36.062

>  <SCORE.INTER>
-36.062

>  <SCORE.INTER.CONST>
1

>  <SCORE.INTER.POLAR>
-1.87902

>  <SCORE.INTER.ROT>
0

>  <SCORE.INTER.SOLV>
10.0579

>  <SCORE.INTER.VDW>
-24.7306

>  <SCORE.INTER.norm>
-2.774

>  <SCORE.INTRA>
0

>  <SCORE.INTRA.DIHEDRAL>
0

>  <SCORE.INTRA.DIHEDRAL.0>
0

>  <SCORE.INTRA.POLAR>
0

>  <SCORE.INTRA.POLAR.0>
0

>  <SCORE.INTRA.REPUL>
0

>  <SCORE.INTRA.REPUL.0>
0

>  <SCORE.INTRA.SOLV>
0

>  <SCORE.INTRA.SOLV.lig_0>
-12.9768

>  <SCORE.INTRA.VDW>
0

>  <SCORE.INTRA.VDW.0>
0

>  <SCORE.INTRA.norm>
0

>  <SCORE.RESTR>
0

>  <SCORE.RESTR.CAVITY>
0

>  <SCORE.RESTR.norm>
0

>  <SCORE.SYSTEM>
0

>  <SCORE.SYSTEM.CONST>
0

>  <SCORE.SYSTEM.DIHEDRAL>
0

>  <SCORE.SYSTEM.SOLV>
0

>  <SCORE.SYSTEM.norm>
0

>  <SCORE.heavy>
13

>  <SCORE.norm>
-2.774

>  <RMSD>
3.392

$$$$
1eht cryst
 OpenBabel11021811383D
libRbt.so/2013.1/901 2013/11/27
 13 14  0  0  0  0  0  0  0  0999 V2000
   -6.4308   -3.2929   12.8974 C   0  0  0  0  0  0  0  0  0  0  0  0
   -6.0124   -4.5703   12.5358 N   0  0  0  0  0  0  0  0  0  0  0  0
   -6.1588   -5.5817   13.4498 C   0  0  0  0  0  0  0  0  0  0  0  0
   -6.6513   -5.2728   14.5366 O   0  0  0  0  0  0  0  0  0  0  0  0
   -5.7925   -6.8862   13.2343 N   0  0  0  0  0  0  0  0  0  0  0  0
   -5.9517   -7.8920   14.1734 C   0  0  0  0  0  0  0  0  0  0  0  0
   -5.2534   -7.0923   11.9988 C   0  0  0  0  0  0  0  0  0  0  0  0
   -5.1112   -6.0778   11.0970 C   0  0  0  0  0  0  0  0  0  0  0  0
   -5.4812   -4.7356   11.2979 C   0  0  0  0  0  0  0  0  0  0  0  0
   -5.3754   -3.7881   10.5206 O   0  0  0  0  0  0  0  0  0  0  0  0
   -4.5373   -6.6526    9.9711 N   0  0  0  0  0  0  0  0  0  0  0  0
   -4.3720   -7.9638   10.2660 C   0  0  0  0  0  0  0  0  0  0  0  0
   -4.7822   -8.2851   11.4617 N   0  0  0  0  0  0  0  0  0  0  0  0
  1  2  1  0  0  0  0
  2  9  1  0  0  0  0
  2  3  1  0  0  0  0
  3  5  1  0  0  0  0
  3  4  2  0  0  0  0
  5  6  1  0  0  0  0
  5  7  1  0  0  0  0
  7  8  2  0  0  0  0
  7 13  1  0  0  0  0
  8  9  1  0  0  0  0
  8 11  1  0  0  0  0
  9 10  2  0  0  0  0
 11 12  1  0  0  0  0
 12 13  2  0  0  0  0
M  END
>  <CHROM.1>
-5.55055379,-5.96596200,12.13641711,-2.77202009,-1.14508691,2.64688482

>  <Name>
1eht cryst

>  <RI>
0

>  <Rbt.Current_Directory>
/home/itssahil/PROJECTS/Mol_Feturizer/New_Systems/rnas/1eht

>  <Rbt.Executable>
rbdock ($Id: //depot/dev/client3/rdock/2013.1/src/exe/rbdock.cxx#4 $)

>  <Rbt.Library>
libRbt.so (2013.1, Build901 2013/11/27)

>  <Rbt.Parameter_File>
/export/apps/rDock/src/rDock_2013.1_src/data/scripts/dock_solv.prm

>  <Rbt.Receptor>
prm/blind_docking_20.prm

>  <SCORE>
-36.0319

>  <SCORE.INTER>
-36.0319

>  <SCORE.INTER.CONST>
1

>  <SCORE.INTER.POLAR>
-1.88029

>  <SCORE.INTER.ROT>
0

>  <SCORE.INTER.SOLV>
10.0837

>  <SCORE.INTER.VDW>
-24.7149

>  <SCORE.INTER.norm>
-2.77169

>  <SCORE.INTRA>
0

>  <SCORE.INTRA.DIHEDRAL>
0

>  <SCORE.INTRA.DIHEDRAL.0>
0

>  <SCORE.INTRA.POLAR>
0

>  <SCORE.INTRA.POLAR.0>
0

>  <SCORE.INTRA.REPUL>
0

>  <SCORE.INTRA.REPUL.0>
0

>  <SCORE.INTRA.SOLV>
0

>  <SCORE.INTRA.SOLV.lig_0>
-12.9768

>  <SCORE.INTRA.VDW>
0

>  <SCORE.INTRA.VDW.0>
0

>  <SCORE.INTRA.norm>
0

>  <SCORE.RESTR>
0

>  <SCORE.RESTR.CAVITY>
0

>  <SCORE.RESTR.norm>
0

>  <SCORE.SYSTEM>
0

>  <SCORE.SYSTEM.CONST>
0

>  <SCORE.SYSTEM.DIHEDRAL>
0

>  <SCORE.SYSTEM.SOLV>
0

>  <SCORE.SYSTEM.norm>
0

>  <SCORE.heavy>
13

>  <SCORE.norm>
-2.77169

>  <RMSD>
3.393

$$$$
1eht cryst
 OpenBabel11021811383D
libRbt.so/2013.1/901 2013/11/27
 13 14  0  0  0  0  0  0  0  0999 V2000
   -6.4312   -3.3065   12.8986 C   0  0  0  0  0  0  0  0  0  0  0  0
   -6.0105   -4.5824   12.5347 N   0  0  0  0  0  0  0  0  0  0  0  0
   -6.1479   -5.5943   13.4495 C   0  0  0  0  0  0  0  0  0  0  0  0
   -6.6350   -5.2871   14.5392 O   0  0  0  0  0  0  0  0  0  0  0  0
   -5.7782   -6.8975   13.2319 N   0  0  0  0  0  0  0  0  0  0  0  0
   -5.9284   -7.9038   14.1720 C   0  0  0  0  0  0  0  0  0  0  0  0
   -5.2457   -7.1018   11.9933 C   0  0  0  0  0  0  0  0  0  0  0  0
   -5.1124   -6.0868   11.0906 C   0  0  0  0  0  0  0  0  0  0  0  0
   -5.4860   -4.7460   11.2937 C   0  0  0  0  0  0  0  0  0  0  0  0
   -5.3881   -3.7981   10.5157 O   0  0  0  0  0  0  0  0  0  0  0  0
   -4.5430   -6.6596    9.9614 N   0  0  0  0  0  0  0  0  0  0  0  0
   -4.3713   -7.9702   10.2554 C   0  0  0  0  0  0  0  0  0  0  0  0
   -4.7734   -8.2929   11.4534 N   0  0  0  0  0  0  0  0  0  0  0  0
  1  2  1  0  0  0  0
  2  9  1  0  0  0  0
  2  3  1  0  0  0  0
  3  5  1  0  0  0  0
  3  4  2  0  0  0  0
  5  6  1  0  0  0  0
  5  7  1  0  0  0  0
  7  8  2  0  0  0  0
  7 13  1  0  0  0  0
  8  9  1  0  0  0  0
  8 11  1  0  0  0  0
  9 10  2  0  0  0  0
 11 12  1  0  0  0  0
 12 13  2  0  0  0  0
M  END
>  <CHROM.1>
-5.54597772,-5.97647101,12.13260412,-2.78645216,-1.14851911,2.63368540

>  <Name>
1eht cryst

>  <RI>
0

>  <Rbt.Current_Directory>
/home/itssahil/PROJECTS/Mol_Feturizer/New_Systems/rnas/1eht

>  <Rbt.Executable>
rbdock ($Id: //depot/dev/client3/rdock/2013.1/src/exe/rbdock.cxx#4 $)

>  <Rbt.Library>
libRbt.so (2013.1, Build901 2013/11/27)

>  <Rbt.Parameter_File>
/export/apps/rDock/src/rDock_2013.1_src/data/scripts/dock_solv.prm

>  <Rbt.Receptor>
prm/blind_docking_20.prm

>  <SCORE>
-36.0157

>  <SCORE.INTER>
-36.0157

>  <SCORE.INTER.CONST>
1

>  <SCORE.INTER.POLAR>
-1.87776

>  <SCORE.INTER.ROT>
0

>  <SCORE.INTER.SOLV>
10.0692

>  <SCORE.INTER.VDW>
-24.7077

>  <SCORE.INTER.norm>
-2.77044

>  <SCORE.INTRA>
0

>  <SCORE.INTRA.DIHEDRAL>
0

>  <SCORE.INTRA.DIHEDRAL.0>
0

>  <SCORE.INTRA.POLAR>
0

>  <SCORE.INTRA.POLAR.0>
0

>  <SCORE.INTRA.REPUL>
0

>  <SCORE.INTRA.REPUL.0>
0

>  <SCORE.INTRA.SOLV>
0

>  <SCORE.INTRA.SOLV.lig_0>
-12.9768

>  <SCORE.INTRA.VDW>
0

>  <SCORE.INTRA.VDW.0>
0

>  <SCORE.INTRA.norm>
0

>  <SCORE.RESTR>
0

>  <SCORE.RESTR.CAVITY>
0

>  <SCORE.RESTR.norm>
0

>  <SCORE.SYSTEM>
0

>  <SCORE.SYSTEM.CONST>
0

>  <SCORE.SYSTEM.DIHEDRAL>
0

>  <SCORE.SYSTEM.SOLV>
0

>  <SCORE.SYSTEM.norm>
0

>  <SCORE.heavy>
13

>  <SCORE.norm>
-2.77044

>  <RMSD>
3.393

$$$$
1eht cryst
 OpenBabel11021811383D
libRbt.so/2013.1/901 2013/11/27
 13 14  0  0  0  0  0  0  0  0999 V2000
   -6.4362   -3.3006   12.8985 C   0  0  0  0  0  0  0  0  0  0  0  0
   -6.0159   -4.5766   12.5344 N   0  0  0  0  0  0  0  0  0  0  0  0
   -6.1513   -5.5880   13.4501 C   0  0  0  0  0  0  0  0  0  0  0  0
   -6.6363   -5.2802   14.5406 O   0  0  0  0  0  0  0  0  0  0  0  0
   -5.7818   -6.8913   13.2325 N   0  0  0  0  0  0  0  0  0  0  0  0
   -5.9299   -7.8971   14.1734 C   0  0  0  0  0  0  0  0  0  0  0  0
   -5.2517   -7.0961   11.9929 C   0  0  0  0  0  0  0  0  0  0  0  0
   -5.1204   -6.0816   11.0894 C   0  0  0  0  0  0  0  0  0  0  0  0
   -5.4939   -4.7407   11.2925 C   0  0  0  0  0  0  0  0  0  0  0  0
   -5.3977   -3.7932   10.5138 O   0  0  0  0  0  0  0  0  0  0  0  0
   -4.5532   -6.6549    9.9594 N   0  0  0  0  0  0  0  0  0  0  0  0
   -4.3807   -7.9654   10.2537 C   0  0  0  0  0  0  0  0  0  0  0  0
   -4.7803   -8.2875   11.4527 N   0  0  0  0  0  0  0  0  0  0  0  0
  1  2  1  0  0  0  0
  2  9  1  0  0  0  0
  2  3  1  0  0  0  0
  3  5  1  0  0  0  0
  3  4  2  0  0  0  0
  5  6  1  0  0  0  0
  5  7  1  0  0  0  0
  7  8  2  0  0  0  0
  7 13  1  0  0  0  0
  8  9  1  0  0  0  0
  8 11  1  0  0  0  0
  9 10  2  0  0  0  0
 11 12  1  0  0  0  0
 12 13  2  0  0  0  0
M  END
>  <CHROM.1>
-5.55196832,-5.97078314,12.13219658,-2.78923244,-1.15018138,2.63059923

>  <Name>
1eht cryst

>  <RI>
0

>  <Rbt.Current_Directory>
/home/itssahil/PROJECTS/Mol_Feturizer/New_Systems/rnas/1eht

>  <Rbt.Executable>
rbdock ($Id: //depot/dev/client3/rdock/2013.1/src/exe/rbdock.cxx#4 $)

>  <Rbt.Library>
libRbt.so (2013.1, Build901 2013/11/27)

>  <Rbt.Parameter_File>
/export/apps/rDock/src/rDock_2013.1_src/data/scripts/dock_solv.prm

>  <Rbt.Receptor>
prm/blind_docking_20.prm

>  <SCORE>
-36.0357

>  <SCORE.INTER>
-36.0357

>  <SCORE.INTER.CONST>
1

>  <SCORE.INTER.POLAR>
-1.87127

>  <SCORE.INTER.ROT>
0

>  <SCORE.INTER.SOLV>
10.0806

>  <SCORE.INTER.VDW>
-24.7465

>  <SCORE.INTER.norm>
-2.77198

>  <SCORE.INTRA>
0

>  <SCORE.INTRA.DIHEDRAL>
0

>  <SCORE.INTRA.DIHEDRAL.0>
0

>  <SCORE.INTRA.POLAR>
0

>  <SCORE.INTRA.POLAR.0>
0

>  <SCORE.INTRA.REPUL>
0

>  <SCORE.INTRA.REPUL.0>
0

>  <SCORE.INTRA.SOLV>
0

>  <SCORE.INTRA.SOLV.lig_0>
-12.9768

>  <SCORE.INTRA.VDW>
0

>  <SCORE.INTRA.VDW.0>
0

>  <SCORE.INTRA.norm>
0

>  <SCORE.RESTR>
0

>  <SCORE.RESTR.CAVITY>
0

>  <SCORE.RESTR.norm>
0

>  <SCORE.SYSTEM>
0

>  <SCORE.SYSTEM.CONST>
0

>  <SCORE.SYSTEM.DIHEDRAL>
0

>  <SCORE.SYSTEM.SOLV>
0

>  <SCORE.SYSTEM.norm>
0

>  <SCORE.heavy>
13

>  <SCORE.norm>
-2.77198

>  <RMSD>
3.393

$$$$
1eht cryst
 OpenBabel11021811383D
libRbt.so/2013.1/901 2013/11/27
 13 14  0  0  0  0  0  0  0  0999 V2000
   -6.4265   -3.3105   12.9171 C   0  0  0  0  0  0  0  0  0  0  0  0
   -6.0104   -4.5864   12.5477 N   0  0  0  0  0  0  0  0  0  0  0  0
   -6.1593   -5.6033   13.4552 C   0  0  0  0  0  0  0  0  0  0  0  0
   -6.6518   -5.3003   14.5436 O   0  0  0  0  0  0  0  0  0  0  0  0
   -5.7953   -6.9071   13.2317 N   0  0  0  0  0  0  0  0  0  0  0  0
   -5.9571   -7.9185   14.1643 C   0  0  0  0  0  0  0  0  0  0  0  0
   -5.2558   -7.1064   11.9952 C   0  0  0  0  0  0  0  0  0  0  0  0
   -5.1111   -6.0865   11.0999 C   0  0  0  0  0  0  0  0  0  0  0  0
   -5.4787   -4.7449   11.3091 C   0  0  0  0  0  0  0  0  0  0  0  0
   -5.3705   -3.7927   10.5379 O   0  0  0  0  0  0  0  0  0  0  0  0
   -4.5375   -6.6552    9.9708 N   0  0  0  0  0  0  0  0  0  0  0  0
   -4.3749   -7.9686   10.2575 C   0  0  0  0  0  0  0  0  0  0  0  0
   -4.7865   -8.2967   11.4508 N   0  0  0  0  0  0  0  0  0  0  0  0
  1  2  1  0  0  0  0
  2  9  1  0  0  0  0
  2  3  1  0  0  0  0
  3  5  1  0  0  0  0
  3  4  2  0  0  0  0
  5  6  1  0  0  0  0
  5  7  1  0  0  0  0
  7  8  2  0  0  0  0
  7 13  1  0  0  0  0
  8  9  1  0  0  0  0
  8 11  1  0  0  0  0
  9 10  2  0  0  0  0
 11 12  1  0  0  0  0
 12 13  2  0  0  0  0
M  END
>  <CHROM.1>
-5.55088401,-5.98041015,12.13978081,-2.76722032,-1.14541858,2.65759493

>  <Name>
1eht cryst

>  <RI>
0

>  <Rbt.Current_Directory>
/home/itssahil/PROJECTS/Mol_Feturizer/New_Systems/rnas/1eht

>  <Rbt.Executable>
rbdock ($Id: //depot/dev/client3/rdock/2013.1/src/exe/rbdock.cxx#4 $)

>  <Rbt.Library>
libRbt.so (2013.1, Build901 2013/11/27)

>  <Rbt.Parameter_File>
/export/apps/rDock/src/rDock_2013.1_src/data/scripts/dock_solv.prm

>  <Rbt.Receptor>
prm/blind_docking_20.prm

>  <SCORE>
-36.0022

>  <SCORE.INTER>
-36.0022

>  <SCORE.INTER.CONST>
1

>  <SCORE.INTER.POLAR>
-1.8799

>  <SCORE.INTER.ROT>
0

>  <SCORE.INTER.SOLV>
10.0469

>  <SCORE.INTER.VDW>
-24.6841

>  <SCORE.INTER.norm>
-2.7694

>  <SCORE.INTRA>
0

>  <SCORE.INTRA.DIHEDRAL>
0

>  <SCORE.INTRA.DIHEDRAL.0>
0

>  <SCORE.INTRA.POLAR>
0

>  <SCORE.INTRA.POLAR.0>
0

>  <SCORE.INTRA.REPUL>
0

>  <SCORE.INTRA.REPUL.0>
0

>  <SCORE.INTRA.SOLV>
0

>  <SCORE.INTRA.SOLV.lig_0>
-12.9768

>  <SCORE.INTRA.VDW>
0

>  <SCORE.INTRA.VDW.0>
0

>  <SCORE.INTRA.norm>
0

>  <SCORE.RESTR>
0

>  <SCORE.RESTR.CAVITY>
0

>  <SCORE.RESTR.norm>
0

>  <SCORE.SYSTEM>
0

>  <SCORE.SYSTEM.CONST>
0

>  <SCORE.SYSTEM.DIHEDRAL>
0

>  <SCORE.SYSTEM.SOLV>
0

>  <SCORE.SYSTEM.norm>
0

>  <SCORE.heavy>
13

>  <SCORE.norm>
-2.7694

>  <RMSD>
3.393

$$$$
1eht cryst
 OpenBabel11021811383D
libRbt.so/2013.1/901 2013/11/27
 13 14  0  0  0  0  0  0  0  0999 V2000
   -6.3874   -3.4090   13.2353 C   0  0  0  0  0  0  0  0  0  0  0  0
   -5.9924   -4.6596   12.7691 N   0  0  0  0  0  0  0  0  0  0  0  0
   -6.1525   -5.7394   13.5987 C   0  0  0  0  0  0  0  0  0  0  0  0
   -6.6354   -5.5115   14.7096 O   0  0  0  0  0  0  0  0  0  0  0  0
   -5.8094   -7.0280   13.2761 N   0  0  0  0  0  0  0  0  0  0  0  0
   -5.9821   -8.1039   14.1313 C   0  0  0  0  0  0  0  0  0  0  0  0
   -5.2787   -7.1420   12.0252 C   0  0  0  0  0  0  0  0  0  0  0  0
   -5.1227   -6.0602   11.2079 C   0  0  0  0  0  0  0  0  0  0  0  0
   -5.4689   -4.7327   11.5191 C   0  0  0  0  0  0  0  0  0  0  0  0
   -5.3499   -3.7271   10.8207 O   0  0  0  0  0  0  0  0  0  0  0  0
   -4.5630   -6.5511   10.0361 N   0  0  0  0  0  0  0  0  0  0  0  0
   -4.4190   -7.8845   10.2227 C   0  0  0  0  0  0  0  0  0  0  0  0
   -4.8300   -8.2950   11.3905 N   0  0  0  0  0  0  0  0  0  0  0  0
  1  2  1  0  0  0  0
  2  9  1  0  0  0  0
  2  3  1  0  0  0  0
  3  5  1  0  0  0  0
  3  4  2  0  0  0  0
  5  6  1  0  0  0  0
  5  7  1  0  0  0  0
  7  8  2  0  0  0  0
  7 13  1  0  0  0  0
  8  9  1  0  0  0  0
  8 11  1  0  0  0  0
  9 10  2  0  0  0  0
 11 12  1  0  0  0  0
 12 13  2  0  0  0  0
M  END
>  <CHROM.1>
-5.55599190,-6.02577948,12.25530699,-2.73923123,-1.15641792,2.75811081

>  <Name>
1eht cryst

>  <RI>
0

>  <Rbt.Current_Directory>
/home/itssahil/PROJECTS/Mol_Feturizer/New_Systems/rnas/1eht

>  <Rbt.Executable>
rbdock ($Id: //depot/dev/client3/rdock/2013.1/src/exe/rbdock.cxx#4 $)

>  <Rbt.Library>
libRbt.so (2013.1, Build901 2013/11/27)

>  <Rbt.Parameter_File>
/export/apps/rDock/src/rDock_2013.1_src/data/scripts/dock_solv.prm

>  <Rbt.Receptor>
prm/blind_docking_20.prm

>  <SCORE>
-35.8397

>  <SCORE.INTER>
-35.8397

>  <SCORE.INTER.CONST>
1

>  <SCORE.INTER.POLAR>
-1.75835

>  <SCORE.INTER.ROT>
0

>  <SCORE.INTER.SOLV>
9.98136

>  <SCORE.INTER.VDW>
-24.9591

>  <SCORE.INTER.norm>
-2.7569

>  <SCORE.INTRA>
0

>  <SCORE.INTRA.DIHEDRAL>
0

>  <SCORE.INTRA.DIHEDRAL.0>
0

>  <SCORE.INTRA.POLAR>
0

>  <SCORE.INTRA.POLAR.0>
0

>  <SCORE.INTRA.REPUL>
0

>  <SCORE.INTRA.REPUL.0>
0

>  <SCORE.INTRA.SOLV>
0

>  <SCORE.INTRA.SOLV.lig_0>
-12.9768

>  <SCORE.INTRA.VDW>
0

>  <SCORE.INTRA.VDW.0>
0

>  <SCORE.INTRA.norm>
0

>  <SCORE.RESTR>
0

>  <SCORE.RESTR.CAVITY>
0

>  <SCORE.RESTR.norm>
0

>  <SCORE.SYSTEM>
0

>  <SCORE.SYSTEM.CONST>
0

>  <SCORE.SYSTEM.DIHEDRAL>
0

>  <SCORE.SYSTEM.SOLV>
0

>  <SCORE.SYSTEM.norm>
0

>  <SCORE.heavy>
13

>  <SCORE.norm>
-2.7569

>  <RMSD>
3.393

$$$$
1eht cryst
 OpenBabel11021811383D
libRbt.so/2013.1/901 2013/11/27
 13 14  0  0  0  0  0  0  0  0999 V2000
   -6.4301   -3.2964   12.8945 C   0  0  0  0  0  0  0  0  0  0  0  0
   -6.0155   -4.5743   12.5304 N   0  0  0  0  0  0  0  0  0  0  0  0
   -6.1645   -5.5871   13.4424 C   0  0  0  0  0  0  0  0  0  0  0  0
   -6.6557   -5.2788   14.5300 O   0  0  0  0  0  0  0  0  0  0  0  0
   -5.8019   -6.8922   13.2243 N   0  0  0  0  0  0  0  0  0  0  0  0
   -5.9637   -7.8993   14.1615 C   0  0  0  0  0  0  0  0  0  0  0  0
   -5.2638   -7.0974   11.9882 C   0  0  0  0  0  0  0  0  0  0  0  0
   -5.1190   -6.0816   11.0883 C   0  0  0  0  0  0  0  0  0  0  0  0
   -5.4851   -4.7388   11.2920 C   0  0  0  0  0  0  0  0  0  0  0  0
   -5.3768   -3.7900   10.5165 O   0  0  0  0  0  0  0  0  0  0  0  0
   -4.5470   -6.6558    9.9612 N   0  0  0  0  0  0  0  0  0  0  0  0
   -4.3854   -7.9681   10.2535 C   0  0  0  0  0  0  0  0  0  0  0  0
   -4.7962   -8.2905   11.4486 N   0  0  0  0  0  0  0  0  0  0  0  0
  1  2  1  0  0  0  0
  2  9  1  0  0  0  0
  2  3  1  0  0  0  0
  3  5  1  0  0  0  0
  3  4  2  0  0  0  0
  5  6  1  0  0  0  0
  5  7  1  0  0  0  0
  7  8  2  0  0  0  0
  7 13  1  0  0  0  0
  8  9  1  0  0  0  0
  8 11  1  0  0  0  0
  9 10  2  0  0  0  0
 11 12  1  0  0  0  0
 12 13  2  0  0  0  0
M  END
>  <CHROM.1>
-5.55768950,-5.97049872,12.12812597,-2.76629760,-1.14670193,2.65403353

>  <Name>
1eht cryst

>  <RI>
0

>  <Rbt.Current_Directory>
/home/itssahil/PROJECTS/Mol_Feturizer/New_Systems/rnas/1eht

>  <Rbt.Executable>
rbdock ($Id: //depot/dev/client3/rdock/2013.1/src/exe/rbdock.cxx#4 $)

>  <Rbt.Library>
libRbt.so (2013.1, Build901 2013/11/27)

>  <Rbt.Parameter_File>
/export/apps/rDock/src/rDock_2013.1_src/data/scripts/dock_solv.prm

>  <Rbt.Receptor>
prm/blind_docking_40.prm

>  <SCORE>
-36.0093

>  <SCORE.INTER>
-36.0093

>  <SCORE.INTER.CONST>
1

>  <SCORE.INTER.POLAR>
-1.87778

>  <SCORE.INTER.ROT>
0

>  <SCORE.INTER.SOLV>
10.0766

>  <SCORE.INTER.VDW>
-24.7058

>  <SCORE.INTER.norm>
-2.76995

>  <SCORE.INTRA>
0

>  <SCORE.INTRA.DIHEDRAL>
0

>  <SCORE.INTRA.DIHEDRAL.0>
0

>  <SCORE.INTRA.POLAR>
0

>  <SCORE.INTRA.POLAR.0>
0

>  <SCORE.INTRA.REPUL>
0

>  <SCORE.INTRA.REPUL.0>
0

>  <SCORE.INTRA.SOLV>
0

>  <SCORE.INTRA.SOLV.lig_0>
-12.9768

>  <SCORE.INTRA.VDW>
0

>  <SCORE.INTRA.VDW.0>
0

>  <SCORE.INTRA.norm>
0

>  <SCORE.RESTR>
0

>  <SCORE.RESTR.CAVITY>
0

>  <SCORE.RESTR.norm>
0

>  <SCORE.SYSTEM>
0

>  <SCORE.SYSTEM.CONST>
0

>  <SCORE.SYSTEM.DIHEDRAL>
0

>  <SCORE.SYSTEM.SOLV>
0

>  <SCORE.SYSTEM.norm>
0

>  <SCORE.heavy>
13

>  <SCORE.norm>
-2.76995

>  <RMSD>
3.393

$$$$
1eht cryst
 OpenBabel11021811383D
libRbt.so/2013.1/901 2013/11/27
 13 14  0  0  0  0  0  0  0  0999 V2000
   -6.4341   -3.3018   12.8958 C   0  0  0  0  0  0  0  0  0  0  0  0
   -6.0146   -4.5783   12.5325 N   0  0  0  0  0  0  0  0  0  0  0  0
   -6.1546   -5.5899   13.4473 C   0  0  0  0  0  0  0  0  0  0  0  0
   -6.6427   -5.2818   14.5364 O   0  0  0  0  0  0  0  0  0  0  0  0
   -5.7864   -6.8936   13.2304 N   0  0  0  0  0  0  0  0  0  0  0  0
   -5.9391   -7.8996   14.1704 C   0  0  0  0  0  0  0  0  0  0  0  0
   -5.2525   -7.0988   11.9925 C   0  0  0  0  0  0  0  0  0  0  0  0
   -5.1166   -6.0841   11.0899 C   0  0  0  0  0  0  0  0  0  0  0  0
   -5.4887   -4.7427   11.2923 C   0  0  0  0  0  0  0  0  0  0  0  0
   -5.3884   -3.7951   10.5143 O   0  0  0  0  0  0  0  0  0  0  0  0
   -4.5465   -6.6578    9.9615 N   0  0  0  0  0  0  0  0  0  0  0  0
   -4.3770   -7.9687   10.2559 C   0  0  0  0  0  0  0  0  0  0  0  0
   -4.7811   -8.2906   11.4534 N   0  0  0  0  0  0  0  0  0  0  0  0
  1  2  1  0  0  0  0
  2  9  1  0  0  0  0
  2  3  1  0  0  0  0
  3  5  1  0  0  0  0
  3  4  2  0  0  0  0
  5  6  1  0  0  0  0
  5  7  1  0  0  0  0
  7  8  2  0  0  0  0
  7 13  1  0  0  0  0
  8  9  1  0  0  0  0
  8 11  1  0  0  0  0
  9 10  2  0  0  0  0
 11 12  1  0  0  0  0
 12 13  2  0  0  0  0
M  END
>  <CHROM.1>
-5.55144335,-5.97304305,12.13129013,-2.78201038,-1.14802276,2.63760029

>  <Name>
1eht cryst

>  <RI>
0

>  <Rbt.Current_Directory>
/home/itssahil/PROJECTS/Mol_Feturizer/New_Systems/rnas/1eht

>  <Rbt.Executable>
rbdock ($Id: //depot/dev/client3/rdock/2013.1/src/exe/rbdock.cxx#4 $)

>  <Rbt.Library>
libRbt.so (2013.1, Build901 2013/11/27)

>  <Rbt.Parameter_File>
/export/apps/rDock/src/rDock_2013.1_src/data/scripts/dock_solv.prm

>  <Rbt.Receptor>
prm/blind_docking_40.prm

>  <SCORE>
-36.0348

>  <SCORE.INTER>
-36.0348

>  <SCORE.INTER.CONST>
1

>  <SCORE.INTER.POLAR>
-1.8765

>  <SCORE.INTER.ROT>
0

>  <SCORE.INTER.SOLV>
10.0737

>  <SCORE.INTER.VDW>
-24.7261

>  <SCORE.INTER.norm>
-2.77191

>  <SCORE.INTRA>
0

>  <SCORE.INTRA.DIHEDRAL>
0

>  <SCORE.INTRA.DIHEDRAL.0>
0

>  <SCORE.INTRA.POLAR>
0

>  <SCORE.INTRA.POLAR.0>
0

>  <SCORE.INTRA.REPUL>
0

>  <SCORE.INTRA.REPUL.0>
0

>  <SCORE.INTRA.SOLV>
0

>  <SCORE.INTRA.SOLV.lig_0>
-12.9768

>  <SCORE.INTRA.VDW>
0

>  <SCORE.INTRA.VDW.0>
0

>  <SCORE.INTRA.norm>
0

>  <SCORE.RESTR>
0

>  <SCORE.RESTR.CAVITY>
0

>  <SCORE.RESTR.norm>
0

>  <SCORE.SYSTEM>
0

>  <SCORE.SYSTEM.CONST>
0

>  <SCORE.SYSTEM.DIHEDRAL>
0

>  <SCORE.SYSTEM.SOLV>
0

>  <SCORE.SYSTEM.norm>
0

>  <SCORE.heavy>
13

>  <SCORE.norm>
-2.77191

>  <RMSD>
3.393

$$$$
1eht cryst
 OpenBabel11021811383D
libRbt.so/2013.1/901 2013/11/27
 13 14  0  0  0  0  0  0  0  0999 V2000
   -6.4162   -3.3292   12.9650 C   0  0  0  0  0  0  0  0  0  0  0  0
   -6.0039   -4.6014   12.5789 N   0  0  0  0  0  0  0  0  0  0  0  0
   -6.1433   -5.6270   13.4780 C   0  0  0  0  0  0  0  0  0  0  0  0
   -6.6244   -5.3346   14.5745 O   0  0  0  0  0  0  0  0  0  0  0  0
   -5.7817   -6.9286   13.2381 N   0  0  0  0  0  0  0  0  0  0  0  0
   -5.9337   -7.9490   14.1625 C   0  0  0  0  0  0  0  0  0  0  0  0
   -5.2553   -7.1159   11.9942 C   0  0  0  0  0  0  0  0  0  0  0  0
   -5.1200   -6.0873   11.1073 C   0  0  0  0  0  0  0  0  0  0  0  0
   -5.4853   -4.7479   11.3334 C   0  0  0  0  0  0  0  0  0  0  0  0
   -5.3853   -3.7882   10.5703 O   0  0  0  0  0  0  0  0  0  0  0  0
   -4.5582   -6.6450    9.9668 N   0  0  0  0  0  0  0  0  0  0  0  0
   -4.3927   -7.9611   10.2390 C   0  0  0  0  0  0  0  0  0  0  0  0
   -4.7917   -8.3008   11.4334 N   0  0  0  0  0  0  0  0  0  0  0  0
  1  2  1  0  0  0  0
  2  9  1  0  0  0  0
  2  3  1  0  0  0  0
  3  5  1  0  0  0  0
  3  4  2  0  0  0  0
  5  6  1  0  0  0  0
  5  7  1  0  0  0  0
  7  8  2  0  0  0  0
  7 13  1  0  0  0  0
  8  9  1  0  0  0  0
  8 11  1  0  0  0  0
  9 10  2  0  0  0  0
 11 12  1  0  0  0  0
 12 13  2  0  0  0  0
M  END
>  <CHROM.1>
-5.54878782,-5.99132777,12.15271314,-2.77929231,-1.15468441,2.65624687

>  <Name>
1eht cryst

>  <RI>
0

>  <Rbt.Current_Directory>
/home/itssahil/PROJECTS/Mol_Feturizer/New_Systems/rnas/1eht

>  <Rbt.Executable>
rbdock ($Id: //depot/dev/client3/rdock/2013.1/src/exe/rbdock.cxx#4 $)

>  <Rbt.Library>
libRbt.so (2013.1, Build901 2013/11/27)

>  <Rbt.Parameter_File>
/export/apps/rDock/src/rDock_2013.1_src/data/scripts/dock_solv.prm

>  <Rbt.Receptor>
prm/blind_docking_60.prm

>  <SCORE>
-35.9573

>  <SCORE.INTER>
-35.9573

>  <SCORE.INTER.CONST>
1

>  <SCORE.INTER.POLAR>
-1.85246

>  <SCORE.INTER.ROT>
0

>  <SCORE.INTER.SOLV>
10.0255

>  <SCORE.INTER.VDW>
-24.7385

>  <SCORE.INTER.norm>
-2.76595

>  <SCORE.INTRA>
0

>  <SCORE.INTRA.DIHEDRAL>
0

>  <SCORE.INTRA.DIHEDRAL.0>
0

>  <SCORE.INTRA.POLAR>
0

>  <SCORE.INTRA.POLAR.0>
0

>  <SCORE.INTRA.REPUL>
0

>  <SCORE.INTRA.REPUL.0>
0

>  <SCORE.INTRA.SOLV>
0

>  <SCORE.INTRA.SOLV.lig_0>
-12.9768

>  <SCORE.INTRA.VDW>
0

>  <SCORE.INTRA.VDW.0>
0

>  <SCORE.INTRA.norm>
0

>  <SCORE.RESTR>
0

>  <SCORE.RESTR.CAVITY>
0

>  <SCORE.RESTR.norm>
0

>  <SCORE.SYSTEM>
0

>  <SCORE.SYSTEM.CONST>
0

>  <SCORE.SYSTEM.DIHEDRAL>
0

>  <SCORE.SYSTEM.SOLV>
0

>  <SCORE.SYSTEM.norm>
0

>  <SCORE.heavy>
13

>  <SCORE.norm>
-2.76595

>  <RMSD>
3.393

$$$$
1eht cryst
 OpenBabel11021811383D
libRbt.so/2013.1/901 2013/11/27
 13 14  0  0  0  0  0  0  0  0999 V2000
   -6.4323   -3.3066   12.8906 C   0  0  0  0  0  0  0  0  0  0  0  0
   -6.0173   -4.5843   12.5260 N   0  0  0  0  0  0  0  0  0  0  0  0
   -6.1648   -5.5972   13.4381 C   0  0  0  0  0  0  0  0  0  0  0  0
   -6.6551   -5.2892   14.5263 O   0  0  0  0  0  0  0  0  0  0  0  0
   -5.8018   -6.9021   13.2196 N   0  0  0  0  0  0  0  0  0  0  0  0
   -5.9621   -7.9093   14.1570 C   0  0  0  0  0  0  0  0  0  0  0  0
   -5.2648   -7.1070   11.9830 C   0  0  0  0  0  0  0  0  0  0  0  0
   -5.1215   -6.0911   11.0830 C   0  0  0  0  0  0  0  0  0  0  0  0
   -5.4882   -4.7484   11.2871 C   0  0  0  0  0  0  0  0  0  0  0  0
   -5.3812   -3.7996   10.5115 O   0  0  0  0  0  0  0  0  0  0  0  0
   -4.5503   -6.6649    9.9553 N   0  0  0  0  0  0  0  0  0  0  0  0
   -4.3877   -7.9771   10.2473 C   0  0  0  0  0  0  0  0  0  0  0  0
   -4.7971   -8.2998   11.4429 N   0  0  0  0  0  0  0  0  0  0  0  0
  1  2  1  0  0  0  0
  2  9  1  0  0  0  0
  2  3  1  0  0  0  0
  3  5  1  0  0  0  0
  3  4  2  0  0  0  0
  5  6  1  0  0  0  0
  5  7  1  0  0  0  0
  7  8  2  0  0  0  0
  7 13  1  0  0  0  0
  8  9  1  0  0  0  0
  8 11  1  0  0  0  0
  9 10  2  0  0  0  0
 11 12  1  0  0  0  0
 12 13  2  0  0  0  0
M  END
>  <CHROM.1>
-5.55919818,-5.98023207,12.12323834,-2.76863277,-1.14733234,2.65192717

>  <Name>
1eht cryst

>  <RI>
0

>  <Rbt.Current_Directory>
/home/itssahil/PROJECTS/Mol_Feturizer/New_Systems/rnas/1eht

>  <Rbt.Executable>
rbdock ($Id: //depot/dev/client3/rdock/2013.1/src/exe/rbdock.cxx#4 $)

>  <Rbt.Library>
libRbt.so (2013.1, Build901 2013/11/27)

>  <Rbt.Parameter_File>
/export/apps/rDock/src/rDock_2013.1_src/data/scripts/dock_solv.prm

>  <Rbt.Receptor>
prm/pocket_docking_3.prm

>  <SCORE>
-35.999

>  <SCORE.INTER>
-35.999

>  <SCORE.INTER.CONST>
1

>  <SCORE.INTER.POLAR>
-1.87928

>  <SCORE.INTER.ROT>
0

>  <SCORE.INTER.SOLV>
10.0547

>  <SCORE.INTER.VDW>
-24.6866

>  <SCORE.INTER.norm>
-2.76915

>  <SCORE.INTRA>
0

>  <SCORE.INTRA.DIHEDRAL>
0

>  <SCORE.INTRA.DIHEDRAL.0>
0

>  <SCORE.INTRA.POLAR>
0

>  <SCORE.INTRA.POLAR.0>
0

>  <SCORE.INTRA.REPUL>
0

>  <SCORE.INTRA.REPUL.0>
0

>  <SCORE.INTRA.SOLV>
0

>  <SCORE.INTRA.SOLV.lig_0>
-12.9768

>  <SCORE.INTRA.VDW>
0

>  <SCORE.INTRA.VDW.0>
0

>  <SCORE.INTRA.norm>
0

>  <SCORE.RESTR>
0

>  <SCORE.RESTR.CAVITY>
0

>  <SCORE.RESTR.norm>
0

>  <SCORE.SYSTEM>
0

>  <SCORE.SYSTEM.CONST>
0

>  <SCORE.SYSTEM.DIHEDRAL>
0

>  <SCORE.SYSTEM.SOLV>
0

>  <SCORE.SYSTEM.norm>
0

>  <SCORE.heavy>
13

>  <SCORE.norm>
-2.76915

>  <RMSD>
3.393

$$$$
1eht cryst
 OpenBabel11021811383D
libRbt.so/2013.1/901 2013/11/27
 13 14  0  0  0  0  0  0  0  0999 V2000
   -6.4088   -3.3270   12.9493 C   0  0  0  0  0  0  0  0  0  0  0  0
   -5.9968   -4.6009   12.5688 N   0  0  0  0  0  0  0  0  0  0  0  0
   -6.1419   -5.6237   13.4702 C   0  0  0  0  0  0  0  0  0  0  0  0
   -6.6276   -5.3274   14.5636 O   0  0  0  0  0  0  0  0  0  0  0  0
   -5.7811   -6.9265   13.2357 N   0  0  0  0  0  0  0  0  0  0  0  0
   -5.9390   -7.9440   14.1624 C   0  0  0  0  0  0  0  0  0  0  0  0
   -5.2492   -7.1182   11.9948 C   0  0  0  0  0  0  0  0  0  0  0  0
   -5.1082   -6.0925   11.1056 C   0  0  0  0  0  0  0  0  0  0  0  0
   -5.4726   -4.7518   11.3261 C   0  0  0  0  0  0  0  0  0  0  0  0
   -5.3675   -3.7945   10.5607 O   0  0  0  0  0  0  0  0  0  0  0  0
   -4.5421   -6.6543    9.9693 N   0  0  0  0  0  0  0  0  0  0  0  0
   -4.3798   -7.9699   10.2461 C   0  0  0  0  0  0  0  0  0  0  0  0
   -4.7849   -8.3054   11.4396 N   0  0  0  0  0  0  0  0  0  0  0  0
  1  2  1  0  0  0  0
  2  9  1  0  0  0  0
  2  3  1  0  0  0  0
  3  5  1  0  0  0  0
  3  4  2  0  0  0  0
  5  6  1  0  0  0  0
  5  7  1  0  0  0  0
  7  8  2  0  0  0  0
  7 13  1  0  0  0  0
  8  9  1  0  0  0  0
  8 11  1  0  0  0  0
  9 10  2  0  0  0  0
 11 12  1  0  0  0  0
 12 13  2  0  0  0  0
M  END
>  <CHROM.1>
-5.54176225,-5.99276803,12.14873519,-2.77066968,-1.15129545,2.66123279

>  <Name>
1eht cryst

>  <RI>
0

>  <Rbt.Current_Directory>
/home/itssahil/PROJECTS/Mol_Feturizer/New_Systems/rnas/1eht

>  <Rbt.Executable>
rbdock ($Id: //depot/dev/client3/rdock/2013.1/src/exe/rbdock.cxx#4 $)

>  <Rbt.Library>
libRbt.so (2013.1, Build901 2013/11/27)

>  <Rbt.Parameter_File>
/export/apps/rDock/src/rDock_2013.1_src/data/scripts/dock_solv.prm

>  <Rbt.Receptor>
prm/pocket_docking_4.prm

>  <SCORE>
-36.0158

>  <SCORE.INTER>
-36.0158

>  <SCORE.INTER.CONST>
1

>  <SCORE.INTER.POLAR>
-1.87013

>  <SCORE.INTER.ROT>
0

>  <SCORE.INTER.SOLV>
10.0193

>  <SCORE.INTER.VDW>
-24.7165

>  <SCORE.INTER.norm>
-2.77044

>  <SCORE.INTRA>
0

>  <SCORE.INTRA.DIHEDRAL>
0

>  <SCORE.INTRA.DIHEDRAL.0>
0

>  <SCORE.INTRA.POLAR>
0

>  <SCORE.INTRA.POLAR.0>
0

>  <SCORE.INTRA.REPUL>
0

>  <SCORE.INTRA.REPUL.0>
0

>  <SCORE.INTRA.SOLV>
0

>  <SCORE.INTRA.SOLV.lig_0>
-12.9768

>  <SCORE.INTRA.VDW>
0

>  <SCORE.INTRA.VDW.0>
0

>  <SCORE.INTRA.norm>
0

>  <SCORE.RESTR>
0

>  <SCORE.RESTR.CAVITY>
0

>  <SCORE.RESTR.norm>
0

>  <SCORE.SYSTEM>
0

>  <SCORE.SYSTEM.CONST>
0

>  <SCORE.SYSTEM.DIHEDRAL>
0

>  <SCORE.SYSTEM.SOLV>
0

>  <SCORE.SYSTEM.norm>
0

>  <SCORE.heavy>
13

>  <SCORE.norm>
-2.77044

>  <RMSD>
3.393

$$$$
1eht cryst
 OpenBabel11021811383D
libRbt.so/2013.1/901 2013/11/27
 13 14  0  0  0  0  0  0  0  0999 V2000
   -6.4381   -3.3110   12.8942 C   0  0  0  0  0  0  0  0  0  0  0  0
   -6.0146   -4.5866   12.5321 N   0  0  0  0  0  0  0  0  0  0  0  0
   -6.1555   -5.5986   13.4463 C   0  0  0  0  0  0  0  0  0  0  0  0
   -6.6481   -5.2918   14.5337 O   0  0  0  0  0  0  0  0  0  0  0  0
   -5.7838   -6.9015   13.2304 N   0  0  0  0  0  0  0  0  0  0  0  0
   -5.9376   -7.9080   14.1697 C   0  0  0  0  0  0  0  0  0  0  0  0
   -5.2452   -7.1053   11.9943 C   0  0  0  0  0  0  0  0  0  0  0  0
   -5.1085   -6.0902   11.0923 C   0  0  0  0  0  0  0  0  0  0  0  0
   -5.4841   -4.7497   11.2936 C   0  0  0  0  0  0  0  0  0  0  0  0
   -5.3833   -3.8017   10.5162 O   0  0  0  0  0  0  0  0  0  0  0  0
   -4.5333   -6.6625    9.9658 N   0  0  0  0  0  0  0  0  0  0  0  0
   -4.3620   -7.9730   10.2604 C   0  0  0  0  0  0  0  0  0  0  0  0
   -4.7695   -8.2961   11.4566 N   0  0  0  0  0  0  0  0  0  0  0  0
  1  2  1  0  0  0  0
  2  9  1  0  0  0  0
  2  3  1  0  0  0  0
  3  5  1  0  0  0  0
  3  4  2  0  0  0  0
  5  6  1  0  0  0  0
  5  7  1  0  0  0  0
  7  8  2  0  0  0  0
  7 13  1  0  0  0  0
  8  9  1  0  0  0  0
  8 11  1  0  0  0  0
  9 10  2  0  0  0  0
 11 12  1  0  0  0  0
 12 13  2  0  0  0  0
M  END
>  <CHROM.1>
-5.54709459,-5.98026614,12.13221038,-2.78257467,-1.14399992,2.63726742

>  <Name>
1eht cryst

>  <RI>
0

>  <Rbt.Current_Directory>
/home/itssahil/PROJECTS/Mol_Feturizer/New_Systems/rnas/1eht

>  <Rbt.Executable>
rbdock ($Id: //depot/dev/client3/rdock/2013.1/src/exe/rbdock.cxx#4 $)

>  <Rbt.Library>
libRbt.so (2013.1, Build901 2013/11/27)

>  <Rbt.Parameter_File>
/export/apps/rDock/src/rDock_2013.1_src/data/scripts/dock_solv.prm

>  <Rbt.Receptor>
prm/pocket_docking_4.prm

>  <SCORE>
-36.0446

>  <SCORE.INTER>
-36.0446

>  <SCORE.INTER.CONST>
1

>  <SCORE.INTER.POLAR>
-1.88387

>  <SCORE.INTER.ROT>
0

>  <SCORE.INTER.SOLV>
10.0569

>  <SCORE.INTER.VDW>
-24.7025

>  <SCORE.INTER.norm>
-2.77266

>  <SCORE.INTRA>
0

>  <SCORE.INTRA.DIHEDRAL>
0

>  <SCORE.INTRA.DIHEDRAL.0>
0

>  <SCORE.INTRA.POLAR>
0

>  <SCORE.INTRA.POLAR.0>
0

>  <SCORE.INTRA.REPUL>
0

>  <SCORE.INTRA.REPUL.0>
0

>  <SCORE.INTRA.SOLV>
0

>  <SCORE.INTRA.SOLV.lig_0>
-12.9768

>  <SCORE.INTRA.VDW>
0

>  <SCORE.INTRA.VDW.0>
0

>  <SCORE.INTRA.norm>
0

>  <SCORE.RESTR>
0

>  <SCORE.RESTR.CAVITY>
0

>  <SCORE.RESTR.norm>
0

>  <SCORE.SYSTEM>
0

>  <SCORE.SYSTEM.CONST>
0

>  <SCORE.SYSTEM.DIHEDRAL>
0

>  <SCORE.SYSTEM.SOLV>
0

>  <SCORE.SYSTEM.norm>
0

>  <SCORE.heavy>
13

>  <SCORE.norm>
-2.77266

>  <RMSD>
3.393

$$$$
1eht cryst
 OpenBabel11021811383D
libRbt.so/2013.1/901 2013/11/27
 13 14  0  0  0  0  0  0  0  0999 V2000
   -6.4385   -3.3077   12.8964 C   0  0  0  0  0  0  0  0  0  0  0  0
   -6.0157   -4.5832   12.5335 N   0  0  0  0  0  0  0  0  0  0  0  0
   -6.1537   -5.5951   13.4483 C   0  0  0  0  0  0  0  0  0  0  0  0
   -6.6433   -5.2881   14.5370 O   0  0  0  0  0  0  0  0  0  0  0  0
   -5.7822   -6.8979   13.2316 N   0  0  0  0  0  0  0  0  0  0  0  0
   -5.9330   -7.9042   14.1716 C   0  0  0  0  0  0  0  0  0  0  0  0
   -5.2471   -7.1018   11.9941 C   0  0  0  0  0  0  0  0  0  0  0  0
   -5.1133   -6.0869   11.0914 C   0  0  0  0  0  0  0  0  0  0  0  0
   -5.4887   -4.7464   11.2935 C   0  0  0  0  0  0  0  0  0  0  0  0
   -5.3904   -3.7986   10.5156 O   0  0  0  0  0  0  0  0  0  0  0  0
   -4.5411   -6.6593    9.9634 N   0  0  0  0  0  0  0  0  0  0  0  0
   -4.3685   -7.9697   10.2579 C   0  0  0  0  0  0  0  0  0  0  0  0
   -4.7725   -8.2926   11.4553 N   0  0  0  0  0  0  0  0  0  0  0  0
  1  2  1  0  0  0  0
  2  9  1  0  0  0  0
  2  3  1  0  0  0  0
  3  5  1  0  0  0  0
  3  4  2  0  0  0  0
  5  6  1  0  0  0  0
  5  7  1  0  0  0  0
  7  8  2  0  0  0  0
  7 13  1  0  0  0  0
  8  9  1  0  0  0  0
  8 11  1  0  0  0  0
  9 10  2  0  0  0  0
 11 12  1  0  0  0  0
 12 13  2  0  0  0  0
M  END
>  <CHROM.1>
-5.54893625,-5.97682700,12.13257564,-2.78657326,-1.14634633,2.63337205

>  <Name>
1eht cryst

>  <RI>
0

>  <Rbt.Current_Directory>
/home/itssahil/PROJECTS/Mol_Feturizer/New_Systems/rnas/1eht

>  <Rbt.Executable>
rbdock ($Id: //depot/dev/client3/rdock/2013.1/src/exe/rbdock.cxx#4 $)

>  <Rbt.Library>
libRbt.so (2013.1, Build901 2013/11/27)

>  <Rbt.Parameter_File>
/export/apps/rDock/src/rDock_2013.1_src/data/scripts/dock_solv.prm

>  <Rbt.Receptor>
prm/pocket_docking_5.prm

>  <SCORE>
-36.0457

>  <SCORE.INTER>
-36.0457

>  <SCORE.INTER.CONST>
1

>  <SCORE.INTER.POLAR>
-1.87862

>  <SCORE.INTER.ROT>
0

>  <SCORE.INTER.SOLV>
10.0657

>  <SCORE.INTER.VDW>
-24.7236

>  <SCORE.INTER.norm>
-2.77275

>  <SCORE.INTRA>
0

>  <SCORE.INTRA.DIHEDRAL>
0

>  <SCORE.INTRA.DIHEDRAL.0>
0

>  <SCORE.INTRA.POLAR>
0

>  <SCORE.INTRA.POLAR.0>
0

>  <SCORE.INTRA.REPUL>
0

>  <SCORE.INTRA.REPUL.0>
0

>  <SCORE.INTRA.SOLV>
0

>  <SCORE.INTRA.SOLV.lig_0>
-12.9768

>  <SCORE.INTRA.VDW>
0

>  <SCORE.INTRA.VDW.0>
0

>  <SCORE.INTRA.norm>
0

>  <SCORE.RESTR>
0

>  <SCORE.RESTR.CAVITY>
0

>  <SCORE.RESTR.norm>
0

>  <SCORE.SYSTEM>
0

>  <SCORE.SYSTEM.CONST>
0

>  <SCORE.SYSTEM.DIHEDRAL>
0

>  <SCORE.SYSTEM.SOLV>
0

>  <SCORE.SYSTEM.norm>
0

>  <SCORE.heavy>
13

>  <SCORE.norm>
-2.77275

>  <RMSD>
3.393

$$$$
1eht cryst
 OpenBabel11021811383D
libRbt.so/2013.1/901 2013/11/27
 13 14  0  0  0  0  0  0  0  0999 V2000
   -6.4198   -3.3116   12.9297 C   0  0  0  0  0  0  0  0  0  0  0  0
   -6.0083   -4.5873   12.5547 N   0  0  0  0  0  0  0  0  0  0  0  0
   -6.1555   -5.6066   13.4598 C   0  0  0  0  0  0  0  0  0  0  0  0
   -6.6424   -5.3057   14.5514 O   0  0  0  0  0  0  0  0  0  0  0  0
   -5.7956   -6.9105   13.2307 N   0  0  0  0  0  0  0  0  0  0  0  0
   -5.9555   -7.9243   14.1611 C   0  0  0  0  0  0  0  0  0  0  0  0
   -5.2622   -7.1074   11.9913 C   0  0  0  0  0  0  0  0  0  0  0  0
   -5.1191   -6.0852   11.0984 C   0  0  0  0  0  0  0  0  0  0  0  0
   -5.4826   -4.7434   11.3132 C   0  0  0  0  0  0  0  0  0  0  0  0
   -5.3757   -3.7891   10.5444 O   0  0  0  0  0  0  0  0  0  0  0  0
   -4.5520   -6.6519    9.9650 N   0  0  0  0  0  0  0  0  0  0  0  0
   -4.3912   -7.9665   10.2470 C   0  0  0  0  0  0  0  0  0  0  0  0
   -4.7982   -8.2972   11.4413 N   0  0  0  0  0  0  0  0  0  0  0  0
  1  2  1  0  0  0  0
  2  9  1  0  0  0  0
  2  3  1  0  0  0  0
  3  5  1  0  0  0  0
  3  4  2  0  0  0  0
  5  6  1  0  0  0  0
  5  7  1  0  0  0  0
  7  8  2  0  0  0  0
  7 13  1  0  0  0  0
  8  9  1  0  0  0  0
  8 11  1  0  0  0  0
  9 10  2  0  0  0  0
 11 12  1  0  0  0  0
 12 13  2  0  0  0  0
M  END
>  <CHROM.1>
-5.55394644,-5.98115055,12.14052352,-2.76730238,-1.15051437,2.66048308

>  <Name>
1eht cryst

>  <RI>
0

>  <Rbt.Current_Directory>
/home/itssahil/PROJECTS/Mol_Feturizer/New_Systems/rnas/1eht

>  <Rbt.Executable>
rbdock ($Id: //depot/dev/client3/rdock/2013.1/src/exe/rbdock.cxx#4 $)

>  <Rbt.Library>
libRbt.so (2013.1, Build901 2013/11/27)

>  <Rbt.Parameter_File>
/export/apps/rDock/src/rDock_2013.1_src/data/scripts/dock_solv.prm

>  <Rbt.Receptor>
prm/pocket_docking_6.prm

>  <SCORE>
-36.0022

>  <SCORE.INTER>
-36.0022

>  <SCORE.INTER.CONST>
1

>  <SCORE.INTER.POLAR>
-1.87105

>  <SCORE.INTER.ROT>
0

>  <SCORE.INTER.SOLV>
10.0451

>  <SCORE.INTER.VDW>
-24.713

>  <SCORE.INTER.norm>
-2.7694

>  <SCORE.INTRA>
0

>  <SCORE.INTRA.DIHEDRAL>
0

>  <SCORE.INTRA.DIHEDRAL.0>
0

>  <SCORE.INTRA.POLAR>
0

>  <SCORE.INTRA.POLAR.0>
0

>  <SCORE.INTRA.REPUL>
0

>  <SCORE.INTRA.REPUL.0>
0

>  <SCORE.INTRA.SOLV>
0

>  <SCORE.INTRA.SOLV.lig_0>
-12.9768

>  <SCORE.INTRA.VDW>
0

>  <SCORE.INTRA.VDW.0>
0

>  <SCORE.INTRA.norm>
0

>  <SCORE.RESTR>
0

>  <SCORE.RESTR.CAVITY>
0

>  <SCORE.RESTR.norm>
0

>  <SCORE.SYSTEM>
0

>  <SCORE.SYSTEM.CONST>
0

>  <SCORE.SYSTEM.DIHEDRAL>
0

>  <SCORE.SYSTEM.SOLV>
0

>  <SCORE.SYSTEM.norm>
0

>  <SCORE.heavy>
13

>  <SCORE.norm>
-2.7694

>  <RMSD>
3.393

$$$$
1eht cryst
 OpenBabel11021811383D
libRbt.so/2013.1/901 2013/11/27
 13 14  0  0  0  0  0  0  0  0999 V2000
   -6.4276   -3.3107   12.9189 C   0  0  0  0  0  0  0  0  0  0  0  0
   -6.0093   -4.5857   12.5492 N   0  0  0  0  0  0  0  0  0  0  0  0
   -6.1513   -5.6020   13.4585 C   0  0  0  0  0  0  0  0  0  0  0  0
   -6.6401   -5.2992   14.5487 O   0  0  0  0  0  0  0  0  0  0  0  0
   -5.7844   -6.9050   13.2350 N   0  0  0  0  0  0  0  0  0  0  0  0
   -5.9392   -7.9157   14.1695 C   0  0  0  0  0  0  0  0  0  0  0  0
   -5.2495   -7.1041   11.9965 C   0  0  0  0  0  0  0  0  0  0  0  0
   -5.1116   -6.0849   11.0994 C   0  0  0  0  0  0  0  0  0  0  0  0
   -5.4823   -4.7441   11.3086 C   0  0  0  0  0  0  0  0  0  0  0  0
   -5.3803   -3.7925   10.5358 O   0  0  0  0  0  0  0  0  0  0  0  0
   -4.5411   -6.6532    9.9686 N   0  0  0  0  0  0  0  0  0  0  0  0
   -4.3734   -7.9658   10.2561 C   0  0  0  0  0  0  0  0  0  0  0  0
   -4.7790   -8.2937   11.4516 N   0  0  0  0  0  0  0  0  0  0  0  0
  1  2  1  0  0  0  0
  2  9  1  0  0  0  0
  2  3  1  0  0  0  0
  3  5  1  0  0  0  0
  3  4  2  0  0  0  0
  5  6  1  0  0  0  0
  5  7  1  0  0  0  0
  7  8  2  0  0  0  0
  7 13  1  0  0  0  0
  8  9  1  0  0  0  0
  8 11  1  0  0  0  0
  9 10  2  0  0  0  0
 11 12  1  0  0  0  0
 12 13  2  0  0  0  0
M  END
>  <CHROM.1>
-5.54733761,-5.97883428,12.14099076,-2.77844808,-1.14773529,2.64616943

>  <Name>
1eht cryst

>  <RI>
0

>  <Rbt.Current_Directory>
/home/itssahil/PROJECTS/Mol_Feturizer/New_Systems/rnas/1eht

>  <Rbt.Executable>
rbdock ($Id: //depot/dev/client3/rdock/2013.1/src/exe/rbdock.cxx#4 $)

>  <Rbt.Library>
libRbt.so (2013.1, Build901 2013/11/27)

>  <Rbt.Parameter_File>
/export/apps/rDock/src/rDock_2013.1_src/data/scripts/dock_solv.prm

>  <Rbt.Receptor>
prm/pocket_docking_6.prm

>  <SCORE>
-36.0014

>  <SCORE.INTER>
-36.0014

>  <SCORE.INTER.CONST>
1

>  <SCORE.INTER.POLAR>
-1.87588

>  <SCORE.INTER.ROT>
0

>  <SCORE.INTER.SOLV>
10.0551

>  <SCORE.INTER.VDW>
-24.6997

>  <SCORE.INTER.norm>
-2.76934

>  <SCORE.INTRA>
0

>  <SCORE.INTRA.DIHEDRAL>
0

>  <SCORE.INTRA.DIHEDRAL.0>
0

>  <SCORE.INTRA.POLAR>
0

>  <SCORE.INTRA.POLAR.0>
0

>  <SCORE.INTRA.REPUL>
0

>  <SCORE.INTRA.REPUL.0>
0

>  <SCORE.INTRA.SOLV>
0

>  <SCORE.INTRA.SOLV.lig_0>
-12.9768

>  <SCORE.INTRA.VDW>
0

>  <SCORE.INTRA.VDW.0>
0

>  <SCORE.INTRA.norm>
0

>  <SCORE.RESTR>
0

>  <SCORE.RESTR.CAVITY>
0

>  <SCORE.RESTR.norm>
0

>  <SCORE.SYSTEM>
0

>  <SCORE.SYSTEM.CONST>
0

>  <SCORE.SYSTEM.DIHEDRAL>
0

>  <SCORE.SYSTEM.SOLV>
0

>  <SCORE.SYSTEM.norm>
0

>  <SCORE.heavy>
13

>  <SCORE.norm>
-2.76934

>  <RMSD>
3.393

$$$$
1eht cryst
 OpenBabel11021811383D
libRbt.so/2013.1/901 2013/11/27
 13 14  0  0  0  0  0  0  0  0999 V2000
   -6.4245   -3.3102   12.9255 C   0  0  0  0  0  0  0  0  0  0  0  0
   -6.0120   -4.5861   12.5520 N   0  0  0  0  0  0  0  0  0  0  0  0
   -6.1613   -5.6049   13.4571 C   0  0  0  0  0  0  0  0  0  0  0  0
   -6.6509   -5.3037   14.5474 O   0  0  0  0  0  0  0  0  0  0  0  0
   -5.8007   -6.9090   13.2295 N   0  0  0  0  0  0  0  0  0  0  0  0
   -5.9627   -7.9224   14.1599 C   0  0  0  0  0  0  0  0  0  0  0  0
   -5.2642   -7.1063   11.9915 C   0  0  0  0  0  0  0  0  0  0  0  0
   -5.1191   -6.0844   11.0985 C   0  0  0  0  0  0  0  0  0  0  0  0
   -5.4833   -4.7426   11.3119 C   0  0  0  0  0  0  0  0  0  0  0  0
   -5.3746   -3.7886   10.5429 O   0  0  0  0  0  0  0  0  0  0  0  0
   -4.5491   -6.6515    9.9667 N   0  0  0  0  0  0  0  0  0  0  0  0
   -4.3889   -7.9660   10.2497 C   0  0  0  0  0  0  0  0  0  0  0  0
   -4.7987   -8.2962   11.4431 N   0  0  0  0  0  0  0  0  0  0  0  0
  1  2  1  0  0  0  0
  2  9  1  0  0  0  0
  2  3  1  0  0  0  0
  3  5  1  0  0  0  0
  3  4  2  0  0  0  0
  5  6  1  0  0  0  0
  5  7  1  0  0  0  0
  7  8  2  0  0  0  0
  7 13  1  0  0  0  0
  8  9  1  0  0  0  0
  8 11  1  0  0  0  0
  9 10  2  0  0  0  0
 11 12  1  0  0  0  0
 12 13  2  0  0  0  0
M  END
>  <CHROM.1>
-5.55648440,-5.98001345,12.13952693,-2.76478691,-1.14829873,2.66236802

>  <Name>
1eht cryst

>  <RI>
224

>  <Rbt.Current_Directory>
/home/itssahil/PROJECTS/Mol_Feturizer/New_Systems/rnas/1eht

>  <Rbt.Executable>
rbdock ($Id: //depot/dev/client3/rdock/2013.1/src/exe/rbdock.cxx#4 $)

>  <Rbt.Library>
libRbt.so (2013.1, Build901 2013/11/27)

>  <Rbt.Parameter_File>
/export/apps/rDock/src/rDock_2013.1_src/data/scripts/dock_solv.prm

>  <Rbt.Receptor>
prm/pocket_docking_7.prm

>  <SCORE>
-36.0006

>  <SCORE.INTER>
-36.0006

>  <SCORE.INTER.CONST>
1

>  <SCORE.INTER.POLAR>
-1.87298

>  <SCORE.INTER.ROT>
0

>  <SCORE.INTER.SOLV>
10.0468

>  <SCORE.INTER.VDW>
-24.7061

>  <SCORE.INTER.norm>
-2.76928

>  <SCORE.INTRA>
0

>  <SCORE.INTRA.DIHEDRAL>
0

>  <SCORE.INTRA.DIHEDRAL.0>
0

>  <SCORE.INTRA.POLAR>
0

>  <SCORE.INTRA.POLAR.0>
0

>  <SCORE.INTRA.REPUL>
0

>  <SCORE.INTRA.REPUL.0>
0

>  <SCORE.INTRA.SOLV>
0

>  <SCORE.INTRA.SOLV.lig_0>
-12.9768

>  <SCORE.INTRA.VDW>
0

>  <SCORE.INTRA.VDW.0>
0

>  <SCORE.INTRA.norm>
0

>  <SCORE.RESTR>
0

>  <SCORE.RESTR.CAVITY>
0

>  <SCORE.RESTR.norm>
0

>  <SCORE.SYSTEM>
0

>  <SCORE.SYSTEM.CONST>
0

>  <SCORE.SYSTEM.DIHEDRAL>
0

>  <SCORE.SYSTEM.SOLV>
0

>  <SCORE.SYSTEM.norm>
0

>  <SCORE.heavy>
13

>  <SCORE.norm>
-2.76928

>  <RMSD>
3.393

$$$$
1eht cryst
 OpenBabel11021811383D
libRbt.so/2013.1/901 2013/11/27
 13 14  0  0  0  0  0  0  0  0999 V2000
   -6.4328   -3.3012   12.8946 C   0  0  0  0  0  0  0  0  0  0  0  0
   -6.0115   -4.5778   12.5337 N   0  0  0  0  0  0  0  0  0  0  0  0
   -6.1583   -5.5896   13.4471 C   0  0  0  0  0  0  0  0  0  0  0  0
   -6.6537   -5.2817   14.5329 O   0  0  0  0  0  0  0  0  0  0  0  0
   -5.7893   -6.8935   13.2322 N   0  0  0  0  0  0  0  0  0  0  0  0
   -5.9490   -7.8997   14.1707 C   0  0  0  0  0  0  0  0  0  0  0  0
   -5.2472   -7.0985   11.9978 C   0  0  0  0  0  0  0  0  0  0  0  0
   -5.1046   -6.0835   11.0965 C   0  0  0  0  0  0  0  0  0  0  0  0
   -5.4773   -4.7420   11.2969 C   0  0  0  0  0  0  0  0  0  0  0  0
   -5.3713   -3.7941   10.5201 O   0  0  0  0  0  0  0  0  0  0  0  0
   -4.5272   -6.6571    9.9719 N   0  0  0  0  0  0  0  0  0  0  0  0
   -4.3604   -7.9682   10.2668 C   0  0  0  0  0  0  0  0  0  0  0  0
   -4.7728   -8.2904   11.4615 N   0  0  0  0  0  0  0  0  0  0  0  0
  1  2  1  0  0  0  0
  2  9  1  0  0  0  0
  2  3  1  0  0  0  0
  3  5  1  0  0  0  0
  3  4  2  0  0  0  0
  5  6  1  0  0  0  0
  5  7  1  0  0  0  0
  7  8  2  0  0  0  0
  7 13  1  0  0  0  0
  8  9  1  0  0  0  0
  8 11  1  0  0  0  0
  9 10  2  0  0  0  0
 11 12  1  0  0  0  0
 12 13  2  0  0  0  0
M  END
>  <CHROM.1>
-5.54645812,-5.97262203,12.13502208,-2.77294307,-1.14234081,2.64625952

>  <Name>
1eht cryst

>  <RI>
0

>  <Rbt.Current_Directory>
/home/itssahil/PROJECTS/Mol_Feturizer/New_Systems/rnas/1eht

>  <Rbt.Executable>
rbdock ($Id: //depot/dev/client3/rdock/2013.1/src/exe/rbdock.cxx#4 $)

>  <Rbt.Library>
libRbt.so (2013.1, Build901 2013/11/27)

>  <Rbt.Parameter_File>
/export/apps/rDock/src/rDock_2013.1_src/data/scripts/dock_solv.prm

>  <Rbt.Receptor>
prm/pocket_docking_8.prm

>  <SCORE>
-36.0359

>  <SCORE.INTER>
-36.0359

>  <SCORE.INTER.CONST>
1

>  <SCORE.INTER.POLAR>
-1.88634

>  <SCORE.INTER.ROT>
0

>  <SCORE.INTER.SOLV>
10.0726

>  <SCORE.INTER.VDW>
-24.6937

>  <SCORE.INTER.norm>
-2.77199

>  <SCORE.INTRA>
0

>  <SCORE.INTRA.DIHEDRAL>
0

>  <SCORE.INTRA.DIHEDRAL.0>
0

>  <SCORE.INTRA.POLAR>
0

>  <SCORE.INTRA.POLAR.0>
0

>  <SCORE.INTRA.REPUL>
0

>  <SCORE.INTRA.REPUL.0>
0

>  <SCORE.INTRA.SOLV>
0

>  <SCORE.INTRA.SOLV.lig_0>
-12.9768

>  <SCORE.INTRA.VDW>
0

>  <SCORE.INTRA.VDW.0>
0

>  <SCORE.INTRA.norm>
0

>  <SCORE.RESTR>
0

>  <SCORE.RESTR.CAVITY>
0

>  <SCORE.RESTR.norm>
0

>  <SCORE.SYSTEM>
0

>  <SCORE.SYSTEM.CONST>
0

>  <SCORE.SYSTEM.DIHEDRAL>
0

>  <SCORE.SYSTEM.SOLV>
0

>  <SCORE.SYSTEM.norm>
0

>  <SCORE.heavy>
13

>  <SCORE.norm>
-2.77199

>  <RMSD>
3.393

$$$$
1eht cryst
 OpenBabel11021811383D
libRbt.so/2013.1/901 2013/11/27
 13 14  0  0  0  0  0  0  0  0999 V2000
   -6.4339   -3.3139   12.8879 C   0  0  0  0  0  0  0  0  0  0  0  0
   -6.0148   -4.5905   12.5242 N   0  0  0  0  0  0  0  0  0  0  0  0
   -6.1562   -5.6025   13.4383 C   0  0  0  0  0  0  0  0  0  0  0  0
   -6.6451   -5.2948   14.5271 O   0  0  0  0  0  0  0  0  0  0  0  0
   -5.7886   -6.9064   13.2210 N   0  0  0  0  0  0  0  0  0  0  0  0
   -5.9428   -7.9128   14.1603 C   0  0  0  0  0  0  0  0  0  0  0  0
   -5.2537   -7.1111   11.9834 C   0  0  0  0  0  0  0  0  0  0  0  0
   -5.1165   -6.0960   11.0815 C   0  0  0  0  0  0  0  0  0  0  0  0
   -5.4879   -4.7545   11.2843 C   0  0  0  0  0  0  0  0  0  0  0  0
   -5.3865   -3.8065   10.5071 O   0  0  0  0  0  0  0  0  0  0  0  0
   -4.5457   -6.6694    9.9533 N   0  0  0  0  0  0  0  0  0  0  0  0
   -4.3773   -7.9805   10.2470 C   0  0  0  0  0  0  0  0  0  0  0  0
   -4.7826   -8.3029   11.4441 N   0  0  0  0  0  0  0  0  0  0  0  0
  1  2  1  0  0  0  0
  2  9  1  0  0  0  0
  2  3  1  0  0  0  0
  3  5  1  0  0  0  0
  3  4  2  0  0  0  0
  5  6  1  0  0  0  0
  5  7  1  0  0  0  0
  7  8  2  0  0  0  0
  7 13  1  0  0  0  0
  8  9  1  0  0  0  0
  8 11  1  0  0  0  0
  9 10  2  0  0  0  0
 11 12  1  0  0  0  0
 12 13  2  0  0  0  0
M  END
>  <CHROM.1>
-5.55216492,-5.98528797,12.12259405,-2.77970880,-1.14755398,2.64027800

>  <Name>
1eht cryst

>  <RI>
0

>  <Rbt.Current_Directory>
/home/itssahil/PROJECTS/Mol_Feturizer/New_Systems/rnas/1eht

>  <Rbt.Executable>
rbdock ($Id: //depot/dev/client3/rdock/2013.1/src/exe/rbdock.cxx#4 $)

>  <Rbt.Library>
libRbt.so (2013.1, Build901 2013/11/27)

>  <Rbt.Parameter_File>
/export/apps/rDock/src/rDock_2013.1_src/data/scripts/dock_solv.prm

>  <Rbt.Receptor>
prm/pocket_docking_8.prm

>  <SCORE>
-36.0121

>  <SCORE.INTER>
-36.0121

>  <SCORE.INTER.CONST>
1

>  <SCORE.INTER.POLAR>
-1.88146

>  <SCORE.INTER.ROT>
0

>  <SCORE.INTER.SOLV>
10.0495

>  <SCORE.INTER.VDW>
-24.6864

>  <SCORE.INTER.norm>
-2.77016

>  <SCORE.INTRA>
0

>  <SCORE.INTRA.DIHEDRAL>
0

>  <SCORE.INTRA.DIHEDRAL.0>
0

>  <SCORE.INTRA.POLAR>
0

>  <SCORE.INTRA.POLAR.0>
0

>  <SCORE.INTRA.REPUL>
0

>  <SCORE.INTRA.REPUL.0>
0

>  <SCORE.INTRA.SOLV>
0

>  <SCORE.INTRA.SOLV.lig_0>
-12.9768

>  <SCORE.INTRA.VDW>
0

>  <SCORE.INTRA.VDW.0>
0

>  <SCORE.INTRA.norm>
0

>  <SCORE.RESTR>
0

>  <SCORE.RESTR.CAVITY>
0

>  <SCORE.RESTR.norm>
0

>  <SCORE.SYSTEM>
0

>  <SCORE.SYSTEM.CONST>
0

>  <SCORE.SYSTEM.DIHEDRAL>
0

>  <SCORE.SYSTEM.SOLV>
0

>  <SCORE.SYSTEM.norm>
0

>  <SCORE.heavy>
13

>  <SCORE.norm>
-2.77016

>  <RMSD>
3.393

$$$$
1eht cryst
 OpenBabel11021811383D
libRbt.so/2013.1/901 2013/11/27
 13 14  0  0  0  0  0  0  0  0999 V2000
   -6.4035   -3.3296   12.9516 C   0  0  0  0  0  0  0  0  0  0  0  0
   -5.9962   -4.6043   12.5684 N   0  0  0  0  0  0  0  0  0  0  0  0
   -6.1463   -5.6287   13.4670 C   0  0  0  0  0  0  0  0  0  0  0  0
   -6.6320   -5.3332   14.5607 O   0  0  0  0  0  0  0  0  0  0  0  0
   -5.7906   -6.9324   13.2297 N   0  0  0  0  0  0  0  0  0  0  0  0
   -5.9534   -7.9515   14.1537 C   0  0  0  0  0  0  0  0  0  0  0  0
   -5.2581   -7.1231   11.9889 C   0  0  0  0  0  0  0  0  0  0  0  0
   -5.1121   -6.0957   11.1024 C   0  0  0  0  0  0  0  0  0  0  0  0
   -5.4713   -4.7541   11.3258 C   0  0  0  0  0  0  0  0  0  0  0  0
   -5.3616   -3.7954   10.5630 O   0  0  0  0  0  0  0  0  0  0  0  0
   -4.5470   -6.6570    9.9653 N   0  0  0  0  0  0  0  0  0  0  0  0
   -4.3903   -7.9739   10.2390 C   0  0  0  0  0  0  0  0  0  0  0  0
   -4.7980   -8.3108   11.4312 N   0  0  0  0  0  0  0  0  0  0  0  0
  1  2  1  0  0  0  0
  2  9  1  0  0  0  0
  2  3  1  0  0  0  0
  3  5  1  0  0  0  0
  3  4  2  0  0  0  0
  5  6  1  0  0  0  0
  5  7  1  0  0  0  0
  7  8  2  0  0  0  0
  7 13  1  0  0  0  0
  8  9  1  0  0  0  0
  8 11  1  0  0  0  0
  9 10  2  0  0  0  0
 11 12  1  0  0  0  0
 12 13  2  0  0  0  0
M  END
>  <CHROM.1>
-5.54630627,-5.99687268,12.14530864,-2.76072408,-1.15219254,2.67280064

>  <Name>
1eht cryst

>  <RI>
0

>  <Rbt.Current_Directory>
/home/itssahil/PROJECTS/Mol_Feturizer/New_Systems/rnas/1eht

>  <Rbt.Executable>
rbdock ($Id: //depot/dev/client3/rdock/2013.1/src/exe/rbdock.cxx#4 $)

>  <Rbt.Library>
libRbt.so (2013.1, Build901 2013/11/27)

>  <Rbt.Parameter_File>
/export/apps/rDock/src/rDock_2013.1_src/data/scripts/dock_solv.prm

>  <Rbt.Receptor>
prm/pocket_docking_3.prm

>  <SCORE>
-35.9656

>  <SCORE.INTER>
-35.9656

>  <SCORE.INTER.CONST>
1

>  <SCORE.INTER.POLAR>
-1.87363

>  <SCORE.INTER.ROT>
0

>  <SCORE.INTER.SOLV>
10.0098

>  <SCORE.INTER.VDW>
-24.6682

>  <SCORE.INTER.norm>
-2.76658

>  <SCORE.INTRA>
0

>  <SCORE.INTRA.DIHEDRAL>
0

>  <SCORE.INTRA.DIHEDRAL.0>
0

>  <SCORE.INTRA.POLAR>
0

>  <SCORE.INTRA.POLAR.0>
0

>  <SCORE.INTRA.REPUL>
0

>  <SCORE.INTRA.REPUL.0>
0

>  <SCORE.INTRA.SOLV>
0

>  <SCORE.INTRA.SOLV.lig_0>
-12.9768

>  <SCORE.INTRA.VDW>
0

>  <SCORE.INTRA.VDW.0>
0

>  <SCORE.INTRA.norm>
0

>  <SCORE.RESTR>
0

>  <SCORE.RESTR.CAVITY>
0

>  <SCORE.RESTR.norm>
0

>  <SCORE.SYSTEM>
0

>  <SCORE.SYSTEM.CONST>
0

>  <SCORE.SYSTEM.DIHEDRAL>
0

>  <SCORE.SYSTEM.SOLV>
0

>  <SCORE.SYSTEM.norm>
0

>  <SCORE.heavy>
13

>  <SCORE.norm>
-2.76658

>  <RMSD>
3.394

$$$$
1eht cryst
 OpenBabel11021811383D
libRbt.so/2013.1/901 2013/11/27
 13 14  0  0  0  0  0  0  0  0999 V2000
   -6.4104   -3.3364   12.9471 C   0  0  0  0  0  0  0  0  0  0  0  0
   -5.9947   -4.6092   12.5667 N   0  0  0  0  0  0  0  0  0  0  0  0
   -6.1331   -5.6315   13.4697 C   0  0  0  0  0  0  0  0  0  0  0  0
   -6.6164   -5.3358   14.5643 O   0  0  0  0  0  0  0  0  0  0  0  0
   -5.7682   -6.9332   13.2355 N   0  0  0  0  0  0  0  0  0  0  0  0
   -5.9192   -7.9502   14.1638 C   0  0  0  0  0  0  0  0  0  0  0  0
   -5.2395   -7.1243   11.9931 C   0  0  0  0  0  0  0  0  0  0  0  0
   -5.1053   -6.0990   11.1023 C   0  0  0  0  0  0  0  0  0  0  0  0
   -5.4740   -4.7595   11.3225 C   0  0  0  0  0  0  0  0  0  0  0  0
   -5.3750   -3.8026   10.5557 O   0  0  0  0  0  0  0  0  0  0  0  0
   -4.5407   -6.6600    9.9649 N   0  0  0  0  0  0  0  0  0  0  0  0
   -4.3725   -7.9746   10.2426 C   0  0  0  0  0  0  0  0  0  0  0  0
   -4.7725   -8.3104   11.4378 N   0  0  0  0  0  0  0  0  0  0  0  0
  1  2  1  0  0  0  0
  2  9  1  0  0  0  0
  2  3  1  0  0  0  0
  3  5  1  0  0  0  0
  3  4  2  0  0  0  0
  5  6  1  0  0  0  0
  5  7  1  0  0  0  0
  7  8  2  0  0  0  0
  7 13  1  0  0  0  0
  8  9  1  0  0  0  0
  8 11  1  0  0  0  0
  9 10  2  0  0  0  0
 11 12  1  0  0  0  0
 12 13  2  0  0  0  0
M  END
>  <CHROM.1>
-5.53581495,-5.99976637,12.14673825,-2.78258108,-1.15236574,2.64921740

>  <Name>
1eht cryst

>  <RI>
0

>  <Rbt.Current_Directory>
/home/itssahil/PROJECTS/Mol_Feturizer/New_Systems/rnas/1eht

>  <Rbt.Executable>
rbdock ($Id: //depot/dev/client3/rdock/2013.1/src/exe/rbdock.cxx#4 $)

>  <Rbt.Library>
libRbt.so (2013.1, Build901 2013/11/27)

>  <Rbt.Parameter_File>
/export/apps/rDock/src/rDock_2013.1_src/data/scripts/dock_solv.prm

>  <Rbt.Receptor>
prm/pocket_docking_4.prm

>  <SCORE>
-36.0415

>  <SCORE.INTER>
-36.0415

>  <SCORE.INTER.CONST>
1

>  <SCORE.INTER.POLAR>
-1.86603

>  <SCORE.INTER.ROT>
0

>  <SCORE.INTER.SOLV>
10.0093

>  <SCORE.INTER.VDW>
-24.744

>  <SCORE.INTER.norm>
-2.77242

>  <SCORE.INTRA>
0

>  <SCORE.INTRA.DIHEDRAL>
0

>  <SCORE.INTRA.DIHEDRAL.0>
0

>  <SCORE.INTRA.POLAR>
0

>  <SCORE.INTRA.POLAR.0>
0

>  <SCORE.INTRA.REPUL>
0

>  <SCORE.INTRA.REPUL.0>
0

>  <SCORE.INTRA.SOLV>
0

>  <SCORE.INTRA.SOLV.lig_0>
-12.9768

>  <SCORE.INTRA.VDW>
0

>  <SCORE.INTRA.VDW.0>
0

>  <SCORE.INTRA.norm>
0

>  <SCORE.RESTR>
0

>  <SCORE.RESTR.CAVITY>
0

>  <SCORE.RESTR.norm>
0

>  <SCORE.SYSTEM>
0

>  <SCORE.SYSTEM.CONST>
0

>  <SCORE.SYSTEM.DIHEDRAL>
0

>  <SCORE.SYSTEM.SOLV>
0

>  <SCORE.SYSTEM.norm>
0

>  <SCORE.heavy>
13

>  <SCORE.norm>
-2.77242

>  <RMSD>
3.394

$$$$
1eht cryst
 OpenBabel11021811383D
libRbt.so/2013.1/901 2013/11/27
 13 14  0  0  0  0  0  0  0  0999 V2000
   -6.4048   -3.3521   12.9694 C   0  0  0  0  0  0  0  0  0  0  0  0
   -5.9932   -4.6238   12.5812 N   0  0  0  0  0  0  0  0  0  0  0  0
   -6.1433   -5.6530   13.4745 C   0  0  0  0  0  0  0  0  0  0  0  0
   -6.6329   -5.3640   14.5681 O   0  0  0  0  0  0  0  0  0  0  0  0
   -5.7836   -6.9546   13.2319 N   0  0  0  0  0  0  0  0  0  0  0  0
   -5.9466   -7.9786   14.1504 C   0  0  0  0  0  0  0  0  0  0  0  0
   -5.2471   -7.1380   11.9917 C   0  0  0  0  0  0  0  0  0  0  0  0
   -5.1011   -6.1059   11.1106 C   0  0  0  0  0  0  0  0  0  0  0  0
   -5.4643   -4.7664   11.3395 C   0  0  0  0  0  0  0  0  0  0  0  0
   -5.3548   -3.8036   10.5816 O   0  0  0  0  0  0  0  0  0  0  0  0
   -4.5313   -6.6603    9.9725 N   0  0  0  0  0  0  0  0  0  0  0  0
   -4.3720   -7.9781   10.2403 C   0  0  0  0  0  0  0  0  0  0  0  0
   -4.7824   -8.3218   11.4297 N   0  0  0  0  0  0  0  0  0  0  0  0
  1  2  1  0  0  0  0
  2  9  1  0  0  0  0
  2  3  1  0  0  0  0
  3  5  1  0  0  0  0
  3  4  2  0  0  0  0
  5  6  1  0  0  0  0
  5  7  1  0  0  0  0
  7  8  2  0  0  0  0
  7 13  1  0  0  0  0
  8  9  1  0  0  0  0
  8 11  1  0  0  0  0
  9 10  2  0  0  0  0
 11 12  1  0  0  0  0
 12 13  2  0  0  0  0
M  END
>  <CHROM.1>
-5.53856672,-6.01323977,12.15273083,-2.76299704,-1.14846187,2.67556732

>  <Name>
1eht cryst

>  <RI>
0

>  <Rbt.Current_Directory>
/home/itssahil/PROJECTS/Mol_Feturizer/New_Systems/rnas/1eht

>  <Rbt.Executable>
rbdock ($Id: //depot/dev/client3/rdock/2013.1/src/exe/rbdock.cxx#4 $)

>  <Rbt.Library>
libRbt.so (2013.1, Build901 2013/11/27)

>  <Rbt.Parameter_File>
/export/apps/rDock/src/rDock_2013.1_src/data/scripts/dock_solv.prm

>  <Rbt.Receptor>
prm/pocket_docking_5.prm

>  <SCORE>
-35.9812

>  <SCORE.INTER>
-35.9812

>  <SCORE.INTER.CONST>
1

>  <SCORE.INTER.POLAR>
-1.87995

>  <SCORE.INTER.ROT>
0

>  <SCORE.INTER.SOLV>
9.97819

>  <SCORE.INTER.VDW>
-24.647

>  <SCORE.INTER.norm>
-2.76778

>  <SCORE.INTRA>
0

>  <SCORE.INTRA.DIHEDRAL>
0

>  <SCORE.INTRA.DIHEDRAL.0>
0

>  <SCORE.INTRA.POLAR>
0

>  <SCORE.INTRA.POLAR.0>
0

>  <SCORE.INTRA.REPUL>
0

>  <SCORE.INTRA.REPUL.0>
0

>  <SCORE.INTRA.SOLV>
0

>  <SCORE.INTRA.SOLV.lig_0>
-12.9768

>  <SCORE.INTRA.VDW>
0

>  <SCORE.INTRA.VDW.0>
0

>  <SCORE.INTRA.norm>
0

>  <SCORE.RESTR>
0

>  <SCORE.RESTR.CAVITY>
0

>  <SCORE.RESTR.norm>
0

>  <SCORE.SYSTEM>
0

>  <SCORE.SYSTEM.CONST>
0

>  <SCORE.SYSTEM.DIHEDRAL>
0

>  <SCORE.SYSTEM.SOLV>
0

>  <SCORE.SYSTEM.norm>
0

>  <SCORE.heavy>
13

>  <SCORE.norm>
-2.76778

>  <RMSD>
3.394

$$$$
1eht cryst
 OpenBabel11021811383D
libRbt.so/2013.1/901 2013/11/27
 13 14  0  0  0  0  0  0  0  0999 V2000
   -6.4228   -3.3422   12.9530 C   0  0  0  0  0  0  0  0  0  0  0  0
   -6.0077   -4.6135   12.5671 N   0  0  0  0  0  0  0  0  0  0  0  0
   -6.1418   -5.6387   13.4675 C   0  0  0  0  0  0  0  0  0  0  0  0
   -6.6211   -5.3467   14.5649 O   0  0  0  0  0  0  0  0  0  0  0  0
   -5.7770   -6.9394   13.2280 N   0  0  0  0  0  0  0  0  0  0  0  0
   -5.9236   -7.9594   14.1537 C   0  0  0  0  0  0  0  0  0  0  0  0
   -5.2530   -7.1263   11.9830 C   0  0  0  0  0  0  0  0  0  0  0  0
   -5.1229   -6.0982   11.0948 C   0  0  0  0  0  0  0  0  0  0  0  0
   -5.4917   -4.7596   11.3204 C   0  0  0  0  0  0  0  0  0  0  0  0
   -5.3964   -3.8004   10.5562 O   0  0  0  0  0  0  0  0  0  0  0  0
   -4.5623   -6.6553    9.9534 N   0  0  0  0  0  0  0  0  0  0  0  0
   -4.3922   -7.9707   10.2265 C   0  0  0  0  0  0  0  0  0  0  0  0
   -4.7873   -8.3104   11.4222 N   0  0  0  0  0  0  0  0  0  0  0  0
  1  2  1  0  0  0  0
  2  9  1  0  0  0  0
  2  3  1  0  0  0  0
  3  5  1  0  0  0  0
  3  4  2  0  0  0  0
  5  6  1  0  0  0  0
  5  7  1  0  0  0  0
  7  8  2  0  0  0  0
  7 13  1  0  0  0  0
  8  9  1  0  0  0  0
  8 11  1  0  0  0  0
  9 10  2  0  0  0  0
 11 12  1  0  0  0  0
 12 13  2  0  0  0  0
M  END
>  <CHROM.1>
-5.54947153,-6.00249864,12.14114074,-2.78865453,-1.15544667,2.64672956

>  <Name>
1eht cryst

>  <RI>
0

>  <Rbt.Current_Directory>
/home/itssahil/PROJECTS/Mol_Feturizer/New_Systems/rnas/1eht

>  <Rbt.Executable>
rbdock ($Id: //depot/dev/client3/rdock/2013.1/src/exe/rbdock.cxx#4 $)

>  <Rbt.Library>
libRbt.so (2013.1, Build901 2013/11/27)

>  <Rbt.Parameter_File>
/export/apps/rDock/src/rDock_2013.1_src/data/scripts/dock_solv.prm

>  <Rbt.Receptor>
prm/pocket_docking_6.prm

>  <SCORE>
-35.9796

>  <SCORE.INTER>
-35.9796

>  <SCORE.INTER.CONST>
1

>  <SCORE.INTER.POLAR>
-1.8566

>  <SCORE.INTER.ROT>
0

>  <SCORE.INTER.SOLV>
10.0079

>  <SCORE.INTER.VDW>
-24.7337

>  <SCORE.INTER.norm>
-2.76766

>  <SCORE.INTRA>
0

>  <SCORE.INTRA.DIHEDRAL>
0

>  <SCORE.INTRA.DIHEDRAL.0>
0

>  <SCORE.INTRA.POLAR>
0

>  <SCORE.INTRA.POLAR.0>
0

>  <SCORE.INTRA.REPUL>
0

>  <SCORE.INTRA.REPUL.0>
0

>  <SCORE.INTRA.SOLV>
0

>  <SCORE.INTRA.SOLV.lig_0>
-12.9768

>  <SCORE.INTRA.VDW>
0

>  <SCORE.INTRA.VDW.0>
0

>  <SCORE.INTRA.norm>
0

>  <SCORE.RESTR>
0

>  <SCORE.RESTR.CAVITY>
0

>  <SCORE.RESTR.norm>
0

>  <SCORE.SYSTEM>
0

>  <SCORE.SYSTEM.CONST>
0

>  <SCORE.SYSTEM.DIHEDRAL>
0

>  <SCORE.SYSTEM.SOLV>
0

>  <SCORE.SYSTEM.norm>
0

>  <SCORE.heavy>
13

>  <SCORE.norm>
-2.76766

>  <RMSD>
3.394

$$$$
1eht cryst
 OpenBabel11021811383D
libRbt.so/2013.1/901 2013/11/27
 13 14  0  0  0  0  0  0  0  0999 V2000
   -6.4025   -3.3347   12.9562 C   0  0  0  0  0  0  0  0  0  0  0  0
   -5.9908   -4.6079   12.5730 N   0  0  0  0  0  0  0  0  0  0  0  0
   -6.1332   -5.6320   13.4733 C   0  0  0  0  0  0  0  0  0  0  0  0
   -6.6164   -5.3375   14.5683 O   0  0  0  0  0  0  0  0  0  0  0  0
   -5.7724   -6.9343   13.2362 N   0  0  0  0  0  0  0  0  0  0  0  0
   -5.9275   -7.9532   14.1618 C   0  0  0  0  0  0  0  0  0  0  0  0
   -5.2435   -7.1241   11.9937 C   0  0  0  0  0  0  0  0  0  0  0  0
   -5.1052   -6.0970   11.1056 C   0  0  0  0  0  0  0  0  0  0  0  0
   -5.4696   -4.7568   11.3288 C   0  0  0  0  0  0  0  0  0  0  0  0
   -5.3669   -3.7984   10.5645 O   0  0  0  0  0  0  0  0  0  0  0  0
   -4.5416   -6.6570    9.9672 N   0  0  0  0  0  0  0  0  0  0  0  0
   -4.3780   -7.9729   10.2417 C   0  0  0  0  0  0  0  0  0  0  0  0
   -4.7800   -8.3103   11.4358 N   0  0  0  0  0  0  0  0  0  0  0  0
  1  2  1  0  0  0  0
  2  9  1  0  0  0  0
  2  3  1  0  0  0  0
  3  5  1  0  0  0  0
  3  4  2  0  0  0  0
  5  6  1  0  0  0  0
  5  7  1  0  0  0  0
  7  8  2  0  0  0  0
  7 13  1  0  0  0  0
  8  9  1  0  0  0  0
  8 11  1  0  0  0  0
  9 10  2  0  0  0  0
 11 12  1  0  0  0  0
 12 13  2  0  0  0  0
M  END
>  <CHROM.1>
-5.53617915,-5.99897381,12.14991121,-2.77451130,-1.15325579,2.65909193

>  <Name>
1eht cryst

>  <RI>
0

>  <Rbt.Current_Directory>
/home/itssahil/PROJECTS/Mol_Feturizer/New_Systems/rnas/1eht

>  <Rbt.Executable>
rbdock ($Id: //depot/dev/client3/rdock/2013.1/src/exe/rbdock.cxx#4 $)

>  <Rbt.Library>
libRbt.so (2013.1, Build901 2013/11/27)

>  <Rbt.Parameter_File>
/export/apps/rDock/src/rDock_2013.1_src/data/scripts/dock_solv.prm

>  <Rbt.Receptor>
prm/pocket_docking_8.prm

>  <SCORE>
-36.0419

>  <SCORE.INTER>
-36.0419

>  <SCORE.INTER.CONST>
1

>  <SCORE.INTER.POLAR>
-1.86399

>  <SCORE.INTER.ROT>
0

>  <SCORE.INTER.SOLV>
10.0095

>  <SCORE.INTER.VDW>
-24.7511

>  <SCORE.INTER.norm>
-2.77245

>  <SCORE.INTRA>
0

>  <SCORE.INTRA.DIHEDRAL>
0

>  <SCORE.INTRA.DIHEDRAL.0>
0

>  <SCORE.INTRA.POLAR>
0

>  <SCORE.INTRA.POLAR.0>
0

>  <SCORE.INTRA.REPUL>
0

>  <SCORE.INTRA.REPUL.0>
0

>  <SCORE.INTRA.SOLV>
0

>  <SCORE.INTRA.SOLV.lig_0>
-12.9768

>  <SCORE.INTRA.VDW>
0

>  <SCORE.INTRA.VDW.0>
0

>  <SCORE.INTRA.norm>
0

>  <SCORE.RESTR>
0

>  <SCORE.RESTR.CAVITY>
0

>  <SCORE.RESTR.norm>
0

>  <SCORE.SYSTEM>
0

>  <SCORE.SYSTEM.CONST>
0

>  <SCORE.SYSTEM.DIHEDRAL>
0

>  <SCORE.SYSTEM.SOLV>
0

>  <SCORE.SYSTEM.norm>
0

>  <SCORE.heavy>
13

>  <SCORE.norm>
-2.77245

>  <RMSD>
3.394

$$$$
1eht cryst
 OpenBabel11021811383D
libRbt.so/2013.1/901 2013/11/27
 13 14  0  0  0  0  0  0  0  0999 V2000
   -6.0534   -3.8373   11.9532 C   0  0  0  0  0  0  0  0  0  0  0  0
   -5.9493   -5.1270   12.4662 N   0  0  0  0  0  0  0  0  0  0  0  0
   -5.4544   -6.1102   11.6489 C   0  0  0  0  0  0  0  0  0  0  0  0
   -5.1421   -5.7691   10.5064 O   0  0  0  0  0  0  0  0  0  0  0  0
   -5.2956   -7.4226   12.0161 N   0  0  0  0  0  0  0  0  0  0  0  0
   -4.7915   -8.3988   11.1724 C   0  0  0  0  0  0  0  0  0  0  0  0
   -5.6862   -7.6691   13.2991 C   0  0  0  0  0  0  0  0  0  0  0  0
   -6.1787   -6.6828   14.1039 C   0  0  0  0  0  0  0  0  0  0  0  0
   -6.3480   -5.3327   13.7471 C   0  0  0  0  0  0  0  0  0  0  0  0
   -6.7847   -4.4091   14.4323 O   0  0  0  0  0  0  0  0  0  0  0  0
   -6.4652   -7.2945   15.3167 N   0  0  0  0  0  0  0  0  0  0  0  0
   -6.1303   -8.5977   15.1645 C   0  0  0  0  0  0  0  0  0  0  0  0
   -5.6587   -8.8801   13.9817 N   0  0  0  0  0  0  0  0  0  0  0  0
  1  2  1  0  0  0  0
  2  9  1  0  0  0  0
  2  3  1  0  0  0  0
  3  5  1  0  0  0  0
  3  4  2  0  0  0  0
  5  6  1  0  0  0  0
  5  7  1  0  0  0  0
  7  8  2  0  0  0  0
  7 13  1  0  0  0  0
  8  9  1  0  0  0  0
  8 11  1  0  0  0  0
  9 10  2  0  0  0  0
 11 12  1  0  0  0  0
 12 13  2  0  0  0  0
M  END
>  <CHROM.1>
-5.83994629,-6.53742146,13.03144772,1.38447904,1.18371233,-0.56192270

>  <Name>
1eht cryst

>  <RI>
0

>  <Rbt.Current_Directory>
/home/itssahil/PROJECTS/Mol_Feturizer/New_Systems/rnas/1eht

>  <Rbt.Executable>
rbdock ($Id: //depot/dev/client3/rdock/2013.1/src/exe/rbdock.cxx#4 $)

>  <Rbt.Library>
libRbt.so (2013.1, Build901 2013/11/27)

>  <Rbt.Parameter_File>
/export/apps/rDock/src/rDock_2013.1_src/data/scripts/dock_solv.prm

>  <Rbt.Receptor>
prm/pocket_docking_5.prm

>  <SCORE>
-39.0595

>  <SCORE.INTER>
-39.0595

>  <SCORE.INTER.CONST>
1

>  <SCORE.INTER.POLAR>
-2.14425

>  <SCORE.INTER.ROT>
0

>  <SCORE.INTER.SOLV>
9.87376

>  <SCORE.INTER.VDW>
-25.7834

>  <SCORE.INTER.norm>
-3.00458

>  <SCORE.INTRA>
0

>  <SCORE.INTRA.DIHEDRAL>
0

>  <SCORE.INTRA.DIHEDRAL.0>
0

>  <SCORE.INTRA.POLAR>
0

>  <SCORE.INTRA.POLAR.0>
0

>  <SCORE.INTRA.REPUL>
0

>  <SCORE.INTRA.REPUL.0>
0

>  <SCORE.INTRA.SOLV>
0

>  <SCORE.INTRA.SOLV.lig_0>
-12.9768

>  <SCORE.INTRA.VDW>
0

>  <SCORE.INTRA.VDW.0>
0

>  <SCORE.INTRA.norm>
0

>  <SCORE.RESTR>
0

>  <SCORE.RESTR.CAVITY>
0

>  <SCORE.RESTR.norm>
0

>  <SCORE.SYSTEM>
0

>  <SCORE.SYSTEM.CONST>
0

>  <SCORE.SYSTEM.DIHEDRAL>
0

>  <SCORE.SYSTEM.SOLV>
0

>  <SCORE.SYSTEM.norm>
0

>  <SCORE.heavy>
13

>  <SCORE.norm>
-3.00458

>  <RMSD>
3.396

$$$$
1eht cryst
 OpenBabel11021811383D
libRbt.so/2013.1/901 2013/11/27
 13 14  0  0  0  0  0  0  0  0999 V2000
   -6.0522   -3.8260   11.9574 C   0  0  0  0  0  0  0  0  0  0  0  0
   -5.9487   -5.1174   12.4664 N   0  0  0  0  0  0  0  0  0  0  0  0
   -5.4526   -6.0979   11.6467 C   0  0  0  0  0  0  0  0  0  0  0  0
   -5.1386   -5.7531   10.5057 O   0  0  0  0  0  0  0  0  0  0  0  0
   -5.2942   -7.4114   12.0099 N   0  0  0  0  0  0  0  0  0  0  0  0
   -4.7888   -8.3849   11.1638 C   0  0  0  0  0  0  0  0  0  0  0  0
   -5.6867   -7.6621   13.2916 C   0  0  0  0  0  0  0  0  0  0  0  0
   -6.1804   -6.6785   14.0987 C   0  0  0  0  0  0  0  0  0  0  0  0
   -6.3493   -5.3272   13.7460 C   0  0  0  0  0  0  0  0  0  0  0  0
   -6.7870   -4.4059   14.4336 O   0  0  0  0  0  0  0  0  0  0  0  0
   -6.4686   -7.2941   15.3092 N   0  0  0  0  0  0  0  0  0  0  0  0
   -6.1334   -8.5967   15.1533 C   0  0  0  0  0  0  0  0  0  0  0  0
   -5.6601   -8.8753   13.9703 N   0  0  0  0  0  0  0  0  0  0  0  0
  1  2  1  0  0  0  0
  2  9  1  0  0  0  0
  2  3  1  0  0  0  0
  3  5  1  0  0  0  0
  3  4  2  0  0  0  0
  5  6  1  0  0  0  0
  5  7  1  0  0  0  0
  7  8  2  0  0  0  0
  7 13  1  0  0  0  0
  8  9  1  0  0  0  0
  8 11  1  0  0  0  0
  9 10  2  0  0  0  0
 11 12  1  0  0  0  0
 12 13  2  0  0  0  0
M  END
>  <CHROM.1>
-5.84011186,-6.52959253,13.02727569,1.38256758,1.18245065,-0.55693493

>  <Name>
1eht cryst

>  <RI>
0

>  <Rbt.Current_Directory>
/home/itssahil/PROJECTS/Mol_Feturizer/New_Systems/rnas/1eht

>  <Rbt.Executable>
rbdock ($Id: //depot/dev/client3/rdock/2013.1/src/exe/rbdock.cxx#4 $)

>  <Rbt.Library>
libRbt.so (2013.1, Build901 2013/11/27)

>  <Rbt.Parameter_File>
/export/apps/rDock/src/rDock_2013.1_src/data/scripts/dock_solv.prm

>  <Rbt.Receptor>
prm/pocket_docking_4.prm

>  <SCORE>
-39.0626

>  <SCORE.INTER>
-39.0626

>  <SCORE.INTER.CONST>
1

>  <SCORE.INTER.POLAR>
-2.14309

>  <SCORE.INTER.ROT>
0

>  <SCORE.INTER.SOLV>
9.88354

>  <SCORE.INTER.VDW>
-25.7926

>  <SCORE.INTER.norm>
-3.00481

>  <SCORE.INTRA>
0

>  <SCORE.INTRA.DIHEDRAL>
0

>  <SCORE.INTRA.DIHEDRAL.0>
0

>  <SCORE.INTRA.POLAR>
0

>  <SCORE.INTRA.POLAR.0>
0

>  <SCORE.INTRA.REPUL>
0

>  <SCORE.INTRA.REPUL.0>
0

>  <SCORE.INTRA.SOLV>
0

>  <SCORE.INTRA.SOLV.lig_0>
-12.9768

>  <SCORE.INTRA.VDW>
0

>  <SCORE.INTRA.VDW.0>
0

>  <SCORE.INTRA.norm>
0

>  <SCORE.RESTR>
0

>  <SCORE.RESTR.CAVITY>
0

>  <SCORE.RESTR.norm>
0

>  <SCORE.SYSTEM>
0

>  <SCORE.SYSTEM.CONST>
0

>  <SCORE.SYSTEM.DIHEDRAL>
0

>  <SCORE.SYSTEM.SOLV>
0

>  <SCORE.SYSTEM.norm>
0

>  <SCORE.heavy>
13

>  <SCORE.norm>
-3.00481

>  <RMSD>
3.398

$$$$
1eht cryst
 OpenBabel11021811383D
libRbt.so/2013.1/901 2013/11/27
 13 14  0  0  0  0  0  0  0  0999 V2000
   -6.0856   -3.7333   11.9485 C   0  0  0  0  0  0  0  0  0  0  0  0
   -5.9613   -5.0288   12.4423 N   0  0  0  0  0  0  0  0  0  0  0  0
   -5.4394   -5.9891   11.6146 C   0  0  0  0  0  0  0  0  0  0  0  0
   -5.1229   -5.6239   10.4807 O   0  0  0  0  0  0  0  0  0  0  0  0
   -5.2585   -7.3038   11.9627 N   0  0  0  0  0  0  0  0  0  0  0  0
   -4.7274   -8.2565   11.1089 C   0  0  0  0  0  0  0  0  0  0  0  0
   -5.6566   -7.5782   13.2378 C   0  0  0  0  0  0  0  0  0  0  0  0
   -6.1759   -6.6146   14.0530 C   0  0  0  0  0  0  0  0  0  0  0  0
   -6.3681   -5.2625   13.7158 C   0  0  0  0  0  0  0  0  0  0  0  0
   -6.8293   -4.3585   14.4110 O   0  0  0  0  0  0  0  0  0  0  0  0
   -6.4620   -7.2508   15.2532 N   0  0  0  0  0  0  0  0  0  0  0  0
   -6.1002   -8.5447   15.0839 C   0  0  0  0  0  0  0  0  0  0  0  0
   -5.6119   -8.7991   13.9015 N   0  0  0  0  0  0  0  0  0  0  0  0
  1  2  1  0  0  0  0
  2  9  1  0  0  0  0
  2  3  1  0  0  0  0
  3  5  1  0  0  0  0
  3  4  2  0  0  0  0
  5  6  1  0  0  0  0
  5  7  1  0  0  0  0
  7  8  2  0  0  0  0
  7 13  1  0  0  0  0
  8  9  1  0  0  0  0
  8 11  1  0  0  0  0
  9 10  2  0  0  0  0
 11 12  1  0  0  0  0
 12 13  2  0  0  0  0
M  END
>  <CHROM.1>
-5.82977498,-6.44560177,12.98637858,1.41343429,1.16504677,-0.57285537

>  <Name>
1eht cryst

>  <RI>
0

>  <Rbt.Current_Directory>
/home/itssahil/PROJECTS/Mol_Feturizer/New_Systems/rnas/1eht

>  <Rbt.Executable>
rbdock ($Id: //depot/dev/client3/rdock/2013.1/src/exe/rbdock.cxx#4 $)

>  <Rbt.Library>
libRbt.so (2013.1, Build901 2013/11/27)

>  <Rbt.Parameter_File>
/export/apps/rDock/src/rDock_2013.1_src/data/scripts/dock_solv.prm

>  <Rbt.Receptor>
prm/pocket_docking_5.prm

>  <SCORE>
-39.0463

>  <SCORE.INTER>
-39.0463

>  <SCORE.INTER.CONST>
1

>  <SCORE.INTER.POLAR>
-2.14031

>  <SCORE.INTER.ROT>
0

>  <SCORE.INTER.SOLV>
9.95659

>  <SCORE.INTER.VDW>
-25.8154

>  <SCORE.INTER.norm>
-3.00356

>  <SCORE.INTRA>
0

>  <SCORE.INTRA.DIHEDRAL>
0

>  <SCORE.INTRA.DIHEDRAL.0>
0

>  <SCORE.INTRA.POLAR>
0

>  <SCORE.INTRA.POLAR.0>
0

>  <SCORE.INTRA.REPUL>
0

>  <SCORE.INTRA.REPUL.0>
0

>  <SCORE.INTRA.SOLV>
0

>  <SCORE.INTRA.SOLV.lig_0>
-12.9768

>  <SCORE.INTRA.VDW>
0

>  <SCORE.INTRA.VDW.0>
0

>  <SCORE.INTRA.norm>
0

>  <SCORE.RESTR>
0

>  <SCORE.RESTR.CAVITY>
0

>  <SCORE.RESTR.norm>
0

>  <SCORE.SYSTEM>
0

>  <SCORE.SYSTEM.CONST>
0

>  <SCORE.SYSTEM.DIHEDRAL>
0

>  <SCORE.SYSTEM.SOLV>
0

>  <SCORE.SYSTEM.norm>
0

>  <SCORE.heavy>
13

>  <SCORE.norm>
-3.00356

>  <RMSD>
3.400

$$$$
1eht cryst
 OpenBabel11021811383D
libRbt.so/2013.1/901 2013/11/27
 13 14  0  0  0  0  0  0  0  0999 V2000
   -6.0464   -3.8237   11.9638 C   0  0  0  0  0  0  0  0  0  0  0  0
   -5.9515   -5.1172   12.4690 N   0  0  0  0  0  0  0  0  0  0  0  0
   -5.4479   -6.0956   11.6511 C   0  0  0  0  0  0  0  0  0  0  0  0
   -5.1200   -5.7470   10.5153 O   0  0  0  0  0  0  0  0  0  0  0  0
   -5.2963   -7.4109   12.0110 N   0  0  0  0  0  0  0  0  0  0  0  0
   -4.7832   -8.3820   11.1669 C   0  0  0  0  0  0  0  0  0  0  0  0
   -5.7042   -7.6657   13.2870 C   0  0  0  0  0  0  0  0  0  0  0  0
   -6.2052   -6.6843   14.0923 C   0  0  0  0  0  0  0  0  0  0  0  0
   -6.3673   -5.3313   13.7430 C   0  0  0  0  0  0  0  0  0  0  0  0
   -6.8110   -4.4118   14.4291 O   0  0  0  0  0  0  0  0  0  0  0  0
   -6.5086   -7.3040   15.2969 N   0  0  0  0  0  0  0  0  0  0  0  0
   -6.1743   -8.6068   15.1397 C   0  0  0  0  0  0  0  0  0  0  0  0
   -5.6878   -8.8817   13.9612 N   0  0  0  0  0  0  0  0  0  0  0  0
  1  2  1  0  0  0  0
  2  9  1  0  0  0  0
  2  3  1  0  0  0  0
  3  5  1  0  0  0  0
  3  4  2  0  0  0  0
  5  6  1  0  0  0  0
  5  7  1  0  0  0  0
  7  8  2  0  0  0  0
  7 13  1  0  0  0  0
  8  9  1  0  0  0  0
  8 11  1  0  0  0  0
  9 10  2  0  0  0  0
 11 12  1  0  0  0  0
 12 13  2  0  0  0  0
M  END
>  <CHROM.1>
-5.85219610,-6.53189036,13.02542929,1.36233077,1.17361471,-0.53429510

>  <Name>
1eht cryst

>  <RI>
0

>  <Rbt.Current_Directory>
/home/itssahil/PROJECTS/Mol_Feturizer/New_Systems/rnas/1eht

>  <Rbt.Executable>
rbdock ($Id: //depot/dev/client3/rdock/2013.1/src/exe/rbdock.cxx#4 $)

>  <Rbt.Library>
libRbt.so (2013.1, Build901 2013/11/27)

>  <Rbt.Parameter_File>
/export/apps/rDock/src/rDock_2013.1_src/data/scripts/dock_solv.prm

>  <Rbt.Receptor>
prm/blind_docking_60.prm

>  <SCORE>
-39.0461

>  <SCORE.INTER>
-39.0461

>  <SCORE.INTER.CONST>
1

>  <SCORE.INTER.POLAR>
-2.15464

>  <SCORE.INTER.ROT>
0

>  <SCORE.INTER.SOLV>
9.91508

>  <SCORE.INTER.VDW>
-25.7536

>  <SCORE.INTER.norm>
-3.00355

>  <SCORE.INTRA>
0

>  <SCORE.INTRA.DIHEDRAL>
0

>  <SCORE.INTRA.DIHEDRAL.0>
0

>  <SCORE.INTRA.POLAR>
0

>  <SCORE.INTRA.POLAR.0>
0

>  <SCORE.INTRA.REPUL>
0

>  <SCORE.INTRA.REPUL.0>
0

>  <SCORE.INTRA.SOLV>
0

>  <SCORE.INTRA.SOLV.lig_0>
-12.9768

>  <SCORE.INTRA.VDW>
0

>  <SCORE.INTRA.VDW.0>
0

>  <SCORE.INTRA.norm>
0

>  <SCORE.RESTR>
0

>  <SCORE.RESTR.CAVITY>
0

>  <SCORE.RESTR.norm>
0

>  <SCORE.SYSTEM>
0

>  <SCORE.SYSTEM.CONST>
0

>  <SCORE.SYSTEM.DIHEDRAL>
0

>  <SCORE.SYSTEM.SOLV>
0

>  <SCORE.SYSTEM.norm>
0

>  <SCORE.heavy>
13

>  <SCORE.norm>
-3.00355

>  <RMSD>
3.401

$$$$
1eht cryst
 OpenBabel11021811383D
libRbt.so/2013.1/901 2013/11/27
 13 14  0  0  0  0  0  0  0  0999 V2000
   -6.1151   -3.6991   11.9722 C   0  0  0  0  0  0  0  0  0  0  0  0
   -5.9853   -4.9937   12.4667 N   0  0  0  0  0  0  0  0  0  0  0  0
   -5.4797   -5.9570   11.6323 C   0  0  0  0  0  0  0  0  0  0  0  0
   -5.1816   -5.5950   10.4925 O   0  0  0  0  0  0  0  0  0  0  0  0
   -5.2958   -7.2714   11.9802 N   0  0  0  0  0  0  0  0  0  0  0  0
   -4.7814   -8.2271   11.1196 C   0  0  0  0  0  0  0  0  0  0  0  0
   -5.6729   -7.5421   13.2625 C   0  0  0  0  0  0  0  0  0  0  0  0
   -6.1762   -6.5756   14.0842 C   0  0  0  0  0  0  0  0  0  0  0  0
   -6.3711   -5.2238   13.7473 C   0  0  0  0  0  0  0  0  0  0  0  0
   -6.8184   -4.3173   14.4484 O   0  0  0  0  0  0  0  0  0  0  0  0
   -6.4434   -7.2087   15.2905 N   0  0  0  0  0  0  0  0  0  0  0  0
   -6.0874   -8.5037   15.1179 C   0  0  0  0  0  0  0  0  0  0  0  0
   -5.6197   -8.7618   13.9280 N   0  0  0  0  0  0  0  0  0  0  0  0
  1  2  1  0  0  0  0
  2  9  1  0  0  0  0
  2  3  1  0  0  0  0
  3  5  1  0  0  0  0
  3  4  2  0  0  0  0
  5  6  1  0  0  0  0
  5  7  1  0  0  0  0
  7  8  2  0  0  0  0
  7 13  1  0  0  0  0
  8  9  1  0  0  0  0
  8 11  1  0  0  0  0
  9 10  2  0  0  0  0
 11 12  1  0  0  0  0
 12 13  2  0  0  0  0
M  END
>  <CHROM.1>
-5.84781495,-6.40969550,13.01152880,1.43263039,1.18040404,-0.59270411

>  <Name>
1eht cryst

>  <RI>
0

>  <Rbt.Current_Directory>
/home/itssahil/PROJECTS/Mol_Feturizer/New_Systems/rnas/1eht

>  <Rbt.Executable>
rbdock ($Id: //depot/dev/client3/rdock/2013.1/src/exe/rbdock.cxx#4 $)

>  <Rbt.Library>
libRbt.so (2013.1, Build901 2013/11/27)

>  <Rbt.Parameter_File>
/export/apps/rDock/src/rDock_2013.1_src/data/scripts/dock_solv.prm

>  <Rbt.Receptor>
prm/pocket_docking_6.prm

>  <SCORE>
-39.0869

>  <SCORE.INTER>
-39.0869

>  <SCORE.INTER.CONST>
1

>  <SCORE.INTER.POLAR>
-2.10643

>  <SCORE.INTER.ROT>
0

>  <SCORE.INTER.SOLV>
10.0064

>  <SCORE.INTER.VDW>
-25.972

>  <SCORE.INTER.norm>
-3.00668

>  <SCORE.INTRA>
0

>  <SCORE.INTRA.DIHEDRAL>
0

>  <SCORE.INTRA.DIHEDRAL.0>
0

>  <SCORE.INTRA.POLAR>
0

>  <SCORE.INTRA.POLAR.0>
0

>  <SCORE.INTRA.REPUL>
0

>  <SCORE.INTRA.REPUL.0>
0

>  <SCORE.INTRA.SOLV>
0

>  <SCORE.INTRA.SOLV.lig_0>
-12.9768

>  <SCORE.INTRA.VDW>
0

>  <SCORE.INTRA.VDW.0>
0

>  <SCORE.INTRA.norm>
0

>  <SCORE.RESTR>
0

>  <SCORE.RESTR.CAVITY>
0

>  <SCORE.RESTR.norm>
0

>  <SCORE.SYSTEM>
0

>  <SCORE.SYSTEM.CONST>
0

>  <SCORE.SYSTEM.DIHEDRAL>
0

>  <SCORE.SYSTEM.SOLV>
0

>  <SCORE.SYSTEM.norm>
0

>  <SCORE.heavy>
13

>  <SCORE.norm>
-3.00668

>  <RMSD>
3.401

$$$$
1eht cryst
 OpenBabel11021811383D
libRbt.so/2013.1/901 2013/11/27
 13 14  0  0  0  0  0  0  0  0999 V2000
   -6.0906   -3.7041   11.9618 C   0  0  0  0  0  0  0  0  0  0  0  0
   -5.9668   -5.0018   12.4497 N   0  0  0  0  0  0  0  0  0  0  0  0
   -5.4573   -5.9613   11.6135 C   0  0  0  0  0  0  0  0  0  0  0  0
   -5.1506   -5.5934   10.4778 O   0  0  0  0  0  0  0  0  0  0  0  0
   -5.2784   -7.2780   11.9551 N   0  0  0  0  0  0  0  0  0  0  0  0
   -4.7599   -8.2299   11.0926 C   0  0  0  0  0  0  0  0  0  0  0  0
   -5.6649   -7.5552   13.2332 C   0  0  0  0  0  0  0  0  0  0  0  0
   -6.1720   -6.5924   14.0569 C   0  0  0  0  0  0  0  0  0  0  0  0
   -6.3619   -5.2383   13.7264 C   0  0  0  0  0  0  0  0  0  0  0  0
   -6.8122   -4.3349   14.4294 O   0  0  0  0  0  0  0  0  0  0  0  0
   -6.4487   -7.2317   15.2577 N   0  0  0  0  0  0  0  0  0  0  0  0
   -6.0941   -8.5265   15.0802 C   0  0  0  0  0  0  0  0  0  0  0  0
   -5.6188   -8.7787   13.8921 N   0  0  0  0  0  0  0  0  0  0  0  0
  1  2  1  0  0  0  0
  2  9  1  0  0  0  0
  2  3  1  0  0  0  0
  3  5  1  0  0  0  0
  3  4  2  0  0  0  0
  5  6  1  0  0  0  0
  5  7  1  0  0  0  0
  7  8  2  0  0  0  0
  7 13  1  0  0  0  0
  8  9  1  0  0  0  0
  8 11  1  0  0  0  0
  9 10  2  0  0  0  0
 11 12  1  0  0  0  0
 12 13  2  0  0  0  0
M  END
>  <CHROM.1>
-5.83582973,-6.42107447,12.98746285,1.41831027,1.17572285,-0.57379893

>  <Name>
1eht cryst

>  <RI>
0

>  <Rbt.Current_Directory>
/home/itssahil/PROJECTS/Mol_Feturizer/New_Systems/rnas/1eht

>  <Rbt.Executable>
rbdock ($Id: //depot/dev/client3/rdock/2013.1/src/exe/rbdock.cxx#4 $)

>  <Rbt.Library>
libRbt.so (2013.1, Build901 2013/11/27)

>  <Rbt.Parameter_File>
/export/apps/rDock/src/rDock_2013.1_src/data/scripts/dock_solv.prm

>  <Rbt.Receptor>
prm/blind_docking_60.prm

>  <SCORE>
-39.072

>  <SCORE.INTER>
-39.072

>  <SCORE.INTER.CONST>
1

>  <SCORE.INTER.POLAR>
-2.11876

>  <SCORE.INTER.ROT>
0

>  <SCORE.INTER.SOLV>
9.97611

>  <SCORE.INTER.VDW>
-25.9108

>  <SCORE.INTER.norm>
-3.00554

>  <SCORE.INTRA>
0

>  <SCORE.INTRA.DIHEDRAL>
0

>  <SCORE.INTRA.DIHEDRAL.0>
0

>  <SCORE.INTRA.POLAR>
0

>  <SCORE.INTRA.POLAR.0>
0

>  <SCORE.INTRA.REPUL>
0

>  <SCORE.INTRA.REPUL.0>
0

>  <SCORE.INTRA.SOLV>
0

>  <SCORE.INTRA.SOLV.lig_0>
-12.9768

>  <SCORE.INTRA.VDW>
0

>  <SCORE.INTRA.VDW.0>
0

>  <SCORE.INTRA.norm>
0

>  <SCORE.RESTR>
0

>  <SCORE.RESTR.CAVITY>
0

>  <SCORE.RESTR.norm>
0

>  <SCORE.SYSTEM>
0

>  <SCORE.SYSTEM.CONST>
0

>  <SCORE.SYSTEM.DIHEDRAL>
0

>  <SCORE.SYSTEM.SOLV>
0

>  <SCORE.SYSTEM.norm>
0

>  <SCORE.heavy>
13

>  <SCORE.norm>
-3.00554

>  <RMSD>
3.402

$$$$
1eht cryst
 OpenBabel11021811383D
libRbt.so/2013.1/901 2013/11/27
 13 14  0  0  0  0  0  0  0  0999 V2000
   -6.1043   -3.7198   11.9506 C   0  0  0  0  0  0  0  0  0  0  0  0
   -5.9780   -5.0173   12.4387 N   0  0  0  0  0  0  0  0  0  0  0  0
   -5.4872   -5.9806   11.5956 C   0  0  0  0  0  0  0  0  0  0  0  0
   -5.1982   -5.6160   10.4542 O   0  0  0  0  0  0  0  0  0  0  0  0
   -5.3085   -7.2975   11.9365 N   0  0  0  0  0  0  0  0  0  0  0  0
   -4.8090   -8.2532   11.0670 C   0  0  0  0  0  0  0  0  0  0  0  0
   -5.6743   -7.5707   13.2214 C   0  0  0  0  0  0  0  0  0  0  0  0
   -6.1630   -6.6042   14.0519 C   0  0  0  0  0  0  0  0  0  0  0  0
   -6.3524   -5.2499   13.7223 C   0  0  0  0  0  0  0  0  0  0  0  0
   -6.7866   -4.3432   14.4313 O   0  0  0  0  0  0  0  0  0  0  0  0
   -6.4221   -7.2402   15.2584 N   0  0  0  0  0  0  0  0  0  0  0  0
   -6.0764   -8.5369   15.0772 C   0  0  0  0  0  0  0  0  0  0  0  0
   -5.6225   -8.7933   13.8816 N   0  0  0  0  0  0  0  0  0  0  0  0
  1  2  1  0  0  0  0
  2  9  1  0  0  0  0
  2  3  1  0  0  0  0
  3  5  1  0  0  0  0
  3  4  2  0  0  0  0
  5  6  1  0  0  0  0
  5  7  1  0  0  0  0
  7  8  2  0  0  0  0
  7 13  1  0  0  0  0
  8  9  1  0  0  0  0
  8 11  1  0  0  0  0
  9 10  2  0  0  0  0
 11 12  1  0  0  0  0
 12 13  2  0  0  0  0
M  END
>  <CHROM.1>
-5.84433415,-6.43624222,12.97662940,1.43308784,1.19244571,-0.58923118

>  <Name>
1eht cryst

>  <RI>
224

>  <Rbt.Current_Directory>
/home/itssahil/PROJECTS/Mol_Feturizer/New_Systems/rnas/1eht

>  <Rbt.Executable>
rbdock ($Id: //depot/dev/client3/rdock/2013.1/src/exe/rbdock.cxx#4 $)

>  <Rbt.Library>
libRbt.so (2013.1, Build901 2013/11/27)

>  <Rbt.Parameter_File>
/export/apps/rDock/src/rDock_2013.1_src/data/scripts/dock_solv.prm

>  <Rbt.Receptor>
prm/pocket_docking_7.prm

>  <SCORE>
-39.0913

>  <SCORE.INTER>
-39.0913

>  <SCORE.INTER.CONST>
1

>  <SCORE.INTER.POLAR>
-2.11469

>  <SCORE.INTER.ROT>
0

>  <SCORE.INTER.SOLV>
9.90597

>  <SCORE.INTER.VDW>
-25.9139

>  <SCORE.INTER.norm>
-3.00702

>  <SCORE.INTRA>
0

>  <SCORE.INTRA.DIHEDRAL>
0

>  <SCORE.INTRA.DIHEDRAL.0>
0

>  <SCORE.INTRA.POLAR>
0

>  <SCORE.INTRA.POLAR.0>
0

>  <SCORE.INTRA.REPUL>
0

>  <SCORE.INTRA.REPUL.0>
0

>  <SCORE.INTRA.SOLV>
0

>  <SCORE.INTRA.SOLV.lig_0>
-12.9768

>  <SCORE.INTRA.VDW>
0

>  <SCORE.INTRA.VDW.0>
0

>  <SCORE.INTRA.norm>
0

>  <SCORE.RESTR>
0

>  <SCORE.RESTR.CAVITY>
0

>  <SCORE.RESTR.norm>
0

>  <SCORE.SYSTEM>
0

>  <SCORE.SYSTEM.CONST>
0

>  <SCORE.SYSTEM.DIHEDRAL>
0

>  <SCORE.SYSTEM.SOLV>
0

>  <SCORE.SYSTEM.norm>
0

>  <SCORE.heavy>
13

>  <SCORE.norm>
-3.00702

>  <RMSD>
3.402

$$$$
1eht cryst
 OpenBabel11021811383D
libRbt.so/2013.1/901 2013/11/27
 13 14  0  0  0  0  0  0  0  0999 V2000
   -6.1027   -3.7196   11.9587 C   0  0  0  0  0  0  0  0  0  0  0  0
   -5.9769   -5.0175   12.4458 N   0  0  0  0  0  0  0  0  0  0  0  0
   -5.4846   -5.9799   11.6025 C   0  0  0  0  0  0  0  0  0  0  0  0
   -5.1940   -5.6142   10.4619 O   0  0  0  0  0  0  0  0  0  0  0  0
   -5.3061   -7.2970   11.9425 N   0  0  0  0  0  0  0  0  0  0  0  0
   -4.8051   -8.2518   11.0728 C   0  0  0  0  0  0  0  0  0  0  0  0
   -5.6737   -7.5716   13.2266 C   0  0  0  0  0  0  0  0  0  0  0  0
   -6.1638   -6.6059   14.0573 C   0  0  0  0  0  0  0  0  0  0  0  0
   -6.3530   -5.2513   13.7286 C   0  0  0  0  0  0  0  0  0  0  0  0
   -6.7885   -4.3454   14.4378 O   0  0  0  0  0  0  0  0  0  0  0  0
   -6.4245   -7.2431   15.2628 N   0  0  0  0  0  0  0  0  0  0  0  0
   -6.0783   -8.5395   15.0810 C   0  0  0  0  0  0  0  0  0  0  0  0
   -5.6225   -8.7947   13.8858 N   0  0  0  0  0  0  0  0  0  0  0  0
  1  2  1  0  0  0  0
  2  9  1  0  0  0  0
  2  3  1  0  0  0  0
  3  5  1  0  0  0  0
  3  4  2  0  0  0  0
  5  6  1  0  0  0  0
  5  7  1  0  0  0  0
  7  8  2  0  0  0  0
  7 13  1  0  0  0  0
  8  9  1  0  0  0  0
  8 11  1  0  0  0  0
  9 10  2  0  0  0  0
 11 12  1  0  0  0  0
 12 13  2  0  0  0  0
M  END
>  <CHROM.1>
-5.84363516,-6.43689563,12.98264560,1.43146695,1.19110081,-0.58681017

>  <Name>
1eht cryst

>  <RI>
224

>  <Rbt.Current_Directory>
/home/itssahil/PROJECTS/Mol_Feturizer/New_Systems/rnas/1eht

>  <Rbt.Executable>
rbdock ($Id: //depot/dev/client3/rdock/2013.1/src/exe/rbdock.cxx#4 $)

>  <Rbt.Library>
libRbt.so (2013.1, Build901 2013/11/27)

>  <Rbt.Parameter_File>
/export/apps/rDock/src/rDock_2013.1_src/data/scripts/dock_solv.prm

>  <Rbt.Receptor>
prm/pocket_docking_7.prm

>  <SCORE>
-39.1016

>  <SCORE.INTER>
-39.1016

>  <SCORE.INTER.CONST>
1

>  <SCORE.INTER.POLAR>
-2.1143

>  <SCORE.INTER.ROT>
0

>  <SCORE.INTER.SOLV>
9.91382

>  <SCORE.INTER.VDW>
-25.9247

>  <SCORE.INTER.norm>
-3.00782

>  <SCORE.INTRA>
0

>  <SCORE.INTRA.DIHEDRAL>
0

>  <SCORE.INTRA.DIHEDRAL.0>
0

>  <SCORE.INTRA.POLAR>
0

>  <SCORE.INTRA.POLAR.0>
0

>  <SCORE.INTRA.REPUL>
0

>  <SCORE.INTRA.REPUL.0>
0

>  <SCORE.INTRA.SOLV>
0

>  <SCORE.INTRA.SOLV.lig_0>
-12.9768

>  <SCORE.INTRA.VDW>
0

>  <SCORE.INTRA.VDW.0>
0

>  <SCORE.INTRA.norm>
0

>  <SCORE.RESTR>
0

>  <SCORE.RESTR.CAVITY>
0

>  <SCORE.RESTR.norm>
0

>  <SCORE.SYSTEM>
0

>  <SCORE.SYSTEM.CONST>
0

>  <SCORE.SYSTEM.DIHEDRAL>
0

>  <SCORE.SYSTEM.SOLV>
0

>  <SCORE.SYSTEM.norm>
0

>  <SCORE.heavy>
13

>  <SCORE.norm>
-3.00782

>  <RMSD>
3.405

$$$$
1eht cryst
 OpenBabel11021811383D
libRbt.so/2013.1/901 2013/11/27
 13 14  0  0  0  0  0  0  0  0999 V2000
   -6.1399   -3.7143   11.9283 C   0  0  0  0  0  0  0  0  0  0  0  0
   -5.9856   -5.0100   12.4128 N   0  0  0  0  0  0  0  0  0  0  0  0
   -5.4767   -5.9607   11.5661 C   0  0  0  0  0  0  0  0  0  0  0  0
   -5.1978   -5.5874   10.4251 O   0  0  0  0  0  0  0  0  0  0  0  0
   -5.2698   -7.2745   11.9033 N   0  0  0  0  0  0  0  0  0  0  0  0
   -4.7525   -8.2174   11.0303 C   0  0  0  0  0  0  0  0  0  0  0  0
   -5.6271   -7.5585   13.1883 C   0  0  0  0  0  0  0  0  0  0  0  0
   -6.1340   -6.6045   14.0223 C   0  0  0  0  0  0  0  0  0  0  0  0
   -6.3522   -5.2536   13.6965 C   0  0  0  0  0  0  0  0  0  0  0  0
   -6.8037   -4.3579   14.4088 O   0  0  0  0  0  0  0  0  0  0  0  0
   -6.3772   -7.2488   15.2277 N   0  0  0  0  0  0  0  0  0  0  0  0
   -6.0050   -8.5375   15.0425 C   0  0  0  0  0  0  0  0  0  0  0  0
   -5.5484   -8.7814   13.8453 N   0  0  0  0  0  0  0  0  0  0  0  0
  1  2  1  0  0  0  0
  2  9  1  0  0  0  0
  2  3  1  0  0  0  0
  3  5  1  0  0  0  0
  3  4  2  0  0  0  0
  5  6  1  0  0  0  0
  5  7  1  0  0  0  0
  7  8  2  0  0  0  0
  7 13  1  0  0  0  0
  8  9  1  0  0  0  0
  8 11  1  0  0  0  0
  9 10  2  0  0  0  0
 11 12  1  0  0  0  0
 12 13  2  0  0  0  0
M  END
>  <CHROM.1>
-5.82124392,-6.42721982,12.94679647,1.48200016,1.18226737,-0.63205613

>  <Name>
1eht cryst

>  <RI>
0

>  <Rbt.Current_Directory>
/home/itssahil/PROJECTS/Mol_Feturizer/New_Systems/rnas/1eht

>  <Rbt.Executable>
rbdock ($Id: //depot/dev/client3/rdock/2013.1/src/exe/rbdock.cxx#4 $)

>  <Rbt.Library>
libRbt.so (2013.1, Build901 2013/11/27)

>  <Rbt.Parameter_File>
/export/apps/rDock/src/rDock_2013.1_src/data/scripts/dock_solv.prm

>  <Rbt.Receptor>
prm/pocket_docking_6.prm

>  <SCORE>
-39.0694

>  <SCORE.INTER>
-39.0694

>  <SCORE.INTER.CONST>
1

>  <SCORE.INTER.POLAR>
-2.13322

>  <SCORE.INTER.ROT>
0

>  <SCORE.INTER.SOLV>
9.83655

>  <SCORE.INTER.VDW>
-25.8144

>  <SCORE.INTER.norm>
-3.00534

>  <SCORE.INTRA>
0

>  <SCORE.INTRA.DIHEDRAL>
0

>  <SCORE.INTRA.DIHEDRAL.0>
0

>  <SCORE.INTRA.POLAR>
0

>  <SCORE.INTRA.POLAR.0>
0

>  <SCORE.INTRA.REPUL>
0

>  <SCORE.INTRA.REPUL.0>
0

>  <SCORE.INTRA.SOLV>
0

>  <SCORE.INTRA.SOLV.lig_0>
-12.9768

>  <SCORE.INTRA.VDW>
0

>  <SCORE.INTRA.VDW.0>
0

>  <SCORE.INTRA.norm>
0

>  <SCORE.RESTR>
0

>  <SCORE.RESTR.CAVITY>
0

>  <SCORE.RESTR.norm>
0

>  <SCORE.SYSTEM>
0

>  <SCORE.SYSTEM.CONST>
0

>  <SCORE.SYSTEM.DIHEDRAL>
0

>  <SCORE.SYSTEM.SOLV>
0

>  <SCORE.SYSTEM.norm>
0

>  <SCORE.heavy>
13

>  <SCORE.norm>
-3.00534

>  <RMSD>
3.406

$$$$
1eht cryst
 OpenBabel11021811383D
libRbt.so/2013.1/901 2013/11/27
 13 14  0  0  0  0  0  0  0  0999 V2000
   -6.1193   -3.6938   11.9410 C   0  0  0  0  0  0  0  0  0  0  0  0
   -5.9921   -4.9962   12.4154 N   0  0  0  0  0  0  0  0  0  0  0  0
   -5.5102   -5.9523   11.5590 C   0  0  0  0  0  0  0  0  0  0  0  0
   -5.2296   -5.5772   10.4189 O   0  0  0  0  0  0  0  0  0  0  0  0
   -5.3318   -7.2728   11.8856 N   0  0  0  0  0  0  0  0  0  0  0  0
   -4.8415   -8.2211   11.0029 C   0  0  0  0  0  0  0  0  0  0  0  0
   -5.6879   -7.5578   13.1707 C   0  0  0  0  0  0  0  0  0  0  0  0
   -6.1677   -6.5983   14.0145 C   0  0  0  0  0  0  0  0  0  0  0  0
   -6.3567   -5.2405   13.6996 C   0  0  0  0  0  0  0  0  0  0  0  0
   -6.7831   -4.3398   14.4209 O   0  0  0  0  0  0  0  0  0  0  0  0
   -6.4186   -7.2456   15.2168 N   0  0  0  0  0  0  0  0  0  0  0  0
   -6.0773   -8.5412   15.0202 C   0  0  0  0  0  0  0  0  0  0  0  0
   -5.6336   -8.7869   13.8186 N   0  0  0  0  0  0  0  0  0  0  0  0
  1  2  1  0  0  0  0
  2  9  1  0  0  0  0
  2  3  1  0  0  0  0
  3  5  1  0  0  0  0
  3  4  2  0  0  0  0
  5  6  1  0  0  0  0
  5  7  1  0  0  0  0
  7  8  2  0  0  0  0
  7 13  1  0  0  0  0
  8  9  1  0  0  0  0
  8 11  1  0  0  0  0
  9 10  2  0  0  0  0
 11 12  1  0  0  0  0
 12 13  2  0  0  0  0
M  END
>  <CHROM.1>
-5.85730327,-6.42060589,12.93837983,1.44021941,1.20036150,-0.58612268

>  <Name>
1eht cryst

>  <RI>
0

>  <Rbt.Current_Directory>
/home/itssahil/PROJECTS/Mol_Feturizer/New_Systems/rnas/1eht

>  <Rbt.Executable>
rbdock ($Id: //depot/dev/client3/rdock/2013.1/src/exe/rbdock.cxx#4 $)

>  <Rbt.Library>
libRbt.so (2013.1, Build901 2013/11/27)

>  <Rbt.Parameter_File>
/export/apps/rDock/src/rDock_2013.1_src/data/scripts/dock_solv.prm

>  <Rbt.Receptor>
prm/pocket_docking_3.prm

>  <SCORE>
-39.0566

>  <SCORE.INTER>
-39.0566

>  <SCORE.INTER.CONST>
1

>  <SCORE.INTER.POLAR>
-2.11523

>  <SCORE.INTER.ROT>
0

>  <SCORE.INTER.SOLV>
9.86291

>  <SCORE.INTER.VDW>
-25.8746

>  <SCORE.INTER.norm>
-3.00436

>  <SCORE.INTRA>
0

>  <SCORE.INTRA.DIHEDRAL>
0

>  <SCORE.INTRA.DIHEDRAL.0>
0

>  <SCORE.INTRA.POLAR>
0

>  <SCORE.INTRA.POLAR.0>
0

>  <SCORE.INTRA.REPUL>
0

>  <SCORE.INTRA.REPUL.0>
0

>  <SCORE.INTRA.SOLV>
0

>  <SCORE.INTRA.SOLV.lig_0>
-12.9768

>  <SCORE.INTRA.VDW>
0

>  <SCORE.INTRA.VDW.0>
0

>  <SCORE.INTRA.norm>
0

>  <SCORE.RESTR>
0

>  <SCORE.RESTR.CAVITY>
0

>  <SCORE.RESTR.norm>
0

>  <SCORE.SYSTEM>
0

>  <SCORE.SYSTEM.CONST>
0

>  <SCORE.SYSTEM.DIHEDRAL>
0

>  <SCORE.SYSTEM.SOLV>
0

>  <SCORE.SYSTEM.norm>
0

>  <SCORE.heavy>
13

>  <SCORE.norm>
-3.00436

>  <RMSD>
3.407

$$$$
1eht cryst
 OpenBabel11021811383D
libRbt.so/2013.1/901 2013/11/27
 13 14  0  0  0  0  0  0  0  0999 V2000
   -6.1188   -3.7019   11.9722 C   0  0  0  0  0  0  0  0  0  0  0  0
   -5.9919   -5.0000   12.4584 N   0  0  0  0  0  0  0  0  0  0  0  0
   -5.4945   -5.9604   11.6159 C   0  0  0  0  0  0  0  0  0  0  0  0
   -5.2006   -5.5929   10.4767 O   0  0  0  0  0  0  0  0  0  0  0  0
   -5.3143   -7.2776   11.9551 N   0  0  0  0  0  0  0  0  0  0  0  0
   -4.8081   -8.2303   11.0863 C   0  0  0  0  0  0  0  0  0  0  0  0
   -5.6860   -7.5543   13.2376 C   0  0  0  0  0  0  0  0  0  0  0  0
   -6.1812   -6.5906   14.0675 C   0  0  0  0  0  0  0  0  0  0  0  0
   -6.3722   -5.2360   13.7396 C   0  0  0  0  0  0  0  0  0  0  0  0
   -6.8122   -4.3318   14.4481 O   0  0  0  0  0  0  0  0  0  0  0  0
   -6.4449   -7.2296   15.2714 N   0  0  0  0  0  0  0  0  0  0  0  0
   -6.0952   -8.5251   15.0894 C   0  0  0  0  0  0  0  0  0  0  0  0
   -5.6346   -8.7780   13.8957 N   0  0  0  0  0  0  0  0  0  0  0  0
  1  2  1  0  0  0  0
  2  9  1  0  0  0  0
  2  3  1  0  0  0  0
  3  5  1  0  0  0  0
  3  4  2  0  0  0  0
  5  6  1  0  0  0  0
  5  7  1  0  0  0  0
  7  8  2  0  0  0  0
  7 13  1  0  0  0  0
  8  9  1  0  0  0  0
  8 11  1  0  0  0  0
  9 10  2  0  0  0  0
 11 12  1  0  0  0  0
 12 13  2  0  0  0  0
M  END
>  <CHROM.1>
-5.85749750,-6.41969820,12.99419859,1.43094236,1.18688246,-0.58526706

>  <Name>
1eht cryst

>  <RI>
0

>  <Rbt.Current_Directory>
/home/itssahil/PROJECTS/Mol_Feturizer/New_Systems/rnas/1eht

>  <Rbt.Executable>
rbdock ($Id: //depot/dev/client3/rdock/2013.1/src/exe/rbdock.cxx#4 $)

>  <Rbt.Library>
libRbt.so (2013.1, Build901 2013/11/27)

>  <Rbt.Parameter_File>
/export/apps/rDock/src/rDock_2013.1_src/data/scripts/dock_solv.prm

>  <Rbt.Receptor>
prm/pocket_docking_6.prm

>  <SCORE>
-39.1067

>  <SCORE.INTER>
-39.1067

>  <SCORE.INTER.CONST>
1

>  <SCORE.INTER.POLAR>
-2.11164

>  <SCORE.INTER.ROT>
0

>  <SCORE.INTER.SOLV>
9.96185

>  <SCORE.INTER.VDW>
-25.953

>  <SCORE.INTER.norm>
-3.00821

>  <SCORE.INTRA>
0

>  <SCORE.INTRA.DIHEDRAL>
0

>  <SCORE.INTRA.DIHEDRAL.0>
0

>  <SCORE.INTRA.POLAR>
0

>  <SCORE.INTRA.POLAR.0>
0

>  <SCORE.INTRA.REPUL>
0

>  <SCORE.INTRA.REPUL.0>
0

>  <SCORE.INTRA.SOLV>
0

>  <SCORE.INTRA.SOLV.lig_0>
-12.9768

>  <SCORE.INTRA.VDW>
0

>  <SCORE.INTRA.VDW.0>
0

>  <SCORE.INTRA.norm>
0

>  <SCORE.RESTR>
0

>  <SCORE.RESTR.CAVITY>
0

>  <SCORE.RESTR.norm>
0

>  <SCORE.SYSTEM>
0

>  <SCORE.SYSTEM.CONST>
0

>  <SCORE.SYSTEM.DIHEDRAL>
0

>  <SCORE.SYSTEM.SOLV>
0

>  <SCORE.SYSTEM.norm>
0

>  <SCORE.heavy>
13

>  <SCORE.norm>
-3.00821

>  <RMSD>
3.407

$$$$
1eht cryst
 OpenBabel11021811383D
libRbt.so/2013.1/901 2013/11/27
 13 14  0  0  0  0  0  0  0  0999 V2000
   -6.1288   -3.6994   11.9657 C   0  0  0  0  0  0  0  0  0  0  0  0
   -5.9912   -4.9971   12.4499 N   0  0  0  0  0  0  0  0  0  0  0  0
   -5.4997   -5.9553   11.6015 C   0  0  0  0  0  0  0  0  0  0  0  0
   -5.2204   -5.5863   10.4591 O   0  0  0  0  0  0  0  0  0  0  0  0
   -5.3104   -7.2718   11.9382 N   0  0  0  0  0  0  0  0  0  0  0  0
   -4.8105   -8.2223   11.0633 C   0  0  0  0  0  0  0  0  0  0  0  0
   -5.6662   -7.5503   13.2248 C   0  0  0  0  0  0  0  0  0  0  0  0
   -6.1556   -6.5888   14.0607 C   0  0  0  0  0  0  0  0  0  0  0  0
   -6.3557   -5.2349   13.7354 C   0  0  0  0  0  0  0  0  0  0  0  0
   -6.7911   -4.3327   14.4492 O   0  0  0  0  0  0  0  0  0  0  0  0
   -6.4029   -7.2292   15.2673 N   0  0  0  0  0  0  0  0  0  0  0  0
   -6.0501   -8.5232   15.0810 C   0  0  0  0  0  0  0  0  0  0  0  0
   -5.6023   -8.7740   13.8819 N   0  0  0  0  0  0  0  0  0  0  0  0
  1  2  1  0  0  0  0
  2  9  1  0  0  0  0
  2  3  1  0  0  0  0
  3  5  1  0  0  0  0
  3  4  2  0  0  0  0
  5  6  1  0  0  0  0
  5  7  1  0  0  0  0
  7  8  2  0  0  0  0
  7 13  1  0  0  0  0
  8  9  1  0  0  0  0
  8 11  1  0  0  0  0
  9 10  2  0  0  0  0
 11 12  1  0  0  0  0
 12 13  2  0  0  0  0
M  END
>  <CHROM.1>
-5.84497264,-6.41635614,12.98376708,1.45723500,1.19417028,-0.60940236

>  <Name>
1eht cryst

>  <RI>
0

>  <Rbt.Current_Directory>
/home/itssahil/PROJECTS/Mol_Feturizer/New_Systems/rnas/1eht

>  <Rbt.Executable>
rbdock ($Id: //depot/dev/client3/rdock/2013.1/src/exe/rbdock.cxx#4 $)

>  <Rbt.Library>
libRbt.so (2013.1, Build901 2013/11/27)

>  <Rbt.Parameter_File>
/export/apps/rDock/src/rDock_2013.1_src/data/scripts/dock_solv.prm

>  <Rbt.Receptor>
prm/blind_docking_60.prm

>  <SCORE>
-39.0965

>  <SCORE.INTER>
-39.0965

>  <SCORE.INTER.CONST>
1

>  <SCORE.INTER.POLAR>
-2.10561

>  <SCORE.INTER.ROT>
0

>  <SCORE.INTER.SOLV>
9.91104

>  <SCORE.INTER.VDW>
-25.9493

>  <SCORE.INTER.norm>
-3.00742

>  <SCORE.INTRA>
0

>  <SCORE.INTRA.DIHEDRAL>
0

>  <SCORE.INTRA.DIHEDRAL.0>
0

>  <SCORE.INTRA.POLAR>
0

>  <SCORE.INTRA.POLAR.0>
0

>  <SCORE.INTRA.REPUL>
0

>  <SCORE.INTRA.REPUL.0>
0

>  <SCORE.INTRA.SOLV>
0

>  <SCORE.INTRA.SOLV.lig_0>
-12.9768

>  <SCORE.INTRA.VDW>
0

>  <SCORE.INTRA.VDW.0>
0

>  <SCORE.INTRA.norm>
0

>  <SCORE.RESTR>
0

>  <SCORE.RESTR.CAVITY>
0

>  <SCORE.RESTR.norm>
0

>  <SCORE.SYSTEM>
0

>  <SCORE.SYSTEM.CONST>
0

>  <SCORE.SYSTEM.DIHEDRAL>
0

>  <SCORE.SYSTEM.SOLV>
0

>  <SCORE.SYSTEM.norm>
0

>  <SCORE.heavy>
13

>  <SCORE.norm>
-3.00742

>  <RMSD>
3.408

$$$$
1eht cryst
 OpenBabel11021811383D
libRbt.so/2013.1/901 2013/11/27
 13 14  0  0  0  0  0  0  0  0999 V2000
   -6.1196   -3.7023   11.9657 C   0  0  0  0  0  0  0  0  0  0  0  0
   -5.9880   -5.0009   12.4491 N   0  0  0  0  0  0  0  0  0  0  0  0
   -5.4922   -5.9589   11.6028 C   0  0  0  0  0  0  0  0  0  0  0  0
   -5.2037   -5.5888   10.4630 O   0  0  0  0  0  0  0  0  0  0  0  0
   -5.3079   -7.2762   11.9390 N   0  0  0  0  0  0  0  0  0  0  0  0
   -4.8034   -8.2264   11.0663 C   0  0  0  0  0  0  0  0  0  0  0  0
   -5.6737   -7.5559   13.2225 C   0  0  0  0  0  0  0  0  0  0  0  0
   -6.1674   -6.5947   14.0562 C   0  0  0  0  0  0  0  0  0  0  0  0
   -6.3625   -5.2400   13.7314 C   0  0  0  0  0  0  0  0  0  0  0  0
   -6.8014   -4.3379   14.4434 O   0  0  0  0  0  0  0  0  0  0  0  0
   -6.4248   -7.2364   15.2600 N   0  0  0  0  0  0  0  0  0  0  0  0
   -6.0732   -8.5308   15.0743 C   0  0  0  0  0  0  0  0  0  0  0  0
   -5.6171   -8.7808   13.8782 N   0  0  0  0  0  0  0  0  0  0  0  0
  1  2  1  0  0  0  0
  2  9  1  0  0  0  0
  2  3  1  0  0  0  0
  3  5  1  0  0  0  0
  3  4  2  0  0  0  0
  5  6  1  0  0  0  0
  5  7  1  0  0  0  0
  7  8  2  0  0  0  0
  7 13  1  0  0  0  0
  8  9  1  0  0  0  0
  8 11  1  0  0  0  0
  9 10  2  0  0  0  0
 11 12  1  0  0  0  0
 12 13  2  0  0  0  0
M  END
>  <CHROM.1>
-5.84851815,-6.42130545,12.98182475,1.44164494,1.18921639,-0.59343098

>  <Name>
1eht cryst

>  <RI>
0

>  <Rbt.Current_Directory>
/home/itssahil/PROJECTS/Mol_Feturizer/New_Systems/rnas/1eht

>  <Rbt.Executable>
rbdock ($Id: //depot/dev/client3/rdock/2013.1/src/exe/rbdock.cxx#4 $)

>  <Rbt.Library>
libRbt.so (2013.1, Build901 2013/11/27)

>  <Rbt.Parameter_File>
/export/apps/rDock/src/rDock_2013.1_src/data/scripts/dock_solv.prm

>  <Rbt.Receptor>
prm/pocket_docking_3.prm

>  <SCORE>
-39.114

>  <SCORE.INTER>
-39.114

>  <SCORE.INTER.CONST>
1

>  <SCORE.INTER.POLAR>
-2.11284

>  <SCORE.INTER.ROT>
0

>  <SCORE.INTER.SOLV>
9.92553

>  <SCORE.INTER.VDW>
-25.9418

>  <SCORE.INTER.norm>
-3.00877

>  <SCORE.INTRA>
0

>  <SCORE.INTRA.DIHEDRAL>
0

>  <SCORE.INTRA.DIHEDRAL.0>
0

>  <SCORE.INTRA.POLAR>
0

>  <SCORE.INTRA.POLAR.0>
0

>  <SCORE.INTRA.REPUL>
0

>  <SCORE.INTRA.REPUL.0>
0

>  <SCORE.INTRA.SOLV>
0

>  <SCORE.INTRA.SOLV.lig_0>
-12.9768

>  <SCORE.INTRA.VDW>
0

>  <SCORE.INTRA.VDW.0>
0

>  <SCORE.INTRA.norm>
0

>  <SCORE.RESTR>
0

>  <SCORE.RESTR.CAVITY>
0

>  <SCORE.RESTR.norm>
0

>  <SCORE.SYSTEM>
0

>  <SCORE.SYSTEM.CONST>
0

>  <SCORE.SYSTEM.DIHEDRAL>
0

>  <SCORE.SYSTEM.SOLV>
0

>  <SCORE.SYSTEM.norm>
0

>  <SCORE.heavy>
13

>  <SCORE.norm>
-3.00877

>  <RMSD>
3.408

$$$$
1eht cryst
 OpenBabel11021811383D
libRbt.so/2013.1/901 2013/11/27
 13 14  0  0  0  0  0  0  0  0999 V2000
   -6.1223   -3.7035   11.9649 C   0  0  0  0  0  0  0  0  0  0  0  0
   -5.9888   -5.0017   12.4490 N   0  0  0  0  0  0  0  0  0  0  0  0
   -5.4935   -5.9598   11.6026 C   0  0  0  0  0  0  0  0  0  0  0  0
   -5.2073   -5.5902   10.4621 O   0  0  0  0  0  0  0  0  0  0  0  0
   -5.3074   -7.2767   11.9394 N   0  0  0  0  0  0  0  0  0  0  0  0
   -4.8035   -8.2271   11.0666 C   0  0  0  0  0  0  0  0  0  0  0  0
   -5.6708   -7.5558   13.2237 C   0  0  0  0  0  0  0  0  0  0  0  0
   -6.1640   -6.5945   14.0575 C   0  0  0  0  0  0  0  0  0  0  0  0
   -6.3609   -5.2402   13.7322 C   0  0  0  0  0  0  0  0  0  0  0  0
   -6.7994   -4.3380   14.4442 O   0  0  0  0  0  0  0  0  0  0  0  0
   -6.4188   -7.2355   15.2623 N   0  0  0  0  0  0  0  0  0  0  0  0
   -6.0663   -8.5298   15.0769 C   0  0  0  0  0  0  0  0  0  0  0  0
   -5.6119   -8.7801   13.8802 N   0  0  0  0  0  0  0  0  0  0  0  0
  1  2  1  0  0  0  0
  2  9  1  0  0  0  0
  2  3  1  0  0  0  0
  3  5  1  0  0  0  0
  3  4  2  0  0  0  0
  5  6  1  0  0  0  0
  5  7  1  0  0  0  0
  7  8  2  0  0  0  0
  7 13  1  0  0  0  0
  8  9  1  0  0  0  0
  8 11  1  0  0  0  0
  9 10  2  0  0  0  0
 11 12  1  0  0  0  0
 12 13  2  0  0  0  0
M  END
>  <CHROM.1>
-5.84707533,-6.42152729,12.98252941,1.44622680,1.19008908,-0.59839829

>  <Name>
1eht cryst

>  <RI>
0

>  <Rbt.Current_Directory>
/home/itssahil/PROJECTS/Mol_Feturizer/New_Systems/rnas/1eht

>  <Rbt.Executable>
rbdock ($Id: //depot/dev/client3/rdock/2013.1/src/exe/rbdock.cxx#4 $)

>  <Rbt.Library>
libRbt.so (2013.1, Build901 2013/11/27)

>  <Rbt.Parameter_File>
/export/apps/rDock/src/rDock_2013.1_src/data/scripts/dock_solv.prm

>  <Rbt.Receptor>
prm/pocket_docking_5.prm

>  <SCORE>
-39.1145

>  <SCORE.INTER>
-39.1145

>  <SCORE.INTER.CONST>
1

>  <SCORE.INTER.POLAR>
-2.11204

>  <SCORE.INTER.ROT>
0

>  <SCORE.INTER.SOLV>
9.91999

>  <SCORE.INTER.VDW>
-25.9428

>  <SCORE.INTER.norm>
-3.0088

>  <SCORE.INTRA>
0

>  <SCORE.INTRA.DIHEDRAL>
0

>  <SCORE.INTRA.DIHEDRAL.0>
0

>  <SCORE.INTRA.POLAR>
0

>  <SCORE.INTRA.POLAR.0>
0

>  <SCORE.INTRA.REPUL>
0

>  <SCORE.INTRA.REPUL.0>
0

>  <SCORE.INTRA.SOLV>
0

>  <SCORE.INTRA.SOLV.lig_0>
-12.9768

>  <SCORE.INTRA.VDW>
0

>  <SCORE.INTRA.VDW.0>
0

>  <SCORE.INTRA.norm>
0

>  <SCORE.RESTR>
0

>  <SCORE.RESTR.CAVITY>
0

>  <SCORE.RESTR.norm>
0

>  <SCORE.SYSTEM>
0

>  <SCORE.SYSTEM.CONST>
0

>  <SCORE.SYSTEM.DIHEDRAL>
0

>  <SCORE.SYSTEM.SOLV>
0

>  <SCORE.SYSTEM.norm>
0

>  <SCORE.heavy>
13

>  <SCORE.norm>
-3.0088

>  <RMSD>
3.408

$$$$
1eht cryst
 OpenBabel11021811383D
libRbt.so/2013.1/901 2013/11/27
 13 14  0  0  0  0  0  0  0  0999 V2000
   -6.1178   -3.7021   11.9762 C   0  0  0  0  0  0  0  0  0  0  0  0
   -5.9885   -5.0014   12.4585 N   0  0  0  0  0  0  0  0  0  0  0  0
   -5.5002   -5.9608   11.6095 C   0  0  0  0  0  0  0  0  0  0  0  0
   -5.2160   -5.5913   10.4685 O   0  0  0  0  0  0  0  0  0  0  0  0
   -5.3190   -7.2789   11.9443 N   0  0  0  0  0  0  0  0  0  0  0  0
   -4.8222   -8.2306   11.0689 C   0  0  0  0  0  0  0  0  0  0  0  0
   -5.6796   -7.5578   13.2295 C   0  0  0  0  0  0  0  0  0  0  0  0
   -6.1657   -6.5951   14.0659 C   0  0  0  0  0  0  0  0  0  0  0  0
   -6.3576   -5.2396   13.7426 C   0  0  0  0  0  0  0  0  0  0  0  0
   -6.7898   -4.3362   14.4570 O   0  0  0  0  0  0  0  0  0  0  0  0
   -6.4196   -7.2363   15.2708 N   0  0  0  0  0  0  0  0  0  0  0  0
   -6.0735   -8.5319   15.0829 C   0  0  0  0  0  0  0  0  0  0  0  0
   -5.6241   -8.7830   13.8845 N   0  0  0  0  0  0  0  0  0  0  0  0
  1  2  1  0  0  0  0
  2  9  1  0  0  0  0
  2  3  1  0  0  0  0
  3  5  1  0  0  0  0
  3  4  2  0  0  0  0
  5  6  1  0  0  0  0
  5  7  1  0  0  0  0
  7  8  2  0  0  0  0
  7 13  1  0  0  0  0
  8  9  1  0  0  0  0
  8 11  1  0  0  0  0
  9 10  2  0  0  0  0
 11 12  1  0  0  0  0
 12 13  2  0  0  0  0
M  END
>  <CHROM.1>
-5.85148224,-6.42241196,12.99007649,1.44101071,1.19524578,-0.59249080

>  <Name>
1eht cryst

>  <RI>
0

>  <Rbt.Current_Directory>
/home/itssahil/PROJECTS/Mol_Feturizer/New_Systems/rnas/1eht

>  <Rbt.Executable>
rbdock ($Id: //depot/dev/client3/rdock/2013.1/src/exe/rbdock.cxx#4 $)

>  <Rbt.Library>
libRbt.so (2013.1, Build901 2013/11/27)

>  <Rbt.Parameter_File>
/export/apps/rDock/src/rDock_2013.1_src/data/scripts/dock_solv.prm

>  <Rbt.Receptor>
prm/pocket_docking_5.prm

>  <SCORE>
-39.073

>  <SCORE.INTER>
-39.073

>  <SCORE.INTER.CONST>
1

>  <SCORE.INTER.POLAR>
-2.10448

>  <SCORE.INTER.ROT>
0

>  <SCORE.INTER.SOLV>
9.92514

>  <SCORE.INTER.VDW>
-25.9421

>  <SCORE.INTER.norm>
-3.00562

>  <SCORE.INTRA>
0

>  <SCORE.INTRA.DIHEDRAL>
0

>  <SCORE.INTRA.DIHEDRAL.0>
0

>  <SCORE.INTRA.POLAR>
0

>  <SCORE.INTRA.POLAR.0>
0

>  <SCORE.INTRA.REPUL>
0

>  <SCORE.INTRA.REPUL.0>
0

>  <SCORE.INTRA.SOLV>
0

>  <SCORE.INTRA.SOLV.lig_0>
-12.9768

>  <SCORE.INTRA.VDW>
0

>  <SCORE.INTRA.VDW.0>
0

>  <SCORE.INTRA.norm>
0

>  <SCORE.RESTR>
0

>  <SCORE.RESTR.CAVITY>
0

>  <SCORE.RESTR.norm>
0

>  <SCORE.SYSTEM>
0

>  <SCORE.SYSTEM.CONST>
0

>  <SCORE.SYSTEM.DIHEDRAL>
0

>  <SCORE.SYSTEM.SOLV>
0

>  <SCORE.SYSTEM.norm>
0

>  <SCORE.heavy>
13

>  <SCORE.norm>
-3.00562

>  <RMSD>
3.411

$$$$
1eht cryst
 OpenBabel11021811383D
libRbt.so/2013.1/901 2013/11/27
 13 14  0  0  0  0  0  0  0  0999 V2000
   -6.1134   -3.6791   12.0145 C   0  0  0  0  0  0  0  0  0  0  0  0
   -5.9916   -4.9793   12.4964 N   0  0  0  0  0  0  0  0  0  0  0  0
   -5.5070   -5.9408   11.6477 C   0  0  0  0  0  0  0  0  0  0  0  0
   -5.2191   -5.5723   10.5073 O   0  0  0  0  0  0  0  0  0  0  0  0
   -5.3332   -7.2600   11.9822 N   0  0  0  0  0  0  0  0  0  0  0  0
   -4.8400   -8.2139   11.1072 C   0  0  0  0  0  0  0  0  0  0  0  0
   -5.6972   -7.5376   13.2668 C   0  0  0  0  0  0  0  0  0  0  0  0
   -6.1796   -6.5727   14.1028 C   0  0  0  0  0  0  0  0  0  0  0  0
   -6.3639   -5.2161   13.7798 C   0  0  0  0  0  0  0  0  0  0  0  0
   -6.7925   -4.3108   14.4940 O   0  0  0  0  0  0  0  0  0  0  0  0
   -6.4387   -7.2132   15.3070 N   0  0  0  0  0  0  0  0  0  0  0  0
   -6.0991   -8.5105   15.1191 C   0  0  0  0  0  0  0  0  0  0  0  0
   -5.6491   -8.7634   13.9213 N   0  0  0  0  0  0  0  0  0  0  0  0
  1  2  1  0  0  0  0
  2  9  1  0  0  0  0
  2  3  1  0  0  0  0
  3  5  1  0  0  0  0
  3  4  2  0  0  0  0
  5  6  1  0  0  0  0
  5  7  1  0  0  0  0
  7  8  2  0  0  0  0
  7 13  1  0  0  0  0
  8  9  1  0  0  0  0
  8 11  1  0  0  0  0
  9 10  2  0  0  0  0
 11 12  1  0  0  0  0
 12 13  2  0  0  0  0
M  END
>  <CHROM.1>
-5.86281205,-6.40125193,13.02757709,1.42680687,1.19683097,-0.57882435

>  <Name>
1eht cryst

>  <RI>
0

>  <Rbt.Current_Directory>
/home/itssahil/PROJECTS/Mol_Feturizer/New_Systems/rnas/1eht

>  <Rbt.Executable>
rbdock ($Id: //depot/dev/client3/rdock/2013.1/src/exe/rbdock.cxx#4 $)

>  <Rbt.Library>
libRbt.so (2013.1, Build901 2013/11/27)

>  <Rbt.Parameter_File>
/export/apps/rDock/src/rDock_2013.1_src/data/scripts/dock_solv.prm

>  <Rbt.Receptor>
prm/pocket_docking_4.prm

>  <SCORE>
-39.0913

>  <SCORE.INTER>
-39.0913

>  <SCORE.INTER.CONST>
1

>  <SCORE.INTER.POLAR>
-2.08165

>  <SCORE.INTER.ROT>
0

>  <SCORE.INTER.SOLV>
10.01

>  <SCORE.INTER.VDW>
-26.0587

>  <SCORE.INTER.norm>
-3.00702

>  <SCORE.INTRA>
0

>  <SCORE.INTRA.DIHEDRAL>
0

>  <SCORE.INTRA.DIHEDRAL.0>
0

>  <SCORE.INTRA.POLAR>
0

>  <SCORE.INTRA.POLAR.0>
0

>  <SCORE.INTRA.REPUL>
0

>  <SCORE.INTRA.REPUL.0>
0

>  <SCORE.INTRA.SOLV>
0

>  <SCORE.INTRA.SOLV.lig_0>
-12.9768

>  <SCORE.INTRA.VDW>
0

>  <SCORE.INTRA.VDW.0>
0

>  <SCORE.INTRA.norm>
0

>  <SCORE.RESTR>
0

>  <SCORE.RESTR.CAVITY>
0

>  <SCORE.RESTR.norm>
0

>  <SCORE.SYSTEM>
0

>  <SCORE.SYSTEM.CONST>
0

>  <SCORE.SYSTEM.DIHEDRAL>
0

>  <SCORE.SYSTEM.SOLV>
0

>  <SCORE.SYSTEM.norm>
0

>  <SCORE.heavy>
13

>  <SCORE.norm>
-3.00702

>  <RMSD>
3.415

$$$$
1eht cryst
 OpenBabel11021811383D
libRbt.so/2013.1/901 2013/11/27
 13 14  0  0  0  0  0  0  0  0999 V2000
   -6.1122   -3.7199   11.9517 C   0  0  0  0  0  0  0  0  0  0  0  0
   -5.9706   -5.0207   12.4266 N   0  0  0  0  0  0  0  0  0  0  0  0
   -5.4629   -5.9682   11.5756 C   0  0  0  0  0  0  0  0  0  0  0  0
   -5.1738   -5.5876   10.4395 O   0  0  0  0  0  0  0  0  0  0  0  0
   -5.2678   -7.2861   11.9034 N   0  0  0  0  0  0  0  0  0  0  0  0
   -4.7516   -8.2256   11.0261 C   0  0  0  0  0  0  0  0  0  0  0  0
   -5.6357   -7.5780   13.1836 C   0  0  0  0  0  0  0  0  0  0  0  0
   -6.1412   -6.6271   14.0220 C   0  0  0  0  0  0  0  0  0  0  0  0
   -6.3475   -5.2720   13.7059 C   0  0  0  0  0  0  0  0  0  0  0  0
   -6.7972   -4.3789   14.4224 O   0  0  0  0  0  0  0  0  0  0  0  0
   -6.3971   -7.2794   15.2205 N   0  0  0  0  0  0  0  0  0  0  0  0
   -6.0330   -8.5693   15.0271 C   0  0  0  0  0  0  0  0  0  0  0  0
   -5.5703   -8.8067   13.8311 N   0  0  0  0  0  0  0  0  0  0  0  0
  1  2  1  0  0  0  0
  2  9  1  0  0  0  0
  2  3  1  0  0  0  0
  3  5  1  0  0  0  0
  3  4  2  0  0  0  0
  5  6  1  0  0  0  0
  5  7  1  0  0  0  0
  7  8  2  0  0  0  0
  7 13  1  0  0  0  0
  8  9  1  0  0  0  0
  8 11  1  0  0  0  0
  9 10  2  0  0  0  0
 11 12  1  0  0  0  0
 12 13  2  0  0  0  0
M  END
>  <CHROM.1>
-5.82003229,-6.44335611,12.95007320,1.45625533,1.18106097,-0.60007383

>  <Name>
1eht cryst

>  <RI>
0

>  <Rbt.Current_Directory>
/home/itssahil/PROJECTS/Mol_Feturizer/New_Systems/rnas/1eht

>  <Rbt.Executable>
rbdock ($Id: //depot/dev/client3/rdock/2013.1/src/exe/rbdock.cxx#4 $)

>  <Rbt.Library>
libRbt.so (2013.1, Build901 2013/11/27)

>  <Rbt.Parameter_File>
/export/apps/rDock/src/rDock_2013.1_src/data/scripts/dock_solv.prm

>  <Rbt.Receptor>
prm/pocket_docking_6.prm

>  <SCORE>
-39.0954

>  <SCORE.INTER>
-39.0954

>  <SCORE.INTER.CONST>
1

>  <SCORE.INTER.POLAR>
-2.13707

>  <SCORE.INTER.ROT>
0

>  <SCORE.INTER.SOLV>
9.835

>  <SCORE.INTER.VDW>
-25.8184

>  <SCORE.INTER.norm>
-3.00734

>  <SCORE.INTRA>
0

>  <SCORE.INTRA.DIHEDRAL>
0

>  <SCORE.INTRA.DIHEDRAL.0>
0

>  <SCORE.INTRA.POLAR>
0

>  <SCORE.INTRA.POLAR.0>
0

>  <SCORE.INTRA.REPUL>
0

>  <SCORE.INTRA.REPUL.0>
0

>  <SCORE.INTRA.SOLV>
0

>  <SCORE.INTRA.SOLV.lig_0>
-12.9768

>  <SCORE.INTRA.VDW>
0

>  <SCORE.INTRA.VDW.0>
0

>  <SCORE.INTRA.norm>
0

>  <SCORE.RESTR>
0

>  <SCORE.RESTR.CAVITY>
0

>  <SCORE.RESTR.norm>
0

>  <SCORE.SYSTEM>
0

>  <SCORE.SYSTEM.CONST>
0

>  <SCORE.SYSTEM.DIHEDRAL>
0

>  <SCORE.SYSTEM.SOLV>
0

>  <SCORE.SYSTEM.norm>
0

>  <SCORE.heavy>
13

>  <SCORE.norm>
-3.00734

>  <RMSD>
3.416

$$$$
1eht cryst
 OpenBabel11021811383D
libRbt.so/2013.1/901 2013/11/27
 13 14  0  0  0  0  0  0  0  0999 V2000
   -6.1279   -3.6935   12.0069 C   0  0  0  0  0  0  0  0  0  0  0  0
   -6.0002   -4.9943   12.4858 N   0  0  0  0  0  0  0  0  0  0  0  0
   -5.5047   -5.9502   11.6370 C   0  0  0  0  0  0  0  0  0  0  0  0
   -5.2132   -5.5766   10.4992 O   0  0  0  0  0  0  0  0  0  0  0  0
   -5.3241   -7.2692   11.9688 N   0  0  0  0  0  0  0  0  0  0  0  0
   -4.8200   -8.2173   11.0937 C   0  0  0  0  0  0  0  0  0  0  0  0
   -5.6931   -7.5528   13.2505 C   0  0  0  0  0  0  0  0  0  0  0  0
   -6.1864   -6.5935   14.0867 C   0  0  0  0  0  0  0  0  0  0  0  0
   -6.3778   -5.2372   13.7665 C   0  0  0  0  0  0  0  0  0  0  0  0
   -6.8161   -4.3367   14.4809 O   0  0  0  0  0  0  0  0  0  0  0  0
   -6.4477   -7.2390   15.2877 N   0  0  0  0  0  0  0  0  0  0  0  0
   -6.0986   -8.5335   15.0979 C   0  0  0  0  0  0  0  0  0  0  0  0
   -5.6406   -8.7801   13.9019 N   0  0  0  0  0  0  0  0  0  0  0  0
  1  2  1  0  0  0  0
  2  9  1  0  0  0  0
  2  3  1  0  0  0  0
  3  5  1  0  0  0  0
  3  4  2  0  0  0  0
  5  6  1  0  0  0  0
  5  7  1  0  0  0  0
  7  8  2  0  0  0  0
  7 13  1  0  0  0  0
  8  9  1  0  0  0  0
  8 11  1  0  0  0  0
  9 10  2  0  0  0  0
 11 12  1  0  0  0  0
 12 13  2  0  0  0  0
M  END
>  <CHROM.1>
-5.86493088,-6.41687379,13.01363366,1.43364429,1.18876606,-0.58235224

>  <Name>
1eht cryst

>  <RI>
0

>  <Rbt.Current_Directory>
/home/itssahil/PROJECTS/Mol_Feturizer/New_Systems/rnas/1eht

>  <Rbt.Executable>
rbdock ($Id: //depot/dev/client3/rdock/2013.1/src/exe/rbdock.cxx#4 $)

>  <Rbt.Library>
libRbt.so (2013.1, Build901 2013/11/27)

>  <Rbt.Parameter_File>
/export/apps/rDock/src/rDock_2013.1_src/data/scripts/dock_solv.prm

>  <Rbt.Receptor>
prm/pocket_docking_6.prm

>  <SCORE>
-39.0847

>  <SCORE.INTER>
-39.0847

>  <SCORE.INTER.CONST>
1

>  <SCORE.INTER.POLAR>
-2.10502

>  <SCORE.INTER.ROT>
0

>  <SCORE.INTER.SOLV>
9.97417

>  <SCORE.INTER.VDW>
-25.9645

>  <SCORE.INTER.norm>
-3.00652

>  <SCORE.INTRA>
0

>  <SCORE.INTRA.DIHEDRAL>
0

>  <SCORE.INTRA.DIHEDRAL.0>
0

>  <SCORE.INTRA.POLAR>
0

>  <SCORE.INTRA.POLAR.0>
0

>  <SCORE.INTRA.REPUL>
0

>  <SCORE.INTRA.REPUL.0>
0

>  <SCORE.INTRA.SOLV>
0

>  <SCORE.INTRA.SOLV.lig_0>
-12.9768

>  <SCORE.INTRA.VDW>
0

>  <SCORE.INTRA.VDW.0>
0

>  <SCORE.INTRA.norm>
0

>  <SCORE.RESTR>
0

>  <SCORE.RESTR.CAVITY>
0

>  <SCORE.RESTR.norm>
0

>  <SCORE.SYSTEM>
0

>  <SCORE.SYSTEM.CONST>
0

>  <SCORE.SYSTEM.DIHEDRAL>
0

>  <SCORE.SYSTEM.SOLV>
0

>  <SCORE.SYSTEM.norm>
0

>  <SCORE.heavy>
13

>  <SCORE.norm>
-3.00652

>  <RMSD>
3.419

$$$$
1eht cryst
 OpenBabel11021811383D
libRbt.so/2013.1/901 2013/11/27
 13 14  0  0  0  0  0  0  0  0999 V2000
   -5.8888   -4.0492   12.1530 C   0  0  0  0  0  0  0  0  0  0  0  0
   -5.9131   -5.3210   12.7183 N   0  0  0  0  0  0  0  0  0  0  0  0
   -5.3798   -6.3589   11.9986 C   0  0  0  0  0  0  0  0  0  0  0  0
   -4.9199   -6.0793   10.8898 O   0  0  0  0  0  0  0  0  0  0  0  0
   -5.3341   -7.6617   12.4264 N   0  0  0  0  0  0  0  0  0  0  0  0
   -4.7883   -8.6942   11.6814 C   0  0  0  0  0  0  0  0  0  0  0  0
   -5.8830   -7.8375   13.6623 C   0  0  0  0  0  0  0  0  0  0  0  0
   -6.4122   -6.7972   14.3696 C   0  0  0  0  0  0  0  0  0  0  0  0
   -6.4675   -5.4558   13.9497 C   0  0  0  0  0  0  0  0  0  0  0  0
   -6.9309   -4.4854   14.5471 O   0  0  0  0  0  0  0  0  0  0  0  0
   -6.8689   -7.3453   15.5605 N   0  0  0  0  0  0  0  0  0  0  0  0
   -6.5881   -8.6682   15.4931 C   0  0  0  0  0  0  0  0  0  0  0  0
   -5.9986   -9.0202   14.3842 N   0  0  0  0  0  0  0  0  0  0  0  0
  1  2  1  0  0  0  0
  2  9  1  0  0  0  0
  2  3  1  0  0  0  0
  3  5  1  0  0  0  0
  3  4  2  0  0  0  0
  5  6  1  0  0  0  0
  5  7  1  0  0  0  0
  7  8  2  0  0  0  0
  7 13  1  0  0  0  0
  8  9  1  0  0  0  0
  8 11  1  0  0  0  0
  9 10  2  0  0  0  0
 11 12  1  0  0  0  0
 12 13  2  0  0  0  0
M  END
>  <CHROM.1>
-5.94460589,-6.71133837,13.34005921,1.14673977,1.10226579,-0.38239073

>  <Name>
1eht cryst

>  <RI>
0

>  <Rbt.Current_Directory>
/home/itssahil/PROJECTS/Mol_Feturizer/New_Systems/rnas/1eht

>  <Rbt.Executable>
rbdock ($Id: //depot/dev/client3/rdock/2013.1/src/exe/rbdock.cxx#4 $)

>  <Rbt.Library>
libRbt.so (2013.1, Build901 2013/11/27)

>  <Rbt.Parameter_File>
/export/apps/rDock/src/rDock_2013.1_src/data/scripts/dock_solv.prm

>  <Rbt.Receptor>
prm/blind_docking_80.prm

>  <SCORE>
-37.8578

>  <SCORE.INTER>
-37.8923

>  <SCORE.INTER.CONST>
1

>  <SCORE.INTER.POLAR>
-2.19528

>  <SCORE.INTER.ROT>
0

>  <SCORE.INTER.SOLV>
10.316

>  <SCORE.INTER.VDW>
-24.9826

>  <SCORE.INTER.norm>
-2.91479

>  <SCORE.INTRA>
0

>  <SCORE.INTRA.DIHEDRAL>
0

>  <SCORE.INTRA.DIHEDRAL.0>
0

>  <SCORE.INTRA.POLAR>
0

>  <SCORE.INTRA.POLAR.0>
0

>  <SCORE.INTRA.REPUL>
0

>  <SCORE.INTRA.REPUL.0>
0

>  <SCORE.INTRA.SOLV>
0

>  <SCORE.INTRA.SOLV.lig_0>
-12.9768

>  <SCORE.INTRA.VDW>
0

>  <SCORE.INTRA.VDW.0>
0

>  <SCORE.INTRA.norm>
0

>  <SCORE.RESTR>
0.0345134

>  <SCORE.RESTR.CAVITY>
0.0345134

>  <SCORE.RESTR.norm>
0.00265488

>  <SCORE.SYSTEM>
0

>  <SCORE.SYSTEM.CONST>
0

>  <SCORE.SYSTEM.DIHEDRAL>
0

>  <SCORE.SYSTEM.SOLV>
0

>  <SCORE.SYSTEM.norm>
0

>  <SCORE.heavy>
13

>  <SCORE.norm>
-2.91214

>  <RMSD>
3.420

$$$$
1eht cryst
 OpenBabel11021811383D
libRbt.so/2013.1/901 2013/11/27
 13 14  0  0  0  0  0  0  0  0999 V2000
   -6.1503   -3.6606   12.0031 C   0  0  0  0  0  0  0  0  0  0  0  0
   -6.0201   -4.9643   12.4729 N   0  0  0  0  0  0  0  0  0  0  0  0
   -5.5410   -5.9174   11.6115 C   0  0  0  0  0  0  0  0  0  0  0  0
   -5.2654   -5.5385   10.4715 O   0  0  0  0  0  0  0  0  0  0  0  0
   -5.3602   -7.2388   11.9333 N   0  0  0  0  0  0  0  0  0  0  0  0
   -4.8728   -8.1839   11.0456 C   0  0  0  0  0  0  0  0  0  0  0  0
   -5.7108   -7.5281   13.2190 C   0  0  0  0  0  0  0  0  0  0  0  0
   -6.1878   -6.5716   14.0678 C   0  0  0  0  0  0  0  0  0  0  0  0
   -6.3791   -5.2129   13.7579 C   0  0  0  0  0  0  0  0  0  0  0  0
   -6.8033   -4.3149   14.4837 O   0  0  0  0  0  0  0  0  0  0  0  0
   -6.4332   -7.2228   15.2690 N   0  0  0  0  0  0  0  0  0  0  0  0
   -6.0917   -8.5175   15.0670 C   0  0  0  0  0  0  0  0  0  0  0  0
   -5.6528   -8.7591   13.8628 N   0  0  0  0  0  0  0  0  0  0  0  0
  1  2  1  0  0  0  0
  2  9  1  0  0  0  0
  2  3  1  0  0  0  0
  3  5  1  0  0  0  0
  3  4  2  0  0  0  0
  5  6  1  0  0  0  0
  5  7  1  0  0  0  0
  7  8  2  0  0  0  0
  7 13  1  0  0  0  0
  8  9  1  0  0  0  0
  8 11  1  0  0  0  0
  9 10  2  0  0  0  0
 11 12  1  0  0  0  0
 12 13  2  0  0  0  0
M  END
>  <CHROM.1>
-5.88201384,-6.39027713,12.99090978,1.44843974,1.20337970,-0.59067389

>  <Name>
1eht cryst

>  <RI>
0

>  <Rbt.Current_Directory>
/home/itssahil/PROJECTS/Mol_Feturizer/New_Systems/rnas/1eht

>  <Rbt.Executable>
rbdock ($Id: //depot/dev/client3/rdock/2013.1/src/exe/rbdock.cxx#4 $)

>  <Rbt.Library>
libRbt.so (2013.1, Build901 2013/11/27)

>  <Rbt.Parameter_File>
/export/apps/rDock/src/rDock_2013.1_src/data/scripts/dock_solv.prm

>  <Rbt.Receptor>
prm/pocket_docking_2.prm

>  <SCORE>
-39.1106

>  <SCORE.INTER>
-39.1106

>  <SCORE.INTER.CONST>
1

>  <SCORE.INTER.POLAR>
-2.08995

>  <SCORE.INTER.ROT>
0

>  <SCORE.INTER.SOLV>
9.9518

>  <SCORE.INTER.VDW>
-26.0245

>  <SCORE.INTER.norm>
-3.00851

>  <SCORE.INTRA>
0

>  <SCORE.INTRA.DIHEDRAL>
0

>  <SCORE.INTRA.DIHEDRAL.0>
0

>  <SCORE.INTRA.POLAR>
0

>  <SCORE.INTRA.POLAR.0>
0

>  <SCORE.INTRA.REPUL>
0

>  <SCORE.INTRA.REPUL.0>
0

>  <SCORE.INTRA.SOLV>
0

>  <SCORE.INTRA.SOLV.lig_0>
-12.9768

>  <SCORE.INTRA.VDW>
0

>  <SCORE.INTRA.VDW.0>
0

>  <SCORE.INTRA.norm>
0

>  <SCORE.RESTR>
0

>  <SCORE.RESTR.CAVITY>
0

>  <SCORE.RESTR.norm>
0

>  <SCORE.SYSTEM>
0

>  <SCORE.SYSTEM.CONST>
0

>  <SCORE.SYSTEM.DIHEDRAL>
0

>  <SCORE.SYSTEM.SOLV>
0

>  <SCORE.SYSTEM.norm>
0

>  <SCORE.heavy>
13

>  <SCORE.norm>
-3.00851

>  <RMSD>
3.421

$$$$
1eht cryst
 OpenBabel11021811383D
libRbt.so/2013.1/901 2013/11/27
 13 14  0  0  0  0  0  0  0  0999 V2000
   -6.1099   -3.6928   12.0207 C   0  0  0  0  0  0  0  0  0  0  0  0
   -5.9867   -4.9953   12.4961 N   0  0  0  0  0  0  0  0  0  0  0  0
   -5.4749   -5.9463   11.6515 C   0  0  0  0  0  0  0  0  0  0  0  0
   -5.1657   -5.5670   10.5202 O   0  0  0  0  0  0  0  0  0  0  0  0
   -5.2962   -7.2662   11.9805 N   0  0  0  0  0  0  0  0  0  0  0  0
   -4.7753   -8.2093   11.1098 C   0  0  0  0  0  0  0  0  0  0  0  0
   -5.6854   -7.5563   13.2548 C   0  0  0  0  0  0  0  0  0  0  0  0
   -6.1949   -6.6018   14.0869 C   0  0  0  0  0  0  0  0  0  0  0  0
   -6.3846   -5.2447   13.7694 C   0  0  0  0  0  0  0  0  0  0  0  0
   -6.8370   -4.3484   14.4803 O   0  0  0  0  0  0  0  0  0  0  0  0
   -6.4741   -7.2532   15.2807 N   0  0  0  0  0  0  0  0  0  0  0  0
   -6.1185   -8.5460   15.0912 C   0  0  0  0  0  0  0  0  0  0  0  0
   -5.6403   -8.7862   13.9017 N   0  0  0  0  0  0  0  0  0  0  0  0
  1  2  1  0  0  0  0
  2  9  1  0  0  0  0
  2  3  1  0  0  0  0
  3  5  1  0  0  0  0
  3  4  2  0  0  0  0
  5  6  1  0  0  0  0
  5  7  1  0  0  0  0
  7  8  2  0  0  0  0
  7 13  1  0  0  0  0
  8  9  1  0  0  0  0
  8 11  1  0  0  0  0
  9 10  2  0  0  0  0
 11 12  1  0  0  0  0
 12 13  2  0  0  0  0
M  END
>  <CHROM.1>
-5.85633304,-6.41979522,13.02001633,1.41604926,1.17355168,-0.56180285

>  <Name>
1eht cryst

>  <RI>
0

>  <Rbt.Current_Directory>
/home/itssahil/PROJECTS/Mol_Feturizer/New_Systems/rnas/1eht

>  <Rbt.Executable>
rbdock ($Id: //depot/dev/client3/rdock/2013.1/src/exe/rbdock.cxx#4 $)

>  <Rbt.Library>
libRbt.so (2013.1, Build901 2013/11/27)

>  <Rbt.Parameter_File>
/export/apps/rDock/src/rDock_2013.1_src/data/scripts/dock_solv.prm

>  <Rbt.Receptor>
prm/blind_docking_40.prm

>  <SCORE>
-39.0795

>  <SCORE.INTER>
-39.0795

>  <SCORE.INTER.CONST>
1

>  <SCORE.INTER.POLAR>
-2.11703

>  <SCORE.INTER.ROT>
0

>  <SCORE.INTER.SOLV>
10.0068

>  <SCORE.INTER.VDW>
-25.9318

>  <SCORE.INTER.norm>
-3.00611

>  <SCORE.INTRA>
0

>  <SCORE.INTRA.DIHEDRAL>
0

>  <SCORE.INTRA.DIHEDRAL.0>
0

>  <SCORE.INTRA.POLAR>
0

>  <SCORE.INTRA.POLAR.0>
0

>  <SCORE.INTRA.REPUL>
0

>  <SCORE.INTRA.REPUL.0>
0

>  <SCORE.INTRA.SOLV>
0

>  <SCORE.INTRA.SOLV.lig_0>
-12.9768

>  <SCORE.INTRA.VDW>
0

>  <SCORE.INTRA.VDW.0>
0

>  <SCORE.INTRA.norm>
0

>  <SCORE.RESTR>
0

>  <SCORE.RESTR.CAVITY>
0

>  <SCORE.RESTR.norm>
0

>  <SCORE.SYSTEM>
0

>  <SCORE.SYSTEM.CONST>
0

>  <SCORE.SYSTEM.DIHEDRAL>
0

>  <SCORE.SYSTEM.SOLV>
0

>  <SCORE.SYSTEM.norm>
0

>  <SCORE.heavy>
13

>  <SCORE.norm>
-3.00611

>  <RMSD>
3.423

$$$$
1eht cryst
 OpenBabel11021811383D
libRbt.so/2013.1/901 2013/11/27
 13 14  0  0  0  0  0  0  0  0999 V2000
   -6.1490   -3.6956   12.0125 C   0  0  0  0  0  0  0  0  0  0  0  0
   -6.0112   -4.9957   12.4903 N   0  0  0  0  0  0  0  0  0  0  0  0
   -5.5062   -5.9466   11.6415 C   0  0  0  0  0  0  0  0  0  0  0  0
   -5.2157   -5.5693   10.5046 O   0  0  0  0  0  0  0  0  0  0  0  0
   -5.3150   -7.2643   11.9722 N   0  0  0  0  0  0  0  0  0  0  0  0
   -4.8013   -8.2072   11.0970 C   0  0  0  0  0  0  0  0  0  0  0  0
   -5.6839   -7.5523   13.2530 C   0  0  0  0  0  0  0  0  0  0  0  0
   -6.1867   -6.5981   14.0892 C   0  0  0  0  0  0  0  0  0  0  0  0
   -6.3890   -5.2431   13.7701 C   0  0  0  0  0  0  0  0  0  0  0  0
   -6.8362   -4.3472   14.4846 O   0  0  0  0  0  0  0  0  0  0  0  0
   -6.4447   -7.2471   15.2891 N   0  0  0  0  0  0  0  0  0  0  0  0
   -6.0843   -8.5384   15.0986 C   0  0  0  0  0  0  0  0  0  0  0  0
   -5.6221   -8.7798   13.9031 N   0  0  0  0  0  0  0  0  0  0  0  0
  1  2  1  0  0  0  0
  2  9  1  0  0  0  0
  2  3  1  0  0  0  0
  3  5  1  0  0  0  0
  3  4  2  0  0  0  0
  5  6  1  0  0  0  0
  5  7  1  0  0  0  0
  7  8  2  0  0  0  0
  7 13  1  0  0  0  0
  8  9  1  0  0  0  0
  8 11  1  0  0  0  0
  9 10  2  0  0  0  0
 11 12  1  0  0  0  0
 12 13  2  0  0  0  0
M  END
>  <CHROM.1>
-5.86486820,-6.41767944,13.01693295,1.44969298,1.18256730,-0.59619182

>  <Name>
1eht cryst

>  <RI>
0

>  <Rbt.Current_Directory>
/home/itssahil/PROJECTS/Mol_Feturizer/New_Systems/rnas/1eht

>  <Rbt.Executable>
rbdock ($Id: //depot/dev/client3/rdock/2013.1/src/exe/rbdock.cxx#4 $)

>  <Rbt.Library>
libRbt.so (2013.1, Build901 2013/11/27)

>  <Rbt.Parameter_File>
/export/apps/rDock/src/rDock_2013.1_src/data/scripts/dock_solv.prm

>  <Rbt.Receptor>
prm/blind_docking_60.prm

>  <SCORE>
-39.0571

>  <SCORE.INTER>
-39.0571

>  <SCORE.INTER.CONST>
1

>  <SCORE.INTER.POLAR>
-2.11487

>  <SCORE.INTER.ROT>
0

>  <SCORE.INTER.SOLV>
9.96475

>  <SCORE.INTER.VDW>
-25.9101

>  <SCORE.INTER.norm>
-3.00439

>  <SCORE.INTRA>
0

>  <SCORE.INTRA.DIHEDRAL>
0

>  <SCORE.INTRA.DIHEDRAL.0>
0

>  <SCORE.INTRA.POLAR>
0

>  <SCORE.INTRA.POLAR.0>
0

>  <SCORE.INTRA.REPUL>
0

>  <SCORE.INTRA.REPUL.0>
0

>  <SCORE.INTRA.SOLV>
0

>  <SCORE.INTRA.SOLV.lig_0>
-12.9768

>  <SCORE.INTRA.VDW>
0

>  <SCORE.INTRA.VDW.0>
0

>  <SCORE.INTRA.norm>
0

>  <SCORE.RESTR>
0

>  <SCORE.RESTR.CAVITY>
0

>  <SCORE.RESTR.norm>
0

>  <SCORE.SYSTEM>
0

>  <SCORE.SYSTEM.CONST>
0

>  <SCORE.SYSTEM.DIHEDRAL>
0

>  <SCORE.SYSTEM.SOLV>
0

>  <SCORE.SYSTEM.norm>
0

>  <SCORE.heavy>
13

>  <SCORE.norm>
-3.00439

>  <RMSD>
3.424

$$$$
1eht cryst
 OpenBabel11021811383D
libRbt.so/2013.1/901 2013/11/27
 13 14  0  0  0  0  0  0  0  0999 V2000
   -6.1267   -3.7292   11.9637 C   0  0  0  0  0  0  0  0  0  0  0  0
   -5.9792   -5.0307   12.4349 N   0  0  0  0  0  0  0  0  0  0  0  0
   -5.4672   -5.9734   11.5812 C   0  0  0  0  0  0  0  0  0  0  0  0
   -5.1798   -5.5883   10.4462 O   0  0  0  0  0  0  0  0  0  0  0  0
   -5.2662   -7.2914   11.9052 N   0  0  0  0  0  0  0  0  0  0  0  0
   -4.7456   -8.2260   11.0252 C   0  0  0  0  0  0  0  0  0  0  0  0
   -5.6328   -7.5886   13.1845 C   0  0  0  0  0  0  0  0  0  0  0  0
   -6.1426   -6.6424   14.0257 C   0  0  0  0  0  0  0  0  0  0  0  0
   -6.3550   -5.2874   13.7134 C   0  0  0  0  0  0  0  0  0  0  0  0
   -6.8088   -4.3984   14.4325 O   0  0  0  0  0  0  0  0  0  0  0  0
   -6.3956   -7.2994   15.2222 N   0  0  0  0  0  0  0  0  0  0  0  0
   -6.0256   -8.5870   15.0252 C   0  0  0  0  0  0  0  0  0  0  0  0
   -5.5618   -8.8189   13.8284 N   0  0  0  0  0  0  0  0  0  0  0  0
  1  2  1  0  0  0  0
  2  9  1  0  0  0  0
  2  3  1  0  0  0  0
  3  5  1  0  0  0  0
  3  4  2  0  0  0  0
  5  6  1  0  0  0  0
  5  7  1  0  0  0  0
  7  8  2  0  0  0  0
  7 13  1  0  0  0  0
  8  9  1  0  0  0  0
  8 11  1  0  0  0  0
  9 10  2  0  0  0  0
 11 12  1  0  0  0  0
 12 13  2  0  0  0  0
M  END
>  <CHROM.1>
-5.82222674,-6.45418182,12.95426720,1.46598696,1.17845876,-0.60618852

>  <Name>
1eht cryst

>  <RI>
0

>  <Rbt.Current_Directory>
/home/itssahil/PROJECTS/Mol_Feturizer/New_Systems/rnas/1eht

>  <Rbt.Executable>
rbdock ($Id: //depot/dev/client3/rdock/2013.1/src/exe/rbdock.cxx#4 $)

>  <Rbt.Library>
libRbt.so (2013.1, Build901 2013/11/27)

>  <Rbt.Parameter_File>
/export/apps/rDock/src/rDock_2013.1_src/data/scripts/dock_solv.prm

>  <Rbt.Receptor>
prm/pocket_docking_3.prm

>  <SCORE>
-39.0636

>  <SCORE.INTER>
-39.0636

>  <SCORE.INTER.CONST>
1

>  <SCORE.INTER.POLAR>
-2.14672

>  <SCORE.INTER.ROT>
0

>  <SCORE.INTER.SOLV>
9.81007

>  <SCORE.INTER.VDW>
-25.7567

>  <SCORE.INTER.norm>
-3.00489

>  <SCORE.INTRA>
0

>  <SCORE.INTRA.DIHEDRAL>
0

>  <SCORE.INTRA.DIHEDRAL.0>
0

>  <SCORE.INTRA.POLAR>
0

>  <SCORE.INTRA.POLAR.0>
0

>  <SCORE.INTRA.REPUL>
0

>  <SCORE.INTRA.REPUL.0>
0

>  <SCORE.INTRA.SOLV>
0

>  <SCORE.INTRA.SOLV.lig_0>
-12.9768

>  <SCORE.INTRA.VDW>
0

>  <SCORE.INTRA.VDW.0>
0

>  <SCORE.INTRA.norm>
0

>  <SCORE.RESTR>
0

>  <SCORE.RESTR.CAVITY>
0

>  <SCORE.RESTR.norm>
0

>  <SCORE.SYSTEM>
0

>  <SCORE.SYSTEM.CONST>
0

>  <SCORE.SYSTEM.DIHEDRAL>
0

>  <SCORE.SYSTEM.SOLV>
0

>  <SCORE.SYSTEM.norm>
0

>  <SCORE.heavy>
13

>  <SCORE.norm>
-3.00489

>  <RMSD>
3.424

$$$$
1eht cryst
 OpenBabel11021811383D
libRbt.so/2013.1/901 2013/11/27
 13 14  0  0  0  0  0  0  0  0999 V2000
   -6.1599   -3.6978   12.0199 C   0  0  0  0  0  0  0  0  0  0  0  0
   -6.0183   -4.9966   12.5000 N   0  0  0  0  0  0  0  0  0  0  0  0
   -5.5117   -5.9478   11.6525 C   0  0  0  0  0  0  0  0  0  0  0  0
   -5.2234   -5.5720   10.5146 O   0  0  0  0  0  0  0  0  0  0  0  0
   -5.3169   -7.2645   11.9856 N   0  0  0  0  0  0  0  0  0  0  0  0
   -4.8017   -8.2078   11.1117 C   0  0  0  0  0  0  0  0  0  0  0  0
   -5.6839   -7.5510   13.2673 C   0  0  0  0  0  0  0  0  0  0  0  0
   -6.1883   -6.5964   14.1022 C   0  0  0  0  0  0  0  0  0  0  0  0
   -6.3943   -5.2426   13.7807 C   0  0  0  0  0  0  0  0  0  0  0  0
   -6.8431   -4.3464   14.4939 O   0  0  0  0  0  0  0  0  0  0  0  0
   -6.4435   -7.2437   15.3035 N   0  0  0  0  0  0  0  0  0  0  0  0
   -6.0801   -8.5345   15.1152 C   0  0  0  0  0  0  0  0  0  0  0  0
   -5.6184   -8.7771   13.9197 N   0  0  0  0  0  0  0  0  0  0  0  0
  1  2  1  0  0  0  0
  2  9  1  0  0  0  0
  2  3  1  0  0  0  0
  3  5  1  0  0  0  0
  3  4  2  0  0  0  0
  5  6  1  0  0  0  0
  5  7  1  0  0  0  0
  7  8  2  0  0  0  0
  7 13  1  0  0  0  0
  8  9  1  0  0  0  0
  8 11  1  0  0  0  0
  9 10  2  0  0  0  0
 11 12  1  0  0  0  0
 12 13  2  0  0  0  0
M  END
>  <CHROM.1>
-5.86792945,-6.41721777,13.02925202,1.45662089,1.18194510,-0.60451686

>  <Name>
1eht cryst

>  <RI>
0

>  <Rbt.Current_Directory>
/home/itssahil/PROJECTS/Mol_Feturizer/New_Systems/rnas/1eht

>  <Rbt.Executable>
rbdock ($Id: //depot/dev/client3/rdock/2013.1/src/exe/rbdock.cxx#4 $)

>  <Rbt.Library>
libRbt.so (2013.1, Build901 2013/11/27)

>  <Rbt.Parameter_File>
/export/apps/rDock/src/rDock_2013.1_src/data/scripts/dock_solv.prm

>  <Rbt.Receptor>
prm/pocket_docking_6.prm

>  <SCORE>
-39.0481

>  <SCORE.INTER>
-39.0481

>  <SCORE.INTER.CONST>
1

>  <SCORE.INTER.POLAR>
-2.11362

>  <SCORE.INTER.ROT>
0

>  <SCORE.INTER.SOLV>
9.97403

>  <SCORE.INTER.VDW>
-25.9113

>  <SCORE.INTER.norm>
-3.0037

>  <SCORE.INTRA>
0

>  <SCORE.INTRA.DIHEDRAL>
0

>  <SCORE.INTRA.DIHEDRAL.0>
0

>  <SCORE.INTRA.POLAR>
0

>  <SCORE.INTRA.POLAR.0>
0

>  <SCORE.INTRA.REPUL>
0

>  <SCORE.INTRA.REPUL.0>
0

>  <SCORE.INTRA.SOLV>
0

>  <SCORE.INTRA.SOLV.lig_0>
-12.9768

>  <SCORE.INTRA.VDW>
0

>  <SCORE.INTRA.VDW.0>
0

>  <SCORE.INTRA.norm>
0

>  <SCORE.RESTR>
0

>  <SCORE.RESTR.CAVITY>
0

>  <SCORE.RESTR.norm>
0

>  <SCORE.SYSTEM>
0

>  <SCORE.SYSTEM.CONST>
0

>  <SCORE.SYSTEM.DIHEDRAL>
0

>  <SCORE.SYSTEM.SOLV>
0

>  <SCORE.SYSTEM.norm>
0

>  <SCORE.heavy>
13

>  <SCORE.norm>
-3.0037

>  <RMSD>
3.425

$$$$
1eht cryst
 OpenBabel11021811383D
libRbt.so/2013.1/901 2013/11/27
 13 14  0  0  0  0  0  0  0  0999 V2000
   -6.1081   -3.7051   12.0256 C   0  0  0  0  0  0  0  0  0  0  0  0
   -5.9804   -5.0063   12.5031 N   0  0  0  0  0  0  0  0  0  0  0  0
   -5.4731   -5.9588   11.6575 C   0  0  0  0  0  0  0  0  0  0  0  0
   -5.1717   -5.5819   10.5233 O   0  0  0  0  0  0  0  0  0  0  0  0
   -5.2909   -7.2778   11.9884 N   0  0  0  0  0  0  0  0  0  0  0  0
   -4.7747   -8.2223   11.1165 C   0  0  0  0  0  0  0  0  0  0  0  0
   -5.6716   -7.5652   13.2659 C   0  0  0  0  0  0  0  0  0  0  0  0
   -6.1765   -6.6094   14.0990 C   0  0  0  0  0  0  0  0  0  0  0  0
   -6.3697   -5.2531   13.7796 C   0  0  0  0  0  0  0  0  0  0  0  0
   -6.8184   -4.3557   14.4914 O   0  0  0  0  0  0  0  0  0  0  0  0
   -6.4473   -7.2582   15.2961 N   0  0  0  0  0  0  0  0  0  0  0  0
   -6.0916   -8.5511   15.1073 C   0  0  0  0  0  0  0  0  0  0  0  0
   -5.6209   -8.7936   13.9154 N   0  0  0  0  0  0  0  0  0  0  0  0
  1  2  1  0  0  0  0
  2  9  1  0  0  0  0
  2  3  1  0  0  0  0
  3  5  1  0  0  0  0
  3  4  2  0  0  0  0
  5  6  1  0  0  0  0
  5  7  1  0  0  0  0
  7  8  2  0  0  0  0
  7 13  1  0  0  0  0
  8  9  1  0  0  0  0
  8 11  1  0  0  0  0
  9 10  2  0  0  0  0
 11 12  1  0  0  0  0
 12 13  2  0  0  0  0
M  END
>  <CHROM.1>
-5.84517190,-6.42947192,13.02955484,1.42742868,1.17850202,-0.57464214

>  <Name>
1eht cryst

>  <RI>
0

>  <Rbt.Current_Directory>
/home/itssahil/PROJECTS/Mol_Feturizer/New_Systems/rnas/1eht

>  <Rbt.Executable>
rbdock ($Id: //depot/dev/client3/rdock/2013.1/src/exe/rbdock.cxx#4 $)

>  <Rbt.Library>
libRbt.so (2013.1, Build901 2013/11/27)

>  <Rbt.Parameter_File>
/export/apps/rDock/src/rDock_2013.1_src/data/scripts/dock_solv.prm

>  <Rbt.Receptor>
prm/pocket_docking_8.prm

>  <SCORE>
-39.1133

>  <SCORE.INTER>
-39.1133

>  <SCORE.INTER.CONST>
1

>  <SCORE.INTER.POLAR>
-2.11151

>  <SCORE.INTER.ROT>
0

>  <SCORE.INTER.SOLV>
9.9808

>  <SCORE.INTER.VDW>
-25.9641

>  <SCORE.INTER.norm>
-3.00872

>  <SCORE.INTRA>
0

>  <SCORE.INTRA.DIHEDRAL>
0

>  <SCORE.INTRA.DIHEDRAL.0>
0

>  <SCORE.INTRA.POLAR>
0

>  <SCORE.INTRA.POLAR.0>
0

>  <SCORE.INTRA.REPUL>
0

>  <SCORE.INTRA.REPUL.0>
0

>  <SCORE.INTRA.SOLV>
0

>  <SCORE.INTRA.SOLV.lig_0>
-12.9768

>  <SCORE.INTRA.VDW>
0

>  <SCORE.INTRA.VDW.0>
0

>  <SCORE.INTRA.norm>
0

>  <SCORE.RESTR>
0

>  <SCORE.RESTR.CAVITY>
0

>  <SCORE.RESTR.norm>
0

>  <SCORE.SYSTEM>
0

>  <SCORE.SYSTEM.CONST>
0

>  <SCORE.SYSTEM.DIHEDRAL>
0

>  <SCORE.SYSTEM.SOLV>
0

>  <SCORE.SYSTEM.norm>
0

>  <SCORE.heavy>
13

>  <SCORE.norm>
-3.00872

>  <RMSD>
3.425

$$$$
1eht cryst
 OpenBabel11021811383D
libRbt.so/2013.1/901 2013/11/27
 13 14  0  0  0  0  0  0  0  0999 V2000
   -6.1030   -3.7035   12.0321 C   0  0  0  0  0  0  0  0  0  0  0  0
   -5.9771   -5.0054   12.5082 N   0  0  0  0  0  0  0  0  0  0  0  0
   -5.4704   -5.9575   11.6616 C   0  0  0  0  0  0  0  0  0  0  0  0
   -5.1679   -5.5795   10.5281 O   0  0  0  0  0  0  0  0  0  0  0  0
   -5.2898   -7.2770   11.9911 N   0  0  0  0  0  0  0  0  0  0  0  0
   -4.7742   -8.2211   11.1184 C   0  0  0  0  0  0  0  0  0  0  0  0
   -5.6715   -7.5656   13.2680 C   0  0  0  0  0  0  0  0  0  0  0  0
   -6.1759   -6.6102   14.1020 C   0  0  0  0  0  0  0  0  0  0  0  0
   -6.3674   -5.2533   13.7841 C   0  0  0  0  0  0  0  0  0  0  0  0
   -6.8155   -4.3563   14.4967 O   0  0  0  0  0  0  0  0  0  0  0  0
   -6.4481   -7.2602   15.2981 N   0  0  0  0  0  0  0  0  0  0  0  0
   -6.0938   -8.5532   15.1080 C   0  0  0  0  0  0  0  0  0  0  0  0
   -5.6227   -8.7948   13.9160 N   0  0  0  0  0  0  0  0  0  0  0  0
  1  2  1  0  0  0  0
  2  9  1  0  0  0  0
  2  3  1  0  0  0  0
  3  5  1  0  0  0  0
  3  4  2  0  0  0  0
  5  6  1  0  0  0  0
  5  7  1  0  0  0  0
  7  8  2  0  0  0  0
  7 13  1  0  0  0  0
  8  9  1  0  0  0  0
  8 11  1  0  0  0  0
  9 10  2  0  0  0  0
 11 12  1  0  0  0  0
 12 13  2  0  0  0  0
M  END
>  <CHROM.1>
-5.84373645,-6.42936993,13.03291666,1.42414529,1.17861211,-0.57039968

>  <Name>
1eht cryst

>  <RI>
0

>  <Rbt.Current_Directory>
/home/itssahil/PROJECTS/Mol_Feturizer/New_Systems/rnas/1eht

>  <Rbt.Executable>
rbdock ($Id: //depot/dev/client3/rdock/2013.1/src/exe/rbdock.cxx#4 $)

>  <Rbt.Library>
libRbt.so (2013.1, Build901 2013/11/27)

>  <Rbt.Parameter_File>
/export/apps/rDock/src/rDock_2013.1_src/data/scripts/dock_solv.prm

>  <Rbt.Receptor>
prm/pocket_docking_3.prm

>  <SCORE>
-39.1156

>  <SCORE.INTER>
-39.1156

>  <SCORE.INTER.CONST>
1

>  <SCORE.INTER.POLAR>
-2.10925

>  <SCORE.INTER.ROT>
0

>  <SCORE.INTER.SOLV>
9.98514

>  <SCORE.INTER.VDW>
-25.9746

>  <SCORE.INTER.norm>
-3.0089

>  <SCORE.INTRA>
0

>  <SCORE.INTRA.DIHEDRAL>
0

>  <SCORE.INTRA.DIHEDRAL.0>
0

>  <SCORE.INTRA.POLAR>
0

>  <SCORE.INTRA.POLAR.0>
0

>  <SCORE.INTRA.REPUL>
0

>  <SCORE.INTRA.REPUL.0>
0

>  <SCORE.INTRA.SOLV>
0

>  <SCORE.INTRA.SOLV.lig_0>
-12.9768

>  <SCORE.INTRA.VDW>
0

>  <SCORE.INTRA.VDW.0>
0

>  <SCORE.INTRA.norm>
0

>  <SCORE.RESTR>
0

>  <SCORE.RESTR.CAVITY>
0

>  <SCORE.RESTR.norm>
0

>  <SCORE.SYSTEM>
0

>  <SCORE.SYSTEM.CONST>
0

>  <SCORE.SYSTEM.DIHEDRAL>
0

>  <SCORE.SYSTEM.SOLV>
0

>  <SCORE.SYSTEM.norm>
0

>  <SCORE.heavy>
13

>  <SCORE.norm>
-3.0089

>  <RMSD>
3.427

$$$$
1eht cryst
 OpenBabel11021811383D
libRbt.so/2013.1/901 2013/11/27
 13 14  0  0  0  0  0  0  0  0999 V2000
   -6.1029   -3.7026   12.0341 C   0  0  0  0  0  0  0  0  0  0  0  0
   -5.9773   -5.0047   12.5097 N   0  0  0  0  0  0  0  0  0  0  0  0
   -5.4706   -5.9565   11.6630 C   0  0  0  0  0  0  0  0  0  0  0  0
   -5.1677   -5.5782   10.5297 O   0  0  0  0  0  0  0  0  0  0  0  0
   -5.2905   -7.2762   11.9920 N   0  0  0  0  0  0  0  0  0  0  0  0
   -4.7748   -8.2202   11.1191 C   0  0  0  0  0  0  0  0  0  0  0  0
   -5.6727   -7.5652   13.2687 C   0  0  0  0  0  0  0  0  0  0  0  0
   -6.1771   -6.6100   14.1029 C   0  0  0  0  0  0  0  0  0  0  0  0
   -6.3681   -5.2530   13.7854 C   0  0  0  0  0  0  0  0  0  0  0  0
   -6.8162   -4.3561   14.4982 O   0  0  0  0  0  0  0  0  0  0  0  0
   -6.4498   -7.2603   15.2987 N   0  0  0  0  0  0  0  0  0  0  0  0
   -6.0957   -8.5534   15.1082 C   0  0  0  0  0  0  0  0  0  0  0  0
   -5.6243   -8.7947   13.9163 N   0  0  0  0  0  0  0  0  0  0  0  0
  1  2  1  0  0  0  0
  2  9  1  0  0  0  0
  2  3  1  0  0  0  0
  3  5  1  0  0  0  0
  3  4  2  0  0  0  0
  5  6  1  0  0  0  0
  5  7  1  0  0  0  0
  7  8  2  0  0  0  0
  7 13  1  0  0  0  0
  8  9  1  0  0  0  0
  8 11  1  0  0  0  0
  9 10  2  0  0  0  0
 11 12  1  0  0  0  0
 12 13  2  0  0  0  0
M  END
>  <CHROM.1>
-5.84450014,-6.42885435,13.03397523,1.42319557,1.17849645,-0.56915535

>  <Name>
1eht cryst

>  <RI>
0

>  <Rbt.Current_Directory>
/home/itssahil/PROJECTS/Mol_Feturizer/New_Systems/rnas/1eht

>  <Rbt.Executable>
rbdock ($Id: //depot/dev/client3/rdock/2013.1/src/exe/rbdock.cxx#4 $)

>  <Rbt.Library>
libRbt.so (2013.1, Build901 2013/11/27)

>  <Rbt.Parameter_File>
/export/apps/rDock/src/rDock_2013.1_src/data/scripts/dock_solv.prm

>  <Rbt.Receptor>
prm/pocket_docking_5.prm

>  <SCORE>
-39.1151

>  <SCORE.INTER>
-39.1151

>  <SCORE.INTER.CONST>
1

>  <SCORE.INTER.POLAR>
-2.10887

>  <SCORE.INTER.ROT>
0

>  <SCORE.INTER.SOLV>
9.98779

>  <SCORE.INTER.VDW>
-25.9764

>  <SCORE.INTER.norm>
-3.00885

>  <SCORE.INTRA>
0

>  <SCORE.INTRA.DIHEDRAL>
0

>  <SCORE.INTRA.DIHEDRAL.0>
0

>  <SCORE.INTRA.POLAR>
0

>  <SCORE.INTRA.POLAR.0>
0

>  <SCORE.INTRA.REPUL>
0

>  <SCORE.INTRA.REPUL.0>
0

>  <SCORE.INTRA.SOLV>
0

>  <SCORE.INTRA.SOLV.lig_0>
-12.9768

>  <SCORE.INTRA.VDW>
0

>  <SCORE.INTRA.VDW.0>
0

>  <SCORE.INTRA.norm>
0

>  <SCORE.RESTR>
0

>  <SCORE.RESTR.CAVITY>
0

>  <SCORE.RESTR.norm>
0

>  <SCORE.SYSTEM>
0

>  <SCORE.SYSTEM.CONST>
0

>  <SCORE.SYSTEM.DIHEDRAL>
0

>  <SCORE.SYSTEM.SOLV>
0

>  <SCORE.SYSTEM.norm>
0

>  <SCORE.heavy>
13

>  <SCORE.norm>
-3.00885

>  <RMSD>
3.427

$$$$
1eht cryst
 OpenBabel11021811383D
libRbt.so/2013.1/901 2013/11/27
 13 14  0  0  0  0  0  0  0  0999 V2000
   -6.1100   -3.7048   11.9929 C   0  0  0  0  0  0  0  0  0  0  0  0
   -5.9840   -5.0121   12.4542 N   0  0  0  0  0  0  0  0  0  0  0  0
   -5.5072   -5.9608   11.5869 C   0  0  0  0  0  0  0  0  0  0  0  0
   -5.2296   -5.5753   10.4496 O   0  0  0  0  0  0  0  0  0  0  0  0
   -5.3304   -7.2849   11.9000 N   0  0  0  0  0  0  0  0  0  0  0  0
   -4.8453   -8.2255   11.0064 C   0  0  0  0  0  0  0  0  0  0  0  0
   -5.6828   -7.5816   13.1835 C   0  0  0  0  0  0  0  0  0  0  0  0
   -6.1576   -6.6294   14.0382 C   0  0  0  0  0  0  0  0  0  0  0  0
   -6.3447   -5.2681   13.7372 C   0  0  0  0  0  0  0  0  0  0  0  0
   -6.7667   -4.3736   14.4687 O   0  0  0  0  0  0  0  0  0  0  0  0
   -6.4058   -7.2878   15.2350 N   0  0  0  0  0  0  0  0  0  0  0  0
   -6.0680   -8.5821   15.0246 C   0  0  0  0  0  0  0  0  0  0  0  0
   -5.6289   -8.8171   13.8192 N   0  0  0  0  0  0  0  0  0  0  0  0
  1  2  1  0  0  0  0
  2  9  1  0  0  0  0
  2  3  1  0  0  0  0
  3  5  1  0  0  0  0
  3  4  2  0  0  0  0
  5  6  1  0  0  0  0
  5  7  1  0  0  0  0
  7  8  2  0  0  0  0
  7 13  1  0  0  0  0
  8  9  1  0  0  0  0
  8 11  1  0  0  0  0
  9 10  2  0  0  0  0
 11 12  1  0  0  0  0
 12 13  2  0  0  0  0
M  END
>  <CHROM.1>
-5.85051454,-6.44183367,12.96283974,1.44041412,1.20443241,-0.57655269

>  <Name>
1eht cryst

>  <RI>
224

>  <Rbt.Current_Directory>
/home/itssahil/PROJECTS/Mol_Feturizer/New_Systems/rnas/1eht

>  <Rbt.Executable>
rbdock ($Id: //depot/dev/client3/rdock/2013.1/src/exe/rbdock.cxx#4 $)

>  <Rbt.Library>
libRbt.so (2013.1, Build901 2013/11/27)

>  <Rbt.Parameter_File>
/export/apps/rDock/src/rDock_2013.1_src/data/scripts/dock_solv.prm

>  <Rbt.Receptor>
prm/pocket_docking_7.prm

>  <SCORE>
-39.0897

>  <SCORE.INTER>
-39.0897

>  <SCORE.INTER.CONST>
1

>  <SCORE.INTER.POLAR>
-2.11132

>  <SCORE.INTER.ROT>
0

>  <SCORE.INTER.SOLV>
9.82781

>  <SCORE.INTER.VDW>
-25.898

>  <SCORE.INTER.norm>
-3.0069

>  <SCORE.INTRA>
0

>  <SCORE.INTRA.DIHEDRAL>
0

>  <SCORE.INTRA.DIHEDRAL.0>
0

>  <SCORE.INTRA.POLAR>
0

>  <SCORE.INTRA.POLAR.0>
0

>  <SCORE.INTRA.REPUL>
0

>  <SCORE.INTRA.REPUL.0>
0

>  <SCORE.INTRA.SOLV>
0

>  <SCORE.INTRA.SOLV.lig_0>
-12.9768

>  <SCORE.INTRA.VDW>
0

>  <SCORE.INTRA.VDW.0>
0

>  <SCORE.INTRA.norm>
0

>  <SCORE.RESTR>
0

>  <SCORE.RESTR.CAVITY>
0

>  <SCORE.RESTR.norm>
0

>  <SCORE.SYSTEM>
0

>  <SCORE.SYSTEM.CONST>
0

>  <SCORE.SYSTEM.DIHEDRAL>
0

>  <SCORE.SYSTEM.SOLV>
0

>  <SCORE.SYSTEM.norm>
0

>  <SCORE.heavy>
13

>  <SCORE.norm>
-3.0069

>  <RMSD>
3.428

$$$$
1eht cryst
 OpenBabel11021811383D
libRbt.so/2013.1/901 2013/11/27
 13 14  0  0  0  0  0  0  0  0999 V2000
   -6.1054   -3.7056   11.9847 C   0  0  0  0  0  0  0  0  0  0  0  0
   -5.9772   -5.0136   12.4433 N   0  0  0  0  0  0  0  0  0  0  0  0
   -5.4977   -5.9595   11.5744 C   0  0  0  0  0  0  0  0  0  0  0  0
   -5.2199   -5.5710   10.4381 O   0  0  0  0  0  0  0  0  0  0  0  0
   -5.3185   -7.2839   11.8849 N   0  0  0  0  0  0  0  0  0  0  0  0
   -4.8307   -8.2216   10.9896 C   0  0  0  0  0  0  0  0  0  0  0  0
   -5.6714   -7.5841   13.1674 C   0  0  0  0  0  0  0  0  0  0  0  0
   -6.1488   -6.6346   14.0238 C   0  0  0  0  0  0  0  0  0  0  0  0
   -6.3384   -5.2731   13.7255 C   0  0  0  0  0  0  0  0  0  0  0  0
   -6.7629   -4.3810   14.4585 O   0  0  0  0  0  0  0  0  0  0  0  0
   -6.3967   -7.2960   15.2189 N   0  0  0  0  0  0  0  0  0  0  0  0
   -6.0561   -8.5893   15.0061 C   0  0  0  0  0  0  0  0  0  0  0  0
   -5.6155   -8.8207   13.8005 N   0  0  0  0  0  0  0  0  0  0  0  0
  1  2  1  0  0  0  0
  2  9  1  0  0  0  0
  2  3  1  0  0  0  0
  3  5  1  0  0  0  0
  3  4  2  0  0  0  0
  5  6  1  0  0  0  0
  5  7  1  0  0  0  0
  7  8  2  0  0  0  0
  7 13  1  0  0  0  0
  8  9  1  0  0  0  0
  8 11  1  0  0  0  0
  9 10  2  0  0  0  0
 11 12  1  0  0  0  0
 12 13  2  0  0  0  0
M  END
>  <CHROM.1>
-5.84121333,-6.44416143,12.94903120,1.44389280,1.20261695,-0.57767462

>  <Name>
1eht cryst

>  <RI>
0

>  <Rbt.Current_Directory>
/home/itssahil/PROJECTS/Mol_Feturizer/New_Systems/rnas/1eht

>  <Rbt.Executable>
rbdock ($Id: //depot/dev/client3/rdock/2013.1/src/exe/rbdock.cxx#4 $)

>  <Rbt.Library>
libRbt.so (2013.1, Build901 2013/11/27)

>  <Rbt.Parameter_File>
/export/apps/rDock/src/rDock_2013.1_src/data/scripts/dock_solv.prm

>  <Rbt.Receptor>
prm/pocket_docking_4.prm

>  <SCORE>
-39.0626

>  <SCORE.INTER>
-39.0626

>  <SCORE.INTER.CONST>
1

>  <SCORE.INTER.POLAR>
-2.11671

>  <SCORE.INTER.ROT>
0

>  <SCORE.INTER.SOLV>
9.80177

>  <SCORE.INTER.VDW>
-25.8533

>  <SCORE.INTER.norm>
-3.00481

>  <SCORE.INTRA>
0

>  <SCORE.INTRA.DIHEDRAL>
0

>  <SCORE.INTRA.DIHEDRAL.0>
0

>  <SCORE.INTRA.POLAR>
0

>  <SCORE.INTRA.POLAR.0>
0

>  <SCORE.INTRA.REPUL>
0

>  <SCORE.INTRA.REPUL.0>
0

>  <SCORE.INTRA.SOLV>
0

>  <SCORE.INTRA.SOLV.lig_0>
-12.9768

>  <SCORE.INTRA.VDW>
0

>  <SCORE.INTRA.VDW.0>
0

>  <SCORE.INTRA.norm>
0

>  <SCORE.RESTR>
0

>  <SCORE.RESTR.CAVITY>
0

>  <SCORE.RESTR.norm>
0

>  <SCORE.SYSTEM>
0

>  <SCORE.SYSTEM.CONST>
0

>  <SCORE.SYSTEM.DIHEDRAL>
0

>  <SCORE.SYSTEM.SOLV>
0

>  <SCORE.SYSTEM.norm>
0

>  <SCORE.heavy>
13

>  <SCORE.norm>
-3.00481

>  <RMSD>
3.429

$$$$
1eht cryst
 OpenBabel11021811383D
libRbt.so/2013.1/901 2013/11/27
 13 14  0  0  0  0  0  0  0  0999 V2000
   -6.1206   -3.7045   11.9906 C   0  0  0  0  0  0  0  0  0  0  0  0
   -5.9892   -5.0113   12.4514 N   0  0  0  0  0  0  0  0  0  0  0  0
   -5.5106   -5.9582   11.5831 C   0  0  0  0  0  0  0  0  0  0  0  0
   -5.2366   -5.5716   10.4453 O   0  0  0  0  0  0  0  0  0  0  0  0
   -5.3287   -7.2817   11.8957 N   0  0  0  0  0  0  0  0  0  0  0  0
   -4.8418   -8.2205   11.0010 C   0  0  0  0  0  0  0  0  0  0  0  0
   -5.6775   -7.5799   13.1798 C   0  0  0  0  0  0  0  0  0  0  0  0
   -6.1541   -6.6294   14.0356 C   0  0  0  0  0  0  0  0  0  0  0  0
   -6.3465   -5.2688   13.7351 C   0  0  0  0  0  0  0  0  0  0  0  0
   -6.7703   -4.3759   14.4675 O   0  0  0  0  0  0  0  0  0  0  0  0
   -6.3976   -7.2888   15.2327 N   0  0  0  0  0  0  0  0  0  0  0  0
   -6.0557   -8.5820   15.0215 C   0  0  0  0  0  0  0  0  0  0  0  0
   -5.6181   -8.8152   13.8152 N   0  0  0  0  0  0  0  0  0  0  0  0
  1  2  1  0  0  0  0
  2  9  1  0  0  0  0
  2  3  1  0  0  0  0
  3  5  1  0  0  0  0
  3  4  2  0  0  0  0
  5  6  1  0  0  0  0
  5  7  1  0  0  0  0
  7  8  2  0  0  0  0
  7 13  1  0  0  0  0
  8  9  1  0  0  0  0
  8 11  1  0  0  0  0
  9 10  2  0  0  0  0
 11 12  1  0  0  0  0
 12 13  2  0  0  0  0
M  END
>  <CHROM.1>
-5.84967432,-6.44064808,12.95961395,1.45156889,1.20407923,-0.58683086

>  <Name>
1eht cryst

>  <RI>
0

>  <Rbt.Current_Directory>
/home/itssahil/PROJECTS/Mol_Feturizer/New_Systems/rnas/1eht

>  <Rbt.Executable>
rbdock ($Id: //depot/dev/client3/rdock/2013.1/src/exe/rbdock.cxx#4 $)

>  <Rbt.Library>
libRbt.so (2013.1, Build901 2013/11/27)

>  <Rbt.Parameter_File>
/export/apps/rDock/src/rDock_2013.1_src/data/scripts/dock_solv.prm

>  <Rbt.Receptor>
prm/pocket_docking_6.prm

>  <SCORE>
-39.0921

>  <SCORE.INTER>
-39.0921

>  <SCORE.INTER.CONST>
1

>  <SCORE.INTER.POLAR>
-2.11383

>  <SCORE.INTER.ROT>
0

>  <SCORE.INTER.SOLV>
9.81359

>  <SCORE.INTER.VDW>
-25.8865

>  <SCORE.INTER.norm>
-3.00708

>  <SCORE.INTRA>
0

>  <SCORE.INTRA.DIHEDRAL>
0

>  <SCORE.INTRA.DIHEDRAL.0>
0

>  <SCORE.INTRA.POLAR>
0

>  <SCORE.INTRA.POLAR.0>
0

>  <SCORE.INTRA.REPUL>
0

>  <SCORE.INTRA.REPUL.0>
0

>  <SCORE.INTRA.SOLV>
0

>  <SCORE.INTRA.SOLV.lig_0>
-12.9768

>  <SCORE.INTRA.VDW>
0

>  <SCORE.INTRA.VDW.0>
0

>  <SCORE.INTRA.norm>
0

>  <SCORE.RESTR>
0

>  <SCORE.RESTR.CAVITY>
0

>  <SCORE.RESTR.norm>
0

>  <SCORE.SYSTEM>
0

>  <SCORE.SYSTEM.CONST>
0

>  <SCORE.SYSTEM.DIHEDRAL>
0

>  <SCORE.SYSTEM.SOLV>
0

>  <SCORE.SYSTEM.norm>
0

>  <SCORE.heavy>
13

>  <SCORE.norm>
-3.00708

>  <RMSD>
3.429

$$$$
1eht cryst
 OpenBabel11021811383D
libRbt.so/2013.1/901 2013/11/27
 13 14  0  0  0  0  0  0  0  0999 V2000
   -6.1466   -3.6940   12.0274 C   0  0  0  0  0  0  0  0  0  0  0  0
   -6.0112   -4.9956   12.5018 N   0  0  0  0  0  0  0  0  0  0  0  0
   -5.5106   -5.9458   11.6496 C   0  0  0  0  0  0  0  0  0  0  0  0
   -5.2217   -5.5667   10.5130 O   0  0  0  0  0  0  0  0  0  0  0  0
   -5.3222   -7.2648   11.9768 N   0  0  0  0  0  0  0  0  0  0  0  0
   -4.8129   -8.2071   11.0984 C   0  0  0  0  0  0  0  0  0  0  0  0
   -5.6890   -7.5549   13.2578 C   0  0  0  0  0  0  0  0  0  0  0  0
   -6.1874   -6.6013   14.0974 C   0  0  0  0  0  0  0  0  0  0  0  0
   -6.3868   -5.2450   13.7819 C   0  0  0  0  0  0  0  0  0  0  0  0
   -6.8301   -4.3495   14.4995 O   0  0  0  0  0  0  0  0  0  0  0  0
   -6.4444   -7.2523   15.2963 N   0  0  0  0  0  0  0  0  0  0  0  0
   -6.0879   -8.5441   15.1021 C   0  0  0  0  0  0  0  0  0  0  0  0
   -5.6290   -8.7840   13.9050 N   0  0  0  0  0  0  0  0  0  0  0  0
  1  2  1  0  0  0  0
  2  9  1  0  0  0  0
  2  3  1  0  0  0  0
  3  5  1  0  0  0  0
  3  4  2  0  0  0  0
  5  6  1  0  0  0  0
  5  7  1  0  0  0  0
  7  8  2  0  0  0  0
  7 13  1  0  0  0  0
  8  9  1  0  0  0  0
  8 11  1  0  0  0  0
  9 10  2  0  0  0  0
 11 12  1  0  0  0  0
 12 13  2  0  0  0  0
M  END
>  <CHROM.1>
-5.86747240,-6.41917565,13.02481415,1.44718833,1.18590610,-0.59155213

>  <Name>
1eht cryst

>  <RI>
224

>  <Rbt.Current_Directory>
/home/itssahil/PROJECTS/Mol_Feturizer/New_Systems/rnas/1eht

>  <Rbt.Executable>
rbdock ($Id: //depot/dev/client3/rdock/2013.1/src/exe/rbdock.cxx#4 $)

>  <Rbt.Library>
libRbt.so (2013.1, Build901 2013/11/27)

>  <Rbt.Parameter_File>
/export/apps/rDock/src/rDock_2013.1_src/data/scripts/dock_solv.prm

>  <Rbt.Receptor>
prm/pocket_docking_7.prm

>  <SCORE>
-39.0627

>  <SCORE.INTER>
-39.0627

>  <SCORE.INTER.CONST>
1

>  <SCORE.INTER.POLAR>
-2.10951

>  <SCORE.INTER.ROT>
0

>  <SCORE.INTER.SOLV>
9.96558

>  <SCORE.INTER.VDW>
-25.932

>  <SCORE.INTER.norm>
-3.00483

>  <SCORE.INTRA>
0

>  <SCORE.INTRA.DIHEDRAL>
0

>  <SCORE.INTRA.DIHEDRAL.0>
0

>  <SCORE.INTRA.POLAR>
0

>  <SCORE.INTRA.POLAR.0>
0

>  <SCORE.INTRA.REPUL>
0

>  <SCORE.INTRA.REPUL.0>
0

>  <SCORE.INTRA.SOLV>
0

>  <SCORE.INTRA.SOLV.lig_0>
-12.9768

>  <SCORE.INTRA.VDW>
0

>  <SCORE.INTRA.VDW.0>
0

>  <SCORE.INTRA.norm>
0

>  <SCORE.RESTR>
0

>  <SCORE.RESTR.CAVITY>
0

>  <SCORE.RESTR.norm>
0

>  <SCORE.SYSTEM>
0

>  <SCORE.SYSTEM.CONST>
0

>  <SCORE.SYSTEM.DIHEDRAL>
0

>  <SCORE.SYSTEM.SOLV>
0

>  <SCORE.SYSTEM.norm>
0

>  <SCORE.heavy>
13

>  <SCORE.norm>
-3.00483

>  <RMSD>
3.429

$$$$
1eht cryst
 OpenBabel11021811383D
libRbt.so/2013.1/901 2013/11/27
 13 14  0  0  0  0  0  0  0  0999 V2000
   -6.1229   -3.7014   11.9950 C   0  0  0  0  0  0  0  0  0  0  0  0
   -5.9906   -5.0086   12.4547 N   0  0  0  0  0  0  0  0  0  0  0  0
   -5.5108   -5.9543   11.5857 C   0  0  0  0  0  0  0  0  0  0  0  0
   -5.2365   -5.5664   10.4484 O   0  0  0  0  0  0  0  0  0  0  0  0
   -5.3279   -7.2779   11.8972 N   0  0  0  0  0  0  0  0  0  0  0  0
   -4.8399   -8.2155   11.0019 C   0  0  0  0  0  0  0  0  0  0  0  0
   -5.6773   -7.5776   13.1808 C   0  0  0  0  0  0  0  0  0  0  0  0
   -6.1550   -6.6283   14.0372 C   0  0  0  0  0  0  0  0  0  0  0  0
   -6.3484   -5.2675   13.7379 C   0  0  0  0  0  0  0  0  0  0  0  0
   -6.7733   -4.3757   14.4710 O   0  0  0  0  0  0  0  0  0  0  0  0
   -6.3987   -7.2890   15.2337 N   0  0  0  0  0  0  0  0  0  0  0  0
   -6.0556   -8.5817   15.0214 C   0  0  0  0  0  0  0  0  0  0  0  0
   -5.6171   -8.8135   13.8151 N   0  0  0  0  0  0  0  0  0  0  0  0
  1  2  1  0  0  0  0
  2  9  1  0  0  0  0
  2  3  1  0  0  0  0
  3  5  1  0  0  0  0
  3  4  2  0  0  0  0
  5  6  1  0  0  0  0
  5  7  1  0  0  0  0
  7  8  2  0  0  0  0
  7 13  1  0  0  0  0
  8  9  1  0  0  0  0
  8 11  1  0  0  0  0
  9 10  2  0  0  0  0
 11 12  1  0  0  0  0
 12 13  2  0  0  0  0
M  END
>  <CHROM.1>
-5.85020628,-6.43830443,12.96162414,1.45263206,1.20319048,-0.58689697

>  <Name>
1eht cryst

>  <RI>
0

>  <Rbt.Current_Directory>
/home/itssahil/PROJECTS/Mol_Feturizer/New_Systems/rnas/1eht

>  <Rbt.Executable>
rbdock ($Id: //depot/dev/client3/rdock/2013.1/src/exe/rbdock.cxx#4 $)

>  <Rbt.Library>
libRbt.so (2013.1, Build901 2013/11/27)

>  <Rbt.Parameter_File>
/export/apps/rDock/src/rDock_2013.1_src/data/scripts/dock_solv.prm

>  <Rbt.Receptor>
prm/pocket_docking_8.prm

>  <SCORE>
-39.0939

>  <SCORE.INTER>
-39.0939

>  <SCORE.INTER.CONST>
1

>  <SCORE.INTER.POLAR>
-2.11359

>  <SCORE.INTER.ROT>
0

>  <SCORE.INTER.SOLV>
9.81809

>  <SCORE.INTER.VDW>
-25.89

>  <SCORE.INTER.norm>
-3.00722

>  <SCORE.INTRA>
0

>  <SCORE.INTRA.DIHEDRAL>
0

>  <SCORE.INTRA.DIHEDRAL.0>
0

>  <SCORE.INTRA.POLAR>
0

>  <SCORE.INTRA.POLAR.0>
0

>  <SCORE.INTRA.REPUL>
0

>  <SCORE.INTRA.REPUL.0>
0

>  <SCORE.INTRA.SOLV>
0

>  <SCORE.INTRA.SOLV.lig_0>
-12.9768

>  <SCORE.INTRA.VDW>
0

>  <SCORE.INTRA.VDW.0>
0

>  <SCORE.INTRA.norm>
0

>  <SCORE.RESTR>
0

>  <SCORE.RESTR.CAVITY>
0

>  <SCORE.RESTR.norm>
0

>  <SCORE.SYSTEM>
0

>  <SCORE.SYSTEM.CONST>
0

>  <SCORE.SYSTEM.DIHEDRAL>
0

>  <SCORE.SYSTEM.SOLV>
0

>  <SCORE.SYSTEM.norm>
0

>  <SCORE.heavy>
13

>  <SCORE.norm>
-3.00722

>  <RMSD>
3.431

$$$$
1eht cryst
 OpenBabel11021811383D
libRbt.so/2013.1/901 2013/11/27
 13 14  0  0  0  0  0  0  0  0999 V2000
   -6.1243   -3.6904   12.0120 C   0  0  0  0  0  0  0  0  0  0  0  0
   -5.9942   -4.9996   12.4667 N   0  0  0  0  0  0  0  0  0  0  0  0
   -5.5131   -5.9422   11.5951 C   0  0  0  0  0  0  0  0  0  0  0  0
   -5.2355   -5.5498   10.4601 O   0  0  0  0  0  0  0  0  0  0  0  0
   -5.3321   -7.2672   11.9017 N   0  0  0  0  0  0  0  0  0  0  0  0
   -4.8426   -8.2015   11.0038 C   0  0  0  0  0  0  0  0  0  0  0  0
   -5.6849   -7.5717   13.1832 C   0  0  0  0  0  0  0  0  0  0  0  0
   -6.1640   -6.6256   14.0423 C   0  0  0  0  0  0  0  0  0  0  0  0
   -6.3555   -5.2634   13.7480 C   0  0  0  0  0  0  0  0  0  0  0  0
   -6.7815   -4.3742   14.4836 O   0  0  0  0  0  0  0  0  0  0  0  0
   -6.4113   -7.2909   15.2354 N   0  0  0  0  0  0  0  0  0  0  0  0
   -6.0687   -8.5830   15.0188 C   0  0  0  0  0  0  0  0  0  0  0  0
   -5.6274   -8.8102   13.8126 N   0  0  0  0  0  0  0  0  0  0  0  0
  1  2  1  0  0  0  0
  2  9  1  0  0  0  0
  2  3  1  0  0  0  0
  3  5  1  0  0  0  0
  3  4  2  0  0  0  0
  5  6  1  0  0  0  0
  5  7  1  0  0  0  0
  7  8  2  0  0  0  0
  7 13  1  0  0  0  0
  8  9  1  0  0  0  0
  8 11  1  0  0  0  0
  9 10  2  0  0  0  0
 11 12  1  0  0  0  0
 12 13  2  0  0  0  0
M  END
>  <CHROM.1>
-5.85632534,-6.43141910,12.96822305,1.44681003,1.20154337,-0.57740370

>  <Name>
1eht cryst

>  <RI>
0

>  <Rbt.Current_Directory>
/home/itssahil/PROJECTS/Mol_Feturizer/New_Systems/rnas/1eht

>  <Rbt.Executable>
rbdock ($Id: //depot/dev/client3/rdock/2013.1/src/exe/rbdock.cxx#4 $)

>  <Rbt.Library>
libRbt.so (2013.1, Build901 2013/11/27)

>  <Rbt.Parameter_File>
/export/apps/rDock/src/rDock_2013.1_src/data/scripts/dock_solv.prm

>  <Rbt.Receptor>
prm/blind_docking_20.prm

>  <SCORE>
-39.0864

>  <SCORE.INTER>
-39.0864

>  <SCORE.INTER.CONST>
1

>  <SCORE.INTER.POLAR>
-2.11143

>  <SCORE.INTER.ROT>
0

>  <SCORE.INTER.SOLV>
9.84085

>  <SCORE.INTER.VDW>
-25.8998

>  <SCORE.INTER.norm>
-3.00665

>  <SCORE.INTRA>
0

>  <SCORE.INTRA.DIHEDRAL>
0

>  <SCORE.INTRA.DIHEDRAL.0>
0

>  <SCORE.INTRA.POLAR>
0

>  <SCORE.INTRA.POLAR.0>
0

>  <SCORE.INTRA.REPUL>
0

>  <SCORE.INTRA.REPUL.0>
0

>  <SCORE.INTRA.SOLV>
0

>  <SCORE.INTRA.SOLV.lig_0>
-12.9768

>  <SCORE.INTRA.VDW>
0

>  <SCORE.INTRA.VDW.0>
0

>  <SCORE.INTRA.norm>
0

>  <SCORE.RESTR>
0

>  <SCORE.RESTR.CAVITY>
0

>  <SCORE.RESTR.norm>
0

>  <SCORE.SYSTEM>
0

>  <SCORE.SYSTEM.CONST>
0

>  <SCORE.SYSTEM.DIHEDRAL>
0

>  <SCORE.SYSTEM.SOLV>
0

>  <SCORE.SYSTEM.norm>
0

>  <SCORE.heavy>
13

>  <SCORE.norm>
-3.00665

>  <RMSD>
3.436

$$$$
1eht cryst
 OpenBabel11021811383D
libRbt.so/2013.1/901 2013/11/27
 13 14  0  0  0  0  0  0  0  0999 V2000
   -6.1758   -3.7271   12.0157 C   0  0  0  0  0  0  0  0  0  0  0  0
   -6.0244   -5.0278   12.4878 N   0  0  0  0  0  0  0  0  0  0  0  0
   -5.5226   -5.9727   11.6305 C   0  0  0  0  0  0  0  0  0  0  0  0
   -5.2471   -5.5900   10.4917 O   0  0  0  0  0  0  0  0  0  0  0  0
   -5.3192   -7.2902   11.9549 N   0  0  0  0  0  0  0  0  0  0  0  0
   -4.8091   -8.2271   11.0712 C   0  0  0  0  0  0  0  0  0  0  0  0
   -5.6722   -7.5846   13.2387 C   0  0  0  0  0  0  0  0  0  0  0  0
   -6.1720   -6.6362   14.0835 C   0  0  0  0  0  0  0  0  0  0  0  0
   -6.3866   -5.2816   13.7709 C   0  0  0  0  0  0  0  0  0  0  0  0
   -6.8317   -4.3908   14.4931 O   0  0  0  0  0  0  0  0  0  0  0  0
   -6.4126   -7.2905   15.2840 N   0  0  0  0  0  0  0  0  0  0  0  0
   -6.0460   -8.5789   15.0856 C   0  0  0  0  0  0  0  0  0  0  0  0
   -5.5954   -8.8136   13.8843 N   0  0  0  0  0  0  0  0  0  0  0  0
  1  2  1  0  0  0  0
  2  9  1  0  0  0  0
  2  3  1  0  0  0  0
  3  5  1  0  0  0  0
  3  4  2  0  0  0  0
  5  6  1  0  0  0  0
  5  7  1  0  0  0  0
  7  8  2  0  0  0  0
  7 13  1  0  0  0  0
  8  9  1  0  0  0  0
  8 11  1  0  0  0  0
  9 10  2  0  0  0  0
 11 12  1  0  0  0  0
 12 13  2  0  0  0  0
M  END
>  <CHROM.1>
-5.86311337,-6.45038351,13.00830010,1.48048678,1.18784881,-0.62160577

>  <Name>
1eht cryst

>  <RI>
0

>  <Rbt.Current_Directory>
/home/itssahil/PROJECTS/Mol_Feturizer/New_Systems/rnas/1eht

>  <Rbt.Executable>
rbdock ($Id: //depot/dev/client3/rdock/2013.1/src/exe/rbdock.cxx#4 $)

>  <Rbt.Library>
libRbt.so (2013.1, Build901 2013/11/27)

>  <Rbt.Parameter_File>
/export/apps/rDock/src/rDock_2013.1_src/data/scripts/dock_solv.prm

>  <Rbt.Receptor>
prm/pocket_docking_8.prm

>  <SCORE>
-39.08

>  <SCORE.INTER>
-39.08

>  <SCORE.INTER.CONST>
1

>  <SCORE.INTER.POLAR>
-2.13192

>  <SCORE.INTER.ROT>
0

>  <SCORE.INTER.SOLV>
9.85648

>  <SCORE.INTER.VDW>
-25.8324

>  <SCORE.INTER.norm>
-3.00615

>  <SCORE.INTRA>
0

>  <SCORE.INTRA.DIHEDRAL>
0

>  <SCORE.INTRA.DIHEDRAL.0>
0

>  <SCORE.INTRA.POLAR>
0

>  <SCORE.INTRA.POLAR.0>
0

>  <SCORE.INTRA.REPUL>
0

>  <SCORE.INTRA.REPUL.0>
0

>  <SCORE.INTRA.SOLV>
0

>  <SCORE.INTRA.SOLV.lig_0>
-12.9768

>  <SCORE.INTRA.VDW>
0

>  <SCORE.INTRA.VDW.0>
0

>  <SCORE.INTRA.norm>
0

>  <SCORE.RESTR>
0

>  <SCORE.RESTR.CAVITY>
0

>  <SCORE.RESTR.norm>
0

>  <SCORE.SYSTEM>
0

>  <SCORE.SYSTEM.CONST>
0

>  <SCORE.SYSTEM.DIHEDRAL>
0

>  <SCORE.SYSTEM.SOLV>
0

>  <SCORE.SYSTEM.norm>
0

>  <SCORE.heavy>
13

>  <SCORE.norm>
-3.00615

>  <RMSD>
3.436

$$$$
1eht cryst
 OpenBabel11021811383D
libRbt.so/2013.1/901 2013/11/27
 13 14  0  0  0  0  0  0  0  0999 V2000
   -6.1221   -3.6787   12.0292 C   0  0  0  0  0  0  0  0  0  0  0  0
   -5.9931   -4.9902   12.4775 N   0  0  0  0  0  0  0  0  0  0  0  0
   -5.5086   -5.9280   11.6026 C   0  0  0  0  0  0  0  0  0  0  0  0
   -5.2273   -5.5295   10.4706 O   0  0  0  0  0  0  0  0  0  0  0  0
   -5.3280   -7.2545   11.9028 N   0  0  0  0  0  0  0  0  0  0  0  0
   -4.8351   -8.1839   11.0017 C   0  0  0  0  0  0  0  0  0  0  0  0
   -5.6851   -7.5659   13.1815 C   0  0  0  0  0  0  0  0  0  0  0  0
   -6.1675   -6.6245   14.0438 C   0  0  0  0  0  0  0  0  0  0  0  0
   -6.3586   -5.2609   13.7561 C   0  0  0  0  0  0  0  0  0  0  0  0
   -6.7875   -4.3757   14.4949 O   0  0  0  0  0  0  0  0  0  0  0  0
   -6.4186   -7.2962   15.2326 N   0  0  0  0  0  0  0  0  0  0  0  0
   -6.0747   -8.5870   15.0103 C   0  0  0  0  0  0  0  0  0  0  0  0
   -5.6292   -8.8077   13.8045 N   0  0  0  0  0  0  0  0  0  0  0  0
  1  2  1  0  0  0  0
  2  9  1  0  0  0  0
  2  3  1  0  0  0  0
  3  5  1  0  0  0  0
  3  4  2  0  0  0  0
  5  6  1  0  0  0  0
  5  7  1  0  0  0  0
  7  8  2  0  0  0  0
  7 13  1  0  0  0  0
  8  9  1  0  0  0  0
  8 11  1  0  0  0  0
  9 10  2  0  0  0  0
 11 12  1  0  0  0  0
 12 13  2  0  0  0  0
M  END
>  <CHROM.1>
-5.85628250,-6.42458083,12.97186767,1.44269933,1.19844936,-0.56830519

>  <Name>
1eht cryst

>  <RI>
0

>  <Rbt.Current_Directory>
/home/itssahil/PROJECTS/Mol_Feturizer/New_Systems/rnas/1eht

>  <Rbt.Executable>
rbdock ($Id: //depot/dev/client3/rdock/2013.1/src/exe/rbdock.cxx#4 $)

>  <Rbt.Library>
libRbt.so (2013.1, Build901 2013/11/27)

>  <Rbt.Parameter_File>
/export/apps/rDock/src/rDock_2013.1_src/data/scripts/dock_solv.prm

>  <Rbt.Receptor>
prm/pocket_docking_5.prm

>  <SCORE>
-39.1201

>  <SCORE.INTER>
-39.1201

>  <SCORE.INTER.CONST>
1

>  <SCORE.INTER.POLAR>
-2.11044

>  <SCORE.INTER.ROT>
0

>  <SCORE.INTER.SOLV>
9.85826

>  <SCORE.INTER.VDW>
-25.9314

>  <SCORE.INTER.norm>
-3.00924

>  <SCORE.INTRA>
0

>  <SCORE.INTRA.DIHEDRAL>
0

>  <SCORE.INTRA.DIHEDRAL.0>
0

>  <SCORE.INTRA.POLAR>
0

>  <SCORE.INTRA.POLAR.0>
0

>  <SCORE.INTRA.REPUL>
0

>  <SCORE.INTRA.REPUL.0>
0

>  <SCORE.INTRA.SOLV>
0

>  <SCORE.INTRA.SOLV.lig_0>
-12.9768

>  <SCORE.INTRA.VDW>
0

>  <SCORE.INTRA.VDW.0>
0

>  <SCORE.INTRA.norm>
0

>  <SCORE.RESTR>
0

>  <SCORE.RESTR.CAVITY>
0

>  <SCORE.RESTR.norm>
0

>  <SCORE.SYSTEM>
0

>  <SCORE.SYSTEM.CONST>
0

>  <SCORE.SYSTEM.DIHEDRAL>
0

>  <SCORE.SYSTEM.SOLV>
0

>  <SCORE.SYSTEM.norm>
0

>  <SCORE.heavy>
13

>  <SCORE.norm>
-3.00924

>  <RMSD>
3.442

$$$$
1eht cryst
 OpenBabel11021811383D
libRbt.so/2013.1/901 2013/11/27
 13 14  0  0  0  0  0  0  0  0999 V2000
   -6.1208   -3.6791   12.0335 C   0  0  0  0  0  0  0  0  0  0  0  0
   -5.9913   -4.9908   12.4811 N   0  0  0  0  0  0  0  0  0  0  0  0
   -5.5083   -5.9283   11.6051 C   0  0  0  0  0  0  0  0  0  0  0  0
   -5.2286   -5.5295   10.4729 O   0  0  0  0  0  0  0  0  0  0  0  0
   -5.3277   -7.2550   11.9045 N   0  0  0  0  0  0  0  0  0  0  0  0
   -4.8362   -8.1842   11.0023 C   0  0  0  0  0  0  0  0  0  0  0  0
   -5.6829   -7.5669   13.1836 C   0  0  0  0  0  0  0  0  0  0  0  0
   -6.1639   -6.6257   14.0470 C   0  0  0  0  0  0  0  0  0  0  0  0
   -6.3551   -5.2619   13.7601 C   0  0  0  0  0  0  0  0  0  0  0  0
   -6.7827   -4.3769   14.4999 O   0  0  0  0  0  0  0  0  0  0  0  0
   -6.4133   -7.2978   15.2359 N   0  0  0  0  0  0  0  0  0  0  0  0
   -6.0701   -8.5885   15.0126 C   0  0  0  0  0  0  0  0  0  0  0  0
   -5.6264   -8.8089   13.8061 N   0  0  0  0  0  0  0  0  0  0  0  0
  1  2  1  0  0  0  0
  2  9  1  0  0  0  0
  2  3  1  0  0  0  0
  3  5  1  0  0  0  0
  3  4  2  0  0  0  0
  5  6  1  0  0  0  0
  5  7  1  0  0  0  0
  7  8  2  0  0  0  0
  7 13  1  0  0  0  0
  8  9  1  0  0  0  0
  8 11  1  0  0  0  0
  9 10  2  0  0  0  0
 11 12  1  0  0  0  0
 12 13  2  0  0  0  0
M  END
>  <CHROM.1>
-5.85415804,-6.42539826,12.97470237,1.44433135,1.19979538,-0.56943880

>  <Name>
1eht cryst

>  <RI>
0

>  <Rbt.Current_Directory>
/home/itssahil/PROJECTS/Mol_Feturizer/New_Systems/rnas/1eht

>  <Rbt.Executable>
rbdock ($Id: //depot/dev/client3/rdock/2013.1/src/exe/rbdock.cxx#4 $)

>  <Rbt.Library>
libRbt.so (2013.1, Build901 2013/11/27)

>  <Rbt.Parameter_File>
/export/apps/rDock/src/rDock_2013.1_src/data/scripts/dock_solv.prm

>  <Rbt.Receptor>
prm/blind_docking_20.prm

>  <SCORE>
-39.1261

>  <SCORE.INTER>
-39.1261

>  <SCORE.INTER.CONST>
1

>  <SCORE.INTER.POLAR>
-2.10792

>  <SCORE.INTER.ROT>
0

>  <SCORE.INTER.SOLV>
9.85353

>  <SCORE.INTER.VDW>
-25.9422

>  <SCORE.INTER.norm>
-3.0097

>  <SCORE.INTRA>
0

>  <SCORE.INTRA.DIHEDRAL>
0

>  <SCORE.INTRA.DIHEDRAL.0>
0

>  <SCORE.INTRA.POLAR>
0

>  <SCORE.INTRA.POLAR.0>
0

>  <SCORE.INTRA.REPUL>
0

>  <SCORE.INTRA.REPUL.0>
0

>  <SCORE.INTRA.SOLV>
0

>  <SCORE.INTRA.SOLV.lig_0>
-12.9768

>  <SCORE.INTRA.VDW>
0

>  <SCORE.INTRA.VDW.0>
0

>  <SCORE.INTRA.norm>
0

>  <SCORE.RESTR>
0

>  <SCORE.RESTR.CAVITY>
0

>  <SCORE.RESTR.norm>
0

>  <SCORE.SYSTEM>
0

>  <SCORE.SYSTEM.CONST>
0

>  <SCORE.SYSTEM.DIHEDRAL>
0

>  <SCORE.SYSTEM.SOLV>
0

>  <SCORE.SYSTEM.norm>
0

>  <SCORE.heavy>
13

>  <SCORE.norm>
-3.0097

>  <RMSD>
3.444

$$$$
1eht cryst
 OpenBabel11021811383D
libRbt.so/2013.1/901 2013/11/27
 13 14  0  0  0  0  0  0  0  0999 V2000
   -6.1462   -3.7219   12.0390 C   0  0  0  0  0  0  0  0  0  0  0  0
   -6.0029   -5.0316   12.4879 N   0  0  0  0  0  0  0  0  0  0  0  0
   -5.4937   -5.9613   11.6184 C   0  0  0  0  0  0  0  0  0  0  0  0
   -5.2048   -5.5578   10.4901 O   0  0  0  0  0  0  0  0  0  0  0  0
   -5.2970   -7.2852   11.9199 N   0  0  0  0  0  0  0  0  0  0  0  0
   -4.7792   -8.2064   11.0242 C   0  0  0  0  0  0  0  0  0  0  0  0
   -5.6648   -7.6031   13.1939 C   0  0  0  0  0  0  0  0  0  0  0  0
   -6.1718   -6.6697   14.0510 C   0  0  0  0  0  0  0  0  0  0  0  0
   -6.3798   -5.3089   13.7619 C   0  0  0  0  0  0  0  0  0  0  0  0
   -6.8309   -4.4309   14.4959 O   0  0  0  0  0  0  0  0  0  0  0  0
   -6.4271   -7.3461   15.2362 N   0  0  0  0  0  0  0  0  0  0  0  0
   -6.0612   -8.6314   15.0173 C   0  0  0  0  0  0  0  0  0  0  0  0
   -5.5979   -8.8444   13.8168 N   0  0  0  0  0  0  0  0  0  0  0  0
  1  2  1  0  0  0  0
  2  9  1  0  0  0  0
  2  3  1  0  0  0  0
  3  5  1  0  0  0  0
  3  4  2  0  0  0  0
  5  6  1  0  0  0  0
  5  7  1  0  0  0  0
  7  8  2  0  0  0  0
  7 13  1  0  0  0  0
  8  9  1  0  0  0  0
  8 11  1  0  0  0  0
  9 10  2  0  0  0  0
 11 12  1  0  0  0  0
 12 13  2  0  0  0  0
M  END
>  <CHROM.1>
-5.85057892,-6.46425526,12.98301787,1.45878296,1.18008766,-0.58250024

>  <Name>
1eht cryst

>  <RI>
0

>  <Rbt.Current_Directory>
/home/itssahil/PROJECTS/Mol_Feturizer/New_Systems/rnas/1eht

>  <Rbt.Executable>
rbdock ($Id: //depot/dev/client3/rdock/2013.1/src/exe/rbdock.cxx#4 $)

>  <Rbt.Library>
libRbt.so (2013.1, Build901 2013/11/27)

>  <Rbt.Parameter_File>
/export/apps/rDock/src/rDock_2013.1_src/data/scripts/dock_solv.prm

>  <Rbt.Receptor>
prm/blind_docking_20.prm

>  <SCORE>
-39.0696

>  <SCORE.INTER>
-39.0696

>  <SCORE.INTER.CONST>
1

>  <SCORE.INTER.POLAR>
-2.14991

>  <SCORE.INTER.ROT>
0

>  <SCORE.INTER.SOLV>
9.81656

>  <SCORE.INTER.VDW>
-25.7522

>  <SCORE.INTER.norm>
-3.00535

>  <SCORE.INTRA>
0

>  <SCORE.INTRA.DIHEDRAL>
0

>  <SCORE.INTRA.DIHEDRAL.0>
0

>  <SCORE.INTRA.POLAR>
0

>  <SCORE.INTRA.POLAR.0>
0

>  <SCORE.INTRA.REPUL>
0

>  <SCORE.INTRA.REPUL.0>
0

>  <SCORE.INTRA.SOLV>
0

>  <SCORE.INTRA.SOLV.lig_0>
-12.9768

>  <SCORE.INTRA.VDW>
0

>  <SCORE.INTRA.VDW.0>
0

>  <SCORE.INTRA.norm>
0

>  <SCORE.RESTR>
0

>  <SCORE.RESTR.CAVITY>
0

>  <SCORE.RESTR.norm>
0

>  <SCORE.SYSTEM>
0

>  <SCORE.SYSTEM.CONST>
0

>  <SCORE.SYSTEM.DIHEDRAL>
0

>  <SCORE.SYSTEM.SOLV>
0

>  <SCORE.SYSTEM.norm>
0

>  <SCORE.heavy>
13

>  <SCORE.norm>
-3.00535

>  <RMSD>
3.454

$$$$
1eht cryst
 OpenBabel11021811383D
libRbt.so/2013.1/901 2013/11/27
 13 14  0  0  0  0  0  0  0  0999 V2000
   -6.1477   -3.7460   12.0383 C   0  0  0  0  0  0  0  0  0  0  0  0
   -5.9836   -5.0550   12.4822 N   0  0  0  0  0  0  0  0  0  0  0  0
   -5.4697   -5.9756   11.6058 C   0  0  0  0  0  0  0  0  0  0  0  0
   -5.1954   -5.5651   10.4764 O   0  0  0  0  0  0  0  0  0  0  0  0
   -5.2531   -7.2976   11.9018 N   0  0  0  0  0  0  0  0  0  0  0  0
   -4.7309   -8.2095   10.9992 C   0  0  0  0  0  0  0  0  0  0  0  0
   -5.6062   -7.6238   13.1779 C   0  0  0  0  0  0  0  0  0  0  0  0
   -6.1181   -6.6996   14.0419 C   0  0  0  0  0  0  0  0  0  0  0  0
   -6.3463   -5.3408   13.7584 C   0  0  0  0  0  0  0  0  0  0  0  0
   -6.8026   -4.4708   14.4988 O   0  0  0  0  0  0  0  0  0  0  0  0
   -6.3547   -7.3825   15.2271 N   0  0  0  0  0  0  0  0  0  0  0  0
   -5.9739   -8.6623   15.0015 C   0  0  0  0  0  0  0  0  0  0  0  0
   -5.5178   -8.8659   13.7967 N   0  0  0  0  0  0  0  0  0  0  0  0
  1  2  1  0  0  0  0
  2  9  1  0  0  0  0
  2  3  1  0  0  0  0
  3  5  1  0  0  0  0
  3  4  2  0  0  0  0
  5  6  1  0  0  0  0
  5  7  1  0  0  0  0
  7  8  2  0  0  0  0
  7 13  1  0  0  0  0
  8  9  1  0  0  0  0
  8 11  1  0  0  0  0
  9 10  2  0  0  0  0
 11 12  1  0  0  0  0
 12 13  2  0  0  0  0
M  END
>  <CHROM.1>
-5.80852059,-6.48692859,12.97187757,1.49939482,1.17957484,-0.61719610

>  <Name>
1eht cryst

>  <RI>
224

>  <Rbt.Current_Directory>
/home/itssahil/PROJECTS/Mol_Feturizer/New_Systems/rnas/1eht

>  <Rbt.Executable>
rbdock ($Id: //depot/dev/client3/rdock/2013.1/src/exe/rbdock.cxx#4 $)

>  <Rbt.Library>
libRbt.so (2013.1, Build901 2013/11/27)

>  <Rbt.Parameter_File>
/export/apps/rDock/src/rDock_2013.1_src/data/scripts/dock_solv.prm

>  <Rbt.Receptor>
prm/pocket_docking_7.prm

>  <SCORE>
-39.0533

>  <SCORE.INTER>
-39.0533

>  <SCORE.INTER.CONST>
1

>  <SCORE.INTER.POLAR>
-2.15821

>  <SCORE.INTER.ROT>
0

>  <SCORE.INTER.SOLV>
9.69004

>  <SCORE.INTER.VDW>
-25.6715

>  <SCORE.INTER.norm>
-3.0041

>  <SCORE.INTRA>
0

>  <SCORE.INTRA.DIHEDRAL>
0

>  <SCORE.INTRA.DIHEDRAL.0>
0

>  <SCORE.INTRA.POLAR>
0

>  <SCORE.INTRA.POLAR.0>
0

>  <SCORE.INTRA.REPUL>
0

>  <SCORE.INTRA.REPUL.0>
0

>  <SCORE.INTRA.SOLV>
0

>  <SCORE.INTRA.SOLV.lig_0>
-12.9768

>  <SCORE.INTRA.VDW>
0

>  <SCORE.INTRA.VDW.0>
0

>  <SCORE.INTRA.norm>
0

>  <SCORE.RESTR>
0

>  <SCORE.RESTR.CAVITY>
0

>  <SCORE.RESTR.norm>
0

>  <SCORE.SYSTEM>
0

>  <SCORE.SYSTEM.CONST>
0

>  <SCORE.SYSTEM.DIHEDRAL>
0

>  <SCORE.SYSTEM.SOLV>
0

>  <SCORE.SYSTEM.norm>
0

>  <SCORE.heavy>
13

>  <SCORE.norm>
-3.0041

>  <RMSD>
3.464

$$$$
1eht cryst
 OpenBabel11021811383D
libRbt.so/2013.1/901 2013/11/27
 13 14  0  0  0  0  0  0  0  0999 V2000
   -6.0534   -8.1355   14.3656 C   0  0  0  0  0  0  0  0  0  0  0  0
   -5.9359   -6.9950   13.5764 N   0  0  0  0  0  0  0  0  0  0  0  0
   -6.3352   -5.7962   14.1087 C   0  0  0  0  0  0  0  0  0  0  0  0
   -6.7781   -5.8262   15.2585 O   0  0  0  0  0  0  0  0  0  0  0  0
   -6.2785   -4.5936   13.4508 N   0  0  0  0  0  0  0  0  0  0  0  0
   -6.6868   -3.3940   14.0104 C   0  0  0  0  0  0  0  0  0  0  0  0
   -5.7789   -4.6997   12.1864 C   0  0  0  0  0  0  0  0  0  0  0  0
   -5.3855   -5.8985   11.6660 C   0  0  0  0  0  0  0  0  0  0  0  0
   -5.4343   -7.1409   12.3238 C   0  0  0  0  0  0  0  0  0  0  0  0
   -5.0927   -8.2445   11.9012 O   0  0  0  0  0  0  0  0  0  0  0  0
   -4.9393   -5.6227   10.3806 N   0  0  0  0  0  0  0  0  0  0  0  0
   -5.0925   -4.2879   10.2120 C   0  0  0  0  0  0  0  0  0  0  0  0
   -5.5882   -3.6839   11.2563 N   0  0  0  0  0  0  0  0  0  0  0  0
  1  2  1  0  0  0  0
  2  9  1  0  0  0  0
  2  3  1  0  0  0  0
  3  5  1  0  0  0  0
  3  4  2  0  0  0  0
  5  6  1  0  0  0  0
  5  7  1  0  0  0  0
  7  8  2  0  0  0  0
  7 13  1  0  0  0  0
  8  9  1  0  0  0  0
  8 11  1  0  0  0  0
  9 10  2  0  0  0  0
 11 12  1  0  0  0  0
 12 13  2  0  0  0  0
M  END
>  <CHROM.1>
-5.80794928,-5.75003751,12.70781438,-2.17504079,1.17670304,-0.40181783

>  <Name>
1eht cryst

>  <RI>
0

>  <Rbt.Current_Directory>
/home/itssahil/PROJECTS/Mol_Feturizer/New_Systems/rnas/1eht

>  <Rbt.Executable>
rbdock ($Id: //depot/dev/client3/rdock/2013.1/src/exe/rbdock.cxx#4 $)

>  <Rbt.Library>
libRbt.so (2013.1, Build901 2013/11/27)

>  <Rbt.Parameter_File>
/export/apps/rDock/src/rDock_2013.1_src/data/scripts/dock_solv.prm

>  <Rbt.Receptor>
prm/pocket_docking_6.prm

>  <SCORE>
-33.7291

>  <SCORE.INTER>
-33.7291

>  <SCORE.INTER.CONST>
1

>  <SCORE.INTER.POLAR>
-0.830575

>  <SCORE.INTER.ROT>
0

>  <SCORE.INTER.SOLV>
11.2296

>  <SCORE.INTER.VDW>
-27.0607

>  <SCORE.INTER.norm>
-2.59455

>  <SCORE.INTRA>
0

>  <SCORE.INTRA.DIHEDRAL>
0

>  <SCORE.INTRA.DIHEDRAL.0>
0

>  <SCORE.INTRA.POLAR>
0

>  <SCORE.INTRA.POLAR.0>
0

>  <SCORE.INTRA.REPUL>
0

>  <SCORE.INTRA.REPUL.0>
0

>  <SCORE.INTRA.SOLV>
0

>  <SCORE.INTRA.SOLV.lig_0>
-12.9768

>  <SCORE.INTRA.VDW>
0

>  <SCORE.INTRA.VDW.0>
0

>  <SCORE.INTRA.norm>
0

>  <SCORE.RESTR>
0

>  <SCORE.RESTR.CAVITY>
0

>  <SCORE.RESTR.norm>
0

>  <SCORE.SYSTEM>
0

>  <SCORE.SYSTEM.CONST>
0

>  <SCORE.SYSTEM.DIHEDRAL>
0

>  <SCORE.SYSTEM.SOLV>
0

>  <SCORE.SYSTEM.norm>
0

>  <SCORE.heavy>
13

>  <SCORE.norm>
-2.59455

>  <RMSD>
3.468

$$$$
1eht cryst
 OpenBabel11021811383D
libRbt.so/2013.1/901 2013/11/27
 13 14  0  0  0  0  0  0  0  0999 V2000
   -6.0575   -8.1343   14.3724 C   0  0  0  0  0  0  0  0  0  0  0  0
   -5.9387   -6.9938   13.5834 N   0  0  0  0  0  0  0  0  0  0  0  0
   -6.3382   -5.7949   14.1151 C   0  0  0  0  0  0  0  0  0  0  0  0
   -6.7826   -5.8247   15.2644 O   0  0  0  0  0  0  0  0  0  0  0  0
   -6.2802   -4.5923   13.4572 N   0  0  0  0  0  0  0  0  0  0  0  0
   -6.6888   -3.3926   14.0163 C   0  0  0  0  0  0  0  0  0  0  0  0
   -5.7791   -4.6986   12.1935 C   0  0  0  0  0  0  0  0  0  0  0  0
   -5.3854   -5.8975   11.6736 C   0  0  0  0  0  0  0  0  0  0  0  0
   -5.4355   -7.1399   12.3314 C   0  0  0  0  0  0  0  0  0  0  0  0
   -5.0938   -8.2437   11.9093 O   0  0  0  0  0  0  0  0  0  0  0  0
   -4.9375   -5.6219   10.3888 N   0  0  0  0  0  0  0  0  0  0  0  0
   -5.0900   -4.2871   10.2199 C   0  0  0  0  0  0  0  0  0  0  0  0
   -5.5868   -3.6829   11.2636 N   0  0  0  0  0  0  0  0  0  0  0  0
  1  2  1  0  0  0  0
  2  9  1  0  0  0  0
  2  3  1  0  0  0  0
  3  5  1  0  0  0  0
  3  4  2  0  0  0  0
  5  6  1  0  0  0  0
  5  7  1  0  0  0  0
  7  8  2  0  0  0  0
  7 13  1  0  0  0  0
  8  9  1  0  0  0  0
  8 11  1  0  0  0  0
  9 10  2  0  0  0  0
 11 12  1  0  0  0  0
 12 13  2  0  0  0  0
M  END
>  <CHROM.1>
-5.80914282,-5.74890739,12.71489489,-2.17716676,1.17566544,-0.39988188

>  <Name>
1eht cryst

>  <RI>
0

>  <Rbt.Current_Directory>
/home/itssahil/PROJECTS/Mol_Feturizer/New_Systems/rnas/1eht

>  <Rbt.Executable>
rbdock ($Id: //depot/dev/client3/rdock/2013.1/src/exe/rbdock.cxx#4 $)

>  <Rbt.Library>
libRbt.so (2013.1, Build901 2013/11/27)

>  <Rbt.Parameter_File>
/export/apps/rDock/src/rDock_2013.1_src/data/scripts/dock_solv.prm

>  <Rbt.Receptor>
prm/blind_docking_20.prm

>  <SCORE>
-33.7469

>  <SCORE.INTER>
-33.7469

>  <SCORE.INTER.CONST>
1

>  <SCORE.INTER.POLAR>
-0.828589

>  <SCORE.INTER.ROT>
0

>  <SCORE.INTER.SOLV>
11.231

>  <SCORE.INTER.VDW>
-27.0797

>  <SCORE.INTER.norm>
-2.59592

>  <SCORE.INTRA>
0

>  <SCORE.INTRA.DIHEDRAL>
0

>  <SCORE.INTRA.DIHEDRAL.0>
0

>  <SCORE.INTRA.POLAR>
0

>  <SCORE.INTRA.POLAR.0>
0

>  <SCORE.INTRA.REPUL>
0

>  <SCORE.INTRA.REPUL.0>
0

>  <SCORE.INTRA.SOLV>
0

>  <SCORE.INTRA.SOLV.lig_0>
-12.9768

>  <SCORE.INTRA.VDW>
0

>  <SCORE.INTRA.VDW.0>
0

>  <SCORE.INTRA.norm>
0

>  <SCORE.RESTR>
0

>  <SCORE.RESTR.CAVITY>
0

>  <SCORE.RESTR.norm>
0

>  <SCORE.SYSTEM>
0

>  <SCORE.SYSTEM.CONST>
0

>  <SCORE.SYSTEM.DIHEDRAL>
0

>  <SCORE.SYSTEM.SOLV>
0

>  <SCORE.SYSTEM.norm>
0

>  <SCORE.heavy>
13

>  <SCORE.norm>
-2.59592

>  <RMSD>
3.469

$$$$
1eht cryst
 OpenBabel11021811383D
libRbt.so/2013.1/901 2013/11/27
 13 14  0  0  0  0  0  0  0  0999 V2000
   -6.0609   -8.1523   14.3688 C   0  0  0  0  0  0  0  0  0  0  0  0
   -5.9377   -7.0128   13.5790 N   0  0  0  0  0  0  0  0  0  0  0  0
   -6.3326   -5.8120   14.1099 C   0  0  0  0  0  0  0  0  0  0  0  0
   -6.7770   -5.8393   15.2592 O   0  0  0  0  0  0  0  0  0  0  0  0
   -6.2701   -4.6101   13.4512 N   0  0  0  0  0  0  0  0  0  0  0  0
   -6.6740   -3.4084   14.0095 C   0  0  0  0  0  0  0  0  0  0  0  0
   -5.7694   -4.7192   12.1875 C   0  0  0  0  0  0  0  0  0  0  0  0
   -5.3803   -5.9199   11.6684 C   0  0  0  0  0  0  0  0  0  0  0  0
   -5.4352   -7.1617   12.3271 C   0  0  0  0  0  0  0  0  0  0  0  0
   -5.0977   -8.2670   11.9057 O   0  0  0  0  0  0  0  0  0  0  0  0
   -4.9314   -5.6469   10.3834 N   0  0  0  0  0  0  0  0  0  0  0  0
   -5.0789   -4.3116   10.2137 C   0  0  0  0  0  0  0  0  0  0  0  0
   -5.5733   -3.7048   11.2570 N   0  0  0  0  0  0  0  0  0  0  0  0
  1  2  1  0  0  0  0
  2  9  1  0  0  0  0
  2  3  1  0  0  0  0
  3  5  1  0  0  0  0
  3  4  2  0  0  0  0
  5  6  1  0  0  0  0
  5  7  1  0  0  0  0
  7  8  2  0  0  0  0
  7 13  1  0  0  0  0
  8  9  1  0  0  0  0
  8 11  1  0  0  0  0
  9 10  2  0  0  0  0
 11 12  1  0  0  0  0
 12 13  2  0  0  0  0
M  END
>  <CHROM.1>
-5.80344015,-5.76898893,12.70965888,-2.18630000,1.17718836,-0.39212201

>  <Name>
1eht cryst

>  <RI>
0

>  <Rbt.Current_Directory>
/home/itssahil/PROJECTS/Mol_Feturizer/New_Systems/rnas/1eht

>  <Rbt.Executable>
rbdock ($Id: //depot/dev/client3/rdock/2013.1/src/exe/rbdock.cxx#4 $)

>  <Rbt.Library>
libRbt.so (2013.1, Build901 2013/11/27)

>  <Rbt.Parameter_File>
/export/apps/rDock/src/rDock_2013.1_src/data/scripts/dock_solv.prm

>  <Rbt.Receptor>
prm/blind_docking_20.prm

>  <SCORE>
-33.7406

>  <SCORE.INTER>
-33.7406

>  <SCORE.INTER.CONST>
1

>  <SCORE.INTER.POLAR>
-0.828334

>  <SCORE.INTER.ROT>
0

>  <SCORE.INTER.SOLV>
11.1948

>  <SCORE.INTER.VDW>
-27.0642

>  <SCORE.INTER.norm>
-2.59543

>  <SCORE.INTRA>
0

>  <SCORE.INTRA.DIHEDRAL>
0

>  <SCORE.INTRA.DIHEDRAL.0>
0

>  <SCORE.INTRA.POLAR>
0

>  <SCORE.INTRA.POLAR.0>
0

>  <SCORE.INTRA.REPUL>
0

>  <SCORE.INTRA.REPUL.0>
0

>  <SCORE.INTRA.SOLV>
0

>  <SCORE.INTRA.SOLV.lig_0>
-12.9768

>  <SCORE.INTRA.VDW>
0

>  <SCORE.INTRA.VDW.0>
0

>  <SCORE.INTRA.norm>
0

>  <SCORE.RESTR>
0

>  <SCORE.RESTR.CAVITY>
0

>  <SCORE.RESTR.norm>
0

>  <SCORE.SYSTEM>
0

>  <SCORE.SYSTEM.CONST>
0

>  <SCORE.SYSTEM.DIHEDRAL>
0

>  <SCORE.SYSTEM.SOLV>
0

>  <SCORE.SYSTEM.norm>
0

>  <SCORE.heavy>
13

>  <SCORE.norm>
-2.59543

>  <RMSD>
3.469

$$$$
1eht cryst
 OpenBabel11021811383D
libRbt.so/2013.1/901 2013/11/27
 13 14  0  0  0  0  0  0  0  0999 V2000
   -6.1474   -3.7413   12.0527 C   0  0  0  0  0  0  0  0  0  0  0  0
   -5.9860   -5.0529   12.4899 N   0  0  0  0  0  0  0  0  0  0  0  0
   -5.4733   -5.9698   11.6089 C   0  0  0  0  0  0  0  0  0  0  0  0
   -5.1977   -5.5539   10.4818 O   0  0  0  0  0  0  0  0  0  0  0  0
   -5.2594   -7.2938   11.8981 N   0  0  0  0  0  0  0  0  0  0  0  0
   -4.7384   -8.2018   10.9910 C   0  0  0  0  0  0  0  0  0  0  0  0
   -5.6137   -7.6259   13.1723 C   0  0  0  0  0  0  0  0  0  0  0  0
   -6.1243   -6.7053   14.0408 C   0  0  0  0  0  0  0  0  0  0  0  0
   -6.3498   -5.3446   13.7644 C   0  0  0  0  0  0  0  0  0  0  0  0
   -6.8049   -4.4776   14.5090 O   0  0  0  0  0  0  0  0  0  0  0  0
   -6.3628   -7.3940   15.2224 N   0  0  0  0  0  0  0  0  0  0  0  0
   -5.9843   -8.6733   14.9903 C   0  0  0  0  0  0  0  0  0  0  0  0
   -5.5280   -8.8714   13.7846 N   0  0  0  0  0  0  0  0  0  0  0  0
  1  2  1  0  0  0  0
  2  9  1  0  0  0  0
  2  3  1  0  0  0  0
  3  5  1  0  0  0  0
  3  4  2  0  0  0  0
  5  6  1  0  0  0  0
  5  7  1  0  0  0  0
  7  8  2  0  0  0  0
  7 13  1  0  0  0  0
  8  9  1  0  0  0  0
  8 11  1  0  0  0  0
  9 10  2  0  0  0  0
 11 12  1  0  0  0  0
 12 13  2  0  0  0  0
M  END
>  <CHROM.1>
-5.81379854,-6.48762618,12.97212041,1.49459623,1.18023560,-0.60752516

>  <Name>
1eht cryst

>  <RI>
0

>  <Rbt.Current_Directory>
/home/itssahil/PROJECTS/Mol_Feturizer/New_Systems/rnas/1eht

>  <Rbt.Executable>
rbdock ($Id: //depot/dev/client3/rdock/2013.1/src/exe/rbdock.cxx#4 $)

>  <Rbt.Library>
libRbt.so (2013.1, Build901 2013/11/27)

>  <Rbt.Parameter_File>
/export/apps/rDock/src/rDock_2013.1_src/data/scripts/dock_solv.prm

>  <Rbt.Receptor>
prm/pocket_docking_8.prm

>  <SCORE>
-39.0568

>  <SCORE.INTER>
-39.0568

>  <SCORE.INTER.CONST>
1

>  <SCORE.INTER.POLAR>
-2.15894

>  <SCORE.INTER.ROT>
0

>  <SCORE.INTER.SOLV>
9.68869

>  <SCORE.INTER.VDW>
-25.6709

>  <SCORE.INTER.norm>
-3.00437

>  <SCORE.INTRA>
0

>  <SCORE.INTRA.DIHEDRAL>
0

>  <SCORE.INTRA.DIHEDRAL.0>
0

>  <SCORE.INTRA.POLAR>
0

>  <SCORE.INTRA.POLAR.0>
0

>  <SCORE.INTRA.REPUL>
0

>  <SCORE.INTRA.REPUL.0>
0

>  <SCORE.INTRA.SOLV>
0

>  <SCORE.INTRA.SOLV.lig_0>
-12.9768

>  <SCORE.INTRA.VDW>
0

>  <SCORE.INTRA.VDW.0>
0

>  <SCORE.INTRA.norm>
0

>  <SCORE.RESTR>
0

>  <SCORE.RESTR.CAVITY>
0

>  <SCORE.RESTR.norm>
0

>  <SCORE.SYSTEM>
0

>  <SCORE.SYSTEM.CONST>
0

>  <SCORE.SYSTEM.DIHEDRAL>
0

>  <SCORE.SYSTEM.SOLV>
0

>  <SCORE.SYSTEM.norm>
0

>  <SCORE.heavy>
13

>  <SCORE.norm>
-3.00437

>  <RMSD>
3.470

$$$$
1eht cryst
 OpenBabel11021811383D
libRbt.so/2013.1/901 2013/11/27
 13 14  0  0  0  0  0  0  0  0999 V2000
   -6.1314   -3.7165   12.1351 C   0  0  0  0  0  0  0  0  0  0  0  0
   -5.9997   -5.0272   12.5848 N   0  0  0  0  0  0  0  0  0  0  0  0
   -5.4840   -5.9587   11.7211 C   0  0  0  0  0  0  0  0  0  0  0  0
   -5.1790   -5.5557   10.5969 O   0  0  0  0  0  0  0  0  0  0  0  0
   -5.2971   -7.2836   12.0241 N   0  0  0  0  0  0  0  0  0  0  0  0
   -4.7723   -8.2066   11.1344 C   0  0  0  0  0  0  0  0  0  0  0  0
   -5.6824   -7.6006   13.2932 C   0  0  0  0  0  0  0  0  0  0  0  0
   -6.1958   -6.6655   14.1445 C   0  0  0  0  0  0  0  0  0  0  0  0
   -6.3939   -5.3035   13.8538 C   0  0  0  0  0  0  0  0  0  0  0  0
   -6.8502   -4.4239   14.5827 O   0  0  0  0  0  0  0  0  0  0  0  0
   -6.4691   -7.3415   15.3259 N   0  0  0  0  0  0  0  0  0  0  0  0
   -6.1064   -8.6283   15.1107 C   0  0  0  0  0  0  0  0  0  0  0  0
   -5.6289   -8.8426   13.9160 N   0  0  0  0  0  0  0  0  0  0  0  0
  1  2  1  0  0  0  0
  2  9  1  0  0  0  0
  2  3  1  0  0  0  0
  3  5  1  0  0  0  0
  3  4  2  0  0  0  0
  5  6  1  0  0  0  0
  5  7  1  0  0  0  0
  7  8  2  0  0  0  0
  7 13  1  0  0  0  0
  8  9  1  0  0  0  0
  8 11  1  0  0  0  0
  9 10  2  0  0  0  0
 11 12  1  0  0  0  0
 12 13  2  0  0  0  0
M  END
>  <CHROM.1>
-5.86024101,-6.46082491,13.08080506,1.43110787,1.17197002,-0.55626650

>  <Name>
1eht cryst

>  <RI>
0

>  <Rbt.Current_Directory>
/home/itssahil/PROJECTS/Mol_Feturizer/New_Systems/rnas/1eht

>  <Rbt.Executable>
rbdock ($Id: //depot/dev/client3/rdock/2013.1/src/exe/rbdock.cxx#4 $)

>  <Rbt.Library>
libRbt.so (2013.1, Build901 2013/11/27)

>  <Rbt.Parameter_File>
/export/apps/rDock/src/rDock_2013.1_src/data/scripts/dock_solv.prm

>  <Rbt.Receptor>
prm/pocket_docking_3.prm

>  <SCORE>
-39.078

>  <SCORE.INTER>
-39.078

>  <SCORE.INTER.CONST>
1

>  <SCORE.INTER.POLAR>
-2.12514

>  <SCORE.INTER.ROT>
0

>  <SCORE.INTER.SOLV>
9.95693

>  <SCORE.INTER.VDW>
-25.8872

>  <SCORE.INTER.norm>
-3.006

>  <SCORE.INTRA>
0

>  <SCORE.INTRA.DIHEDRAL>
0

>  <SCORE.INTRA.DIHEDRAL.0>
0

>  <SCORE.INTRA.POLAR>
0

>  <SCORE.INTRA.POLAR.0>
0

>  <SCORE.INTRA.REPUL>
0

>  <SCORE.INTRA.REPUL.0>
0

>  <SCORE.INTRA.SOLV>
0

>  <SCORE.INTRA.SOLV.lig_0>
-12.9768

>  <SCORE.INTRA.VDW>
0

>  <SCORE.INTRA.VDW.0>
0

>  <SCORE.INTRA.norm>
0

>  <SCORE.RESTR>
0

>  <SCORE.RESTR.CAVITY>
0

>  <SCORE.RESTR.norm>
0

>  <SCORE.SYSTEM>
0

>  <SCORE.SYSTEM.CONST>
0

>  <SCORE.SYSTEM.DIHEDRAL>
0

>  <SCORE.SYSTEM.SOLV>
0

>  <SCORE.SYSTEM.norm>
0

>  <SCORE.heavy>
13

>  <SCORE.norm>
-3.006

>  <RMSD>
3.471

$$$$
1eht cryst
 OpenBabel11021811383D
libRbt.so/2013.1/901 2013/11/27
 13 14  0  0  0  0  0  0  0  0999 V2000
   -6.0686   -8.1544   14.3658 C   0  0  0  0  0  0  0  0  0  0  0  0
   -5.9391   -7.0161   13.5753 N   0  0  0  0  0  0  0  0  0  0  0  0
   -6.3302   -5.8133   14.1045 C   0  0  0  0  0  0  0  0  0  0  0  0
   -6.7770   -5.8378   15.2530 O   0  0  0  0  0  0  0  0  0  0  0  0
   -6.2614   -4.6121   13.4450 N   0  0  0  0  0  0  0  0  0  0  0  0
   -6.6616   -3.4084   14.0015 C   0  0  0  0  0  0  0  0  0  0  0  0
   -5.7588   -4.7243   12.1824 C   0  0  0  0  0  0  0  0  0  0  0  0
   -5.3736   -5.9270   11.6650 C   0  0  0  0  0  0  0  0  0  0  0  0
   -5.4348   -7.1680   12.3245 C   0  0  0  0  0  0  0  0  0  0  0  0
   -5.1010   -8.2750   11.9047 O   0  0  0  0  0  0  0  0  0  0  0  0
   -4.9211   -5.6569   10.3807 N   0  0  0  0  0  0  0  0  0  0  0  0
   -5.0627   -4.3211   10.2096 C   0  0  0  0  0  0  0  0  0  0  0  0
   -5.5567   -3.7115   11.2514 N   0  0  0  0  0  0  0  0  0  0  0  0
  1  2  1  0  0  0  0
  2  9  1  0  0  0  0
  2  3  1  0  0  0  0
  3  5  1  0  0  0  0
  3  4  2  0  0  0  0
  5  6  1  0  0  0  0
  5  7  1  0  0  0  0
  7  8  2  0  0  0  0
  7 13  1  0  0  0  0
  8  9  1  0  0  0  0
  8 11  1  0  0  0  0
  9 10  2  0  0  0  0
 11 12  1  0  0  0  0
 12 13  2  0  0  0  0
M  END
>  <CHROM.1>
-5.79811680,-5.77352771,12.70528288,-2.19811991,1.17690940,-0.38200039

>  <Name>
1eht cryst

>  <RI>
0

>  <Rbt.Current_Directory>
/home/itssahil/PROJECTS/Mol_Feturizer/New_Systems/rnas/1eht

>  <Rbt.Executable>
rbdock ($Id: //depot/dev/client3/rdock/2013.1/src/exe/rbdock.cxx#4 $)

>  <Rbt.Library>
libRbt.so (2013.1, Build901 2013/11/27)

>  <Rbt.Parameter_File>
/export/apps/rDock/src/rDock_2013.1_src/data/scripts/dock_solv.prm

>  <Rbt.Receptor>
prm/pocket_docking_8.prm

>  <SCORE>
-33.7413

>  <SCORE.INTER>
-33.7413

>  <SCORE.INTER.CONST>
1

>  <SCORE.INTER.POLAR>
-0.832291

>  <SCORE.INTER.ROT>
0

>  <SCORE.INTER.SOLV>
11.1947

>  <SCORE.INTER.VDW>
-27.0515

>  <SCORE.INTER.norm>
-2.59549

>  <SCORE.INTRA>
0

>  <SCORE.INTRA.DIHEDRAL>
0

>  <SCORE.INTRA.DIHEDRAL.0>
0

>  <SCORE.INTRA.POLAR>
0

>  <SCORE.INTRA.POLAR.0>
0

>  <SCORE.INTRA.REPUL>
0

>  <SCORE.INTRA.REPUL.0>
0

>  <SCORE.INTRA.SOLV>
0

>  <SCORE.INTRA.SOLV.lig_0>
-12.9768

>  <SCORE.INTRA.VDW>
0

>  <SCORE.INTRA.VDW.0>
0

>  <SCORE.INTRA.norm>
0

>  <SCORE.RESTR>
0

>  <SCORE.RESTR.CAVITY>
0

>  <SCORE.RESTR.norm>
0

>  <SCORE.SYSTEM>
0

>  <SCORE.SYSTEM.CONST>
0

>  <SCORE.SYSTEM.DIHEDRAL>
0

>  <SCORE.SYSTEM.SOLV>
0

>  <SCORE.SYSTEM.norm>
0

>  <SCORE.heavy>
13

>  <SCORE.norm>
-2.59549

>  <RMSD>
3.471

$$$$
1eht cryst
 OpenBabel11021811383D
libRbt.so/2013.1/901 2013/11/27
 13 14  0  0  0  0  0  0  0  0999 V2000
   -6.1264   -3.7135   12.1442 C   0  0  0  0  0  0  0  0  0  0  0  0
   -5.9962   -5.0250   12.5920 N   0  0  0  0  0  0  0  0  0  0  0  0
   -5.4802   -5.9555   11.7273 C   0  0  0  0  0  0  0  0  0  0  0  0
   -5.1738   -5.5510   10.6040 O   0  0  0  0  0  0  0  0  0  0  0  0
   -5.2947   -7.2811   12.0284 N   0  0  0  0  0  0  0  0  0  0  0  0
   -4.7697   -8.2030   11.1377 C   0  0  0  0  0  0  0  0  0  0  0  0
   -5.6815   -7.5998   13.2966 C   0  0  0  0  0  0  0  0  0  0  0  0
   -6.1951   -6.6657   14.1488 C   0  0  0  0  0  0  0  0  0  0  0  0
   -6.3919   -5.3031   13.8600 C   0  0  0  0  0  0  0  0  0  0  0  0
   -6.8483   -4.4243   14.5899 O   0  0  0  0  0  0  0  0  0  0  0  0
   -6.4702   -7.3433   15.3288 N   0  0  0  0  0  0  0  0  0  0  0  0
   -6.1083   -8.6301   15.1120 C   0  0  0  0  0  0  0  0  0  0  0  0
   -5.6297   -8.8429   13.9175 N   0  0  0  0  0  0  0  0  0  0  0  0
  1  2  1  0  0  0  0
  2  9  1  0  0  0  0
  2  3  1  0  0  0  0
  3  5  1  0  0  0  0
  3  4  2  0  0  0  0
  5  6  1  0  0  0  0
  5  7  1  0  0  0  0
  7  8  2  0  0  0  0
  7 13  1  0  0  0  0
  8  9  1  0  0  0  0
  8 11  1  0  0  0  0
  9 10  2  0  0  0  0
 11 12  1  0  0  0  0
 12 13  2  0  0  0  0
M  END
>  <CHROM.1>
-5.85832732,-6.45954515,13.08578390,1.42802021,1.17147299,-0.55182510

>  <Name>
1eht cryst

>  <RI>
0

>  <Rbt.Current_Directory>
/home/itssahil/PROJECTS/Mol_Feturizer/New_Systems/rnas/1eht

>  <Rbt.Executable>
rbdock ($Id: //depot/dev/client3/rdock/2013.1/src/exe/rbdock.cxx#4 $)

>  <Rbt.Library>
libRbt.so (2013.1, Build901 2013/11/27)

>  <Rbt.Parameter_File>
/export/apps/rDock/src/rDock_2013.1_src/data/scripts/dock_solv.prm

>  <Rbt.Receptor>
prm/pocket_docking_3.prm

>  <SCORE>
-39.0812

>  <SCORE.INTER>
-39.0812

>  <SCORE.INTER.CONST>
1

>  <SCORE.INTER.POLAR>
-2.12227

>  <SCORE.INTER.ROT>
0

>  <SCORE.INTER.SOLV>
9.96399

>  <SCORE.INTER.VDW>
-25.9012

>  <SCORE.INTER.norm>
-3.00625

>  <SCORE.INTRA>
0

>  <SCORE.INTRA.DIHEDRAL>
0

>  <SCORE.INTRA.DIHEDRAL.0>
0

>  <SCORE.INTRA.POLAR>
0

>  <SCORE.INTRA.POLAR.0>
0

>  <SCORE.INTRA.REPUL>
0

>  <SCORE.INTRA.REPUL.0>
0

>  <SCORE.INTRA.SOLV>
0

>  <SCORE.INTRA.SOLV.lig_0>
-12.9768

>  <SCORE.INTRA.VDW>
0

>  <SCORE.INTRA.VDW.0>
0

>  <SCORE.INTRA.norm>
0

>  <SCORE.RESTR>
0

>  <SCORE.RESTR.CAVITY>
0

>  <SCORE.RESTR.norm>
0

>  <SCORE.SYSTEM>
0

>  <SCORE.SYSTEM.CONST>
0

>  <SCORE.SYSTEM.DIHEDRAL>
0

>  <SCORE.SYSTEM.SOLV>
0

>  <SCORE.SYSTEM.norm>
0

>  <SCORE.heavy>
13

>  <SCORE.norm>
-3.00625

>  <RMSD>
3.474

$$$$
1eht cryst
 OpenBabel11021811383D
libRbt.so/2013.1/901 2013/11/27
 13 14  0  0  0  0  0  0  0  0999 V2000
   -6.1413   -3.7103   12.1410 C   0  0  0  0  0  0  0  0  0  0  0  0
   -5.9981   -5.0208   12.5878 N   0  0  0  0  0  0  0  0  0  0  0  0
   -5.4850   -5.9482   11.7180 C   0  0  0  0  0  0  0  0  0  0  0  0
   -5.1928   -5.5420   10.5916 O   0  0  0  0  0  0  0  0  0  0  0  0
   -5.2878   -7.2725   12.0175 N   0  0  0  0  0  0  0  0  0  0  0  0
   -4.7660   -8.1913   11.1217 C   0  0  0  0  0  0  0  0  0  0  0  0
   -5.6596   -7.5933   13.2896 C   0  0  0  0  0  0  0  0  0  0  0  0
   -6.1704   -6.6623   14.1469 C   0  0  0  0  0  0  0  0  0  0  0  0
   -6.3790   -5.3011   13.8599 C   0  0  0  0  0  0  0  0  0  0  0  0
   -6.8335   -4.4251   14.5942 O   0  0  0  0  0  0  0  0  0  0  0  0
   -6.4290   -7.3414   15.3298 N   0  0  0  0  0  0  0  0  0  0  0  0
   -6.0610   -8.6258   15.1095 C   0  0  0  0  0  0  0  0  0  0  0  0
   -5.5933   -8.8358   13.9102 N   0  0  0  0  0  0  0  0  0  0  0  0
  1  2  1  0  0  0  0
  2  9  1  0  0  0  0
  2  3  1  0  0  0  0
  3  5  1  0  0  0  0
  3  4  2  0  0  0  0
  5  6  1  0  0  0  0
  5  7  1  0  0  0  0
  7  8  2  0  0  0  0
  7 13  1  0  0  0  0
  8  9  1  0  0  0  0
  8 11  1  0  0  0  0
  9 10  2  0  0  0  0
 11 12  1  0  0  0  0
 12 13  2  0  0  0  0
M  END
>  <CHROM.1>
-5.84587492,-6.45428458,13.08043051,1.45636791,1.17668246,-0.57821528

>  <Name>
1eht cryst

>  <RI>
0

>  <Rbt.Current_Directory>
/home/itssahil/PROJECTS/Mol_Feturizer/New_Systems/rnas/1eht

>  <Rbt.Executable>
rbdock ($Id: //depot/dev/client3/rdock/2013.1/src/exe/rbdock.cxx#4 $)

>  <Rbt.Library>
libRbt.so (2013.1, Build901 2013/11/27)

>  <Rbt.Parameter_File>
/export/apps/rDock/src/rDock_2013.1_src/data/scripts/dock_solv.prm

>  <Rbt.Receptor>
prm/pocket_docking_3.prm

>  <SCORE>
-39.0396

>  <SCORE.INTER>
-39.0396

>  <SCORE.INTER.CONST>
1

>  <SCORE.INTER.POLAR>
-2.11615

>  <SCORE.INTER.ROT>
0

>  <SCORE.INTER.SOLV>
9.9231

>  <SCORE.INTER.VDW>
-25.8803

>  <SCORE.INTER.norm>
-3.00305

>  <SCORE.INTRA>
0

>  <SCORE.INTRA.DIHEDRAL>
0

>  <SCORE.INTRA.DIHEDRAL.0>
0

>  <SCORE.INTRA.POLAR>
0

>  <SCORE.INTRA.POLAR.0>
0

>  <SCORE.INTRA.REPUL>
0

>  <SCORE.INTRA.REPUL.0>
0

>  <SCORE.INTRA.SOLV>
0

>  <SCORE.INTRA.SOLV.lig_0>
-12.9768

>  <SCORE.INTRA.VDW>
0

>  <SCORE.INTRA.VDW.0>
0

>  <SCORE.INTRA.norm>
0

>  <SCORE.RESTR>
0

>  <SCORE.RESTR.CAVITY>
0

>  <SCORE.RESTR.norm>
0

>  <SCORE.SYSTEM>
0

>  <SCORE.SYSTEM.CONST>
0

>  <SCORE.SYSTEM.DIHEDRAL>
0

>  <SCORE.SYSTEM.SOLV>
0

>  <SCORE.SYSTEM.norm>
0

>  <SCORE.heavy>
13

>  <SCORE.norm>
-3.00305

>  <RMSD>
3.476

$$$$
1eht cryst
 OpenBabel11021811383D
libRbt.so/2013.1/901 2013/11/27
 13 14  0  0  0  0  0  0  0  0999 V2000
   -6.1298   -3.7101   12.1560 C   0  0  0  0  0  0  0  0  0  0  0  0
   -5.9992   -5.0224   12.6015 N   0  0  0  0  0  0  0  0  0  0  0  0
   -5.4811   -5.9507   11.7358 C   0  0  0  0  0  0  0  0  0  0  0  0
   -5.1733   -5.5438   10.6138 O   0  0  0  0  0  0  0  0  0  0  0  0
   -5.2949   -7.2768   12.0346 N   0  0  0  0  0  0  0  0  0  0  0  0
   -4.7678   -8.1965   11.1430 C   0  0  0  0  0  0  0  0  0  0  0  0
   -5.6834   -7.5982   13.3016 C   0  0  0  0  0  0  0  0  0  0  0  0
   -6.1991   -6.6662   14.1549 C   0  0  0  0  0  0  0  0  0  0  0  0
   -6.3966   -5.3032   13.8684 C   0  0  0  0  0  0  0  0  0  0  0  0
   -6.8548   -4.4262   14.5993 O   0  0  0  0  0  0  0  0  0  0  0  0
   -6.4754   -7.3464   15.3331 N   0  0  0  0  0  0  0  0  0  0  0  0
   -6.1121   -8.6323   15.1144 C   0  0  0  0  0  0  0  0  0  0  0  0
   -5.6315   -8.8424   13.9202 N   0  0  0  0  0  0  0  0  0  0  0  0
  1  2  1  0  0  0  0
  2  9  1  0  0  0  0
  2  3  1  0  0  0  0
  3  5  1  0  0  0  0
  3  4  2  0  0  0  0
  5  6  1  0  0  0  0
  5  7  1  0  0  0  0
  7  8  2  0  0  0  0
  7 13  1  0  0  0  0
  8  9  1  0  0  0  0
  8 11  1  0  0  0  0
  9 10  2  0  0  0  0
 11 12  1  0  0  0  0
 12 13  2  0  0  0  0
M  END
>  <CHROM.1>
-5.86085113,-6.45770864,13.09275037,1.42779246,1.16973318,-0.54968345

>  <Name>
1eht cryst

>  <RI>
0

>  <Rbt.Current_Directory>
/home/itssahil/PROJECTS/Mol_Feturizer/New_Systems/rnas/1eht

>  <Rbt.Executable>
rbdock ($Id: //depot/dev/client3/rdock/2013.1/src/exe/rbdock.cxx#4 $)

>  <Rbt.Library>
libRbt.so (2013.1, Build901 2013/11/27)

>  <Rbt.Parameter_File>
/export/apps/rDock/src/rDock_2013.1_src/data/scripts/dock_solv.prm

>  <Rbt.Receptor>
prm/pocket_docking_3.prm

>  <SCORE>
-39.0787

>  <SCORE.INTER>
-39.0787

>  <SCORE.INTER.CONST>
1

>  <SCORE.INTER.POLAR>
-2.12226

>  <SCORE.INTER.ROT>
0

>  <SCORE.INTER.SOLV>
9.97316

>  <SCORE.INTER.VDW>
-25.9027

>  <SCORE.INTER.norm>
-3.00606

>  <SCORE.INTRA>
0

>  <SCORE.INTRA.DIHEDRAL>
0

>  <SCORE.INTRA.DIHEDRAL.0>
0

>  <SCORE.INTRA.POLAR>
0

>  <SCORE.INTRA.POLAR.0>
0

>  <SCORE.INTRA.REPUL>
0

>  <SCORE.INTRA.REPUL.0>
0

>  <SCORE.INTRA.SOLV>
0

>  <SCORE.INTRA.SOLV.lig_0>
-12.9768

>  <SCORE.INTRA.VDW>
0

>  <SCORE.INTRA.VDW.0>
0

>  <SCORE.INTRA.norm>
0

>  <SCORE.RESTR>
0

>  <SCORE.RESTR.CAVITY>
0

>  <SCORE.RESTR.norm>
0

>  <SCORE.SYSTEM>
0

>  <SCORE.SYSTEM.CONST>
0

>  <SCORE.SYSTEM.DIHEDRAL>
0

>  <SCORE.SYSTEM.SOLV>
0

>  <SCORE.SYSTEM.norm>
0

>  <SCORE.heavy>
13

>  <SCORE.norm>
-3.00606

>  <RMSD>
3.478

$$$$
1eht cryst
 OpenBabel11021811383D
libRbt.so/2013.1/901 2013/11/27
 13 14  0  0  0  0  0  0  0  0999 V2000
   -6.1836   -3.6897   12.1628 C   0  0  0  0  0  0  0  0  0  0  0  0
   -6.0239   -5.0129   12.5641 N   0  0  0  0  0  0  0  0  0  0  0  0
   -5.5225   -5.9084   11.6550 C   0  0  0  0  0  0  0  0  0  0  0  0
   -5.2547   -5.4643   10.5369 O   0  0  0  0  0  0  0  0  0  0  0  0
   -5.3116   -7.2404   11.9077 N   0  0  0  0  0  0  0  0  0  0  0  0
   -4.8020   -8.1264   10.9727 C   0  0  0  0  0  0  0  0  0  0  0  0
   -5.6564   -7.6044   13.1758 C   0  0  0  0  0  0  0  0  0  0  0  0
   -6.1559   -6.7048   14.0724 C   0  0  0  0  0  0  0  0  0  0  0  0
   -6.3781   -5.3365   13.8336 C   0  0  0  0  0  0  0  0  0  0  0  0
   -6.8233   -4.4876   14.6046 O   0  0  0  0  0  0  0  0  0  0  0  0
   -6.3872   -7.4233   15.2376 N   0  0  0  0  0  0  0  0  0  0  0  0
   -6.0160   -8.6976   14.9688 C   0  0  0  0  0  0  0  0  0  0  0  0
   -5.5707   -8.8658   13.7545 N   0  0  0  0  0  0  0  0  0  0  0  0
  1  2  1  0  0  0  0
  2  9  1  0  0  0  0
  2  3  1  0  0  0  0
  3  5  1  0  0  0  0
  3  4  2  0  0  0  0
  5  6  1  0  0  0  0
  5  7  1  0  0  0  0
  7  8  2  0  0  0  0
  7 13  1  0  0  0  0
  8  9  1  0  0  0  0
  8 11  1  0  0  0  0
  9 10  2  0  0  0  0
 11 12  1  0  0  0  0
 12 13  2  0  0  0  0
M  END
>  <CHROM.1>
-5.85353675,-6.46048261,13.00713778,1.49849046,1.18956257,-0.58495387

>  <Name>
1eht cryst

>  <RI>
224

>  <Rbt.Current_Directory>
/home/itssahil/PROJECTS/Mol_Feturizer/New_Systems/rnas/1eht

>  <Rbt.Executable>
rbdock ($Id: //depot/dev/client3/rdock/2013.1/src/exe/rbdock.cxx#4 $)

>  <Rbt.Library>
libRbt.so (2013.1, Build901 2013/11/27)

>  <Rbt.Parameter_File>
/export/apps/rDock/src/rDock_2013.1_src/data/scripts/dock_solv.prm

>  <Rbt.Receptor>
prm/pocket_docking_7.prm

>  <SCORE>
-39.0483

>  <SCORE.INTER>
-39.0483

>  <SCORE.INTER.CONST>
1

>  <SCORE.INTER.POLAR>
-2.13881

>  <SCORE.INTER.ROT>
0

>  <SCORE.INTER.SOLV>
9.71787

>  <SCORE.INTER.VDW>
-25.7421

>  <SCORE.INTER.norm>
-3.00371

>  <SCORE.INTRA>
0

>  <SCORE.INTRA.DIHEDRAL>
0

>  <SCORE.INTRA.DIHEDRAL.0>
0

>  <SCORE.INTRA.POLAR>
0

>  <SCORE.INTRA.POLAR.0>
0

>  <SCORE.INTRA.REPUL>
0

>  <SCORE.INTRA.REPUL.0>
0

>  <SCORE.INTRA.SOLV>
0

>  <SCORE.INTRA.SOLV.lig_0>
-12.9768

>  <SCORE.INTRA.VDW>
0

>  <SCORE.INTRA.VDW.0>
0

>  <SCORE.INTRA.norm>
0

>  <SCORE.RESTR>
0

>  <SCORE.RESTR.CAVITY>
0

>  <SCORE.RESTR.norm>
0

>  <SCORE.SYSTEM>
0

>  <SCORE.SYSTEM.CONST>
0

>  <SCORE.SYSTEM.DIHEDRAL>
0

>  <SCORE.SYSTEM.SOLV>
0

>  <SCORE.SYSTEM.norm>
0

>  <SCORE.heavy>
13

>  <SCORE.norm>
-3.00371

>  <RMSD>
3.510

$$$$
1eht cryst
 OpenBabel11021811383D
libRbt.so/2013.1/901 2013/11/27
 13 14  0  0  0  0  0  0  0  0999 V2000
   -6.1954   -3.6452   12.2414 C   0  0  0  0  0  0  0  0  0  0  0  0
   -6.0428   -4.9743   12.6259 N   0  0  0  0  0  0  0  0  0  0  0  0
   -5.5378   -5.8591   11.7085 C   0  0  0  0  0  0  0  0  0  0  0  0
   -5.2606   -5.4008   10.5984 O   0  0  0  0  0  0  0  0  0  0  0  0
   -5.3330   -7.1950   11.9446 N   0  0  0  0  0  0  0  0  0  0  0  0
   -4.8196   -8.0700   11.0014 C   0  0  0  0  0  0  0  0  0  0  0  0
   -5.6881   -7.5750   13.2052 C   0  0  0  0  0  0  0  0  0  0  0  0
   -6.1911   -6.6859   14.1103 C   0  0  0  0  0  0  0  0  0  0  0  0
   -6.4072   -5.3137   13.8884 C   0  0  0  0  0  0  0  0  0  0  0  0
   -6.8552   -4.4738   14.6676 O   0  0  0  0  0  0  0  0  0  0  0  0
   -6.4331   -7.4193   15.2640 N   0  0  0  0  0  0  0  0  0  0  0  0
   -6.0641   -8.6910   14.9807 C   0  0  0  0  0  0  0  0  0  0  0  0
   -5.6106   -8.8443   13.7674 N   0  0  0  0  0  0  0  0  0  0  0  0
  1  2  1  0  0  0  0
  2  9  1  0  0  0  0
  2  3  1  0  0  0  0
  3  5  1  0  0  0  0
  3  4  2  0  0  0  0
  5  6  1  0  0  0  0
  5  7  1  0  0  0  0
  7  8  2  0  0  0  0
  7 13  1  0  0  0  0
  8  9  1  0  0  0  0
  8 11  1  0  0  0  0
  9 10  2  0  0  0  0
 11 12  1  0  0  0  0
 12 13  2  0  0  0  0
M  END
>  <CHROM.1>
-5.88035603,-6.42821886,13.05060378,1.48080400,1.18528451,-0.55505504

>  <Name>
1eht cryst

>  <RI>
0

>  <Rbt.Current_Directory>
/home/itssahil/PROJECTS/Mol_Feturizer/New_Systems/rnas/1eht

>  <Rbt.Executable>
rbdock ($Id: //depot/dev/client3/rdock/2013.1/src/exe/rbdock.cxx#4 $)

>  <Rbt.Library>
libRbt.so (2013.1, Build901 2013/11/27)

>  <Rbt.Parameter_File>
/export/apps/rDock/src/rDock_2013.1_src/data/scripts/dock_solv.prm

>  <Rbt.Receptor>
prm/blind_docking_100.prm

>  <SCORE>
-39.0198

>  <SCORE.INTER>
-39.0198

>  <SCORE.INTER.CONST>
1

>  <SCORE.INTER.POLAR>
-2.12186

>  <SCORE.INTER.ROT>
0

>  <SCORE.INTER.SOLV>
9.82321

>  <SCORE.INTER.VDW>
-25.8148

>  <SCORE.INTER.norm>
-3.00152

>  <SCORE.INTRA>
0

>  <SCORE.INTRA.DIHEDRAL>
0

>  <SCORE.INTRA.DIHEDRAL.0>
0

>  <SCORE.INTRA.POLAR>
0

>  <SCORE.INTRA.POLAR.0>
0

>  <SCORE.INTRA.REPUL>
0

>  <SCORE.INTRA.REPUL.0>
0

>  <SCORE.INTRA.SOLV>
0

>  <SCORE.INTRA.SOLV.lig_0>
-12.9768

>  <SCORE.INTRA.VDW>
0

>  <SCORE.INTRA.VDW.0>
0

>  <SCORE.INTRA.norm>
0

>  <SCORE.RESTR>
0

>  <SCORE.RESTR.CAVITY>
0

>  <SCORE.RESTR.norm>
0

>  <SCORE.SYSTEM>
0

>  <SCORE.SYSTEM.CONST>
0

>  <SCORE.SYSTEM.DIHEDRAL>
0

>  <SCORE.SYSTEM.SOLV>
0

>  <SCORE.SYSTEM.norm>
0

>  <SCORE.heavy>
13

>  <SCORE.norm>
-3.00152

>  <RMSD>
3.531

$$$$
1eht cryst
 OpenBabel11021811383D
libRbt.so/2013.1/901 2013/11/27
 13 14  0  0  0  0  0  0  0  0999 V2000
   -6.1743   -3.7392   12.1735 C   0  0  0  0  0  0  0  0  0  0  0  0
   -6.0030   -5.0665   12.5559 N   0  0  0  0  0  0  0  0  0  0  0  0
   -5.4965   -5.9451   11.6333 C   0  0  0  0  0  0  0  0  0  0  0  0
   -5.2351   -5.4833   10.5208 O   0  0  0  0  0  0  0  0  0  0  0  0
   -5.2743   -7.2787   11.8667 N   0  0  0  0  0  0  0  0  0  0  0  0
   -4.7598   -8.1474   10.9183 C   0  0  0  0  0  0  0  0  0  0  0  0
   -5.6132   -7.6633   13.1304 C   0  0  0  0  0  0  0  0  0  0  0  0
   -6.1177   -6.7804   14.0407 C   0  0  0  0  0  0  0  0  0  0  0  0
   -6.3516   -5.4107   13.8216 C   0  0  0  0  0  0  0  0  0  0  0  0
   -6.8018   -4.5763   14.6053 O   0  0  0  0  0  0  0  0  0  0  0  0
   -6.3405   -7.5170   15.1962 N   0  0  0  0  0  0  0  0  0  0  0  0
   -5.9596   -8.7843   14.9087 C   0  0  0  0  0  0  0  0  0  0  0  0
   -5.5159   -8.9319   13.6912 N   0  0  0  0  0  0  0  0  0  0  0  0
  1  2  1  0  0  0  0
  2  9  1  0  0  0  0
  2  3  1  0  0  0  0
  3  5  1  0  0  0  0
  3  4  2  0  0  0  0
  5  6  1  0  0  0  0
  5  7  1  0  0  0  0
  7  8  2  0  0  0  0
  7 13  1  0  0  0  0
  8  9  1  0  0  0  0
  8 11  1  0  0  0  0
  9 10  2  0  0  0  0
 11 12  1  0  0  0  0
 12 13  2  0  0  0  0
M  END
>  <CHROM.1>
-5.81990942,-6.51872170,12.97823613,1.51999426,1.18699762,-0.59090601

>  <Name>
1eht cryst

>  <RI>
0

>  <Rbt.Current_Directory>
/home/itssahil/PROJECTS/Mol_Feturizer/New_Systems/rnas/1eht

>  <Rbt.Executable>
rbdock ($Id: //depot/dev/client3/rdock/2013.1/src/exe/rbdock.cxx#4 $)

>  <Rbt.Library>
libRbt.so (2013.1, Build901 2013/11/27)

>  <Rbt.Parameter_File>
/export/apps/rDock/src/rDock_2013.1_src/data/scripts/dock_solv.prm

>  <Rbt.Receptor>
prm/pocket_docking_5.prm

>  <SCORE>
-39.0423

>  <SCORE.INTER>
-39.0423

>  <SCORE.INTER.CONST>
1

>  <SCORE.INTER.POLAR>
-2.17086

>  <SCORE.INTER.ROT>
0

>  <SCORE.INTER.SOLV>
9.52139

>  <SCORE.INTER.VDW>
-25.5658

>  <SCORE.INTER.norm>
-3.00325

>  <SCORE.INTRA>
0

>  <SCORE.INTRA.DIHEDRAL>
0

>  <SCORE.INTRA.DIHEDRAL.0>
0

>  <SCORE.INTRA.POLAR>
0

>  <SCORE.INTRA.POLAR.0>
0

>  <SCORE.INTRA.REPUL>
0

>  <SCORE.INTRA.REPUL.0>
0

>  <SCORE.INTRA.SOLV>
0

>  <SCORE.INTRA.SOLV.lig_0>
-12.9768

>  <SCORE.INTRA.VDW>
0

>  <SCORE.INTRA.VDW.0>
0

>  <SCORE.INTRA.norm>
0

>  <SCORE.RESTR>
0

>  <SCORE.RESTR.CAVITY>
0

>  <SCORE.RESTR.norm>
0

>  <SCORE.SYSTEM>
0

>  <SCORE.SYSTEM.CONST>
0

>  <SCORE.SYSTEM.DIHEDRAL>
0

>  <SCORE.SYSTEM.SOLV>
0

>  <SCORE.SYSTEM.norm>
0

>  <SCORE.heavy>
13

>  <SCORE.norm>
-3.00325

>  <RMSD>
3.533

$$$$
1eht cryst
 OpenBabel11021811383D
libRbt.so/2013.1/901 2013/11/27
 13 14  0  0  0  0  0  0  0  0999 V2000
   -6.2569   -3.5273   12.2649 C   0  0  0  0  0  0  0  0  0  0  0  0
   -6.0836   -4.8587   12.6322 N   0  0  0  0  0  0  0  0  0  0  0  0
   -5.5716   -5.7251   11.7011 C   0  0  0  0  0  0  0  0  0  0  0  0
   -5.3072   -5.2494   10.5952 O   0  0  0  0  0  0  0  0  0  0  0  0
   -5.3468   -7.0608   11.9196 N   0  0  0  0  0  0  0  0  0  0  0  0
   -4.8268   -7.9169   10.9629 C   0  0  0  0  0  0  0  0  0  0  0  0
   -5.6893   -7.4611   13.1774 C   0  0  0  0  0  0  0  0  0  0  0  0
   -6.1994   -6.5902   14.0962 C   0  0  0  0  0  0  0  0  0  0  0  0
   -6.4359   -5.2186   13.8924 C   0  0  0  0  0  0  0  0  0  0  0  0
   -6.8910   -4.3946   14.6843 O   0  0  0  0  0  0  0  0  0  0  0  0
   -6.4245   -7.3410   15.2421 N   0  0  0  0  0  0  0  0  0  0  0  0
   -6.0394   -8.6039   14.9411 C   0  0  0  0  0  0  0  0  0  0  0  0
   -5.5909   -8.7360   13.7235 N   0  0  0  0  0  0  0  0  0  0  0  0
  1  2  1  0  0  0  0
  2  9  1  0  0  0  0
  2  3  1  0  0  0  0
  3  5  1  0  0  0  0
  3  4  2  0  0  0  0
  5  6  1  0  0  0  0
  5  7  1  0  0  0  0
  7  8  2  0  0  0  0
  7 13  1  0  0  0  0
  8  9  1  0  0  0  0
  8 11  1  0  0  0  0
  9 10  2  0  0  0  0
 11 12  1  0  0  0  0
 12 13  2  0  0  0  0
M  END
>  <CHROM.1>
-5.89838599,-6.31530609,13.03801279,1.52016077,1.18259138,-0.57924034

>  <Name>
1eht cryst

>  <RI>
0

>  <Rbt.Current_Directory>
/home/itssahil/PROJECTS/Mol_Feturizer/New_Systems/rnas/1eht

>  <Rbt.Executable>
rbdock ($Id: //depot/dev/client3/rdock/2013.1/src/exe/rbdock.cxx#4 $)

>  <Rbt.Library>
libRbt.so (2013.1, Build901 2013/11/27)

>  <Rbt.Parameter_File>
/export/apps/rDock/src/rDock_2013.1_src/data/scripts/dock_solv.prm

>  <Rbt.Receptor>
prm/blind_docking_80.prm

>  <SCORE>
-38.5778

>  <SCORE.INTER>
-39.0136

>  <SCORE.INTER.CONST>
1

>  <SCORE.INTER.POLAR>
-2.0885

>  <SCORE.INTER.ROT>
0

>  <SCORE.INTER.SOLV>
9.92404

>  <SCORE.INTER.VDW>
-25.9554

>  <SCORE.INTER.norm>
-3.00105

>  <SCORE.INTRA>
0

>  <SCORE.INTRA.DIHEDRAL>
0

>  <SCORE.INTRA.DIHEDRAL.0>
0

>  <SCORE.INTRA.POLAR>
0

>  <SCORE.INTRA.POLAR.0>
0

>  <SCORE.INTRA.REPUL>
0

>  <SCORE.INTRA.REPUL.0>
0

>  <SCORE.INTRA.SOLV>
0

>  <SCORE.INTRA.SOLV.lig_0>
-12.9768

>  <SCORE.INTRA.VDW>
0

>  <SCORE.INTRA.VDW.0>
0

>  <SCORE.INTRA.norm>
0

>  <SCORE.RESTR>
0.435749

>  <SCORE.RESTR.CAVITY>
0.435749

>  <SCORE.RESTR.norm>
0.0335192

>  <SCORE.SYSTEM>
0

>  <SCORE.SYSTEM.CONST>
0

>  <SCORE.SYSTEM.DIHEDRAL>
0

>  <SCORE.SYSTEM.SOLV>
0

>  <SCORE.SYSTEM.norm>
0

>  <SCORE.heavy>
13

>  <SCORE.norm>
-2.96753

>  <RMSD>
3.539

$$$$
1eht cryst
 OpenBabel11021811383D
libRbt.so/2013.1/901 2013/11/27
 13 14  0  0  0  0  0  0  0  0999 V2000
   -6.1865   -3.6433   12.2281 C   0  0  0  0  0  0  0  0  0  0  0  0
   -6.0020   -4.9704   12.6054 N   0  0  0  0  0  0  0  0  0  0  0  0
   -5.4256   -5.8254   11.7019 C   0  0  0  0  0  0  0  0  0  0  0  0
   -5.1177   -5.3444   10.6096 O   0  0  0  0  0  0  0  0  0  0  0  0
   -5.1823   -7.1557   11.9331 N   0  0  0  0  0  0  0  0  0  0  0  0
   -4.5968   -8.0004   11.0043 C   0  0  0  0  0  0  0  0  0  0  0  0
   -5.5774   -7.5631   13.1730 C   0  0  0  0  0  0  0  0  0  0  0  0
   -6.1513   -6.7036   14.0644 C   0  0  0  0  0  0  0  0  0  0  0  0
   -6.4078   -5.3377   13.8472 C   0  0  0  0  0  0  0  0  0  0  0  0
   -6.9196   -4.5237   14.6146 O   0  0  0  0  0  0  0  0  0  0  0  0
   -6.4158   -7.4588   15.1988 N   0  0  0  0  0  0  0  0  0  0  0  0
   -5.9884   -8.7129   14.9190 C   0  0  0  0  0  0  0  0  0  0  0  0
   -5.4777   -8.8354   13.7251 N   0  0  0  0  0  0  0  0  0  0  0  0
  1  2  1  0  0  0  0
  2  9  1  0  0  0  0
  2  3  1  0  0  0  0
  3  5  1  0  0  0  0
  3  4  2  0  0  0  0
  5  6  1  0  0  0  0
  5  7  1  0  0  0  0
  7  8  2  0  0  0  0
  7 13  1  0  0  0  0
  8  9  1  0  0  0  0
  8 11  1  0  0  0  0
  9 10  2  0  0  0  0
 11 12  1  0  0  0  0
 12 13  2  0  0  0  0
M  END
>  <CHROM.1>
-5.80468741,-6.42236156,13.02190060,1.50053606,1.12908797,-0.56214324

>  <Name>
1eht cryst

>  <RI>
0

>  <Rbt.Current_Directory>
/home/itssahil/PROJECTS/Mol_Feturizer/New_Systems/rnas/1eht

>  <Rbt.Executable>
rbdock ($Id: //depot/dev/client3/rdock/2013.1/src/exe/rbdock.cxx#4 $)

>  <Rbt.Library>
libRbt.so (2013.1, Build901 2013/11/27)

>  <Rbt.Parameter_File>
/export/apps/rDock/src/rDock_2013.1_src/data/scripts/dock_solv.prm

>  <Rbt.Receptor>
prm/pocket_docking_6.prm

>  <SCORE>
-38.9568

>  <SCORE.INTER>
-38.9568

>  <SCORE.INTER.CONST>
1

>  <SCORE.INTER.POLAR>
-2.18911

>  <SCORE.INTER.ROT>
0

>  <SCORE.INTER.SOLV>
9.82462

>  <SCORE.INTER.VDW>
-25.549

>  <SCORE.INTER.norm>
-2.99668

>  <SCORE.INTRA>
0

>  <SCORE.INTRA.DIHEDRAL>
0

>  <SCORE.INTRA.DIHEDRAL.0>
0

>  <SCORE.INTRA.POLAR>
0

>  <SCORE.INTRA.POLAR.0>
0

>  <SCORE.INTRA.REPUL>
0

>  <SCORE.INTRA.REPUL.0>
0

>  <SCORE.INTRA.SOLV>
0

>  <SCORE.INTRA.SOLV.lig_0>
-12.9768

>  <SCORE.INTRA.VDW>
0

>  <SCORE.INTRA.VDW.0>
0

>  <SCORE.INTRA.norm>
0

>  <SCORE.RESTR>
0

>  <SCORE.RESTR.CAVITY>
0

>  <SCORE.RESTR.norm>
0

>  <SCORE.SYSTEM>
0

>  <SCORE.SYSTEM.CONST>
0

>  <SCORE.SYSTEM.DIHEDRAL>
0

>  <SCORE.SYSTEM.SOLV>
0

>  <SCORE.SYSTEM.norm>
0

>  <SCORE.heavy>
13

>  <SCORE.norm>
-2.99668

>  <RMSD>
3.540

$$$$
1eht cryst
 OpenBabel11021811383D
libRbt.so/2013.1/901 2013/11/27
 13 14  0  0  0  0  0  0  0  0999 V2000
   -6.2401   -3.7029   12.1915 C   0  0  0  0  0  0  0  0  0  0  0  0
   -6.0536   -5.0342   12.5526 N   0  0  0  0  0  0  0  0  0  0  0  0
   -5.5468   -5.8943   11.6129 C   0  0  0  0  0  0  0  0  0  0  0  0
   -5.2985   -5.4135   10.5054 O   0  0  0  0  0  0  0  0  0  0  0  0
   -5.3106   -7.2291   11.8246 N   0  0  0  0  0  0  0  0  0  0  0  0
   -4.7960   -8.0789   10.8592 C   0  0  0  0  0  0  0  0  0  0  0  0
   -5.6357   -7.6356   13.0850 C   0  0  0  0  0  0  0  0  0  0  0  0
   -6.1408   -6.7710   14.0124 C   0  0  0  0  0  0  0  0  0  0  0  0
   -6.3888   -5.4004   13.8157 C   0  0  0  0  0  0  0  0  0  0  0  0
   -6.8402   -4.5819   14.6154 O   0  0  0  0  0  0  0  0  0  0  0  0
   -6.3475   -7.5267   15.1585 N   0  0  0  0  0  0  0  0  0  0  0  0
   -5.9575   -8.7860   14.8491 C   0  0  0  0  0  0  0  0  0  0  0  0
   -5.5224   -8.9114   13.6260 N   0  0  0  0  0  0  0  0  0  0  0  0
  1  2  1  0  0  0  0
  2  9  1  0  0  0  0
  2  3  1  0  0  0  0
  3  5  1  0  0  0  0
  3  4  2  0  0  0  0
  5  6  1  0  0  0  0
  5  7  1  0  0  0  0
  7  8  2  0  0  0  0
  7 13  1  0  0  0  0
  8  9  1  0  0  0  0
  8 11  1  0  0  0  0
  9 10  2  0  0  0  0
 11 12  1  0  0  0  0
 12 13  2  0  0  0  0
M  END
>  <CHROM.1>
-5.85401862,-6.49080227,12.95168189,1.55225702,1.18852313,-0.60590230

>  <Name>
1eht cryst

>  <RI>
0

>  <Rbt.Current_Directory>
/home/itssahil/PROJECTS/Mol_Feturizer/New_Systems/rnas/1eht

>  <Rbt.Executable>
rbdock ($Id: //depot/dev/client3/rdock/2013.1/src/exe/rbdock.cxx#4 $)

>  <Rbt.Library>
libRbt.so (2013.1, Build901 2013/11/27)

>  <Rbt.Parameter_File>
/export/apps/rDock/src/rDock_2013.1_src/data/scripts/dock_solv.prm

>  <Rbt.Receptor>
prm/blind_docking_100.prm

>  <SCORE>
-39.0153

>  <SCORE.INTER>
-39.0153

>  <SCORE.INTER.CONST>
1

>  <SCORE.INTER.POLAR>
-2.18522

>  <SCORE.INTER.ROT>
0

>  <SCORE.INTER.SOLV>
9.48077

>  <SCORE.INTER.VDW>
-25.4864

>  <SCORE.INTER.norm>
-3.00117

>  <SCORE.INTRA>
0

>  <SCORE.INTRA.DIHEDRAL>
0

>  <SCORE.INTRA.DIHEDRAL.0>
0

>  <SCORE.INTRA.POLAR>
0

>  <SCORE.INTRA.POLAR.0>
0

>  <SCORE.INTRA.REPUL>
0

>  <SCORE.INTRA.REPUL.0>
0

>  <SCORE.INTRA.SOLV>
0

>  <SCORE.INTRA.SOLV.lig_0>
-12.9768

>  <SCORE.INTRA.VDW>
0

>  <SCORE.INTRA.VDW.0>
0

>  <SCORE.INTRA.norm>
0

>  <SCORE.RESTR>
0

>  <SCORE.RESTR.CAVITY>
0

>  <SCORE.RESTR.norm>
0

>  <SCORE.SYSTEM>
0

>  <SCORE.SYSTEM.CONST>
0

>  <SCORE.SYSTEM.DIHEDRAL>
0

>  <SCORE.SYSTEM.SOLV>
0

>  <SCORE.SYSTEM.norm>
0

>  <SCORE.heavy>
13

>  <SCORE.norm>
-3.00117

>  <RMSD>
3.550

$$$$
1eht cryst
 OpenBabel11021811383D
libRbt.so/2013.1/901 2013/11/27
 13 14  0  0  0  0  0  0  0  0999 V2000
   -6.2375   -3.6461   12.2227 C   0  0  0  0  0  0  0  0  0  0  0  0
   -6.0443   -4.9781   12.5779 N   0  0  0  0  0  0  0  0  0  0  0  0
   -5.5261   -5.8297   11.6367 C   0  0  0  0  0  0  0  0  0  0  0  0
   -5.2745   -5.3414   10.5333 O   0  0  0  0  0  0  0  0  0  0  0  0
   -5.2822   -7.1641   11.8427 N   0  0  0  0  0  0  0  0  0  0  0  0
   -4.7563   -8.0052   10.8759 C   0  0  0  0  0  0  0  0  0  0  0  0
   -5.6120   -7.5793   13.0990 C   0  0  0  0  0  0  0  0  0  0  0  0
   -6.1284   -6.7231   14.0280 C   0  0  0  0  0  0  0  0  0  0  0  0
   -6.3844   -5.3532   13.8370 C   0  0  0  0  0  0  0  0  0  0  0  0
   -6.8460   -4.5420   14.6384 O   0  0  0  0  0  0  0  0  0  0  0  0
   -6.3368   -7.4863   15.1688 N   0  0  0  0  0  0  0  0  0  0  0  0
   -5.9365   -8.7413   14.8551 C   0  0  0  0  0  0  0  0  0  0  0  0
   -5.4934   -8.8573   13.6339 N   0  0  0  0  0  0  0  0  0  0  0  0
  1  2  1  0  0  0  0
  2  9  1  0  0  0  0
  2  3  1  0  0  0  0
  3  5  1  0  0  0  0
  3  4  2  0  0  0  0
  5  6  1  0  0  0  0
  5  7  1  0  0  0  0
  7  8  2  0  0  0  0
  7 13  1  0  0  0  0
  8  9  1  0  0  0  0
  8 11  1  0  0  0  0
  9 10  2  0  0  0  0
 11 12  1  0  0  0  0
 12 13  2  0  0  0  0
M  END
>  <CHROM.1>
-5.83723456,-6.43538865,12.97043781,1.55790300,1.17984433,-0.60582673

>  <Name>
1eht cryst

>  <RI>
224

>  <Rbt.Current_Directory>
/home/itssahil/PROJECTS/Mol_Feturizer/New_Systems/rnas/1eht

>  <Rbt.Executable>
rbdock ($Id: //depot/dev/client3/rdock/2013.1/src/exe/rbdock.cxx#4 $)

>  <Rbt.Library>
libRbt.so (2013.1, Build901 2013/11/27)

>  <Rbt.Parameter_File>
/export/apps/rDock/src/rDock_2013.1_src/data/scripts/dock_solv.prm

>  <Rbt.Receptor>
prm/pocket_docking_7.prm

>  <SCORE>
-39.0269

>  <SCORE.INTER>
-39.0269

>  <SCORE.INTER.CONST>
1

>  <SCORE.INTER.POLAR>
-2.16125

>  <SCORE.INTER.ROT>
0

>  <SCORE.INTER.SOLV>
9.57771

>  <SCORE.INTER.VDW>
-25.6063

>  <SCORE.INTER.norm>
-3.00207

>  <SCORE.INTRA>
0

>  <SCORE.INTRA.DIHEDRAL>
0

>  <SCORE.INTRA.DIHEDRAL.0>
0

>  <SCORE.INTRA.POLAR>
0

>  <SCORE.INTRA.POLAR.0>
0

>  <SCORE.INTRA.REPUL>
0

>  <SCORE.INTRA.REPUL.0>
0

>  <SCORE.INTRA.SOLV>
0

>  <SCORE.INTRA.SOLV.lig_0>
-12.9768

>  <SCORE.INTRA.VDW>
0

>  <SCORE.INTRA.VDW.0>
0

>  <SCORE.INTRA.norm>
0

>  <SCORE.RESTR>
0

>  <SCORE.RESTR.CAVITY>
0

>  <SCORE.RESTR.norm>
0

>  <SCORE.SYSTEM>
0

>  <SCORE.SYSTEM.CONST>
0

>  <SCORE.SYSTEM.DIHEDRAL>
0

>  <SCORE.SYSTEM.SOLV>
0

>  <SCORE.SYSTEM.norm>
0

>  <SCORE.heavy>
13

>  <SCORE.norm>
-3.00207

>  <RMSD>
3.553

$$$$
1eht cryst
 OpenBabel11021811383D
libRbt.so/2013.1/901 2013/11/27
 13 14  0  0  0  0  0  0  0  0999 V2000
   -6.2900   -3.4975   12.2238 C   0  0  0  0  0  0  0  0  0  0  0  0
   -6.0704   -4.8293   12.5640 N   0  0  0  0  0  0  0  0  0  0  0  0
   -5.5223   -5.6566   11.6181 C   0  0  0  0  0  0  0  0  0  0  0  0
   -5.2695   -5.1483   10.5241 O   0  0  0  0  0  0  0  0  0  0  0  0
   -5.2503   -6.9876   11.8099 N   0  0  0  0  0  0  0  0  0  0  0  0
   -4.6943   -7.8038   10.8385 C   0  0  0  0  0  0  0  0  0  0  0  0
   -5.5848   -7.4266   13.0568 C   0  0  0  0  0  0  0  0  0  0  0  0
   -6.1311   -6.5946   13.9906 C   0  0  0  0  0  0  0  0  0  0  0  0
   -6.4162   -5.2284   13.8142 C   0  0  0  0  0  0  0  0  0  0  0  0
   -6.9052   -4.4385   14.6205 O   0  0  0  0  0  0  0  0  0  0  0  0
   -6.3349   -7.3772   15.1190 N   0  0  0  0  0  0  0  0  0  0  0  0
   -5.9025   -8.6186   14.7939 C   0  0  0  0  0  0  0  0  0  0  0  0
   -5.4430   -8.7085   13.5766 N   0  0  0  0  0  0  0  0  0  0  0  0
  1  2  1  0  0  0  0
  2  9  1  0  0  0  0
  2  3  1  0  0  0  0
  3  5  1  0  0  0  0
  3  4  2  0  0  0  0
  5  6  1  0  0  0  0
  5  7  1  0  0  0  0
  7  8  2  0  0  0  0
  7 13  1  0  0  0  0
  8  9  1  0  0  0  0
  8 11  1  0  0  0  0
  9 10  2  0  0  0  0
 11 12  1  0  0  0  0
 12 13  2  0  0  0  0
M  END
>  <CHROM.1>
-5.83460104,-6.28650465,12.94027679,1.58860215,1.15731791,-0.62112866

>  <Name>
1eht cryst

>  <RI>
0

>  <Rbt.Current_Directory>
/home/itssahil/PROJECTS/Mol_Feturizer/New_Systems/rnas/1eht

>  <Rbt.Executable>
rbdock ($Id: //depot/dev/client3/rdock/2013.1/src/exe/rbdock.cxx#4 $)

>  <Rbt.Library>
libRbt.so (2013.1, Build901 2013/11/27)

>  <Rbt.Parameter_File>
/export/apps/rDock/src/rDock_2013.1_src/data/scripts/dock_solv.prm

>  <Rbt.Receptor>
prm/blind_docking_80.prm

>  <SCORE>
-38.5624

>  <SCORE.INTER>
-38.9799

>  <SCORE.INTER.CONST>
1

>  <SCORE.INTER.POLAR>
-2.13869

>  <SCORE.INTER.ROT>
0

>  <SCORE.INTER.SOLV>
9.80562

>  <SCORE.INTER.VDW>
-25.7262

>  <SCORE.INTER.norm>
-2.99845

>  <SCORE.INTRA>
0

>  <SCORE.INTRA.DIHEDRAL>
0

>  <SCORE.INTRA.DIHEDRAL.0>
0

>  <SCORE.INTRA.POLAR>
0

>  <SCORE.INTRA.POLAR.0>
0

>  <SCORE.INTRA.REPUL>
0

>  <SCORE.INTRA.REPUL.0>
0

>  <SCORE.INTRA.SOLV>
0

>  <SCORE.INTRA.SOLV.lig_0>
-12.9768

>  <SCORE.INTRA.VDW>
0

>  <SCORE.INTRA.VDW.0>
0

>  <SCORE.INTRA.norm>
0

>  <SCORE.RESTR>
0.417468

>  <SCORE.RESTR.CAVITY>
0.417468

>  <SCORE.RESTR.norm>
0.032113

>  <SCORE.SYSTEM>
0

>  <SCORE.SYSTEM.CONST>
0

>  <SCORE.SYSTEM.DIHEDRAL>
0

>  <SCORE.SYSTEM.SOLV>
0

>  <SCORE.SYSTEM.norm>
0

>  <SCORE.heavy>
13

>  <SCORE.norm>
-2.96634

>  <RMSD>
3.554

$$$$
1eht cryst
 OpenBabel11021811383D
libRbt.so/2013.1/901 2013/11/27
 13 14  0  0  0  0  0  0  0  0999 V2000
   -6.2460   -3.5426   12.2601 C   0  0  0  0  0  0  0  0  0  0  0  0
   -6.0468   -4.8795   12.5924 N   0  0  0  0  0  0  0  0  0  0  0  0
   -5.4964   -5.7059   11.6470 C   0  0  0  0  0  0  0  0  0  0  0  0
   -5.2234   -5.1921   10.5604 O   0  0  0  0  0  0  0  0  0  0  0  0
   -5.2429   -7.0416   11.8315 N   0  0  0  0  0  0  0  0  0  0  0  0
   -4.6843   -7.8568   10.8609 C   0  0  0  0  0  0  0  0  0  0  0  0
   -5.5987   -7.4863   13.0705 C   0  0  0  0  0  0  0  0  0  0  0  0
   -6.1470   -6.6551   14.0039 C   0  0  0  0  0  0  0  0  0  0  0  0
   -6.4134   -5.2843   13.8348 C   0  0  0  0  0  0  0  0  0  0  0  0
   -6.9033   -4.4948   14.6411 O   0  0  0  0  0  0  0  0  0  0  0  0
   -6.3747   -7.4440   15.1233 N   0  0  0  0  0  0  0  0  0  0  0  0
   -5.9531   -8.6880   14.7938 C   0  0  0  0  0  0  0  0  0  0  0  0
   -5.4790   -8.7738   13.5818 N   0  0  0  0  0  0  0  0  0  0  0  0
  1  2  1  0  0  0  0
  2  9  1  0  0  0  0
  2  3  1  0  0  0  0
  3  5  1  0  0  0  0
  3  4  2  0  0  0  0
  5  6  1  0  0  0  0
  5  7  1  0  0  0  0
  7  8  2  0  0  0  0
  7 13  1  0  0  0  0
  8  9  1  0  0  0  0
  8 11  1  0  0  0  0
  9 10  2  0  0  0  0
 11 12  1  0  0  0  0
 12 13  2  0  0  0  0
M  END
>  <CHROM.1>
-5.83332223,-6.34238851,12.95994870,1.54601064,1.15346331,-0.57420510

>  <Name>
1eht cryst

>  <RI>
0

>  <Rbt.Current_Directory>
/home/itssahil/PROJECTS/Mol_Feturizer/New_Systems/rnas/1eht

>  <Rbt.Executable>
rbdock ($Id: //depot/dev/client3/rdock/2013.1/src/exe/rbdock.cxx#4 $)

>  <Rbt.Library>
libRbt.so (2013.1, Build901 2013/11/27)

>  <Rbt.Parameter_File>
/export/apps/rDock/src/rDock_2013.1_src/data/scripts/dock_solv.prm

>  <Rbt.Receptor>
prm/blind_docking_80.prm

>  <SCORE>
-38.5446

>  <SCORE.INTER>
-38.9649

>  <SCORE.INTER.CONST>
1

>  <SCORE.INTER.POLAR>
-2.15953

>  <SCORE.INTER.ROT>
0

>  <SCORE.INTER.SOLV>
9.76069

>  <SCORE.INTER.VDW>
-25.6317

>  <SCORE.INTER.norm>
-2.9973

>  <SCORE.INTRA>
0

>  <SCORE.INTRA.DIHEDRAL>
0

>  <SCORE.INTRA.DIHEDRAL.0>
0

>  <SCORE.INTRA.POLAR>
0

>  <SCORE.INTRA.POLAR.0>
0

>  <SCORE.INTRA.REPUL>
0

>  <SCORE.INTRA.REPUL.0>
0

>  <SCORE.INTRA.SOLV>
0

>  <SCORE.INTRA.SOLV.lig_0>
-12.9768

>  <SCORE.INTRA.VDW>
0

>  <SCORE.INTRA.VDW.0>
0

>  <SCORE.INTRA.norm>
0

>  <SCORE.RESTR>
0.42029

>  <SCORE.RESTR.CAVITY>
0.42029

>  <SCORE.RESTR.norm>
0.03233

>  <SCORE.SYSTEM>
0

>  <SCORE.SYSTEM.CONST>
0

>  <SCORE.SYSTEM.DIHEDRAL>
0

>  <SCORE.SYSTEM.SOLV>
0

>  <SCORE.SYSTEM.norm>
0

>  <SCORE.heavy>
13

>  <SCORE.norm>
-2.96497

>  <RMSD>
3.565

$$$$
