ligand
  PyMOL2.2          3D                             0

 11 12  0  0  0  0  0  0  0  0999 V2000
    0.9910  -20.2920   26.5740 N   0  0  0  0  0  0  0  0  0  0  0  0
    0.2690  -20.9640   25.6600 C   0  0  0  0  0  0  0  0  0  0  0  0
   -1.0860  -21.3210   25.9320 N   0  0  0  0  0  0  0  0  0  0  0  0
    0.7750  -21.3150   24.4740 N   0  0  0  0  0  0  0  0  0  0  0  0
    2.0750  -21.0180   24.1420 C   0  0  0  0  0  0  0  0  0  0  0  0
    2.8470  -20.3290   25.0520 C   0  0  0  0  0  0  0  0  0  0  0  0
    2.2740  -19.9530   26.3010 C   0  0  0  0  0  0  0  0  0  0  0  0
    3.0360  -19.2680   27.2210 O   0  0  0  0  0  0  0  0  0  0  0  0
    4.1290  -20.1520   24.4410 C   0  0  0  0  0  0  0  0  0  0  0  0
    4.0560  -20.7600   23.1800 C   0  0  0  0  0  0  0  0  0  0  0  0
    2.8290  -21.2710   23.0180 N   0  0  0  0  0  0  0  0  0  0  0  0
  1  2  4  0  0  0  0
  2  3  1  0  0  0  0
  2  4  4  0  0  0  0
  4  5  4  0  0  0  0
  5  6  4  0  0  0  0
  6  7  4  0  0  0  0
  1  7  4  0  0  0  0
  7  8  2  0  0  0  0
  6  9  4  0  0  0  0
  9 10  4  0  0  0  0
  5 11  4  0  0  0  0
 10 11  4  0  0  0  0
M  END
$$$$
