ligand
 OpenBabel11021811503D
libRbt.so/2013.1/901 2013/11/27
 11 12  0  0  0  0  0  0  0  0999 V2000
    3.4577  -19.7334   25.2038 N   0  0  0  0  0  0  0  0  0  0  0  0
    3.2685  -20.4521   24.0832 C   0  0  0  0  0  0  0  0  0  0  0  0
    4.3265  -20.6044   23.1371 N   0  0  0  0  0  0  0  0  0  0  0  0
    2.1056  -21.0522   23.8125 N   0  0  0  0  0  0  0  0  0  0  0  0
    1.0356  -20.9430   24.6679 C   0  0  0  0  0  0  0  0  0  0  0  0
    1.1904  -20.2155   25.8279 C   0  0  0  0  0  0  0  0  0  0  0  0
    2.4477  -19.6021   26.0973 C   0  0  0  0  0  0  0  0  0  0  0  0
    2.6142  -18.8687   27.2508 O   0  0  0  0  0  0  0  0  0  0  0  0
   -0.0620  -20.2844   26.5172 C   0  0  0  0  0  0  0  0  0  0  0  0
   -0.9147  -21.0569   25.7165 C   0  0  0  0  0  0  0  0  0  0  0  0
   -0.2477  -21.4398   24.6204 N   0  0  0  0  0  0  0  0  0  0  0  0
  1  2  1  0  0  0  0
  1  7  1  0  0  0  0
  2  3  1  0  0  0  0
  2  4  2  0  0  0  0
  4  5  1  0  0  0  0
  5  6  2  0  0  0  0
  5 11  1  0  0  0  0
  6  7  1  0  0  0  0
  6  9  1  0  0  0  0
  7  8  2  0  0  0  0
  9 10  2  0  0  0  0
 10 11  1  0  0  0  0
M  END
>  <CHROM.1>
1.80816495,-20.36234654,25.17888342,-0.25654141,0.31008811,1.04768735

>  <Name>
ligand

>  <RI>
0

>  <Rbt.Current_Directory>
/home/itssahil/PROJECTS/Mol_Feturizer/New_Systems/rnas/4LVW

>  <Rbt.Executable>
rbdock ($Id: //depot/dev/client3/rdock/2013.1/src/exe/rbdock.cxx#4 $)

>  <Rbt.Library>
libRbt.so (2013.1, Build901 2013/11/27)

>  <Rbt.Parameter_File>
/export/apps/rDock/src/rDock_2013.1_src/data/scripts/dock_solv.prm

>  <Rbt.Receptor>
prm/pocket_docking_6.prm

>  <SCORE>
-13.9398

>  <SCORE.INTER>
-13.9398

>  <SCORE.INTER.CONST>
1

>  <SCORE.INTER.POLAR>
0

>  <SCORE.INTER.ROT>
0

>  <SCORE.INTER.SOLV>
5.46458

>  <SCORE.INTER.VDW>
-14.7147

>  <SCORE.INTER.norm>
-1.26725

>  <SCORE.INTRA>
0

>  <SCORE.INTRA.DIHEDRAL>
0

>  <SCORE.INTRA.DIHEDRAL.0>
0

>  <SCORE.INTRA.POLAR>
0

>  <SCORE.INTRA.POLAR.0>
0

>  <SCORE.INTRA.REPUL>
0

>  <SCORE.INTRA.REPUL.0>
0

>  <SCORE.INTRA.SOLV>
0

>  <SCORE.INTRA.SOLV.lig_0>
-29.307

>  <SCORE.INTRA.VDW>
0

>  <SCORE.INTRA.VDW.0>
0

>  <SCORE.INTRA.norm>
0

>  <SCORE.RESTR>
0

>  <SCORE.RESTR.CAVITY>
0

>  <SCORE.RESTR.norm>
0

>  <SCORE.SYSTEM>
0

>  <SCORE.SYSTEM.CONST>
0

>  <SCORE.SYSTEM.DIHEDRAL>
0

>  <SCORE.SYSTEM.SOLV>
0

>  <SCORE.SYSTEM.norm>
0

>  <SCORE.heavy>
11

>  <SCORE.norm>
-1.26725

>  <RMSD>
3.442

$$$$
ligand
 OpenBabel11021811503D
libRbt.so/2013.1/901 2013/11/27
 11 12  0  0  0  0  0  0  0  0999 V2000
    3.4558  -19.7338   25.2072 N   0  0  0  0  0  0  0  0  0  0  0  0
    3.2675  -20.4513   24.0856 C   0  0  0  0  0  0  0  0  0  0  0  0
    4.3257  -20.6016   23.1395 N   0  0  0  0  0  0  0  0  0  0  0  0
    2.1051  -21.0520   23.8140 N   0  0  0  0  0  0  0  0  0  0  0  0
    1.0349  -20.9448   24.6693 C   0  0  0  0  0  0  0  0  0  0  0  0
    1.1888  -20.2186   25.8302 C   0  0  0  0  0  0  0  0  0  0  0  0
    2.4456  -19.6044   26.1006 C   0  0  0  0  0  0  0  0  0  0  0  0
    2.6113  -18.8723   27.2551 O   0  0  0  0  0  0  0  0  0  0  0  0
   -0.0636  -20.2893   26.5192 C   0  0  0  0  0  0  0  0  0  0  0  0
   -0.9156  -21.0616   25.7174 C   0  0  0  0  0  0  0  0  0  0  0  0
   -0.2480  -21.4425   24.6210 N   0  0  0  0  0  0  0  0  0  0  0  0
  1  2  1  0  0  0  0
  1  7  1  0  0  0  0
  2  3  1  0  0  0  0
  2  4  2  0  0  0  0
  4  5  1  0  0  0  0
  5  6  2  0  0  0  0
  5 11  1  0  0  0  0
  6  7  1  0  0  0  0
  6  9  1  0  0  0  0
  7  8  2  0  0  0  0
  9 10  2  0  0  0  0
 10 11  1  0  0  0  0
M  END
>  <CHROM.1>
1.80684505,-20.36410931,25.18115432,-0.25593632,0.31070655,1.04872755

>  <Name>
ligand

>  <RI>
0

>  <Rbt.Current_Directory>
/home/itssahil/PROJECTS/Mol_Feturizer/New_Systems/rnas/4LVW

>  <Rbt.Executable>
rbdock ($Id: //depot/dev/client3/rdock/2013.1/src/exe/rbdock.cxx#4 $)

>  <Rbt.Library>
libRbt.so (2013.1, Build901 2013/11/27)

>  <Rbt.Parameter_File>
/export/apps/rDock/src/rDock_2013.1_src/data/scripts/dock_solv.prm

>  <Rbt.Receptor>
prm/pocket_docking_8.prm

>  <SCORE>
-13.9392

>  <SCORE.INTER>
-13.9392

>  <SCORE.INTER.CONST>
1

>  <SCORE.INTER.POLAR>
0

>  <SCORE.INTER.ROT>
0

>  <SCORE.INTER.SOLV>
5.45512

>  <SCORE.INTER.VDW>
-14.7111

>  <SCORE.INTER.norm>
-1.2672

>  <SCORE.INTRA>
0

>  <SCORE.INTRA.DIHEDRAL>
0

>  <SCORE.INTRA.DIHEDRAL.0>
0

>  <SCORE.INTRA.POLAR>
0

>  <SCORE.INTRA.POLAR.0>
0

>  <SCORE.INTRA.REPUL>
0

>  <SCORE.INTRA.REPUL.0>
0

>  <SCORE.INTRA.SOLV>
0

>  <SCORE.INTRA.SOLV.lig_0>
-29.307

>  <SCORE.INTRA.VDW>
0

>  <SCORE.INTRA.VDW.0>
0

>  <SCORE.INTRA.norm>
0

>  <SCORE.RESTR>
0

>  <SCORE.RESTR.CAVITY>
0

>  <SCORE.RESTR.norm>
0

>  <SCORE.SYSTEM>
0

>  <SCORE.SYSTEM.CONST>
0

>  <SCORE.SYSTEM.DIHEDRAL>
0

>  <SCORE.SYSTEM.SOLV>
0

>  <SCORE.SYSTEM.norm>
0

>  <SCORE.heavy>
11

>  <SCORE.norm>
-1.2672

>  <RMSD>
3.442

$$$$
ligand
 OpenBabel11021811503D
libRbt.so/2013.1/901 2013/11/27
 11 12  0  0  0  0  0  0  0  0999 V2000
    3.4594  -19.7239   25.2056 N   0  0  0  0  0  0  0  0  0  0  0  0
    3.2712  -20.4461   24.0869 C   0  0  0  0  0  0  0  0  0  0  0  0
    4.3299  -20.6010   23.1421 N   0  0  0  0  0  0  0  0  0  0  0  0
    2.1086  -21.0473   23.8173 N   0  0  0  0  0  0  0  0  0  0  0  0
    1.0380  -20.9357   24.6716 C   0  0  0  0  0  0  0  0  0  0  0  0
    1.1918  -20.2047   25.8295 C   0  0  0  0  0  0  0  0  0  0  0  0
    2.4488  -19.5901   26.0979 C   0  0  0  0  0  0  0  0  0  0  0  0
    2.6144  -18.8531   27.2493 O   0  0  0  0  0  0  0  0  0  0  0  0
   -0.0610  -20.2718   26.5182 C   0  0  0  0  0  0  0  0  0  0  0  0
   -0.9130  -21.0469   25.7193 C   0  0  0  0  0  0  0  0  0  0  0  0
   -0.2451  -21.4330   24.6248 N   0  0  0  0  0  0  0  0  0  0  0  0
  1  2  1  0  0  0  0
  1  7  1  0  0  0  0
  2  3  1  0  0  0  0
  2  4  2  0  0  0  0
  4  5  1  0  0  0  0
  5  6  2  0  0  0  0
  5 11  1  0  0  0  0
  6  7  1  0  0  0  0
  6  9  1  0  0  0  0
  7  8  2  0  0  0  0
  9 10  2  0  0  0  0
 10 11  1  0  0  0  0
M  END
>  <CHROM.1>
1.81009915,-20.35332585,25.18138461,-0.25578673,0.30996057,1.04440622

>  <Name>
ligand

>  <RI>
0

>  <Rbt.Current_Directory>
/home/itssahil/PROJECTS/Mol_Feturizer/New_Systems/rnas/4LVW

>  <Rbt.Executable>
rbdock ($Id: //depot/dev/client3/rdock/2013.1/src/exe/rbdock.cxx#4 $)

>  <Rbt.Library>
libRbt.so (2013.1, Build901 2013/11/27)

>  <Rbt.Parameter_File>
/export/apps/rDock/src/rDock_2013.1_src/data/scripts/dock_solv.prm

>  <Rbt.Receptor>
prm/pocket_docking_3.prm

>  <SCORE>
-13.9429

>  <SCORE.INTER>
-13.9429

>  <SCORE.INTER.CONST>
1

>  <SCORE.INTER.POLAR>
0

>  <SCORE.INTER.ROT>
0

>  <SCORE.INTER.SOLV>
5.44948

>  <SCORE.INTER.VDW>
-14.7118

>  <SCORE.INTER.norm>
-1.26754

>  <SCORE.INTRA>
0

>  <SCORE.INTRA.DIHEDRAL>
0

>  <SCORE.INTRA.DIHEDRAL.0>
0

>  <SCORE.INTRA.POLAR>
0

>  <SCORE.INTRA.POLAR.0>
0

>  <SCORE.INTRA.REPUL>
0

>  <SCORE.INTRA.REPUL.0>
0

>  <SCORE.INTRA.SOLV>
0

>  <SCORE.INTRA.SOLV.lig_0>
-29.307

>  <SCORE.INTRA.VDW>
0

>  <SCORE.INTRA.VDW.0>
0

>  <SCORE.INTRA.norm>
0

>  <SCORE.RESTR>
0

>  <SCORE.RESTR.CAVITY>
0

>  <SCORE.RESTR.norm>
0

>  <SCORE.SYSTEM>
0

>  <SCORE.SYSTEM.CONST>
0

>  <SCORE.SYSTEM.DIHEDRAL>
0

>  <SCORE.SYSTEM.SOLV>
0

>  <SCORE.SYSTEM.norm>
0

>  <SCORE.heavy>
11

>  <SCORE.norm>
-1.26754

>  <RMSD>
3.443

$$$$
ligand
 OpenBabel11021811503D
libRbt.so/2013.1/901 2013/11/27
 11 12  0  0  0  0  0  0  0  0999 V2000
    3.4540  -19.7198   25.2217 N   0  0  0  0  0  0  0  0  0  0  0  0
    3.2688  -20.4328   24.0967 C   0  0  0  0  0  0  0  0  0  0  0  0
    4.3288  -20.5768   23.1516 N   0  0  0  0  0  0  0  0  0  0  0  0
    2.1081  -21.0347   23.8208 N   0  0  0  0  0  0  0  0  0  0  0  0
    1.0364  -20.9333   24.6750 C   0  0  0  0  0  0  0  0  0  0  0  0
    1.1871  -20.2119   25.8393 C   0  0  0  0  0  0  0  0  0  0  0  0
    2.4422  -19.5963   26.1142 C   0  0  0  0  0  0  0  0  0  0  0  0
    2.6047  -18.8689   27.2720 O   0  0  0  0  0  0  0  0  0  0  0  0
   -0.0662  -20.2882   26.5261 C   0  0  0  0  0  0  0  0  0  0  0  0
   -0.9154  -21.0587   25.7197 C   0  0  0  0  0  0  0  0  0  0  0  0
   -0.2454  -21.4336   24.6226 N   0  0  0  0  0  0  0  0  0  0  0  0
  1  2  1  0  0  0  0
  1  7  1  0  0  0  0
  2  3  1  0  0  0  0
  2  4  2  0  0  0  0
  4  5  1  0  0  0  0
  5  6  2  0  0  0  0
  5 11  1  0  0  0  0
  6  7  1  0  0  0  0
  6  9  1  0  0  0  0
  7  8  2  0  0  0  0
  9 10  2  0  0  0  0
 10 11  1  0  0  0  0
M  END
>  <CHROM.1>
1.80638167,-20.35331141,25.19049909,-0.25350694,0.31176841,1.05231156

>  <Name>
ligand

>  <RI>
0

>  <Rbt.Current_Directory>
/home/itssahil/PROJECTS/Mol_Feturizer/New_Systems/rnas/4LVW

>  <Rbt.Executable>
rbdock ($Id: //depot/dev/client3/rdock/2013.1/src/exe/rbdock.cxx#4 $)

>  <Rbt.Library>
libRbt.so (2013.1, Build901 2013/11/27)

>  <Rbt.Parameter_File>
/export/apps/rDock/src/rDock_2013.1_src/data/scripts/dock_solv.prm

>  <Rbt.Receptor>
prm/pocket_docking_3.prm

>  <SCORE>
-13.9378

>  <SCORE.INTER>
-13.9378

>  <SCORE.INTER.CONST>
1

>  <SCORE.INTER.POLAR>
0

>  <SCORE.INTER.ROT>
0

>  <SCORE.INTER.SOLV>
5.40687

>  <SCORE.INTER.VDW>
-14.6942

>  <SCORE.INTER.norm>
-1.26708

>  <SCORE.INTRA>
0

>  <SCORE.INTRA.DIHEDRAL>
0

>  <SCORE.INTRA.DIHEDRAL.0>
0

>  <SCORE.INTRA.POLAR>
0

>  <SCORE.INTRA.POLAR.0>
0

>  <SCORE.INTRA.REPUL>
0

>  <SCORE.INTRA.REPUL.0>
0

>  <SCORE.INTRA.SOLV>
0

>  <SCORE.INTRA.SOLV.lig_0>
-29.307

>  <SCORE.INTRA.VDW>
0

>  <SCORE.INTRA.VDW.0>
0

>  <SCORE.INTRA.norm>
0

>  <SCORE.RESTR>
0

>  <SCORE.RESTR.CAVITY>
0

>  <SCORE.RESTR.norm>
0

>  <SCORE.SYSTEM>
0

>  <SCORE.SYSTEM.CONST>
0

>  <SCORE.SYSTEM.DIHEDRAL>
0

>  <SCORE.SYSTEM.SOLV>
0

>  <SCORE.SYSTEM.norm>
0

>  <SCORE.heavy>
11

>  <SCORE.norm>
-1.26708

>  <RMSD>
3.443

$$$$
ligand
 OpenBabel11021811503D
libRbt.so/2013.1/901 2013/11/27
 11 12  0  0  0  0  0  0  0  0999 V2000
    3.4555  -19.7326   25.2119 N   0  0  0  0  0  0  0  0  0  0  0  0
    3.2669  -20.4503   24.0904 C   0  0  0  0  0  0  0  0  0  0  0  0
    4.3253  -20.6015   23.1447 N   0  0  0  0  0  0  0  0  0  0  0  0
    2.1042  -21.0504   23.8188 N   0  0  0  0  0  0  0  0  0  0  0  0
    1.0339  -20.9422   24.6738 C   0  0  0  0  0  0  0  0  0  0  0  0
    1.1880  -20.2158   25.8346 C   0  0  0  0  0  0  0  0  0  0  0  0
    2.4451  -19.6023   26.1050 C   0  0  0  0  0  0  0  0  0  0  0  0
    2.6110  -18.8699   27.2593 O   0  0  0  0  0  0  0  0  0  0  0  0
   -0.0646  -20.2856   26.5233 C   0  0  0  0  0  0  0  0  0  0  0  0
   -0.9169  -21.0576   25.7215 C   0  0  0  0  0  0  0  0  0  0  0  0
   -0.2493  -21.4393   24.6254 N   0  0  0  0  0  0  0  0  0  0  0  0
  1  2  1  0  0  0  0
  1  7  1  0  0  0  0
  2  3  1  0  0  0  0
  2  4  2  0  0  0  0
  4  5  1  0  0  0  0
  5  6  2  0  0  0  0
  5 11  1  0  0  0  0
  6  7  1  0  0  0  0
  6  9  1  0  0  0  0
  7  8  2  0  0  0  0
  9 10  2  0  0  0  0
 10 11  1  0  0  0  0
M  END
>  <CHROM.1>
1.80610576,-20.36190364,25.18566332,-0.25605468,0.31008277,1.04844818

>  <Name>
ligand

>  <RI>
0

>  <Rbt.Current_Directory>
/home/itssahil/PROJECTS/Mol_Feturizer/New_Systems/rnas/4LVW

>  <Rbt.Executable>
rbdock ($Id: //depot/dev/client3/rdock/2013.1/src/exe/rbdock.cxx#4 $)

>  <Rbt.Library>
libRbt.so (2013.1, Build901 2013/11/27)

>  <Rbt.Parameter_File>
/export/apps/rDock/src/rDock_2013.1_src/data/scripts/dock_solv.prm

>  <Rbt.Receptor>
prm/pocket_docking_3.prm

>  <SCORE>
-13.9408

>  <SCORE.INTER>
-13.9408

>  <SCORE.INTER.CONST>
1

>  <SCORE.INTER.POLAR>
0

>  <SCORE.INTER.ROT>
0

>  <SCORE.INTER.SOLV>
5.44885

>  <SCORE.INTER.VDW>
-14.7102

>  <SCORE.INTER.norm>
-1.26735

>  <SCORE.INTRA>
0

>  <SCORE.INTRA.DIHEDRAL>
0

>  <SCORE.INTRA.DIHEDRAL.0>
0

>  <SCORE.INTRA.POLAR>
0

>  <SCORE.INTRA.POLAR.0>
0

>  <SCORE.INTRA.REPUL>
0

>  <SCORE.INTRA.REPUL.0>
0

>  <SCORE.INTRA.SOLV>
0

>  <SCORE.INTRA.SOLV.lig_0>
-29.307

>  <SCORE.INTRA.VDW>
0

>  <SCORE.INTRA.VDW.0>
0

>  <SCORE.INTRA.norm>
0

>  <SCORE.RESTR>
0

>  <SCORE.RESTR.CAVITY>
0

>  <SCORE.RESTR.norm>
0

>  <SCORE.SYSTEM>
0

>  <SCORE.SYSTEM.CONST>
0

>  <SCORE.SYSTEM.DIHEDRAL>
0

>  <SCORE.SYSTEM.SOLV>
0

>  <SCORE.SYSTEM.norm>
0

>  <SCORE.heavy>
11

>  <SCORE.norm>
-1.26735

>  <RMSD>
3.443

$$$$
ligand
 OpenBabel11021811503D
libRbt.so/2013.1/901 2013/11/27
 11 12  0  0  0  0  0  0  0  0999 V2000
    3.4555  -19.7268   25.2160 N   0  0  0  0  0  0  0  0  0  0  0  0
    3.2686  -20.4440   24.0939 C   0  0  0  0  0  0  0  0  0  0  0  0
    4.3279  -20.5937   23.1490 N   0  0  0  0  0  0  0  0  0  0  0  0
    2.1066  -21.0449   23.8208 N   0  0  0  0  0  0  0  0  0  0  0  0
    1.0354  -20.9381   24.6749 C   0  0  0  0  0  0  0  0  0  0  0  0
    1.1878  -20.2123   25.8362 C   0  0  0  0  0  0  0  0  0  0  0  0
    2.4441  -19.5980   26.1082 C   0  0  0  0  0  0  0  0  0  0  0  0
    2.6084  -18.8662   27.2631 O   0  0  0  0  0  0  0  0  0  0  0  0
   -0.0653  -20.2836   26.5238 C   0  0  0  0  0  0  0  0  0  0  0  0
   -0.9162  -21.0557   25.7207 C   0  0  0  0  0  0  0  0  0  0  0  0
   -0.2473  -21.4362   24.6250 N   0  0  0  0  0  0  0  0  0  0  0  0
  1  2  1  0  0  0  0
  1  7  1  0  0  0  0
  2  3  1  0  0  0  0
  2  4  2  0  0  0  0
  4  5  1  0  0  0  0
  5  6  2  0  0  0  0
  5 11  1  0  0  0  0
  6  7  1  0  0  0  0
  6  9  1  0  0  0  0
  7  8  2  0  0  0  0
  9 10  2  0  0  0  0
 10 11  1  0  0  0  0
M  END
>  <CHROM.1>
1.80665323,-20.35747230,25.18782254,-0.25477542,0.31033228,1.04869665

>  <Name>
ligand

>  <RI>
0

>  <Rbt.Current_Directory>
/home/itssahil/PROJECTS/Mol_Feturizer/New_Systems/rnas/4LVW

>  <Rbt.Executable>
rbdock ($Id: //depot/dev/client3/rdock/2013.1/src/exe/rbdock.cxx#4 $)

>  <Rbt.Library>
libRbt.so (2013.1, Build901 2013/11/27)

>  <Rbt.Parameter_File>
/export/apps/rDock/src/rDock_2013.1_src/data/scripts/dock_solv.prm

>  <Rbt.Receptor>
prm/pocket_docking_3.prm

>  <SCORE>
-13.9411

>  <SCORE.INTER>
-13.9411

>  <SCORE.INTER.CONST>
1

>  <SCORE.INTER.POLAR>
0

>  <SCORE.INTER.ROT>
0

>  <SCORE.INTER.SOLV>
5.42921

>  <SCORE.INTER.VDW>
-14.7038

>  <SCORE.INTER.norm>
-1.26738

>  <SCORE.INTRA>
0

>  <SCORE.INTRA.DIHEDRAL>
0

>  <SCORE.INTRA.DIHEDRAL.0>
0

>  <SCORE.INTRA.POLAR>
0

>  <SCORE.INTRA.POLAR.0>
0

>  <SCORE.INTRA.REPUL>
0

>  <SCORE.INTRA.REPUL.0>
0

>  <SCORE.INTRA.SOLV>
0

>  <SCORE.INTRA.SOLV.lig_0>
-29.307

>  <SCORE.INTRA.VDW>
0

>  <SCORE.INTRA.VDW.0>
0

>  <SCORE.INTRA.norm>
0

>  <SCORE.RESTR>
0

>  <SCORE.RESTR.CAVITY>
0

>  <SCORE.RESTR.norm>
0

>  <SCORE.SYSTEM>
0

>  <SCORE.SYSTEM.CONST>
0

>  <SCORE.SYSTEM.DIHEDRAL>
0

>  <SCORE.SYSTEM.SOLV>
0

>  <SCORE.SYSTEM.norm>
0

>  <SCORE.heavy>
11

>  <SCORE.norm>
-1.26738

>  <RMSD>
3.443

$$$$
ligand
 OpenBabel11021811503D
libRbt.so/2013.1/901 2013/11/27
 11 12  0  0  0  0  0  0  0  0999 V2000
    3.4515  -19.7191   25.2253 N   0  0  0  0  0  0  0  0  0  0  0  0
    3.2685  -20.4307   24.0990 C   0  0  0  0  0  0  0  0  0  0  0  0
    4.3291  -20.5706   23.1541 N   0  0  0  0  0  0  0  0  0  0  0  0
    2.1092  -21.0348   23.8217 N   0  0  0  0  0  0  0  0  0  0  0  0
    1.0369  -20.9374   24.6756 C   0  0  0  0  0  0  0  0  0  0  0  0
    1.1855  -20.2175   25.8411 C   0  0  0  0  0  0  0  0  0  0  0  0
    2.4391  -19.5995   26.1175 C   0  0  0  0  0  0  0  0  0  0  0  0
    2.5994  -18.8736   27.2767 O   0  0  0  0  0  0  0  0  0  0  0  0
   -0.0678  -20.2979   26.5273 C   0  0  0  0  0  0  0  0  0  0  0  0
   -0.9149  -21.0691   25.7193 C   0  0  0  0  0  0  0  0  0  0  0  0
   -0.2437  -21.4405   24.6219 N   0  0  0  0  0  0  0  0  0  0  0  0
  1  2  1  0  0  0  0
  1  7  1  0  0  0  0
  2  3  1  0  0  0  0
  2  4  2  0  0  0  0
  4  5  1  0  0  0  0
  5  6  2  0  0  0  0
  5 11  1  0  0  0  0
  6  7  1  0  0  0  0
  6  9  1  0  0  0  0
  7  8  2  0  0  0  0
  9 10  2  0  0  0  0
 10 11  1  0  0  0  0
M  END
>  <CHROM.1>
1.80539859,-20.35643548,25.19233774,-0.25193334,0.31359704,1.05348889

>  <Name>
ligand

>  <RI>
0

>  <Rbt.Current_Directory>
/home/itssahil/PROJECTS/Mol_Feturizer/New_Systems/rnas/4LVW

>  <Rbt.Executable>
rbdock ($Id: //depot/dev/client3/rdock/2013.1/src/exe/rbdock.cxx#4 $)

>  <Rbt.Library>
libRbt.so (2013.1, Build901 2013/11/27)

>  <Rbt.Parameter_File>
/export/apps/rDock/src/rDock_2013.1_src/data/scripts/dock_solv.prm

>  <Rbt.Receptor>
prm/pocket_docking_3.prm

>  <SCORE>
-13.9337

>  <SCORE.INTER>
-13.9337

>  <SCORE.INTER.CONST>
1

>  <SCORE.INTER.POLAR>
0

>  <SCORE.INTER.ROT>
0

>  <SCORE.INTER.SOLV>
5.3927

>  <SCORE.INTER.VDW>
-14.6867

>  <SCORE.INTER.norm>
-1.2667

>  <SCORE.INTRA>
0

>  <SCORE.INTRA.DIHEDRAL>
0

>  <SCORE.INTRA.DIHEDRAL.0>
0

>  <SCORE.INTRA.POLAR>
0

>  <SCORE.INTRA.POLAR.0>
0

>  <SCORE.INTRA.REPUL>
0

>  <SCORE.INTRA.REPUL.0>
0

>  <SCORE.INTRA.SOLV>
0

>  <SCORE.INTRA.SOLV.lig_0>
-29.307

>  <SCORE.INTRA.VDW>
0

>  <SCORE.INTRA.VDW.0>
0

>  <SCORE.INTRA.norm>
0

>  <SCORE.RESTR>
0

>  <SCORE.RESTR.CAVITY>
0

>  <SCORE.RESTR.norm>
0

>  <SCORE.SYSTEM>
0

>  <SCORE.SYSTEM.CONST>
0

>  <SCORE.SYSTEM.DIHEDRAL>
0

>  <SCORE.SYSTEM.SOLV>
0

>  <SCORE.SYSTEM.norm>
0

>  <SCORE.heavy>
11

>  <SCORE.norm>
-1.2667

>  <RMSD>
3.443

$$$$
ligand
 OpenBabel11021811503D
libRbt.so/2013.1/901 2013/11/27
 11 12  0  0  0  0  0  0  0  0999 V2000
    3.4579  -19.7176   25.2015 N   0  0  0  0  0  0  0  0  0  0  0  0
    3.2721  -20.4454   24.0862 C   0  0  0  0  0  0  0  0  0  0  0  0
    4.3311  -20.6006   23.1417 N   0  0  0  0  0  0  0  0  0  0  0  0
    2.1116  -21.0520   23.8195 N   0  0  0  0  0  0  0  0  0  0  0  0
    1.0408  -20.9406   24.6736 C   0  0  0  0  0  0  0  0  0  0  0  0
    1.1922  -20.2038   25.8281 C   0  0  0  0  0  0  0  0  0  0  0  0
    2.4470  -19.5835   26.0935 C   0  0  0  0  0  0  0  0  0  0  0  0
    2.6101  -18.8408   27.2416 O   0  0  0  0  0  0  0  0  0  0  0  0
   -0.0602  -20.2724   26.5174 C   0  0  0  0  0  0  0  0  0  0  0  0
   -0.9096  -21.0542   25.7221 C   0  0  0  0  0  0  0  0  0  0  0  0
   -0.2405  -21.4427   24.6292 N   0  0  0  0  0  0  0  0  0  0  0  0
  1  2  1  0  0  0  0
  1  7  1  0  0  0  0
  2  3  1  0  0  0  0
  2  4  2  0  0  0  0
  4  5  1  0  0  0  0
  5  6  2  0  0  0  0
  5 11  1  0  0  0  0
  6  7  1  0  0  0  0
  6  9  1  0  0  0  0
  7  8  2  0  0  0  0
  9 10  2  0  0  0  0
 10 11  1  0  0  0  0
M  END
>  <CHROM.1>
1.81086774,-20.35308829,25.18051949,-0.25405217,0.31322281,1.03942367

>  <Name>
ligand

>  <RI>
0

>  <Rbt.Current_Directory>
/home/itssahil/PROJECTS/Mol_Feturizer/New_Systems/rnas/4LVW

>  <Rbt.Executable>
rbdock ($Id: //depot/dev/client3/rdock/2013.1/src/exe/rbdock.cxx#4 $)

>  <Rbt.Library>
libRbt.so (2013.1, Build901 2013/11/27)

>  <Rbt.Parameter_File>
/export/apps/rDock/src/rDock_2013.1_src/data/scripts/dock_solv.prm

>  <Rbt.Receptor>
prm/pocket_docking_3.prm

>  <SCORE>
-13.9601

>  <SCORE.INTER>
-13.9601

>  <SCORE.INTER.CONST>
1

>  <SCORE.INTER.POLAR>
0

>  <SCORE.INTER.ROT>
0

>  <SCORE.INTER.SOLV>
5.45073

>  <SCORE.INTER.VDW>
-14.7237

>  <SCORE.INTER.norm>
-1.2691

>  <SCORE.INTRA>
0

>  <SCORE.INTRA.DIHEDRAL>
0

>  <SCORE.INTRA.DIHEDRAL.0>
0

>  <SCORE.INTRA.POLAR>
0

>  <SCORE.INTRA.POLAR.0>
0

>  <SCORE.INTRA.REPUL>
0

>  <SCORE.INTRA.REPUL.0>
0

>  <SCORE.INTRA.SOLV>
0

>  <SCORE.INTRA.SOLV.lig_0>
-29.307

>  <SCORE.INTRA.VDW>
0

>  <SCORE.INTRA.VDW.0>
0

>  <SCORE.INTRA.norm>
0

>  <SCORE.RESTR>
0

>  <SCORE.RESTR.CAVITY>
0

>  <SCORE.RESTR.norm>
0

>  <SCORE.SYSTEM>
0

>  <SCORE.SYSTEM.CONST>
0

>  <SCORE.SYSTEM.DIHEDRAL>
0

>  <SCORE.SYSTEM.SOLV>
0

>  <SCORE.SYSTEM.norm>
0

>  <SCORE.heavy>
11

>  <SCORE.norm>
-1.2691

>  <RMSD>
3.443

$$$$
ligand
 OpenBabel11021811503D
libRbt.so/2013.1/901 2013/11/27
 11 12  0  0  0  0  0  0  0  0999 V2000
    3.4545  -19.7316   25.2128 N   0  0  0  0  0  0  0  0  0  0  0  0
    3.2671  -20.4492   24.0911 C   0  0  0  0  0  0  0  0  0  0  0  0
    4.3259  -20.5992   23.1456 N   0  0  0  0  0  0  0  0  0  0  0  0
    2.1050  -21.0503   23.8189 N   0  0  0  0  0  0  0  0  0  0  0  0
    1.0343  -20.9434   24.6735 C   0  0  0  0  0  0  0  0  0  0  0  0
    1.1873  -20.2171   25.8345 C   0  0  0  0  0  0  0  0  0  0  0  0
    2.4437  -19.6025   26.1056 C   0  0  0  0  0  0  0  0  0  0  0  0
    2.6085  -18.8703   27.2601 O   0  0  0  0  0  0  0  0  0  0  0  0
   -0.0655  -20.2882   26.5228 C   0  0  0  0  0  0  0  0  0  0  0  0
   -0.9167  -21.0608   25.7205 C   0  0  0  0  0  0  0  0  0  0  0  0
   -0.2484  -21.4416   24.6245 N   0  0  0  0  0  0  0  0  0  0  0  0
  1  2  1  0  0  0  0
  1  7  1  0  0  0  0
  2  3  1  0  0  0  0
  2  4  2  0  0  0  0
  4  5  1  0  0  0  0
  5  6  2  0  0  0  0
  5 11  1  0  0  0  0
  6  7  1  0  0  0  0
  6  9  1  0  0  0  0
  7  8  2  0  0  0  0
  9 10  2  0  0  0  0
 10 11  1  0  0  0  0
M  END
>  <CHROM.1>
1.80578296,-20.36242851,25.18580104,-0.25523973,0.31070972,1.04846456

>  <Name>
ligand

>  <RI>
0

>  <Rbt.Current_Directory>
/home/itssahil/PROJECTS/Mol_Feturizer/New_Systems/rnas/4LVW

>  <Rbt.Executable>
rbdock ($Id: //depot/dev/client3/rdock/2013.1/src/exe/rbdock.cxx#4 $)

>  <Rbt.Library>
libRbt.so (2013.1, Build901 2013/11/27)

>  <Rbt.Parameter_File>
/export/apps/rDock/src/rDock_2013.1_src/data/scripts/dock_solv.prm

>  <Rbt.Receptor>
prm/pocket_docking_3.prm

>  <SCORE>
-13.9408

>  <SCORE.INTER>
-13.9408

>  <SCORE.INTER.CONST>
1

>  <SCORE.INTER.POLAR>
0

>  <SCORE.INTER.ROT>
0

>  <SCORE.INTER.SOLV>
5.44044

>  <SCORE.INTER.VDW>
-14.7073

>  <SCORE.INTER.norm>
-1.26734

>  <SCORE.INTRA>
0

>  <SCORE.INTRA.DIHEDRAL>
0

>  <SCORE.INTRA.DIHEDRAL.0>
0

>  <SCORE.INTRA.POLAR>
0

>  <SCORE.INTRA.POLAR.0>
0

>  <SCORE.INTRA.REPUL>
0

>  <SCORE.INTRA.REPUL.0>
0

>  <SCORE.INTRA.SOLV>
0

>  <SCORE.INTRA.SOLV.lig_0>
-29.307

>  <SCORE.INTRA.VDW>
0

>  <SCORE.INTRA.VDW.0>
0

>  <SCORE.INTRA.norm>
0

>  <SCORE.RESTR>
0

>  <SCORE.RESTR.CAVITY>
0

>  <SCORE.RESTR.norm>
0

>  <SCORE.SYSTEM>
0

>  <SCORE.SYSTEM.CONST>
0

>  <SCORE.SYSTEM.DIHEDRAL>
0

>  <SCORE.SYSTEM.SOLV>
0

>  <SCORE.SYSTEM.norm>
0

>  <SCORE.heavy>
11

>  <SCORE.norm>
-1.26734

>  <RMSD>
3.443

$$$$
ligand
 OpenBabel11021811503D
libRbt.so/2013.1/901 2013/11/27
 11 12  0  0  0  0  0  0  0  0999 V2000
    3.4579  -19.7233   25.2081 N   0  0  0  0  0  0  0  0  0  0  0  0
    3.2700  -20.4431   24.0879 C   0  0  0  0  0  0  0  0  0  0  0  0
    4.3285  -20.5952   23.1425 N   0  0  0  0  0  0  0  0  0  0  0  0
    2.1077  -21.0445   23.8172 N   0  0  0  0  0  0  0  0  0  0  0  0
    1.0372  -20.9355   24.6719 C   0  0  0  0  0  0  0  0  0  0  0  0
    1.1907  -20.2069   25.8314 C   0  0  0  0  0  0  0  0  0  0  0  0
    2.4473  -19.5922   26.1009 C   0  0  0  0  0  0  0  0  0  0  0  0
    2.6126  -18.8576   27.2539 O   0  0  0  0  0  0  0  0  0  0  0  0
   -0.0619  -20.2764   26.5201 C   0  0  0  0  0  0  0  0  0  0  0  0
   -0.9136  -21.0504   25.7196 C   0  0  0  0  0  0  0  0  0  0  0  0
   -0.2456  -21.4335   24.6242 N   0  0  0  0  0  0  0  0  0  0  0  0
  1  2  1  0  0  0  0
  1  7  1  0  0  0  0
  2  3  1  0  0  0  0
  2  4  2  0  0  0  0
  4  5  1  0  0  0  0
  5  6  2  0  0  0  0
  5 11  1  0  0  0  0
  6  7  1  0  0  0  0
  6  9  1  0  0  0  0
  7  8  2  0  0  0  0
  9 10  2  0  0  0  0
 10 11  1  0  0  0  0
M  END
>  <CHROM.1>
1.80897660,-20.35376518,25.18281669,-0.25559827,0.31062238,1.04656170

>  <Name>
ligand

>  <RI>
0

>  <Rbt.Current_Directory>
/home/itssahil/PROJECTS/Mol_Feturizer/New_Systems/rnas/4LVW

>  <Rbt.Executable>
rbdock ($Id: //depot/dev/client3/rdock/2013.1/src/exe/rbdock.cxx#4 $)

>  <Rbt.Library>
libRbt.so (2013.1, Build901 2013/11/27)

>  <Rbt.Parameter_File>
/export/apps/rDock/src/rDock_2013.1_src/data/scripts/dock_solv.prm

>  <Rbt.Receptor>
prm/pocket_docking_3.prm

>  <SCORE>
-13.9443

>  <SCORE.INTER>
-13.9443

>  <SCORE.INTER.CONST>
1

>  <SCORE.INTER.POLAR>
0

>  <SCORE.INTER.ROT>
0

>  <SCORE.INTER.SOLV>
5.44156

>  <SCORE.INTER.VDW>
-14.7101

>  <SCORE.INTER.norm>
-1.26767

>  <SCORE.INTRA>
0

>  <SCORE.INTRA.DIHEDRAL>
0

>  <SCORE.INTRA.DIHEDRAL.0>
0

>  <SCORE.INTRA.POLAR>
0

>  <SCORE.INTRA.POLAR.0>
0

>  <SCORE.INTRA.REPUL>
0

>  <SCORE.INTRA.REPUL.0>
0

>  <SCORE.INTRA.SOLV>
0

>  <SCORE.INTRA.SOLV.lig_0>
-29.307

>  <SCORE.INTRA.VDW>
0

>  <SCORE.INTRA.VDW.0>
0

>  <SCORE.INTRA.norm>
0

>  <SCORE.RESTR>
0

>  <SCORE.RESTR.CAVITY>
0

>  <SCORE.RESTR.norm>
0

>  <SCORE.SYSTEM>
0

>  <SCORE.SYSTEM.CONST>
0

>  <SCORE.SYSTEM.DIHEDRAL>
0

>  <SCORE.SYSTEM.SOLV>
0

>  <SCORE.SYSTEM.norm>
0

>  <SCORE.heavy>
11

>  <SCORE.norm>
-1.26767

>  <RMSD>
3.443

$$$$
ligand
 OpenBabel11021811503D
libRbt.so/2013.1/901 2013/11/27
 11 12  0  0  0  0  0  0  0  0999 V2000
    3.4546  -19.7287   25.2188 N   0  0  0  0  0  0  0  0  0  0  0  0
    3.2686  -20.4426   24.0944 C   0  0  0  0  0  0  0  0  0  0  0  0
    4.3287  -20.5893   23.1498 N   0  0  0  0  0  0  0  0  0  0  0  0
    2.1069  -21.0428   23.8187 N   0  0  0  0  0  0  0  0  0  0  0  0
    1.0351  -20.9387   24.6724 C   0  0  0  0  0  0  0  0  0  0  0  0
    1.1866  -20.2164   25.8360 C   0  0  0  0  0  0  0  0  0  0  0  0
    2.4427  -19.6027   26.1107 C   0  0  0  0  0  0  0  0  0  0  0  0
    2.6060  -18.8744   27.2679 O   0  0  0  0  0  0  0  0  0  0  0  0
   -0.0670  -20.2899   26.5224 C   0  0  0  0  0  0  0  0  0  0  0  0
   -0.9172  -21.0597   25.7164 C   0  0  0  0  0  0  0  0  0  0  0  0
   -0.2475  -21.4368   24.6200 N   0  0  0  0  0  0  0  0  0  0  0  0
  1  2  1  0  0  0  0
  1  7  1  0  0  0  0
  2  3  1  0  0  0  0
  2  4  2  0  0  0  0
  4  5  1  0  0  0  0
  5  6  2  0  0  0  0
  5 11  1  0  0  0  0
  6  7  1  0  0  0  0
  6  9  1  0  0  0  0
  7  8  2  0  0  0  0
  9 10  2  0  0  0  0
 10 11  1  0  0  0  0
M  END
>  <CHROM.1>
1.80593009,-20.35951074,25.18755659,-0.25405940,0.31010186,1.05148704

>  <Name>
ligand

>  <RI>
0

>  <Rbt.Current_Directory>
/home/itssahil/PROJECTS/Mol_Feturizer/New_Systems/rnas/4LVW

>  <Rbt.Executable>
rbdock ($Id: //depot/dev/client3/rdock/2013.1/src/exe/rbdock.cxx#4 $)

>  <Rbt.Library>
libRbt.so (2013.1, Build901 2013/11/27)

>  <Rbt.Parameter_File>
/export/apps/rDock/src/rDock_2013.1_src/data/scripts/dock_solv.prm

>  <Rbt.Receptor>
prm/pocket_docking_3.prm

>  <SCORE>
-13.9382

>  <SCORE.INTER>
-13.9382

>  <SCORE.INTER.CONST>
1

>  <SCORE.INTER.POLAR>
0

>  <SCORE.INTER.ROT>
0

>  <SCORE.INTER.SOLV>
5.41659

>  <SCORE.INTER.VDW>
-14.6977

>  <SCORE.INTER.norm>
-1.26711

>  <SCORE.INTRA>
0

>  <SCORE.INTRA.DIHEDRAL>
0

>  <SCORE.INTRA.DIHEDRAL.0>
0

>  <SCORE.INTRA.POLAR>
0

>  <SCORE.INTRA.POLAR.0>
0

>  <SCORE.INTRA.REPUL>
0

>  <SCORE.INTRA.REPUL.0>
0

>  <SCORE.INTRA.SOLV>
0

>  <SCORE.INTRA.SOLV.lig_0>
-29.307

>  <SCORE.INTRA.VDW>
0

>  <SCORE.INTRA.VDW.0>
0

>  <SCORE.INTRA.norm>
0

>  <SCORE.RESTR>
0

>  <SCORE.RESTR.CAVITY>
0

>  <SCORE.RESTR.norm>
0

>  <SCORE.SYSTEM>
0

>  <SCORE.SYSTEM.CONST>
0

>  <SCORE.SYSTEM.DIHEDRAL>
0

>  <SCORE.SYSTEM.SOLV>
0

>  <SCORE.SYSTEM.norm>
0

>  <SCORE.heavy>
11

>  <SCORE.norm>
-1.26711

>  <RMSD>
3.443

$$$$
ligand
 OpenBabel11021811503D
libRbt.so/2013.1/901 2013/11/27
 11 12  0  0  0  0  0  0  0  0999 V2000
    3.4567  -19.7311   25.2038 N   0  0  0  0  0  0  0  0  0  0  0  0
    3.2669  -20.4485   24.0824 C   0  0  0  0  0  0  0  0  0  0  0  0
    4.3242  -20.5996   23.1355 N   0  0  0  0  0  0  0  0  0  0  0  0
    2.1038  -21.0485   23.8119 N   0  0  0  0  0  0  0  0  0  0  0  0
    1.0344  -20.9403   24.6681 C   0  0  0  0  0  0  0  0  0  0  0  0
    1.1898  -20.2141   25.8288 C   0  0  0  0  0  0  0  0  0  0  0  0
    2.4472  -19.6009   26.0980 C   0  0  0  0  0  0  0  0  0  0  0  0
    2.6144  -18.8687   27.2523 O   0  0  0  0  0  0  0  0  0  0  0  0
   -0.0621  -20.2840   26.5188 C   0  0  0  0  0  0  0  0  0  0  0  0
   -0.9153  -21.0557   25.7178 C   0  0  0  0  0  0  0  0  0  0  0  0
   -0.2489  -21.4372   24.6209 N   0  0  0  0  0  0  0  0  0  0  0  0
  1  2  1  0  0  0  0
  1  7  1  0  0  0  0
  2  3  1  0  0  0  0
  2  4  2  0  0  0  0
  4  5  1  0  0  0  0
  5  6  2  0  0  0  0
  5 11  1  0  0  0  0
  6  7  1  0  0  0  0
  6  9  1  0  0  0  0
  7  8  2  0  0  0  0
  9 10  2  0  0  0  0
 10 11  1  0  0  0  0
M  END
>  <CHROM.1>
1.80720713,-20.36016885,25.17919033,-0.25706517,0.31052062,1.04896601

>  <Name>
ligand

>  <RI>
0

>  <Rbt.Current_Directory>
/home/itssahil/PROJECTS/Mol_Feturizer/New_Systems/rnas/4LVW

>  <Rbt.Executable>
rbdock ($Id: //depot/dev/client3/rdock/2013.1/src/exe/rbdock.cxx#4 $)

>  <Rbt.Library>
libRbt.so (2013.1, Build901 2013/11/27)

>  <Rbt.Parameter_File>
/export/apps/rDock/src/rDock_2013.1_src/data/scripts/dock_solv.prm

>  <Rbt.Receptor>
prm/pocket_docking_3.prm

>  <SCORE>
-13.9384

>  <SCORE.INTER>
-13.9384

>  <SCORE.INTER.CONST>
1

>  <SCORE.INTER.POLAR>
0

>  <SCORE.INTER.ROT>
0

>  <SCORE.INTER.SOLV>
5.47099

>  <SCORE.INTER.VDW>
-14.7159

>  <SCORE.INTER.norm>
-1.26713

>  <SCORE.INTRA>
0

>  <SCORE.INTRA.DIHEDRAL>
0

>  <SCORE.INTRA.DIHEDRAL.0>
0

>  <SCORE.INTRA.POLAR>
0

>  <SCORE.INTRA.POLAR.0>
0

>  <SCORE.INTRA.REPUL>
0

>  <SCORE.INTRA.REPUL.0>
0

>  <SCORE.INTRA.SOLV>
0

>  <SCORE.INTRA.SOLV.lig_0>
-29.307

>  <SCORE.INTRA.VDW>
0

>  <SCORE.INTRA.VDW.0>
0

>  <SCORE.INTRA.norm>
0

>  <SCORE.RESTR>
0

>  <SCORE.RESTR.CAVITY>
0

>  <SCORE.RESTR.norm>
0

>  <SCORE.SYSTEM>
0

>  <SCORE.SYSTEM.CONST>
0

>  <SCORE.SYSTEM.DIHEDRAL>
0

>  <SCORE.SYSTEM.SOLV>
0

>  <SCORE.SYSTEM.norm>
0

>  <SCORE.heavy>
11

>  <SCORE.norm>
-1.26713

>  <RMSD>
3.443

$$$$
ligand
 OpenBabel11021811503D
libRbt.so/2013.1/901 2013/11/27
 11 12  0  0  0  0  0  0  0  0999 V2000
    3.4572  -19.7160   25.2009 N   0  0  0  0  0  0  0  0  0  0  0  0
    3.2710  -20.4439   24.0857 C   0  0  0  0  0  0  0  0  0  0  0  0
    4.3294  -20.5986   23.1406 N   0  0  0  0  0  0  0  0  0  0  0  0
    2.1106  -21.0510   23.8199 N   0  0  0  0  0  0  0  0  0  0  0  0
    1.0403  -20.9401   24.6747 C   0  0  0  0  0  0  0  0  0  0  0  0
    1.1921  -20.2032   25.8292 C   0  0  0  0  0  0  0  0  0  0  0  0
    2.4468  -19.5823   26.0936 C   0  0  0  0  0  0  0  0  0  0  0  0
    2.6104  -18.8396   27.2416 O   0  0  0  0  0  0  0  0  0  0  0  0
   -0.0597  -20.2725   26.5192 C   0  0  0  0  0  0  0  0  0  0  0  0
   -0.9093  -21.0547   25.7246 C   0  0  0  0  0  0  0  0  0  0  0  0
   -0.2408  -21.4428   24.6312 N   0  0  0  0  0  0  0  0  0  0  0  0
  1  2  1  0  0  0  0
  1  7  1  0  0  0  0
  2  3  1  0  0  0  0
  2  4  2  0  0  0  0
  4  5  1  0  0  0  0
  5  6  2  0  0  0  0
  5 11  1  0  0  0  0
  6  7  1  0  0  0  0
  6  9  1  0  0  0  0
  7  8  2  0  0  0  0
  9 10  2  0  0  0  0
 10 11  1  0  0  0  0
M  END
>  <CHROM.1>
1.81045065,-20.35225681,25.18110119,-0.25443955,0.31397880,1.03954581

>  <Name>
ligand

>  <RI>
0

>  <Rbt.Current_Directory>
/home/itssahil/PROJECTS/Mol_Feturizer/New_Systems/rnas/4LVW

>  <Rbt.Executable>
rbdock ($Id: //depot/dev/client3/rdock/2013.1/src/exe/rbdock.cxx#4 $)

>  <Rbt.Library>
libRbt.so (2013.1, Build901 2013/11/27)

>  <Rbt.Parameter_File>
/export/apps/rDock/src/rDock_2013.1_src/data/scripts/dock_solv.prm

>  <Rbt.Receptor>
prm/pocket_docking_3.prm

>  <SCORE>
-13.9603

>  <SCORE.INTER>
-13.9603

>  <SCORE.INTER.CONST>
1

>  <SCORE.INTER.POLAR>
0

>  <SCORE.INTER.ROT>
0

>  <SCORE.INTER.SOLV>
5.45497

>  <SCORE.INTER.VDW>
-14.7252

>  <SCORE.INTER.norm>
-1.26912

>  <SCORE.INTRA>
0

>  <SCORE.INTRA.DIHEDRAL>
0

>  <SCORE.INTRA.DIHEDRAL.0>
0

>  <SCORE.INTRA.POLAR>
0

>  <SCORE.INTRA.POLAR.0>
0

>  <SCORE.INTRA.REPUL>
0

>  <SCORE.INTRA.REPUL.0>
0

>  <SCORE.INTRA.SOLV>
0

>  <SCORE.INTRA.SOLV.lig_0>
-29.307

>  <SCORE.INTRA.VDW>
0

>  <SCORE.INTRA.VDW.0>
0

>  <SCORE.INTRA.norm>
0

>  <SCORE.RESTR>
0

>  <SCORE.RESTR.CAVITY>
0

>  <SCORE.RESTR.norm>
0

>  <SCORE.SYSTEM>
0

>  <SCORE.SYSTEM.CONST>
0

>  <SCORE.SYSTEM.DIHEDRAL>
0

>  <SCORE.SYSTEM.SOLV>
0

>  <SCORE.SYSTEM.norm>
0

>  <SCORE.heavy>
11

>  <SCORE.norm>
-1.26912

>  <RMSD>
3.443

$$$$
ligand
 OpenBabel11021811503D
libRbt.so/2013.1/901 2013/11/27
 11 12  0  0  0  0  0  0  0  0999 V2000
    3.4541  -19.7174   25.2043 N   0  0  0  0  0  0  0  0  0  0  0  0
    3.2729  -20.4486   24.0904 C   0  0  0  0  0  0  0  0  0  0  0  0
    4.3335  -20.6009   23.1474 N   0  0  0  0  0  0  0  0  0  0  0  0
    2.1156  -21.0614   23.8240 N   0  0  0  0  0  0  0  0  0  0  0  0
    1.0434  -20.9532   24.6768 C   0  0  0  0  0  0  0  0  0  0  0  0
    1.1901  -20.2131   25.8298 C   0  0  0  0  0  0  0  0  0  0  0  0
    2.4416  -19.5862   26.0950 C   0  0  0  0  0  0  0  0  0  0  0  0
    2.6001  -18.8401   27.2415 O   0  0  0  0  0  0  0  0  0  0  0  0
   -0.0626  -20.2862   26.5180 C   0  0  0  0  0  0  0  0  0  0  0  0
   -0.9074  -21.0739   25.7237 C   0  0  0  0  0  0  0  0  0  0  0  0
   -0.2354  -21.4616   24.6323 N   0  0  0  0  0  0  0  0  0  0  0  0
  1  2  1  0  0  0  0
  1  7  1  0  0  0  0
  2  3  1  0  0  0  0
  2  4  2  0  0  0  0
  4  5  1  0  0  0  0
  5  6  2  0  0  0  0
  5 11  1  0  0  0  0
  6  7  1  0  0  0  0
  6  9  1  0  0  0  0
  7  8  2  0  0  0  0
  9 10  2  0  0  0  0
 10 11  1  0  0  0  0
M  END
>  <CHROM.1>
1.81014157,-20.36089877,25.18315107,-0.25060336,0.31686917,1.03610044

>  <Name>
ligand

>  <RI>
0

>  <Rbt.Current_Directory>
/home/itssahil/PROJECTS/Mol_Feturizer/New_Systems/rnas/4LVW

>  <Rbt.Executable>
rbdock ($Id: //depot/dev/client3/rdock/2013.1/src/exe/rbdock.cxx#4 $)

>  <Rbt.Library>
libRbt.so (2013.1, Build901 2013/11/27)

>  <Rbt.Parameter_File>
/export/apps/rDock/src/rDock_2013.1_src/data/scripts/dock_solv.prm

>  <Rbt.Receptor>
prm/pocket_docking_3.prm

>  <SCORE>
-13.9241

>  <SCORE.INTER>
-13.9241

>  <SCORE.INTER.CONST>
1

>  <SCORE.INTER.POLAR>
0

>  <SCORE.INTER.ROT>
0

>  <SCORE.INTER.SOLV>
5.43078

>  <SCORE.INTER.VDW>
-14.693

>  <SCORE.INTER.norm>
-1.26583

>  <SCORE.INTRA>
0

>  <SCORE.INTRA.DIHEDRAL>
0

>  <SCORE.INTRA.DIHEDRAL.0>
0

>  <SCORE.INTRA.POLAR>
0

>  <SCORE.INTRA.POLAR.0>
0

>  <SCORE.INTRA.REPUL>
0

>  <SCORE.INTRA.REPUL.0>
0

>  <SCORE.INTRA.SOLV>
0

>  <SCORE.INTRA.SOLV.lig_0>
-29.307

>  <SCORE.INTRA.VDW>
0

>  <SCORE.INTRA.VDW.0>
0

>  <SCORE.INTRA.norm>
0

>  <SCORE.RESTR>
0

>  <SCORE.RESTR.CAVITY>
0

>  <SCORE.RESTR.norm>
0

>  <SCORE.SYSTEM>
0

>  <SCORE.SYSTEM.CONST>
0

>  <SCORE.SYSTEM.DIHEDRAL>
0

>  <SCORE.SYSTEM.SOLV>
0

>  <SCORE.SYSTEM.norm>
0

>  <SCORE.heavy>
11

>  <SCORE.norm>
-1.26583

>  <RMSD>
3.443

$$$$
ligand
 OpenBabel11021811503D
libRbt.so/2013.1/901 2013/11/27
 11 12  0  0  0  0  0  0  0  0999 V2000
    3.4599  -19.7294   25.1942 N   0  0  0  0  0  0  0  0  0  0  0  0
    3.2704  -20.4582   24.0801 C   0  0  0  0  0  0  0  0  0  0  0  0
    4.3279  -20.6188   23.1349 N   0  0  0  0  0  0  0  0  0  0  0  0
    2.1074  -21.0609   23.8155 N   0  0  0  0  0  0  0  0  0  0  0  0
    1.0378  -20.9442   24.6704 C   0  0  0  0  0  0  0  0  0  0  0  0
    1.1930  -20.2063   25.8237 C   0  0  0  0  0  0  0  0  0  0  0  0
    2.4504  -19.5903   26.0870 C   0  0  0  0  0  0  0  0  0  0  0  0
    2.6173  -18.8465   27.2338 O   0  0  0  0  0  0  0  0  0  0  0  0
   -0.0590  -20.2693   26.5142 C   0  0  0  0  0  0  0  0  0  0  0  0
   -0.9120  -21.0491   25.7209 C   0  0  0  0  0  0  0  0  0  0  0  0
   -0.2454  -21.4416   24.6280 N   0  0  0  0  0  0  0  0  0  0  0  0
  1  2  1  0  0  0  0
  1  7  1  0  0  0  0
  2  3  1  0  0  0  0
  2  4  2  0  0  0  0
  4  5  1  0  0  0  0
  5  6  2  0  0  0  0
  5 11  1  0  0  0  0
  6  7  1  0  0  0  0
  6  9  1  0  0  0  0
  7  8  2  0  0  0  0
  9 10  2  0  0  0  0
 10 11  1  0  0  0  0
M  END
>  <CHROM.1>
1.81052316,-20.35885343,25.17573952,-0.25689453,0.31050245,1.03882604

>  <Name>
ligand

>  <RI>
0

>  <Rbt.Current_Directory>
/home/itssahil/PROJECTS/Mol_Feturizer/New_Systems/rnas/4LVW

>  <Rbt.Executable>
rbdock ($Id: //depot/dev/client3/rdock/2013.1/src/exe/rbdock.cxx#4 $)

>  <Rbt.Library>
libRbt.so (2013.1, Build901 2013/11/27)

>  <Rbt.Parameter_File>
/export/apps/rDock/src/rDock_2013.1_src/data/scripts/dock_solv.prm

>  <Rbt.Receptor>
prm/pocket_docking_3.prm

>  <SCORE>
-13.9518

>  <SCORE.INTER>
-13.9518

>  <SCORE.INTER.CONST>
1

>  <SCORE.INTER.POLAR>
0

>  <SCORE.INTER.ROT>
0

>  <SCORE.INTER.SOLV>
5.50192

>  <SCORE.INTER.VDW>
-14.7352

>  <SCORE.INTER.norm>
-1.26835

>  <SCORE.INTRA>
0

>  <SCORE.INTRA.DIHEDRAL>
0

>  <SCORE.INTRA.DIHEDRAL.0>
0

>  <SCORE.INTRA.POLAR>
0

>  <SCORE.INTRA.POLAR.0>
0

>  <SCORE.INTRA.REPUL>
0

>  <SCORE.INTRA.REPUL.0>
0

>  <SCORE.INTRA.SOLV>
0

>  <SCORE.INTRA.SOLV.lig_0>
-29.307

>  <SCORE.INTRA.VDW>
0

>  <SCORE.INTRA.VDW.0>
0

>  <SCORE.INTRA.norm>
0

>  <SCORE.RESTR>
0

>  <SCORE.RESTR.CAVITY>
0

>  <SCORE.RESTR.norm>
0

>  <SCORE.SYSTEM>
0

>  <SCORE.SYSTEM.CONST>
0

>  <SCORE.SYSTEM.DIHEDRAL>
0

>  <SCORE.SYSTEM.SOLV>
0

>  <SCORE.SYSTEM.norm>
0

>  <SCORE.heavy>
11

>  <SCORE.norm>
-1.26835

>  <RMSD>
3.443

$$$$
ligand
 OpenBabel11021811503D
libRbt.so/2013.1/901 2013/11/27
 11 12  0  0  0  0  0  0  0  0999 V2000
    3.4585  -19.7187   25.1991 N   0  0  0  0  0  0  0  0  0  0  0  0
    3.2714  -20.4460   24.0836 C   0  0  0  0  0  0  0  0  0  0  0  0
    4.3297  -20.6019   23.1385 N   0  0  0  0  0  0  0  0  0  0  0  0
    2.1103  -21.0516   23.8175 N   0  0  0  0  0  0  0  0  0  0  0  0
    1.0401  -20.9395   24.6722 C   0  0  0  0  0  0  0  0  0  0  0  0
    1.1928  -20.2032   25.8270 C   0  0  0  0  0  0  0  0  0  0  0  0
    2.4482  -19.5840   26.0917 C   0  0  0  0  0  0  0  0  0  0  0  0
    2.6127  -18.8418   27.2399 O   0  0  0  0  0  0  0  0  0  0  0  0
   -0.0593  -20.2710   26.5169 C   0  0  0  0  0  0  0  0  0  0  0  0
   -0.9098  -21.0518   25.7219 C   0  0  0  0  0  0  0  0  0  0  0  0
   -0.2417  -21.4405   24.6285 N   0  0  0  0  0  0  0  0  0  0  0  0
  1  2  1  0  0  0  0
  1  7  1  0  0  0  0
  2  3  1  0  0  0  0
  2  4  2  0  0  0  0
  4  5  1  0  0  0  0
  5  6  2  0  0  0  0
  5 11  1  0  0  0  0
  6  7  1  0  0  0  0
  6  9  1  0  0  0  0
  7  8  2  0  0  0  0
  9 10  2  0  0  0  0
 10 11  1  0  0  0  0
M  END
>  <CHROM.1>
1.81092177,-20.35281410,25.17891275,-0.25505625,0.31280348,1.04003700

>  <Name>
ligand

>  <RI>
0

>  <Rbt.Current_Directory>
/home/itssahil/PROJECTS/Mol_Feturizer/New_Systems/rnas/4LVW

>  <Rbt.Executable>
rbdock ($Id: //depot/dev/client3/rdock/2013.1/src/exe/rbdock.cxx#4 $)

>  <Rbt.Library>
libRbt.so (2013.1, Build901 2013/11/27)

>  <Rbt.Parameter_File>
/export/apps/rDock/src/rDock_2013.1_src/data/scripts/dock_solv.prm

>  <Rbt.Receptor>
prm/pocket_docking_3.prm

>  <SCORE>
-13.9596

>  <SCORE.INTER>
-13.9596

>  <SCORE.INTER.CONST>
1

>  <SCORE.INTER.POLAR>
0

>  <SCORE.INTER.ROT>
0

>  <SCORE.INTER.SOLV>
5.46215

>  <SCORE.INTER.VDW>
-14.7271

>  <SCORE.INTER.norm>
-1.26905

>  <SCORE.INTRA>
0

>  <SCORE.INTRA.DIHEDRAL>
0

>  <SCORE.INTRA.DIHEDRAL.0>
0

>  <SCORE.INTRA.POLAR>
0

>  <SCORE.INTRA.POLAR.0>
0

>  <SCORE.INTRA.REPUL>
0

>  <SCORE.INTRA.REPUL.0>
0

>  <SCORE.INTRA.SOLV>
0

>  <SCORE.INTRA.SOLV.lig_0>
-29.307

>  <SCORE.INTRA.VDW>
0

>  <SCORE.INTRA.VDW.0>
0

>  <SCORE.INTRA.norm>
0

>  <SCORE.RESTR>
0

>  <SCORE.RESTR.CAVITY>
0

>  <SCORE.RESTR.norm>
0

>  <SCORE.SYSTEM>
0

>  <SCORE.SYSTEM.CONST>
0

>  <SCORE.SYSTEM.DIHEDRAL>
0

>  <SCORE.SYSTEM.SOLV>
0

>  <SCORE.SYSTEM.norm>
0

>  <SCORE.heavy>
11

>  <SCORE.norm>
-1.26905

>  <RMSD>
3.443

$$$$
ligand
 OpenBabel11021811503D
libRbt.so/2013.1/901 2013/11/27
 11 12  0  0  0  0  0  0  0  0999 V2000
    3.4572  -19.7159   25.2006 N   0  0  0  0  0  0  0  0  0  0  0  0
    3.2712  -20.4430   24.0848 C   0  0  0  0  0  0  0  0  0  0  0  0
    4.3297  -20.5969   23.1396 N   0  0  0  0  0  0  0  0  0  0  0  0
    2.1110  -21.0502   23.8185 N   0  0  0  0  0  0  0  0  0  0  0  0
    1.0406  -20.9401   24.6733 C   0  0  0  0  0  0  0  0  0  0  0  0
    1.1923  -20.2041   25.8283 C   0  0  0  0  0  0  0  0  0  0  0  0
    2.4468  -19.5831   26.0933 C   0  0  0  0  0  0  0  0  0  0  0  0
    2.6102  -18.8411   27.2418 O   0  0  0  0  0  0  0  0  0  0  0  0
   -0.0596  -20.2740   26.5183 C   0  0  0  0  0  0  0  0  0  0  0  0
   -0.9090  -21.0558   25.7230 C   0  0  0  0  0  0  0  0  0  0  0  0
   -0.2404  -21.4431   24.6295 N   0  0  0  0  0  0  0  0  0  0  0  0
  1  2  1  0  0  0  0
  1  7  1  0  0  0  0
  2  3  1  0  0  0  0
  2  4  2  0  0  0  0
  4  5  1  0  0  0  0
  5  6  2  0  0  0  0
  5 11  1  0  0  0  0
  6  7  1  0  0  0  0
  6  9  1  0  0  0  0
  7  8  2  0  0  0  0
  9 10  2  0  0  0  0
 10 11  1  0  0  0  0
M  END
>  <CHROM.1>
1.81062585,-20.35248556,25.18018643,-0.25428803,0.31412750,1.04020013

>  <Name>
ligand

>  <RI>
0

>  <Rbt.Current_Directory>
/home/itssahil/PROJECTS/Mol_Feturizer/New_Systems/rnas/4LVW

>  <Rbt.Executable>
rbdock ($Id: //depot/dev/client3/rdock/2013.1/src/exe/rbdock.cxx#4 $)

>  <Rbt.Library>
libRbt.so (2013.1, Build901 2013/11/27)

>  <Rbt.Parameter_File>
/export/apps/rDock/src/rDock_2013.1_src/data/scripts/dock_solv.prm

>  <Rbt.Receptor>
prm/pocket_docking_3.prm

>  <SCORE>
-13.9614

>  <SCORE.INTER>
-13.9614

>  <SCORE.INTER.CONST>
1

>  <SCORE.INTER.POLAR>
0

>  <SCORE.INTER.ROT>
0

>  <SCORE.INTER.SOLV>
5.45182

>  <SCORE.INTER.VDW>
-14.7249

>  <SCORE.INTER.norm>
-1.26922

>  <SCORE.INTRA>
0

>  <SCORE.INTRA.DIHEDRAL>
0

>  <SCORE.INTRA.DIHEDRAL.0>
0

>  <SCORE.INTRA.POLAR>
0

>  <SCORE.INTRA.POLAR.0>
0

>  <SCORE.INTRA.REPUL>
0

>  <SCORE.INTRA.REPUL.0>
0

>  <SCORE.INTRA.SOLV>
0

>  <SCORE.INTRA.SOLV.lig_0>
-29.307

>  <SCORE.INTRA.VDW>
0

>  <SCORE.INTRA.VDW.0>
0

>  <SCORE.INTRA.norm>
0

>  <SCORE.RESTR>
0

>  <SCORE.RESTR.CAVITY>
0

>  <SCORE.RESTR.norm>
0

>  <SCORE.SYSTEM>
0

>  <SCORE.SYSTEM.CONST>
0

>  <SCORE.SYSTEM.DIHEDRAL>
0

>  <SCORE.SYSTEM.SOLV>
0

>  <SCORE.SYSTEM.norm>
0

>  <SCORE.heavy>
11

>  <SCORE.norm>
-1.26922

>  <RMSD>
3.443

$$$$
ligand
 OpenBabel11021811503D
libRbt.so/2013.1/901 2013/11/27
 11 12  0  0  0  0  0  0  0  0999 V2000
    3.4571  -19.7150   25.2037 N   0  0  0  0  0  0  0  0  0  0  0  0
    3.2720  -20.4424   24.0879 C   0  0  0  0  0  0  0  0  0  0  0  0
    4.3314  -20.5970   23.1439 N   0  0  0  0  0  0  0  0  0  0  0  0
    2.1117  -21.0491   23.8205 N   0  0  0  0  0  0  0  0  0  0  0  0
    1.0405  -20.9383   24.6741 C   0  0  0  0  0  0  0  0  0  0  0  0
    1.1912  -20.2020   25.8291 C   0  0  0  0  0  0  0  0  0  0  0  0
    2.4457  -19.5815   26.0952 C   0  0  0  0  0  0  0  0  0  0  0  0
    2.6082  -18.8393   27.2437 O   0  0  0  0  0  0  0  0  0  0  0  0
   -0.0615  -20.2712   26.5177 C   0  0  0  0  0  0  0  0  0  0  0  0
   -0.9103  -21.0528   25.7217 C   0  0  0  0  0  0  0  0  0  0  0  0
   -0.2407  -21.4407   24.6289 N   0  0  0  0  0  0  0  0  0  0  0  0
  1  2  1  0  0  0  0
  1  7  1  0  0  0  0
  2  3  1  0  0  0  0
  2  4  2  0  0  0  0
  4  5  1  0  0  0  0
  5  6  2  0  0  0  0
  5 11  1  0  0  0  0
  6  7  1  0  0  0  0
  6  9  1  0  0  0  0
  7  8  2  0  0  0  0
  9 10  2  0  0  0  0
 10 11  1  0  0  0  0
M  END
>  <CHROM.1>
1.81019848,-20.35088820,25.18165798,-0.25352454,0.31317665,1.03970742

>  <Name>
ligand

>  <RI>
0

>  <Rbt.Current_Directory>
/home/itssahil/PROJECTS/Mol_Feturizer/New_Systems/rnas/4LVW

>  <Rbt.Executable>
rbdock ($Id: //depot/dev/client3/rdock/2013.1/src/exe/rbdock.cxx#4 $)

>  <Rbt.Library>
libRbt.so (2013.1, Build901 2013/11/27)

>  <Rbt.Parameter_File>
/export/apps/rDock/src/rDock_2013.1_src/data/scripts/dock_solv.prm

>  <Rbt.Receptor>
prm/pocket_docking_3.prm

>  <SCORE>
-13.959

>  <SCORE.INTER>
-13.959

>  <SCORE.INTER.CONST>
1

>  <SCORE.INTER.POLAR>
0

>  <SCORE.INTER.ROT>
0

>  <SCORE.INTER.SOLV>
5.44377

>  <SCORE.INTER.VDW>
-14.7206

>  <SCORE.INTER.norm>
-1.269

>  <SCORE.INTRA>
0

>  <SCORE.INTRA.DIHEDRAL>
0

>  <SCORE.INTRA.DIHEDRAL.0>
0

>  <SCORE.INTRA.POLAR>
0

>  <SCORE.INTRA.POLAR.0>
0

>  <SCORE.INTRA.REPUL>
0

>  <SCORE.INTRA.REPUL.0>
0

>  <SCORE.INTRA.SOLV>
0

>  <SCORE.INTRA.SOLV.lig_0>
-29.307

>  <SCORE.INTRA.VDW>
0

>  <SCORE.INTRA.VDW.0>
0

>  <SCORE.INTRA.norm>
0

>  <SCORE.RESTR>
0

>  <SCORE.RESTR.CAVITY>
0

>  <SCORE.RESTR.norm>
0

>  <SCORE.SYSTEM>
0

>  <SCORE.SYSTEM.CONST>
0

>  <SCORE.SYSTEM.DIHEDRAL>
0

>  <SCORE.SYSTEM.SOLV>
0

>  <SCORE.SYSTEM.norm>
0

>  <SCORE.heavy>
11

>  <SCORE.norm>
-1.269

>  <RMSD>
3.443

$$$$
ligand
 OpenBabel11021811503D
libRbt.so/2013.1/901 2013/11/27
 11 12  0  0  0  0  0  0  0  0999 V2000
    3.4564  -19.7263   25.2084 N   0  0  0  0  0  0  0  0  0  0  0  0
    3.2697  -20.4460   24.0879 C   0  0  0  0  0  0  0  0  0  0  0  0
    4.3287  -20.5963   23.1427 N   0  0  0  0  0  0  0  0  0  0  0  0
    2.1083  -21.0489   23.8167 N   0  0  0  0  0  0  0  0  0  0  0  0
    1.0375  -20.9417   24.6713 C   0  0  0  0  0  0  0  0  0  0  0  0
    1.1897  -20.2133   25.8311 C   0  0  0  0  0  0  0  0  0  0  0  0
    2.4455  -19.5969   26.1010 C   0  0  0  0  0  0  0  0  0  0  0  0
    2.6095  -18.8625   27.2543 O   0  0  0  0  0  0  0  0  0  0  0  0
   -0.0629  -20.2848   26.5195 C   0  0  0  0  0  0  0  0  0  0  0  0
   -0.9133  -21.0596   25.7186 C   0  0  0  0  0  0  0  0  0  0  0  0
   -0.2446  -21.4415   24.6232 N   0  0  0  0  0  0  0  0  0  0  0  0
  1  2  1  0  0  0  0
  1  7  1  0  0  0  0
  2  3  1  0  0  0  0
  2  4  2  0  0  0  0
  4  5  1  0  0  0  0
  5  6  2  0  0  0  0
  5 11  1  0  0  0  0
  6  7  1  0  0  0  0
  6  9  1  0  0  0  0
  7  8  2  0  0  0  0
  9 10  2  0  0  0  0
 10 11  1  0  0  0  0
M  END
>  <CHROM.1>
1.80835190,-20.35904996,25.18254728,-0.25468535,0.31173259,1.04661943

>  <Name>
ligand

>  <RI>
0

>  <Rbt.Current_Directory>
/home/itssahil/PROJECTS/Mol_Feturizer/New_Systems/rnas/4LVW

>  <Rbt.Executable>
rbdock ($Id: //depot/dev/client3/rdock/2013.1/src/exe/rbdock.cxx#4 $)

>  <Rbt.Library>
libRbt.so (2013.1, Build901 2013/11/27)

>  <Rbt.Parameter_File>
/export/apps/rDock/src/rDock_2013.1_src/data/scripts/dock_solv.prm

>  <Rbt.Receptor>
prm/pocket_docking_4.prm

>  <SCORE>
-13.9447

>  <SCORE.INTER>
-13.9447

>  <SCORE.INTER.CONST>
1

>  <SCORE.INTER.POLAR>
0

>  <SCORE.INTER.ROT>
0

>  <SCORE.INTER.SOLV>
5.43596

>  <SCORE.INTER.VDW>
-14.7084

>  <SCORE.INTER.norm>
-1.2677

>  <SCORE.INTRA>
0

>  <SCORE.INTRA.DIHEDRAL>
0

>  <SCORE.INTRA.DIHEDRAL.0>
0

>  <SCORE.INTRA.POLAR>
0

>  <SCORE.INTRA.POLAR.0>
0

>  <SCORE.INTRA.REPUL>
0

>  <SCORE.INTRA.REPUL.0>
0

>  <SCORE.INTRA.SOLV>
0

>  <SCORE.INTRA.SOLV.lig_0>
-29.307

>  <SCORE.INTRA.VDW>
0

>  <SCORE.INTRA.VDW.0>
0

>  <SCORE.INTRA.norm>
0

>  <SCORE.RESTR>
0

>  <SCORE.RESTR.CAVITY>
0

>  <SCORE.RESTR.norm>
0

>  <SCORE.SYSTEM>
0

>  <SCORE.SYSTEM.CONST>
0

>  <SCORE.SYSTEM.DIHEDRAL>
0

>  <SCORE.SYSTEM.SOLV>
0

>  <SCORE.SYSTEM.norm>
0

>  <SCORE.heavy>
11

>  <SCORE.norm>
-1.2677

>  <RMSD>
3.443

$$$$
ligand
 OpenBabel11021811503D
libRbt.so/2013.1/901 2013/11/27
 11 12  0  0  0  0  0  0  0  0999 V2000
    3.4516  -19.7133   25.2018 N   0  0  0  0  0  0  0  0  0  0  0  0
    3.2704  -20.4439   24.0875 C   0  0  0  0  0  0  0  0  0  0  0  0
    4.3299  -20.5929   23.1427 N   0  0  0  0  0  0  0  0  0  0  0  0
    2.1141  -21.0591   23.8223 N   0  0  0  0  0  0  0  0  0  0  0  0
    1.0430  -20.9541   24.6768 C   0  0  0  0  0  0  0  0  0  0  0  0
    1.1898  -20.2148   25.8303 C   0  0  0  0  0  0  0  0  0  0  0  0
    2.4403  -19.5852   26.0941 C   0  0  0  0  0  0  0  0  0  0  0  0
    2.5987  -18.8399   27.2411 O   0  0  0  0  0  0  0  0  0  0  0  0
   -0.0617  -20.2914   26.5203 C   0  0  0  0  0  0  0  0  0  0  0  0
   -0.9060  -21.0803   25.7266 C   0  0  0  0  0  0  0  0  0  0  0  0
   -0.2348  -21.4654   24.6339 N   0  0  0  0  0  0  0  0  0  0  0  0
  1  2  1  0  0  0  0
  1  7  1  0  0  0  0
  2  3  1  0  0  0  0
  2  4  2  0  0  0  0
  4  5  1  0  0  0  0
  5  6  2  0  0  0  0
  5 11  1  0  0  0  0
  6  7  1  0  0  0  0
  6  9  1  0  0  0  0
  7  8  2  0  0  0  0
  9 10  2  0  0  0  0
 10 11  1  0  0  0  0
M  END
>  <CHROM.1>
1.80912812,-20.36054031,25.18254527,-0.25076097,0.31962332,1.03707059

>  <Name>
ligand

>  <RI>
0

>  <Rbt.Current_Directory>
/home/itssahil/PROJECTS/Mol_Feturizer/New_Systems/rnas/4LVW

>  <Rbt.Executable>
rbdock ($Id: //depot/dev/client3/rdock/2013.1/src/exe/rbdock.cxx#4 $)

>  <Rbt.Library>
libRbt.so (2013.1, Build901 2013/11/27)

>  <Rbt.Parameter_File>
/export/apps/rDock/src/rDock_2013.1_src/data/scripts/dock_solv.prm

>  <Rbt.Receptor>
prm/pocket_docking_4.prm

>  <SCORE>
-13.9232

>  <SCORE.INTER>
-13.9232

>  <SCORE.INTER.CONST>
1

>  <SCORE.INTER.POLAR>
0

>  <SCORE.INTER.ROT>
0

>  <SCORE.INTER.SOLV>
5.43799

>  <SCORE.INTER.VDW>
-14.6948

>  <SCORE.INTER.norm>
-1.26575

>  <SCORE.INTRA>
0

>  <SCORE.INTRA.DIHEDRAL>
0

>  <SCORE.INTRA.DIHEDRAL.0>
0

>  <SCORE.INTRA.POLAR>
0

>  <SCORE.INTRA.POLAR.0>
0

>  <SCORE.INTRA.REPUL>
0

>  <SCORE.INTRA.REPUL.0>
0

>  <SCORE.INTRA.SOLV>
0

>  <SCORE.INTRA.SOLV.lig_0>
-29.307

>  <SCORE.INTRA.VDW>
0

>  <SCORE.INTRA.VDW.0>
0

>  <SCORE.INTRA.norm>
0

>  <SCORE.RESTR>
0

>  <SCORE.RESTR.CAVITY>
0

>  <SCORE.RESTR.norm>
0

>  <SCORE.SYSTEM>
0

>  <SCORE.SYSTEM.CONST>
0

>  <SCORE.SYSTEM.DIHEDRAL>
0

>  <SCORE.SYSTEM.SOLV>
0

>  <SCORE.SYSTEM.norm>
0

>  <SCORE.heavy>
11

>  <SCORE.norm>
-1.26575

>  <RMSD>
3.443

$$$$
ligand
 OpenBabel11021811503D
libRbt.so/2013.1/901 2013/11/27
 11 12  0  0  0  0  0  0  0  0999 V2000
    3.4576  -19.7257   25.2146 N   0  0  0  0  0  0  0  0  0  0  0  0
    3.2693  -20.4411   24.0917 C   0  0  0  0  0  0  0  0  0  0  0  0
    4.3283  -20.5914   23.1465 N   0  0  0  0  0  0  0  0  0  0  0  0
    2.1063  -21.0397   23.8180 N   0  0  0  0  0  0  0  0  0  0  0  0
    1.0354  -20.9322   24.6724 C   0  0  0  0  0  0  0  0  0  0  0  0
    1.1892  -20.2081   25.8346 C   0  0  0  0  0  0  0  0  0  0  0  0
    2.4466  -19.5963   26.1072 C   0  0  0  0  0  0  0  0  0  0  0  0
    2.6122  -18.8663   27.2631 O   0  0  0  0  0  0  0  0  0  0  0  0
   -0.0640  -20.2782   26.5222 C   0  0  0  0  0  0  0  0  0  0  0  0
   -0.9163  -21.0479   25.7183 C   0  0  0  0  0  0  0  0  0  0  0  0
   -0.2482  -21.4280   24.6220 N   0  0  0  0  0  0  0  0  0  0  0  0
  1  2  1  0  0  0  0
  1  7  1  0  0  0  0
  2  3  1  0  0  0  0
  2  4  2  0  0  0  0
  4  5  1  0  0  0  0
  5  6  2  0  0  0  0
  5 11  1  0  0  0  0
  6  7  1  0  0  0  0
  6  9  1  0  0  0  0
  7  8  2  0  0  0  0
  9 10  2  0  0  0  0
 10 11  1  0  0  0  0
M  END
>  <CHROM.1>
1.80768127,-20.35352549,25.18593259,-0.25579281,0.30894141,1.05030794

>  <Name>
ligand

>  <RI>
0

>  <Rbt.Current_Directory>
/home/itssahil/PROJECTS/Mol_Feturizer/New_Systems/rnas/4LVW

>  <Rbt.Executable>
rbdock ($Id: //depot/dev/client3/rdock/2013.1/src/exe/rbdock.cxx#4 $)

>  <Rbt.Library>
libRbt.so (2013.1, Build901 2013/11/27)

>  <Rbt.Parameter_File>
/export/apps/rDock/src/rDock_2013.1_src/data/scripts/dock_solv.prm

>  <Rbt.Receptor>
prm/pocket_docking_4.prm

>  <SCORE>
-13.942

>  <SCORE.INTER>
-13.942

>  <SCORE.INTER.CONST>
1

>  <SCORE.INTER.POLAR>
0

>  <SCORE.INTER.ROT>
0

>  <SCORE.INTER.SOLV>
5.43063

>  <SCORE.INTER.VDW>
-14.7049

>  <SCORE.INTER.norm>
-1.26745

>  <SCORE.INTRA>
0

>  <SCORE.INTRA.DIHEDRAL>
0

>  <SCORE.INTRA.DIHEDRAL.0>
0

>  <SCORE.INTRA.POLAR>
0

>  <SCORE.INTRA.POLAR.0>
0

>  <SCORE.INTRA.REPUL>
0

>  <SCORE.INTRA.REPUL.0>
0

>  <SCORE.INTRA.SOLV>
0

>  <SCORE.INTRA.SOLV.lig_0>
-29.307

>  <SCORE.INTRA.VDW>
0

>  <SCORE.INTRA.VDW.0>
0

>  <SCORE.INTRA.norm>
0

>  <SCORE.RESTR>
0

>  <SCORE.RESTR.CAVITY>
0

>  <SCORE.RESTR.norm>
0

>  <SCORE.SYSTEM>
0

>  <SCORE.SYSTEM.CONST>
0

>  <SCORE.SYSTEM.DIHEDRAL>
0

>  <SCORE.SYSTEM.SOLV>
0

>  <SCORE.SYSTEM.norm>
0

>  <SCORE.heavy>
11

>  <SCORE.norm>
-1.26745

>  <RMSD>
3.443

$$$$
ligand
 OpenBabel11021811503D
libRbt.so/2013.1/901 2013/11/27
 11 12  0  0  0  0  0  0  0  0999 V2000
    3.4570  -19.7243   25.2137 N   0  0  0  0  0  0  0  0  0  0  0  0
    3.2711  -20.4429   24.0924 C   0  0  0  0  0  0  0  0  0  0  0  0
    4.3310  -20.5931   23.1482 N   0  0  0  0  0  0  0  0  0  0  0  0
    2.1096  -21.0448   23.8195 N   0  0  0  0  0  0  0  0  0  0  0  0
    1.0379  -20.9376   24.6730 C   0  0  0  0  0  0  0  0  0  0  0  0
    1.1894  -20.2103   25.8335 C   0  0  0  0  0  0  0  0  0  0  0  0
    2.4452  -19.5949   26.1054 C   0  0  0  0  0  0  0  0  0  0  0  0
    2.6085  -18.8617   27.2595 O   0  0  0  0  0  0  0  0  0  0  0  0
   -0.0640  -20.2815   26.5205 C   0  0  0  0  0  0  0  0  0  0  0  0
   -0.9141  -21.0551   25.7180 C   0  0  0  0  0  0  0  0  0  0  0  0
   -0.2445  -21.4365   24.6230 N   0  0  0  0  0  0  0  0  0  0  0  0
  1  2  1  0  0  0  0
  1  7  1  0  0  0  0
  2  3  1  0  0  0  0
  2  4  2  0  0  0  0
  4  5  1  0  0  0  0
  5  6  2  0  0  0  0
  5 11  1  0  0  0  0
  6  7  1  0  0  0  0
  6  9  1  0  0  0  0
  7  8  2  0  0  0  0
  9 10  2  0  0  0  0
 10 11  1  0  0  0  0
M  END
>  <CHROM.1>
1.80861910,-20.35590088,25.18556219,-0.25405106,0.31061163,1.04729697

>  <Name>
ligand

>  <RI>
0

>  <Rbt.Current_Directory>
/home/itssahil/PROJECTS/Mol_Feturizer/New_Systems/rnas/4LVW

>  <Rbt.Executable>
rbdock ($Id: //depot/dev/client3/rdock/2013.1/src/exe/rbdock.cxx#4 $)

>  <Rbt.Library>
libRbt.so (2013.1, Build901 2013/11/27)

>  <Rbt.Parameter_File>
/export/apps/rDock/src/rDock_2013.1_src/data/scripts/dock_solv.prm

>  <Rbt.Receptor>
prm/pocket_docking_4.prm

>  <SCORE>
-13.9433

>  <SCORE.INTER>
-13.9433

>  <SCORE.INTER.CONST>
1

>  <SCORE.INTER.POLAR>
0

>  <SCORE.INTER.ROT>
0

>  <SCORE.INTER.SOLV>
5.42245

>  <SCORE.INTER.VDW>
-14.703

>  <SCORE.INTER.norm>
-1.26757

>  <SCORE.INTRA>
0

>  <SCORE.INTRA.DIHEDRAL>
0

>  <SCORE.INTRA.DIHEDRAL.0>
0

>  <SCORE.INTRA.POLAR>
0

>  <SCORE.INTRA.POLAR.0>
0

>  <SCORE.INTRA.REPUL>
0

>  <SCORE.INTRA.REPUL.0>
0

>  <SCORE.INTRA.SOLV>
0

>  <SCORE.INTRA.SOLV.lig_0>
-29.307

>  <SCORE.INTRA.VDW>
0

>  <SCORE.INTRA.VDW.0>
0

>  <SCORE.INTRA.norm>
0

>  <SCORE.RESTR>
0

>  <SCORE.RESTR.CAVITY>
0

>  <SCORE.RESTR.norm>
0

>  <SCORE.SYSTEM>
0

>  <SCORE.SYSTEM.CONST>
0

>  <SCORE.SYSTEM.DIHEDRAL>
0

>  <SCORE.SYSTEM.SOLV>
0

>  <SCORE.SYSTEM.norm>
0

>  <SCORE.heavy>
11

>  <SCORE.norm>
-1.26757

>  <RMSD>
3.443

$$$$
ligand
 OpenBabel11021811503D
libRbt.so/2013.1/901 2013/11/27
 11 12  0  0  0  0  0  0  0  0999 V2000
    3.4562  -19.7265   25.2134 N   0  0  0  0  0  0  0  0  0  0  0  0
    3.2686  -20.4442   24.0918 C   0  0  0  0  0  0  0  0  0  0  0  0
    4.3275  -20.5946   23.1465 N   0  0  0  0  0  0  0  0  0  0  0  0
    2.1064  -21.0449   23.8194 N   0  0  0  0  0  0  0  0  0  0  0  0
    1.0355  -20.9375   24.6740 C   0  0  0  0  0  0  0  0  0  0  0  0
    1.1887  -20.2111   25.8349 C   0  0  0  0  0  0  0  0  0  0  0  0
    2.4453  -19.5970   26.1060 C   0  0  0  0  0  0  0  0  0  0  0  0
    2.6102  -18.8646   27.2605 O   0  0  0  0  0  0  0  0  0  0  0  0
   -0.0642  -20.2817   26.5230 C   0  0  0  0  0  0  0  0  0  0  0  0
   -0.9156  -21.0541   25.7207 C   0  0  0  0  0  0  0  0  0  0  0  0
   -0.2473  -21.4353   24.6248 N   0  0  0  0  0  0  0  0  0  0  0  0
  1  2  1  0  0  0  0
  1  7  1  0  0  0  0
  2  3  1  0  0  0  0
  2  4  2  0  0  0  0
  4  5  1  0  0  0  0
  5  6  2  0  0  0  0
  5 11  1  0  0  0  0
  6  7  1  0  0  0  0
  6  9  1  0  0  0  0
  7  8  2  0  0  0  0
  9 10  2  0  0  0  0
 10 11  1  0  0  0  0
M  END
>  <CHROM.1>
1.80717914,-20.35676988,25.18626003,-0.25529843,0.31034163,1.04835944

>  <Name>
ligand

>  <RI>
0

>  <Rbt.Current_Directory>
/home/itssahil/PROJECTS/Mol_Feturizer/New_Systems/rnas/4LVW

>  <Rbt.Executable>
rbdock ($Id: //depot/dev/client3/rdock/2013.1/src/exe/rbdock.cxx#4 $)

>  <Rbt.Library>
libRbt.so (2013.1, Build901 2013/11/27)

>  <Rbt.Parameter_File>
/export/apps/rDock/src/rDock_2013.1_src/data/scripts/dock_solv.prm

>  <Rbt.Receptor>
prm/pocket_docking_4.prm

>  <SCORE>
-13.9426

>  <SCORE.INTER>
-13.9426

>  <SCORE.INTER.CONST>
1

>  <SCORE.INTER.POLAR>
0

>  <SCORE.INTER.ROT>
0

>  <SCORE.INTER.SOLV>
5.43491

>  <SCORE.INTER.VDW>
-14.7067

>  <SCORE.INTER.norm>
-1.26751

>  <SCORE.INTRA>
0

>  <SCORE.INTRA.DIHEDRAL>
0

>  <SCORE.INTRA.DIHEDRAL.0>
0

>  <SCORE.INTRA.POLAR>
0

>  <SCORE.INTRA.POLAR.0>
0

>  <SCORE.INTRA.REPUL>
0

>  <SCORE.INTRA.REPUL.0>
0

>  <SCORE.INTRA.SOLV>
0

>  <SCORE.INTRA.SOLV.lig_0>
-29.307

>  <SCORE.INTRA.VDW>
0

>  <SCORE.INTRA.VDW.0>
0

>  <SCORE.INTRA.norm>
0

>  <SCORE.RESTR>
0

>  <SCORE.RESTR.CAVITY>
0

>  <SCORE.RESTR.norm>
0

>  <SCORE.SYSTEM>
0

>  <SCORE.SYSTEM.CONST>
0

>  <SCORE.SYSTEM.DIHEDRAL>
0

>  <SCORE.SYSTEM.SOLV>
0

>  <SCORE.SYSTEM.norm>
0

>  <SCORE.heavy>
11

>  <SCORE.norm>
-1.26751

>  <RMSD>
3.443

$$$$
ligand
 OpenBabel11021811503D
libRbt.so/2013.1/901 2013/11/27
 11 12  0  0  0  0  0  0  0  0999 V2000
    3.4562  -19.7155   25.2006 N   0  0  0  0  0  0  0  0  0  0  0  0
    3.2705  -20.4430   24.0850 C   0  0  0  0  0  0  0  0  0  0  0  0
    4.3298  -20.5984   23.1409 N   0  0  0  0  0  0  0  0  0  0  0  0
    2.1099  -21.0492   23.8179 N   0  0  0  0  0  0  0  0  0  0  0  0
    1.0389  -20.9376   24.6716 C   0  0  0  0  0  0  0  0  0  0  0  0
    1.1901  -20.2011   25.8264 C   0  0  0  0  0  0  0  0  0  0  0  0
    2.4450  -19.5813   26.0923 C   0  0  0  0  0  0  0  0  0  0  0  0
    2.6080  -18.8389   27.2406 O   0  0  0  0  0  0  0  0  0  0  0  0
   -0.0625  -20.2695   26.5152 C   0  0  0  0  0  0  0  0  0  0  0  0
   -0.9119  -21.0509   25.7195 C   0  0  0  0  0  0  0  0  0  0  0  0
   -0.2426  -21.4393   24.6268 N   0  0  0  0  0  0  0  0  0  0  0  0
  1  2  1  0  0  0  0
  1  7  1  0  0  0  0
  2  3  1  0  0  0  0
  2  4  2  0  0  0  0
  4  5  1  0  0  0  0
  5  6  2  0  0  0  0
  5 11  1  0  0  0  0
  6  7  1  0  0  0  0
  6  9  1  0  0  0  0
  7  8  2  0  0  0  0
  9 10  2  0  0  0  0
 10 11  1  0  0  0  0
M  END
>  <CHROM.1>
1.80897792,-20.35049048,25.17894662,-0.25393320,0.31278073,1.03960247

>  <Name>
ligand

>  <RI>
0

>  <Rbt.Current_Directory>
/home/itssahil/PROJECTS/Mol_Feturizer/New_Systems/rnas/4LVW

>  <Rbt.Executable>
rbdock ($Id: //depot/dev/client3/rdock/2013.1/src/exe/rbdock.cxx#4 $)

>  <Rbt.Library>
libRbt.so (2013.1, Build901 2013/11/27)

>  <Rbt.Parameter_File>
/export/apps/rDock/src/rDock_2013.1_src/data/scripts/dock_solv.prm

>  <Rbt.Receptor>
prm/pocket_docking_4.prm

>  <SCORE>
-13.9553

>  <SCORE.INTER>
-13.9553

>  <SCORE.INTER.CONST>
1

>  <SCORE.INTER.POLAR>
0

>  <SCORE.INTER.ROT>
0

>  <SCORE.INTER.SOLV>
5.45706

>  <SCORE.INTER.VDW>
-14.7225

>  <SCORE.INTER.norm>
-1.26866

>  <SCORE.INTRA>
0

>  <SCORE.INTRA.DIHEDRAL>
0

>  <SCORE.INTRA.DIHEDRAL.0>
0

>  <SCORE.INTRA.POLAR>
0

>  <SCORE.INTRA.POLAR.0>
0

>  <SCORE.INTRA.REPUL>
0

>  <SCORE.INTRA.REPUL.0>
0

>  <SCORE.INTRA.SOLV>
0

>  <SCORE.INTRA.SOLV.lig_0>
-29.307

>  <SCORE.INTRA.VDW>
0

>  <SCORE.INTRA.VDW.0>
0

>  <SCORE.INTRA.norm>
0

>  <SCORE.RESTR>
0

>  <SCORE.RESTR.CAVITY>
0

>  <SCORE.RESTR.norm>
0

>  <SCORE.SYSTEM>
0

>  <SCORE.SYSTEM.CONST>
0

>  <SCORE.SYSTEM.DIHEDRAL>
0

>  <SCORE.SYSTEM.SOLV>
0

>  <SCORE.SYSTEM.norm>
0

>  <SCORE.heavy>
11

>  <SCORE.norm>
-1.26866

>  <RMSD>
3.443

$$$$
ligand
 OpenBabel11021811503D
libRbt.so/2013.1/901 2013/11/27
 11 12  0  0  0  0  0  0  0  0999 V2000
    3.4567  -19.7255   25.2112 N   0  0  0  0  0  0  0  0  0  0  0  0
    3.2698  -20.4423   24.0889 C   0  0  0  0  0  0  0  0  0  0  0  0
    4.3290  -20.5910   23.1436 N   0  0  0  0  0  0  0  0  0  0  0  0
    2.1081  -21.0435   23.8158 N   0  0  0  0  0  0  0  0  0  0  0  0
    1.0370  -20.9377   24.6702 C   0  0  0  0  0  0  0  0  0  0  0  0
    1.1895  -20.2123   25.8319 C   0  0  0  0  0  0  0  0  0  0  0  0
    2.4456  -19.5976   26.1038 C   0  0  0  0  0  0  0  0  0  0  0  0
    2.6098  -18.8662   27.2590 O   0  0  0  0  0  0  0  0  0  0  0  0
   -0.0635  -20.2845   26.5197 C   0  0  0  0  0  0  0  0  0  0  0  0
   -0.9142  -21.0567   25.7165 C   0  0  0  0  0  0  0  0  0  0  0  0
   -0.2455  -21.4363   24.6204 N   0  0  0  0  0  0  0  0  0  0  0  0
  1  2  1  0  0  0  0
  1  7  1  0  0  0  0
  2  3  1  0  0  0  0
  2  4  2  0  0  0  0
  4  5  1  0  0  0  0
  5  6  2  0  0  0  0
  5 11  1  0  0  0  0
  6  7  1  0  0  0  0
  6  9  1  0  0  0  0
  7  8  2  0  0  0  0
  9 10  2  0  0  0  0
 10 11  1  0  0  0  0
M  END
>  <CHROM.1>
1.80817240,-20.35692098,25.18320702,-0.25477998,0.31087602,1.04917961

>  <Name>
ligand

>  <RI>
0

>  <Rbt.Current_Directory>
/home/itssahil/PROJECTS/Mol_Feturizer/New_Systems/rnas/4LVW

>  <Rbt.Executable>
rbdock ($Id: //depot/dev/client3/rdock/2013.1/src/exe/rbdock.cxx#4 $)

>  <Rbt.Library>
libRbt.so (2013.1, Build901 2013/11/27)

>  <Rbt.Parameter_File>
/export/apps/rDock/src/rDock_2013.1_src/data/scripts/dock_solv.prm

>  <Rbt.Receptor>
prm/pocket_docking_4.prm

>  <SCORE>
-13.9436

>  <SCORE.INTER>
-13.9436

>  <SCORE.INTER.CONST>
1

>  <SCORE.INTER.POLAR>
0

>  <SCORE.INTER.ROT>
0

>  <SCORE.INTER.SOLV>
5.42872

>  <SCORE.INTER.VDW>
-14.7053

>  <SCORE.INTER.norm>
-1.2676

>  <SCORE.INTRA>
0

>  <SCORE.INTRA.DIHEDRAL>
0

>  <SCORE.INTRA.DIHEDRAL.0>
0

>  <SCORE.INTRA.POLAR>
0

>  <SCORE.INTRA.POLAR.0>
0

>  <SCORE.INTRA.REPUL>
0

>  <SCORE.INTRA.REPUL.0>
0

>  <SCORE.INTRA.SOLV>
0

>  <SCORE.INTRA.SOLV.lig_0>
-29.307

>  <SCORE.INTRA.VDW>
0

>  <SCORE.INTRA.VDW.0>
0

>  <SCORE.INTRA.norm>
0

>  <SCORE.RESTR>
0

>  <SCORE.RESTR.CAVITY>
0

>  <SCORE.RESTR.norm>
0

>  <SCORE.SYSTEM>
0

>  <SCORE.SYSTEM.CONST>
0

>  <SCORE.SYSTEM.DIHEDRAL>
0

>  <SCORE.SYSTEM.SOLV>
0

>  <SCORE.SYSTEM.norm>
0

>  <SCORE.heavy>
11

>  <SCORE.norm>
-1.2676

>  <RMSD>
3.443

$$$$
ligand
 OpenBabel11021811503D
libRbt.so/2013.1/901 2013/11/27
 11 12  0  0  0  0  0  0  0  0999 V2000
    3.4540  -19.7226   25.2173 N   0  0  0  0  0  0  0  0  0  0  0  0
    3.2690  -20.4391   24.0945 C   0  0  0  0  0  0  0  0  0  0  0  0
    4.3287  -20.5854   23.1496 N   0  0  0  0  0  0  0  0  0  0  0  0
    2.1084  -21.0425   23.8207 N   0  0  0  0  0  0  0  0  0  0  0  0
    1.0369  -20.9391   24.6749 C   0  0  0  0  0  0  0  0  0  0  0  0
    1.1875  -20.2140   25.8369 C   0  0  0  0  0  0  0  0  0  0  0  0
    2.4423  -19.5970   26.1096 C   0  0  0  0  0  0  0  0  0  0  0  0
    2.6048  -18.8660   27.2652 O   0  0  0  0  0  0  0  0  0  0  0  0
   -0.0655  -20.2890   26.5243 C   0  0  0  0  0  0  0  0  0  0  0  0
   -0.9145  -21.0624   25.7204 C   0  0  0  0  0  0  0  0  0  0  0  0
   -0.2446  -21.4402   24.6243 N   0  0  0  0  0  0  0  0  0  0  0  0
  1  2  1  0  0  0  0
  1  7  1  0  0  0  0
  2  3  1  0  0  0  0
  2  4  2  0  0  0  0
  4  5  1  0  0  0  0
  5  6  2  0  0  0  0
  5 11  1  0  0  0  0
  6  7  1  0  0  0  0
  6  9  1  0  0  0  0
  7  8  2  0  0  0  0
  9 10  2  0  0  0  0
 10 11  1  0  0  0  0
M  END
>  <CHROM.1>
1.80673841,-20.35710971,25.18840395,-0.25345643,0.31235333,1.04927700

>  <Name>
ligand

>  <RI>
0

>  <Rbt.Current_Directory>
/home/itssahil/PROJECTS/Mol_Feturizer/New_Systems/rnas/4LVW

>  <Rbt.Executable>
rbdock ($Id: //depot/dev/client3/rdock/2013.1/src/exe/rbdock.cxx#4 $)

>  <Rbt.Library>
libRbt.so (2013.1, Build901 2013/11/27)

>  <Rbt.Parameter_File>
/export/apps/rDock/src/rDock_2013.1_src/data/scripts/dock_solv.prm

>  <Rbt.Receptor>
prm/pocket_docking_4.prm

>  <SCORE>
-13.9403

>  <SCORE.INTER>
-13.9403

>  <SCORE.INTER.CONST>
1

>  <SCORE.INTER.POLAR>
0

>  <SCORE.INTER.ROT>
0

>  <SCORE.INTER.SOLV>
5.4173

>  <SCORE.INTER.VDW>
-14.6993

>  <SCORE.INTER.norm>
-1.2673

>  <SCORE.INTRA>
0

>  <SCORE.INTRA.DIHEDRAL>
0

>  <SCORE.INTRA.DIHEDRAL.0>
0

>  <SCORE.INTRA.POLAR>
0

>  <SCORE.INTRA.POLAR.0>
0

>  <SCORE.INTRA.REPUL>
0

>  <SCORE.INTRA.REPUL.0>
0

>  <SCORE.INTRA.SOLV>
0

>  <SCORE.INTRA.SOLV.lig_0>
-29.307

>  <SCORE.INTRA.VDW>
0

>  <SCORE.INTRA.VDW.0>
0

>  <SCORE.INTRA.norm>
0

>  <SCORE.RESTR>
0

>  <SCORE.RESTR.CAVITY>
0

>  <SCORE.RESTR.norm>
0

>  <SCORE.SYSTEM>
0

>  <SCORE.SYSTEM.CONST>
0

>  <SCORE.SYSTEM.DIHEDRAL>
0

>  <SCORE.SYSTEM.SOLV>
0

>  <SCORE.SYSTEM.norm>
0

>  <SCORE.heavy>
11

>  <SCORE.norm>
-1.2673

>  <RMSD>
3.443

$$$$
ligand
 OpenBabel11021811503D
libRbt.so/2013.1/901 2013/11/27
 11 12  0  0  0  0  0  0  0  0999 V2000
    3.4571  -19.7222   25.2122 N   0  0  0  0  0  0  0  0  0  0  0  0
    3.2706  -20.4401   24.0905 C   0  0  0  0  0  0  0  0  0  0  0  0
    4.3299  -20.5896   23.1456 N   0  0  0  0  0  0  0  0  0  0  0  0
    2.1090  -21.0420   23.8179 N   0  0  0  0  0  0  0  0  0  0  0  0
    1.0378  -20.9355   24.6721 C   0  0  0  0  0  0  0  0  0  0  0  0
    1.1898  -20.2089   25.8330 C   0  0  0  0  0  0  0  0  0  0  0  0
    2.4457  -19.5935   26.1045 C   0  0  0  0  0  0  0  0  0  0  0  0
    2.6096  -18.8610   27.2590 O   0  0  0  0  0  0  0  0  0  0  0  0
   -0.0632  -20.2808   26.5207 C   0  0  0  0  0  0  0  0  0  0  0  0
   -0.9136  -21.0540   25.7182 C   0  0  0  0  0  0  0  0  0  0  0  0
   -0.2446  -21.4346   24.6226 N   0  0  0  0  0  0  0  0  0  0  0  0
  1  2  1  0  0  0  0
  1  7  1  0  0  0  0
  2  3  1  0  0  0  0
  2  4  2  0  0  0  0
  4  5  1  0  0  0  0
  5  6  2  0  0  0  0
  5 11  1  0  0  0  0
  6  7  1  0  0  0  0
  6  9  1  0  0  0  0
  7  8  2  0  0  0  0
  9 10  2  0  0  0  0
 10 11  1  0  0  0  0
M  END
>  <CHROM.1>
1.80870224,-20.35402261,25.18458830,-0.25450165,0.31103219,1.04805876

>  <Name>
ligand

>  <RI>
0

>  <Rbt.Current_Directory>
/home/itssahil/PROJECTS/Mol_Feturizer/New_Systems/rnas/4LVW

>  <Rbt.Executable>
rbdock ($Id: //depot/dev/client3/rdock/2013.1/src/exe/rbdock.cxx#4 $)

>  <Rbt.Library>
libRbt.so (2013.1, Build901 2013/11/27)

>  <Rbt.Parameter_File>
/export/apps/rDock/src/rDock_2013.1_src/data/scripts/dock_solv.prm

>  <Rbt.Receptor>
prm/pocket_docking_4.prm

>  <SCORE>
-13.9437

>  <SCORE.INTER>
-13.9437

>  <SCORE.INTER.CONST>
1

>  <SCORE.INTER.POLAR>
0

>  <SCORE.INTER.ROT>
0

>  <SCORE.INTER.SOLV>
5.42593

>  <SCORE.INTER.VDW>
-14.7045

>  <SCORE.INTER.norm>
-1.26761

>  <SCORE.INTRA>
0

>  <SCORE.INTRA.DIHEDRAL>
0

>  <SCORE.INTRA.DIHEDRAL.0>
0

>  <SCORE.INTRA.POLAR>
0

>  <SCORE.INTRA.POLAR.0>
0

>  <SCORE.INTRA.REPUL>
0

>  <SCORE.INTRA.REPUL.0>
0

>  <SCORE.INTRA.SOLV>
0

>  <SCORE.INTRA.SOLV.lig_0>
-29.307

>  <SCORE.INTRA.VDW>
0

>  <SCORE.INTRA.VDW.0>
0

>  <SCORE.INTRA.norm>
0

>  <SCORE.RESTR>
0

>  <SCORE.RESTR.CAVITY>
0

>  <SCORE.RESTR.norm>
0

>  <SCORE.SYSTEM>
0

>  <SCORE.SYSTEM.CONST>
0

>  <SCORE.SYSTEM.DIHEDRAL>
0

>  <SCORE.SYSTEM.SOLV>
0

>  <SCORE.SYSTEM.norm>
0

>  <SCORE.heavy>
11

>  <SCORE.norm>
-1.26761

>  <RMSD>
3.443

$$$$
ligand
 OpenBabel11021811503D
libRbt.so/2013.1/901 2013/11/27
 11 12  0  0  0  0  0  0  0  0999 V2000
    3.4567  -19.7260   25.2140 N   0  0  0  0  0  0  0  0  0  0  0  0
    3.2711  -20.4440   24.0922 C   0  0  0  0  0  0  0  0  0  0  0  0
    4.3312  -20.5935   23.1482 N   0  0  0  0  0  0  0  0  0  0  0  0
    2.1098  -21.0459   23.8187 N   0  0  0  0  0  0  0  0  0  0  0  0
    1.0379  -20.9394   24.6720 C   0  0  0  0  0  0  0  0  0  0  0  0
    1.1890  -20.2128   25.8330 C   0  0  0  0  0  0  0  0  0  0  0  0
    2.4446  -19.5974   26.1055 C   0  0  0  0  0  0  0  0  0  0  0  0
    2.6075  -18.8648   27.2601 O   0  0  0  0  0  0  0  0  0  0  0  0
   -0.0646  -20.2846   26.5197 C   0  0  0  0  0  0  0  0  0  0  0  0
   -0.9144  -21.0579   25.7165 C   0  0  0  0  0  0  0  0  0  0  0  0
   -0.2444  -21.4385   24.6214 N   0  0  0  0  0  0  0  0  0  0  0  0
  1  2  1  0  0  0  0
  1  7  1  0  0  0  0
  2  3  1  0  0  0  0
  2  4  2  0  0  0  0
  4  5  1  0  0  0  0
  5  6  2  0  0  0  0
  5 11  1  0  0  0  0
  6  7  1  0  0  0  0
  6  9  1  0  0  0  0
  7  8  2  0  0  0  0
  9 10  2  0  0  0  0
 10 11  1  0  0  0  0
M  END
>  <CHROM.1>
1.80835969,-20.35791668,25.18507704,-0.25375031,0.31062607,1.04780761

>  <Name>
ligand

>  <RI>
0

>  <Rbt.Current_Directory>
/home/itssahil/PROJECTS/Mol_Feturizer/New_Systems/rnas/4LVW

>  <Rbt.Executable>
rbdock ($Id: //depot/dev/client3/rdock/2013.1/src/exe/rbdock.cxx#4 $)

>  <Rbt.Library>
libRbt.so (2013.1, Build901 2013/11/27)

>  <Rbt.Parameter_File>
/export/apps/rDock/src/rDock_2013.1_src/data/scripts/dock_solv.prm

>  <Rbt.Receptor>
prm/pocket_docking_4.prm

>  <SCORE>
-13.9429

>  <SCORE.INTER>
-13.9429

>  <SCORE.INTER.CONST>
1

>  <SCORE.INTER.POLAR>
0

>  <SCORE.INTER.ROT>
0

>  <SCORE.INTER.SOLV>
5.41941

>  <SCORE.INTER.VDW>
-14.7017

>  <SCORE.INTER.norm>
-1.26754

>  <SCORE.INTRA>
0

>  <SCORE.INTRA.DIHEDRAL>
0

>  <SCORE.INTRA.DIHEDRAL.0>
0

>  <SCORE.INTRA.POLAR>
0

>  <SCORE.INTRA.POLAR.0>
0

>  <SCORE.INTRA.REPUL>
0

>  <SCORE.INTRA.REPUL.0>
0

>  <SCORE.INTRA.SOLV>
0

>  <SCORE.INTRA.SOLV.lig_0>
-29.307

>  <SCORE.INTRA.VDW>
0

>  <SCORE.INTRA.VDW.0>
0

>  <SCORE.INTRA.norm>
0

>  <SCORE.RESTR>
0

>  <SCORE.RESTR.CAVITY>
0

>  <SCORE.RESTR.norm>
0

>  <SCORE.SYSTEM>
0

>  <SCORE.SYSTEM.CONST>
0

>  <SCORE.SYSTEM.DIHEDRAL>
0

>  <SCORE.SYSTEM.SOLV>
0

>  <SCORE.SYSTEM.norm>
0

>  <SCORE.heavy>
11

>  <SCORE.norm>
-1.26754

>  <RMSD>
3.443

$$$$
ligand
 OpenBabel11021811503D
libRbt.so/2013.1/901 2013/11/27
 11 12  0  0  0  0  0  0  0  0999 V2000
    3.4558  -19.7273   25.2123 N   0  0  0  0  0  0  0  0  0  0  0  0
    3.2698  -20.4472   24.0918 C   0  0  0  0  0  0  0  0  0  0  0  0
    4.3293  -20.5977   23.1473 N   0  0  0  0  0  0  0  0  0  0  0  0
    2.1085  -21.0500   23.8201 N   0  0  0  0  0  0  0  0  0  0  0  0
    1.0372  -20.9426   24.6740 C   0  0  0  0  0  0  0  0  0  0  0  0
    1.1888  -20.2139   25.8337 C   0  0  0  0  0  0  0  0  0  0  0  0
    2.4444  -19.5976   26.1043 C   0  0  0  0  0  0  0  0  0  0  0  0
    2.6078  -18.8630   27.2575 O   0  0  0  0  0  0  0  0  0  0  0  0
   -0.0643  -20.2852   26.5214 C   0  0  0  0  0  0  0  0  0  0  0  0
   -0.9143  -21.0601   25.7201 C   0  0  0  0  0  0  0  0  0  0  0  0
   -0.2450  -21.4423   24.6252 N   0  0  0  0  0  0  0  0  0  0  0  0
  1  2  1  0  0  0  0
  1  7  1  0  0  0  0
  2  3  1  0  0  0  0
  2  4  2  0  0  0  0
  4  5  1  0  0  0  0
  5  6  2  0  0  0  0
  5 11  1  0  0  0  0
  6  7  1  0  0  0  0
  6  9  1  0  0  0  0
  7  8  2  0  0  0  0
  9 10  2  0  0  0  0
 10 11  1  0  0  0  0
M  END
>  <CHROM.1>
1.80775148,-20.35986975,25.18557370,-0.25417298,0.31135301,1.04626935

>  <Name>
ligand

>  <RI>
0

>  <Rbt.Current_Directory>
/home/itssahil/PROJECTS/Mol_Feturizer/New_Systems/rnas/4LVW

>  <Rbt.Executable>
rbdock ($Id: //depot/dev/client3/rdock/2013.1/src/exe/rbdock.cxx#4 $)

>  <Rbt.Library>
libRbt.so (2013.1, Build901 2013/11/27)

>  <Rbt.Parameter_File>
/export/apps/rDock/src/rDock_2013.1_src/data/scripts/dock_solv.prm

>  <Rbt.Receptor>
prm/pocket_docking_4.prm

>  <SCORE>
-13.9431

>  <SCORE.INTER>
-13.9431

>  <SCORE.INTER.CONST>
1

>  <SCORE.INTER.POLAR>
0

>  <SCORE.INTER.ROT>
0

>  <SCORE.INTER.SOLV>
5.43051

>  <SCORE.INTER.VDW>
-14.7056

>  <SCORE.INTER.norm>
-1.26755

>  <SCORE.INTRA>
0

>  <SCORE.INTRA.DIHEDRAL>
0

>  <SCORE.INTRA.DIHEDRAL.0>
0

>  <SCORE.INTRA.POLAR>
0

>  <SCORE.INTRA.POLAR.0>
0

>  <SCORE.INTRA.REPUL>
0

>  <SCORE.INTRA.REPUL.0>
0

>  <SCORE.INTRA.SOLV>
0

>  <SCORE.INTRA.SOLV.lig_0>
-29.307

>  <SCORE.INTRA.VDW>
0

>  <SCORE.INTRA.VDW.0>
0

>  <SCORE.INTRA.norm>
0

>  <SCORE.RESTR>
0

>  <SCORE.RESTR.CAVITY>
0

>  <SCORE.RESTR.norm>
0

>  <SCORE.SYSTEM>
0

>  <SCORE.SYSTEM.CONST>
0

>  <SCORE.SYSTEM.DIHEDRAL>
0

>  <SCORE.SYSTEM.SOLV>
0

>  <SCORE.SYSTEM.norm>
0

>  <SCORE.heavy>
11

>  <SCORE.norm>
-1.26755

>  <RMSD>
3.443

$$$$
ligand
 OpenBabel11021811503D
libRbt.so/2013.1/901 2013/11/27
 11 12  0  0  0  0  0  0  0  0999 V2000
    3.4494  -19.7250   25.1964 N   0  0  0  0  0  0  0  0  0  0  0  0
    3.2645  -20.4584   24.0845 C   0  0  0  0  0  0  0  0  0  0  0  0
    4.3216  -20.6116   23.1377 N   0  0  0  0  0  0  0  0  0  0  0  0
    2.1066  -21.0724   23.8236 N   0  0  0  0  0  0  0  0  0  0  0  0
    1.0376  -20.9634   24.6803 C   0  0  0  0  0  0  0  0  0  0  0  0
    1.1882  -20.2211   25.8314 C   0  0  0  0  0  0  0  0  0  0  0  0
    2.4403  -19.5928   26.0907 C   0  0  0  0  0  0  0  0  0  0  0  0
    2.6026  -18.8446   27.2352 O   0  0  0  0  0  0  0  0  0  0  0  0
   -0.0618  -20.2938   26.5245 C   0  0  0  0  0  0  0  0  0  0  0  0
   -0.9091  -21.0835   25.7349 C   0  0  0  0  0  0  0  0  0  0  0  0
   -0.2410  -21.4728   24.6417 N   0  0  0  0  0  0  0  0  0  0  0  0
  1  2  1  0  0  0  0
  1  7  1  0  0  0  0
  2  3  1  0  0  0  0
  2  4  2  0  0  0  0
  4  5  1  0  0  0  0
  5  6  2  0  0  0  0
  5 11  1  0  0  0  0
  6  7  1  0  0  0  0
  6  9  1  0  0  0  0
  7  8  2  0  0  0  0
  9 10  2  0  0  0  0
 10 11  1  0  0  0  0
M  END
>  <CHROM.1>
1.80586994,-20.36966128,25.18266103,-0.25369139,0.31941126,1.03524704

>  <Name>
ligand

>  <RI>
0

>  <Rbt.Current_Directory>
/home/itssahil/PROJECTS/Mol_Feturizer/New_Systems/rnas/4LVW

>  <Rbt.Executable>
rbdock ($Id: //depot/dev/client3/rdock/2013.1/src/exe/rbdock.cxx#4 $)

>  <Rbt.Library>
libRbt.so (2013.1, Build901 2013/11/27)

>  <Rbt.Parameter_File>
/export/apps/rDock/src/rDock_2013.1_src/data/scripts/dock_solv.prm

>  <Rbt.Receptor>
prm/pocket_docking_4.prm

>  <SCORE>
-13.9099

>  <SCORE.INTER>
-13.9099

>  <SCORE.INTER.CONST>
1

>  <SCORE.INTER.POLAR>
0

>  <SCORE.INTER.ROT>
0

>  <SCORE.INTER.SOLV>
5.50271

>  <SCORE.INTER.VDW>
-14.7075

>  <SCORE.INTER.norm>
-1.26453

>  <SCORE.INTRA>
0

>  <SCORE.INTRA.DIHEDRAL>
0

>  <SCORE.INTRA.DIHEDRAL.0>
0

>  <SCORE.INTRA.POLAR>
0

>  <SCORE.INTRA.POLAR.0>
0

>  <SCORE.INTRA.REPUL>
0

>  <SCORE.INTRA.REPUL.0>
0

>  <SCORE.INTRA.SOLV>
0

>  <SCORE.INTRA.SOLV.lig_0>
-29.307

>  <SCORE.INTRA.VDW>
0

>  <SCORE.INTRA.VDW.0>
0

>  <SCORE.INTRA.norm>
0

>  <SCORE.RESTR>
0

>  <SCORE.RESTR.CAVITY>
0

>  <SCORE.RESTR.norm>
0

>  <SCORE.SYSTEM>
0

>  <SCORE.SYSTEM.CONST>
0

>  <SCORE.SYSTEM.DIHEDRAL>
0

>  <SCORE.SYSTEM.SOLV>
0

>  <SCORE.SYSTEM.norm>
0

>  <SCORE.heavy>
11

>  <SCORE.norm>
-1.26453

>  <RMSD>
3.443

$$$$
ligand
 OpenBabel11021811503D
libRbt.so/2013.1/901 2013/11/27
 11 12  0  0  0  0  0  0  0  0999 V2000
    3.4517  -19.7196   25.2027 N   0  0  0  0  0  0  0  0  0  0  0  0
    3.2718  -20.4520   24.0894 C   0  0  0  0  0  0  0  0  0  0  0  0
    4.3330  -20.6040   23.1469 N   0  0  0  0  0  0  0  0  0  0  0  0
    2.1153  -21.0663   23.8231 N   0  0  0  0  0  0  0  0  0  0  0  0
    1.0427  -20.9585   24.6753 C   0  0  0  0  0  0  0  0  0  0  0  0
    1.1881  -20.2173   25.8278 C   0  0  0  0  0  0  0  0  0  0  0  0
    2.4388  -19.5887   26.0929 C   0  0  0  0  0  0  0  0  0  0  0  0
    2.5959  -18.8415   27.2388 O   0  0  0  0  0  0  0  0  0  0  0  0
   -0.0648  -20.2911   26.5155 C   0  0  0  0  0  0  0  0  0  0  0  0
   -0.9085  -21.0804   25.7215 C   0  0  0  0  0  0  0  0  0  0  0  0
   -0.2356  -21.4684   24.6308 N   0  0  0  0  0  0  0  0  0  0  0  0
  1  2  1  0  0  0  0
  1  7  1  0  0  0  0
  2  3  1  0  0  0  0
  2  4  2  0  0  0  0
  4  5  1  0  0  0  0
  5  6  2  0  0  0  0
  5 11  1  0  0  0  0
  6  7  1  0  0  0  0
  6  9  1  0  0  0  0
  7  8  2  0  0  0  0
  9 10  2  0  0  0  0
 10 11  1  0  0  0  0
M  END
>  <CHROM.1>
1.80852718,-20.36494182,25.18146188,-0.24963430,0.31760431,1.03491730

>  <Name>
ligand

>  <RI>
0

>  <Rbt.Current_Directory>
/home/itssahil/PROJECTS/Mol_Feturizer/New_Systems/rnas/4LVW

>  <Rbt.Executable>
rbdock ($Id: //depot/dev/client3/rdock/2013.1/src/exe/rbdock.cxx#4 $)

>  <Rbt.Library>
libRbt.so (2013.1, Build901 2013/11/27)

>  <Rbt.Parameter_File>
/export/apps/rDock/src/rDock_2013.1_src/data/scripts/dock_solv.prm

>  <Rbt.Receptor>
prm/pocket_docking_4.prm

>  <SCORE>
-13.9167

>  <SCORE.INTER>
-13.9167

>  <SCORE.INTER.CONST>
1

>  <SCORE.INTER.POLAR>
0

>  <SCORE.INTER.ROT>
0

>  <SCORE.INTER.SOLV>
5.43778

>  <SCORE.INTER.VDW>
-14.6904

>  <SCORE.INTER.norm>
-1.26515

>  <SCORE.INTRA>
0

>  <SCORE.INTRA.DIHEDRAL>
0

>  <SCORE.INTRA.DIHEDRAL.0>
0

>  <SCORE.INTRA.POLAR>
0

>  <SCORE.INTRA.POLAR.0>
0

>  <SCORE.INTRA.REPUL>
0

>  <SCORE.INTRA.REPUL.0>
0

>  <SCORE.INTRA.SOLV>
0

>  <SCORE.INTRA.SOLV.lig_0>
-29.307

>  <SCORE.INTRA.VDW>
0

>  <SCORE.INTRA.VDW.0>
0

>  <SCORE.INTRA.norm>
0

>  <SCORE.RESTR>
0

>  <SCORE.RESTR.CAVITY>
0

>  <SCORE.RESTR.norm>
0

>  <SCORE.SYSTEM>
0

>  <SCORE.SYSTEM.CONST>
0

>  <SCORE.SYSTEM.DIHEDRAL>
0

>  <SCORE.SYSTEM.SOLV>
0

>  <SCORE.SYSTEM.norm>
0

>  <SCORE.heavy>
11

>  <SCORE.norm>
-1.26515

>  <RMSD>
3.443

$$$$
ligand
 OpenBabel11021811503D
libRbt.so/2013.1/901 2013/11/27
 11 12  0  0  0  0  0  0  0  0999 V2000
    3.4569  -19.7122   25.1997 N   0  0  0  0  0  0  0  0  0  0  0  0
    3.2707  -20.4385   24.0834 C   0  0  0  0  0  0  0  0  0  0  0  0
    4.3287  -20.5910   23.1375 N   0  0  0  0  0  0  0  0  0  0  0  0
    2.1106  -21.0461   23.8171 N   0  0  0  0  0  0  0  0  0  0  0  0
    1.0407  -20.9373   24.6726 C   0  0  0  0  0  0  0  0  0  0  0  0
    1.1925  -20.2022   25.8282 C   0  0  0  0  0  0  0  0  0  0  0  0
    2.4468  -19.5808   26.0930 C   0  0  0  0  0  0  0  0  0  0  0  0
    2.6104  -18.8397   27.2421 O   0  0  0  0  0  0  0  0  0  0  0  0
   -0.0590  -20.2734   26.5187 C   0  0  0  0  0  0  0  0  0  0  0  0
   -0.9084  -21.0550   25.7232 C   0  0  0  0  0  0  0  0  0  0  0  0
   -0.2401  -21.4409   24.6289 N   0  0  0  0  0  0  0  0  0  0  0  0
  1  2  1  0  0  0  0
  1  7  1  0  0  0  0
  2  3  1  0  0  0  0
  2  4  2  0  0  0  0
  4  5  1  0  0  0  0
  5  6  2  0  0  0  0
  5 11  1  0  0  0  0
  6  7  1  0  0  0  0
  6  9  1  0  0  0  0
  7  8  2  0  0  0  0
  9 10  2  0  0  0  0
 10 11  1  0  0  0  0
M  END
>  <CHROM.1>
1.81060514,-20.34969830,25.17957611,-0.25446269,0.31485205,1.04113181

>  <Name>
ligand

>  <RI>
0

>  <Rbt.Current_Directory>
/home/itssahil/PROJECTS/Mol_Feturizer/New_Systems/rnas/4LVW

>  <Rbt.Executable>
rbdock ($Id: //depot/dev/client3/rdock/2013.1/src/exe/rbdock.cxx#4 $)

>  <Rbt.Library>
libRbt.so (2013.1, Build901 2013/11/27)

>  <Rbt.Parameter_File>
/export/apps/rDock/src/rDock_2013.1_src/data/scripts/dock_solv.prm

>  <Rbt.Receptor>
prm/pocket_docking_4.prm

>  <SCORE>
-13.9589

>  <SCORE.INTER>
-13.9589

>  <SCORE.INTER.CONST>
1

>  <SCORE.INTER.POLAR>
0

>  <SCORE.INTER.ROT>
0

>  <SCORE.INTER.SOLV>
5.45661

>  <SCORE.INTER.VDW>
-14.7248

>  <SCORE.INTER.norm>
-1.26899

>  <SCORE.INTRA>
0

>  <SCORE.INTRA.DIHEDRAL>
0

>  <SCORE.INTRA.DIHEDRAL.0>
0

>  <SCORE.INTRA.POLAR>
0

>  <SCORE.INTRA.POLAR.0>
0

>  <SCORE.INTRA.REPUL>
0

>  <SCORE.INTRA.REPUL.0>
0

>  <SCORE.INTRA.SOLV>
0

>  <SCORE.INTRA.SOLV.lig_0>
-29.307

>  <SCORE.INTRA.VDW>
0

>  <SCORE.INTRA.VDW.0>
0

>  <SCORE.INTRA.norm>
0

>  <SCORE.RESTR>
0

>  <SCORE.RESTR.CAVITY>
0

>  <SCORE.RESTR.norm>
0

>  <SCORE.SYSTEM>
0

>  <SCORE.SYSTEM.CONST>
0

>  <SCORE.SYSTEM.DIHEDRAL>
0

>  <SCORE.SYSTEM.SOLV>
0

>  <SCORE.SYSTEM.norm>
0

>  <SCORE.heavy>
11

>  <SCORE.norm>
-1.26899

>  <RMSD>
3.443

$$$$
ligand
 OpenBabel11021811503D
libRbt.so/2013.1/901 2013/11/27
 11 12  0  0  0  0  0  0  0  0999 V2000
    3.4571  -19.7151   25.2005 N   0  0  0  0  0  0  0  0  0  0  0  0
    3.2710  -20.4421   24.0847 C   0  0  0  0  0  0  0  0  0  0  0  0
    4.3294  -20.5956   23.1393 N   0  0  0  0  0  0  0  0  0  0  0  0
    2.1108  -21.0494   23.8184 N   0  0  0  0  0  0  0  0  0  0  0  0
    1.0406  -20.9396   24.6733 C   0  0  0  0  0  0  0  0  0  0  0  0
    1.1922  -20.2037   25.8285 C   0  0  0  0  0  0  0  0  0  0  0  0
    2.4467  -19.5826   26.0934 C   0  0  0  0  0  0  0  0  0  0  0  0
    2.6101  -18.8408   27.2420 O   0  0  0  0  0  0  0  0  0  0  0  0
   -0.0596  -20.2739   26.5186 C   0  0  0  0  0  0  0  0  0  0  0  0
   -0.9089  -21.0558   25.7233 C   0  0  0  0  0  0  0  0  0  0  0  0
   -0.2403  -21.4427   24.6295 N   0  0  0  0  0  0  0  0  0  0  0  0
  1  2  1  0  0  0  0
  1  7  1  0  0  0  0
  2  3  1  0  0  0  0
  2  4  2  0  0  0  0
  4  5  1  0  0  0  0
  5  6  2  0  0  0  0
  5 11  1  0  0  0  0
  6  7  1  0  0  0  0
  6  9  1  0  0  0  0
  7  8  2  0  0  0  0
  9 10  2  0  0  0  0
 10 11  1  0  0  0  0
M  END
>  <CHROM.1>
1.81056265,-20.35192468,25.18024073,-0.25430781,0.31430932,1.04038515

>  <Name>
ligand

>  <RI>
0

>  <Rbt.Current_Directory>
/home/itssahil/PROJECTS/Mol_Feturizer/New_Systems/rnas/4LVW

>  <Rbt.Executable>
rbdock ($Id: //depot/dev/client3/rdock/2013.1/src/exe/rbdock.cxx#4 $)

>  <Rbt.Library>
libRbt.so (2013.1, Build901 2013/11/27)

>  <Rbt.Parameter_File>
/export/apps/rDock/src/rDock_2013.1_src/data/scripts/dock_solv.prm

>  <Rbt.Receptor>
prm/pocket_docking_4.prm

>  <SCORE>
-13.9611

>  <SCORE.INTER>
-13.9611

>  <SCORE.INTER.CONST>
1

>  <SCORE.INTER.POLAR>
0

>  <SCORE.INTER.ROT>
0

>  <SCORE.INTER.SOLV>
5.45222

>  <SCORE.INTER.VDW>
-14.7248

>  <SCORE.INTER.norm>
-1.26919

>  <SCORE.INTRA>
0

>  <SCORE.INTRA.DIHEDRAL>
0

>  <SCORE.INTRA.DIHEDRAL.0>
0

>  <SCORE.INTRA.POLAR>
0

>  <SCORE.INTRA.POLAR.0>
0

>  <SCORE.INTRA.REPUL>
0

>  <SCORE.INTRA.REPUL.0>
0

>  <SCORE.INTRA.SOLV>
0

>  <SCORE.INTRA.SOLV.lig_0>
-29.307

>  <SCORE.INTRA.VDW>
0

>  <SCORE.INTRA.VDW.0>
0

>  <SCORE.INTRA.norm>
0

>  <SCORE.RESTR>
0

>  <SCORE.RESTR.CAVITY>
0

>  <SCORE.RESTR.norm>
0

>  <SCORE.SYSTEM>
0

>  <SCORE.SYSTEM.CONST>
0

>  <SCORE.SYSTEM.DIHEDRAL>
0

>  <SCORE.SYSTEM.SOLV>
0

>  <SCORE.SYSTEM.norm>
0

>  <SCORE.heavy>
11

>  <SCORE.norm>
-1.26919

>  <RMSD>
3.443

$$$$
ligand
 OpenBabel11021811503D
libRbt.so/2013.1/901 2013/11/27
 11 12  0  0  0  0  0  0  0  0999 V2000
    3.4574  -19.7154   25.1998 N   0  0  0  0  0  0  0  0  0  0  0  0
    3.2711  -20.4430   24.0844 C   0  0  0  0  0  0  0  0  0  0  0  0
    4.3295  -20.5974   23.1391 N   0  0  0  0  0  0  0  0  0  0  0  0
    2.1108  -21.0502   23.8185 N   0  0  0  0  0  0  0  0  0  0  0  0
    1.0406  -20.9396   24.6734 C   0  0  0  0  0  0  0  0  0  0  0  0
    1.1925  -20.2031   25.8281 C   0  0  0  0  0  0  0  0  0  0  0  0
    2.4471  -19.5822   26.0926 C   0  0  0  0  0  0  0  0  0  0  0  0
    2.6107  -18.8397   27.2408 O   0  0  0  0  0  0  0  0  0  0  0  0
   -0.0593  -20.2727   26.5183 C   0  0  0  0  0  0  0  0  0  0  0  0
   -0.9089  -21.0547   25.7235 C   0  0  0  0  0  0  0  0  0  0  0  0
   -0.2405  -21.4425   24.6300 N   0  0  0  0  0  0  0  0  0  0  0  0
  1  2  1  0  0  0  0
  1  7  1  0  0  0  0
  2  3  1  0  0  0  0
  2  4  2  0  0  0  0
  4  5  1  0  0  0  0
  5  6  2  0  0  0  0
  5 11  1  0  0  0  0
  6  7  1  0  0  0  0
  6  9  1  0  0  0  0
  7  8  2  0  0  0  0
  9 10  2  0  0  0  0
 10 11  1  0  0  0  0
M  END
>  <CHROM.1>
1.81071958,-20.35187081,25.17996679,-0.25446697,0.31411992,1.03985039

>  <Name>
ligand

>  <RI>
0

>  <Rbt.Current_Directory>
/home/itssahil/PROJECTS/Mol_Feturizer/New_Systems/rnas/4LVW

>  <Rbt.Executable>
rbdock ($Id: //depot/dev/client3/rdock/2013.1/src/exe/rbdock.cxx#4 $)

>  <Rbt.Library>
libRbt.so (2013.1, Build901 2013/11/27)

>  <Rbt.Parameter_File>
/export/apps/rDock/src/rDock_2013.1_src/data/scripts/dock_solv.prm

>  <Rbt.Receptor>
prm/pocket_docking_4.prm

>  <SCORE>
-13.9603

>  <SCORE.INTER>
-13.9603

>  <SCORE.INTER.CONST>
1

>  <SCORE.INTER.POLAR>
0

>  <SCORE.INTER.ROT>
0

>  <SCORE.INTER.SOLV>
5.45559

>  <SCORE.INTER.VDW>
-14.7254

>  <SCORE.INTER.norm>
-1.26912

>  <SCORE.INTRA>
0

>  <SCORE.INTRA.DIHEDRAL>
0

>  <SCORE.INTRA.DIHEDRAL.0>
0

>  <SCORE.INTRA.POLAR>
0

>  <SCORE.INTRA.POLAR.0>
0

>  <SCORE.INTRA.REPUL>
0

>  <SCORE.INTRA.REPUL.0>
0

>  <SCORE.INTRA.SOLV>
0

>  <SCORE.INTRA.SOLV.lig_0>
-29.307

>  <SCORE.INTRA.VDW>
0

>  <SCORE.INTRA.VDW.0>
0

>  <SCORE.INTRA.norm>
0

>  <SCORE.RESTR>
0

>  <SCORE.RESTR.CAVITY>
0

>  <SCORE.RESTR.norm>
0

>  <SCORE.SYSTEM>
0

>  <SCORE.SYSTEM.CONST>
0

>  <SCORE.SYSTEM.DIHEDRAL>
0

>  <SCORE.SYSTEM.SOLV>
0

>  <SCORE.SYSTEM.norm>
0

>  <SCORE.heavy>
11

>  <SCORE.norm>
-1.26912

>  <RMSD>
3.443

$$$$
ligand
 OpenBabel11021811503D
libRbt.so/2013.1/901 2013/11/27
 11 12  0  0  0  0  0  0  0  0999 V2000
    3.4602  -19.7234   25.1981 N   0  0  0  0  0  0  0  0  0  0  0  0
    3.2721  -20.4520   24.0836 C   0  0  0  0  0  0  0  0  0  0  0  0
    4.3304  -20.6112   23.1391 N   0  0  0  0  0  0  0  0  0  0  0  0
    2.1099  -21.0557   23.8179 N   0  0  0  0  0  0  0  0  0  0  0  0
    1.0396  -20.9404   24.6721 C   0  0  0  0  0  0  0  0  0  0  0  0
    1.1933  -20.2028   25.8258 C   0  0  0  0  0  0  0  0  0  0  0  0
    2.4499  -19.5856   26.0902 C   0  0  0  0  0  0  0  0  0  0  0  0
    2.6154  -18.8421   27.2374 O   0  0  0  0  0  0  0  0  0  0  0  0
   -0.0591  -20.2672   26.5155 C   0  0  0  0  0  0  0  0  0  0  0  0
   -0.9108  -21.0476   25.7213 C   0  0  0  0  0  0  0  0  0  0  0  0
   -0.2431  -21.4391   24.6287 N   0  0  0  0  0  0  0  0  0  0  0  0
  1  2  1  0  0  0  0
  1  7  1  0  0  0  0
  2  3  1  0  0  0  0
  2  4  2  0  0  0  0
  4  5  1  0  0  0  0
  5  6  2  0  0  0  0
  5 11  1  0  0  0  0
  6  7  1  0  0  0  0
  6  9  1  0  0  0  0
  7  8  2  0  0  0  0
  9 10  2  0  0  0  0
 10 11  1  0  0  0  0
M  END
>  <CHROM.1>
1.81142596,-20.35449566,25.17822268,-0.25575118,0.31099685,1.03883912

>  <Name>
ligand

>  <RI>
0

>  <Rbt.Current_Directory>
/home/itssahil/PROJECTS/Mol_Feturizer/New_Systems/rnas/4LVW

>  <Rbt.Executable>
rbdock ($Id: //depot/dev/client3/rdock/2013.1/src/exe/rbdock.cxx#4 $)

>  <Rbt.Library>
libRbt.so (2013.1, Build901 2013/11/27)

>  <Rbt.Parameter_File>
/export/apps/rDock/src/rDock_2013.1_src/data/scripts/dock_solv.prm

>  <Rbt.Receptor>
prm/pocket_docking_5.prm

>  <SCORE>
-13.9554

>  <SCORE.INTER>
-13.9554

>  <SCORE.INTER.CONST>
1

>  <SCORE.INTER.POLAR>
0

>  <SCORE.INTER.ROT>
0

>  <SCORE.INTER.SOLV>
5.4769

>  <SCORE.INTER.VDW>
-14.7293

>  <SCORE.INTER.norm>
-1.26868

>  <SCORE.INTRA>
0

>  <SCORE.INTRA.DIHEDRAL>
0

>  <SCORE.INTRA.DIHEDRAL.0>
0

>  <SCORE.INTRA.POLAR>
0

>  <SCORE.INTRA.POLAR.0>
0

>  <SCORE.INTRA.REPUL>
0

>  <SCORE.INTRA.REPUL.0>
0

>  <SCORE.INTRA.SOLV>
0

>  <SCORE.INTRA.SOLV.lig_0>
-29.307

>  <SCORE.INTRA.VDW>
0

>  <SCORE.INTRA.VDW.0>
0

>  <SCORE.INTRA.norm>
0

>  <SCORE.RESTR>
0

>  <SCORE.RESTR.CAVITY>
0

>  <SCORE.RESTR.norm>
0

>  <SCORE.SYSTEM>
0

>  <SCORE.SYSTEM.CONST>
0

>  <SCORE.SYSTEM.DIHEDRAL>
0

>  <SCORE.SYSTEM.SOLV>
0

>  <SCORE.SYSTEM.norm>
0

>  <SCORE.heavy>
11

>  <SCORE.norm>
-1.26868

>  <RMSD>
3.443

$$$$
ligand
 OpenBabel11021811503D
libRbt.so/2013.1/901 2013/11/27
 11 12  0  0  0  0  0  0  0  0999 V2000
    3.4604  -19.7274   25.1957 N   0  0  0  0  0  0  0  0  0  0  0  0
    3.2712  -20.4559   24.0813 C   0  0  0  0  0  0  0  0  0  0  0  0
    4.3289  -20.6160   23.1363 N   0  0  0  0  0  0  0  0  0  0  0  0
    2.1084  -21.0587   23.8162 N   0  0  0  0  0  0  0  0  0  0  0  0
    1.0386  -20.9425   24.6709 C   0  0  0  0  0  0  0  0  0  0  0  0
    1.1934  -20.2049   25.8245 C   0  0  0  0  0  0  0  0  0  0  0  0
    2.4506  -19.5888   26.0882 C   0  0  0  0  0  0  0  0  0  0  0  0
    2.6172  -18.8453   27.2353 O   0  0  0  0  0  0  0  0  0  0  0  0
   -0.0587  -20.2683   26.5147 C   0  0  0  0  0  0  0  0  0  0  0  0
   -0.9114  -21.0481   25.7210 C   0  0  0  0  0  0  0  0  0  0  0  0
   -0.2445  -21.4401   24.6281 N   0  0  0  0  0  0  0  0  0  0  0  0
  1  2  1  0  0  0  0
  1  7  1  0  0  0  0
  2  3  1  0  0  0  0
  2  4  2  0  0  0  0
  4  5  1  0  0  0  0
  5  6  2  0  0  0  0
  5 11  1  0  0  0  0
  6  7  1  0  0  0  0
  6  9  1  0  0  0  0
  7  8  2  0  0  0  0
  9 10  2  0  0  0  0
 10 11  1  0  0  0  0
M  END
>  <CHROM.1>
1.81110877,-20.35717783,25.17660093,-0.25659630,0.31054336,1.03905063

>  <Name>
ligand

>  <RI>
0

>  <Rbt.Current_Directory>
/home/itssahil/PROJECTS/Mol_Feturizer/New_Systems/rnas/4LVW

>  <Rbt.Executable>
rbdock ($Id: //depot/dev/client3/rdock/2013.1/src/exe/rbdock.cxx#4 $)

>  <Rbt.Library>
libRbt.so (2013.1, Build901 2013/11/27)

>  <Rbt.Parameter_File>
/export/apps/rDock/src/rDock_2013.1_src/data/scripts/dock_solv.prm

>  <Rbt.Receptor>
prm/pocket_docking_5.prm

>  <SCORE>
-13.9539

>  <SCORE.INTER>
-13.9539

>  <SCORE.INTER.CONST>
1

>  <SCORE.INTER.POLAR>
0

>  <SCORE.INTER.ROT>
0

>  <SCORE.INTER.SOLV>
5.49211

>  <SCORE.INTER.VDW>
-14.7333

>  <SCORE.INTER.norm>
-1.26853

>  <SCORE.INTRA>
0

>  <SCORE.INTRA.DIHEDRAL>
0

>  <SCORE.INTRA.DIHEDRAL.0>
0

>  <SCORE.INTRA.POLAR>
0

>  <SCORE.INTRA.POLAR.0>
0

>  <SCORE.INTRA.REPUL>
0

>  <SCORE.INTRA.REPUL.0>
0

>  <SCORE.INTRA.SOLV>
0

>  <SCORE.INTRA.SOLV.lig_0>
-29.307

>  <SCORE.INTRA.VDW>
0

>  <SCORE.INTRA.VDW.0>
0

>  <SCORE.INTRA.norm>
0

>  <SCORE.RESTR>
0

>  <SCORE.RESTR.CAVITY>
0

>  <SCORE.RESTR.norm>
0

>  <SCORE.SYSTEM>
0

>  <SCORE.SYSTEM.CONST>
0

>  <SCORE.SYSTEM.DIHEDRAL>
0

>  <SCORE.SYSTEM.SOLV>
0

>  <SCORE.SYSTEM.norm>
0

>  <SCORE.heavy>
11

>  <SCORE.norm>
-1.26853

>  <RMSD>
3.443

$$$$
ligand
 OpenBabel11021811503D
libRbt.so/2013.1/901 2013/11/27
 11 12  0  0  0  0  0  0  0  0999 V2000
    3.4572  -19.7252   25.2139 N   0  0  0  0  0  0  0  0  0  0  0  0
    3.2702  -20.4433   24.0924 C   0  0  0  0  0  0  0  0  0  0  0  0
    4.3298  -20.5946   23.1480 N   0  0  0  0  0  0  0  0  0  0  0  0
    2.1080  -21.0438   23.8195 N   0  0  0  0  0  0  0  0  0  0  0  0
    1.0365  -20.9355   24.6732 C   0  0  0  0  0  0  0  0  0  0  0  0
    1.1891  -20.2087   25.8339 C   0  0  0  0  0  0  0  0  0  0  0  0
    2.4457  -19.5949   26.1057 C   0  0  0  0  0  0  0  0  0  0  0  0
    2.6101  -18.8621   27.2600 O   0  0  0  0  0  0  0  0  0  0  0  0
   -0.0643  -20.2786   26.5211 C   0  0  0  0  0  0  0  0  0  0  0  0
   -0.9155  -21.0510   25.7186 C   0  0  0  0  0  0  0  0  0  0  0  0
   -0.2465  -21.4328   24.6234 N   0  0  0  0  0  0  0  0  0  0  0  0
  1  2  1  0  0  0  0
  1  7  1  0  0  0  0
  2  3  1  0  0  0  0
  2  4  2  0  0  0  0
  4  5  1  0  0  0  0
  5  6  2  0  0  0  0
  5 11  1  0  0  0  0
  6  7  1  0  0  0  0
  6  9  1  0  0  0  0
  7  8  2  0  0  0  0
  9 10  2  0  0  0  0
 10 11  1  0  0  0  0
M  END
>  <CHROM.1>
1.80801793,-20.35486849,25.18583187,-0.25482702,0.30965091,1.04777945

>  <Name>
ligand

>  <RI>
0

>  <Rbt.Current_Directory>
/home/itssahil/PROJECTS/Mol_Feturizer/New_Systems/rnas/4LVW

>  <Rbt.Executable>
rbdock ($Id: //depot/dev/client3/rdock/2013.1/src/exe/rbdock.cxx#4 $)

>  <Rbt.Library>
libRbt.so (2013.1, Build901 2013/11/27)

>  <Rbt.Parameter_File>
/export/apps/rDock/src/rDock_2013.1_src/data/scripts/dock_solv.prm

>  <Rbt.Receptor>
prm/pocket_docking_5.prm

>  <SCORE>
-13.9423

>  <SCORE.INTER>
-13.9423

>  <SCORE.INTER.CONST>
1

>  <SCORE.INTER.POLAR>
0

>  <SCORE.INTER.ROT>
0

>  <SCORE.INTER.SOLV>
5.42909

>  <SCORE.INTER.VDW>
-14.7046

>  <SCORE.INTER.norm>
-1.26749

>  <SCORE.INTRA>
0

>  <SCORE.INTRA.DIHEDRAL>
0

>  <SCORE.INTRA.DIHEDRAL.0>
0

>  <SCORE.INTRA.POLAR>
0

>  <SCORE.INTRA.POLAR.0>
0

>  <SCORE.INTRA.REPUL>
0

>  <SCORE.INTRA.REPUL.0>
0

>  <SCORE.INTRA.SOLV>
0

>  <SCORE.INTRA.SOLV.lig_0>
-29.307

>  <SCORE.INTRA.VDW>
0

>  <SCORE.INTRA.VDW.0>
0

>  <SCORE.INTRA.norm>
0

>  <SCORE.RESTR>
0

>  <SCORE.RESTR.CAVITY>
0

>  <SCORE.RESTR.norm>
0

>  <SCORE.SYSTEM>
0

>  <SCORE.SYSTEM.CONST>
0

>  <SCORE.SYSTEM.DIHEDRAL>
0

>  <SCORE.SYSTEM.SOLV>
0

>  <SCORE.SYSTEM.norm>
0

>  <SCORE.heavy>
11

>  <SCORE.norm>
-1.26749

>  <RMSD>
3.443

$$$$
ligand
 OpenBabel11021811503D
libRbt.so/2013.1/901 2013/11/27
 11 12  0  0  0  0  0  0  0  0999 V2000
    3.4552  -19.7327   25.2102 N   0  0  0  0  0  0  0  0  0  0  0  0
    3.2664  -20.4476   24.0870 C   0  0  0  0  0  0  0  0  0  0  0  0
    4.3243  -20.5962   23.1404 N   0  0  0  0  0  0  0  0  0  0  0  0
    2.1036  -21.0473   23.8144 N   0  0  0  0  0  0  0  0  0  0  0  0
    1.0336  -20.9414   24.6701 C   0  0  0  0  0  0  0  0  0  0  0  0
    1.1881  -20.2179   25.8326 C   0  0  0  0  0  0  0  0  0  0  0  0
    2.4452  -19.6049   26.1041 C   0  0  0  0  0  0  0  0  0  0  0  0
    2.6115  -18.8754   27.2601 O   0  0  0  0  0  0  0  0  0  0  0  0
   -0.0641  -20.2897   26.5217 C   0  0  0  0  0  0  0  0  0  0  0  0
   -0.9166  -21.0598   25.7184 C   0  0  0  0  0  0  0  0  0  0  0  0
   -0.2495  -21.4386   24.6210 N   0  0  0  0  0  0  0  0  0  0  0  0
  1  2  1  0  0  0  0
  1  7  1  0  0  0  0
  2  3  1  0  0  0  0
  2  4  2  0  0  0  0
  4  5  1  0  0  0  0
  5  6  2  0  0  0  0
  5 11  1  0  0  0  0
  6  7  1  0  0  0  0
  6  9  1  0  0  0  0
  7  8  2  0  0  0  0
  9 10  2  0  0  0  0
 10 11  1  0  0  0  0
M  END
>  <CHROM.1>
1.80598322,-20.36224401,25.18309209,-0.25636092,0.31045767,1.05107903

>  <Name>
ligand

>  <RI>
0

>  <Rbt.Current_Directory>
/home/itssahil/PROJECTS/Mol_Feturizer/New_Systems/rnas/4LVW

>  <Rbt.Executable>
rbdock ($Id: //depot/dev/client3/rdock/2013.1/src/exe/rbdock.cxx#4 $)

>  <Rbt.Library>
libRbt.so (2013.1, Build901 2013/11/27)

>  <Rbt.Parameter_File>
/export/apps/rDock/src/rDock_2013.1_src/data/scripts/dock_solv.prm

>  <Rbt.Receptor>
prm/pocket_docking_5.prm

>  <SCORE>
-13.9395

>  <SCORE.INTER>
-13.9395

>  <SCORE.INTER.CONST>
1

>  <SCORE.INTER.POLAR>
0

>  <SCORE.INTER.ROT>
0

>  <SCORE.INTER.SOLV>
5.44979

>  <SCORE.INTER.VDW>
-14.7096

>  <SCORE.INTER.norm>
-1.26723

>  <SCORE.INTRA>
0

>  <SCORE.INTRA.DIHEDRAL>
0

>  <SCORE.INTRA.DIHEDRAL.0>
0

>  <SCORE.INTRA.POLAR>
0

>  <SCORE.INTRA.POLAR.0>
0

>  <SCORE.INTRA.REPUL>
0

>  <SCORE.INTRA.REPUL.0>
0

>  <SCORE.INTRA.SOLV>
0

>  <SCORE.INTRA.SOLV.lig_0>
-29.307

>  <SCORE.INTRA.VDW>
0

>  <SCORE.INTRA.VDW.0>
0

>  <SCORE.INTRA.norm>
0

>  <SCORE.RESTR>
0

>  <SCORE.RESTR.CAVITY>
0

>  <SCORE.RESTR.norm>
0

>  <SCORE.SYSTEM>
0

>  <SCORE.SYSTEM.CONST>
0

>  <SCORE.SYSTEM.DIHEDRAL>
0

>  <SCORE.SYSTEM.SOLV>
0

>  <SCORE.SYSTEM.norm>
0

>  <SCORE.heavy>
11

>  <SCORE.norm>
-1.26723

>  <RMSD>
3.443

$$$$
ligand
 OpenBabel11021811503D
libRbt.so/2013.1/901 2013/11/27
 11 12  0  0  0  0  0  0  0  0999 V2000
    3.4416  -19.6874   25.2106 N   0  0  0  0  0  0  0  0  0  0  0  0
    3.2723  -20.4216   24.0968 C   0  0  0  0  0  0  0  0  0  0  0  0
    4.3352  -20.5564   23.1537 N   0  0  0  0  0  0  0  0  0  0  0  0
    2.1252  -21.0533   23.8305 N   0  0  0  0  0  0  0  0  0  0  0  0
    1.0515  -20.9626   24.6834 C   0  0  0  0  0  0  0  0  0  0  0  0
    1.1861  -20.2202   25.8364 C   0  0  0  0  0  0  0  0  0  0  0  0
    2.4272  -19.5728   26.1014 C   0  0  0  0  0  0  0  0  0  0  0  0
    2.5735  -18.8242   27.2479 O   0  0  0  0  0  0  0  0  0  0  0  0
   -0.0652  -20.3138   26.5247 C   0  0  0  0  0  0  0  0  0  0  0  0
   -0.8970  -21.1153   25.7305 C   0  0  0  0  0  0  0  0  0  0  0  0
   -0.2189  -21.4920   24.6391 N   0  0  0  0  0  0  0  0  0  0  0  0
  1  2  1  0  0  0  0
  1  7  1  0  0  0  0
  2  3  1  0  0  0  0
  2  4  2  0  0  0  0
  4  5  1  0  0  0  0
  5  6  2  0  0  0  0
  5 11  1  0  0  0  0
  6  7  1  0  0  0  0
  6  9  1  0  0  0  0
  7  8  2  0  0  0  0
  9 10  2  0  0  0  0
 10 11  1  0  0  0  0
M  END
>  <CHROM.1>
1.80840831,-20.35781962,25.18968667,-0.24184843,0.33103955,1.03327730

>  <Name>
ligand

>  <RI>
0

>  <Rbt.Current_Directory>
/home/itssahil/PROJECTS/Mol_Feturizer/New_Systems/rnas/4LVW

>  <Rbt.Executable>
rbdock ($Id: //depot/dev/client3/rdock/2013.1/src/exe/rbdock.cxx#4 $)

>  <Rbt.Library>
libRbt.so (2013.1, Build901 2013/11/27)

>  <Rbt.Parameter_File>
/export/apps/rDock/src/rDock_2013.1_src/data/scripts/dock_solv.prm

>  <Rbt.Receptor>
prm/pocket_docking_5.prm

>  <SCORE>
-13.9097

>  <SCORE.INTER>
-13.9097

>  <SCORE.INTER.CONST>
1

>  <SCORE.INTER.POLAR>
0

>  <SCORE.INTER.ROT>
0

>  <SCORE.INTER.SOLV>
5.3805

>  <SCORE.INTER.VDW>
-14.6666

>  <SCORE.INTER.norm>
-1.26451

>  <SCORE.INTRA>
0

>  <SCORE.INTRA.DIHEDRAL>
0

>  <SCORE.INTRA.DIHEDRAL.0>
0

>  <SCORE.INTRA.POLAR>
0

>  <SCORE.INTRA.POLAR.0>
0

>  <SCORE.INTRA.REPUL>
0

>  <SCORE.INTRA.REPUL.0>
0

>  <SCORE.INTRA.SOLV>
0

>  <SCORE.INTRA.SOLV.lig_0>
-29.307

>  <SCORE.INTRA.VDW>
0

>  <SCORE.INTRA.VDW.0>
0

>  <SCORE.INTRA.norm>
0

>  <SCORE.RESTR>
0

>  <SCORE.RESTR.CAVITY>
0

>  <SCORE.RESTR.norm>
0

>  <SCORE.SYSTEM>
0

>  <SCORE.SYSTEM.CONST>
0

>  <SCORE.SYSTEM.DIHEDRAL>
0

>  <SCORE.SYSTEM.SOLV>
0

>  <SCORE.SYSTEM.norm>
0

>  <SCORE.heavy>
11

>  <SCORE.norm>
-1.26451

>  <RMSD>
3.443

$$$$
ligand
 OpenBabel11021811503D
libRbt.so/2013.1/901 2013/11/27
 11 12  0  0  0  0  0  0  0  0999 V2000
    3.4563  -19.7130   25.1932 N   0  0  0  0  0  0  0  0  0  0  0  0
    3.2677  -20.4382   24.0766 C   0  0  0  0  0  0  0  0  0  0  0  0
    4.3238  -20.5897   23.1283 N   0  0  0  0  0  0  0  0  0  0  0  0
    2.1071  -21.0456   23.8122 N   0  0  0  0  0  0  0  0  0  0  0  0
    1.0390  -20.9377   24.6700 C   0  0  0  0  0  0  0  0  0  0  0  0
    1.1932  -20.2037   25.8260 C   0  0  0  0  0  0  0  0  0  0  0  0
    2.4481  -19.5825   26.0888 C   0  0  0  0  0  0  0  0  0  0  0  0
    2.6141  -18.8426   27.2383 O   0  0  0  0  0  0  0  0  0  0  0  0
   -0.0568  -20.2756   26.5191 C   0  0  0  0  0  0  0  0  0  0  0  0
   -0.9078  -21.0565   25.7246 C   0  0  0  0  0  0  0  0  0  0  0  0
   -0.2419  -21.4413   24.6286 N   0  0  0  0  0  0  0  0  0  0  0  0
  1  2  1  0  0  0  0
  1  7  1  0  0  0  0
  2  3  1  0  0  0  0
  2  4  2  0  0  0  0
  4  5  1  0  0  0  0
  5  6  2  0  0  0  0
  5 11  1  0  0  0  0
  6  7  1  0  0  0  0
  6  9  1  0  0  0  0
  7  8  2  0  0  0  0
  9 10  2  0  0  0  0
 10 11  1  0  0  0  0
M  END
>  <CHROM.1>
1.80995805,-20.35055203,25.17596892,-0.25635840,0.31594407,1.04271343

>  <Name>
ligand

>  <RI>
0

>  <Rbt.Current_Directory>
/home/itssahil/PROJECTS/Mol_Feturizer/New_Systems/rnas/4LVW

>  <Rbt.Executable>
rbdock ($Id: //depot/dev/client3/rdock/2013.1/src/exe/rbdock.cxx#4 $)

>  <Rbt.Library>
libRbt.so (2013.1, Build901 2013/11/27)

>  <Rbt.Parameter_File>
/export/apps/rDock/src/rDock_2013.1_src/data/scripts/dock_solv.prm

>  <Rbt.Receptor>
prm/pocket_docking_5.prm

>  <SCORE>
-13.9557

>  <SCORE.INTER>
-13.9557

>  <SCORE.INTER.CONST>
1

>  <SCORE.INTER.POLAR>
0

>  <SCORE.INTER.ROT>
0

>  <SCORE.INTER.SOLV>
5.4884

>  <SCORE.INTER.VDW>
-14.7333

>  <SCORE.INTER.norm>
-1.2687

>  <SCORE.INTRA>
0

>  <SCORE.INTRA.DIHEDRAL>
0

>  <SCORE.INTRA.DIHEDRAL.0>
0

>  <SCORE.INTRA.POLAR>
0

>  <SCORE.INTRA.POLAR.0>
0

>  <SCORE.INTRA.REPUL>
0

>  <SCORE.INTRA.REPUL.0>
0

>  <SCORE.INTRA.SOLV>
0

>  <SCORE.INTRA.SOLV.lig_0>
-29.307

>  <SCORE.INTRA.VDW>
0

>  <SCORE.INTRA.VDW.0>
0

>  <SCORE.INTRA.norm>
0

>  <SCORE.RESTR>
0

>  <SCORE.RESTR.CAVITY>
0

>  <SCORE.RESTR.norm>
0

>  <SCORE.SYSTEM>
0

>  <SCORE.SYSTEM.CONST>
0

>  <SCORE.SYSTEM.DIHEDRAL>
0

>  <SCORE.SYSTEM.SOLV>
0

>  <SCORE.SYSTEM.norm>
0

>  <SCORE.heavy>
11

>  <SCORE.norm>
-1.2687

>  <RMSD>
3.443

$$$$
ligand
 OpenBabel11021811503D
libRbt.so/2013.1/901 2013/11/27
 11 12  0  0  0  0  0  0  0  0999 V2000
    3.4606  -19.7264   25.1934 N   0  0  0  0  0  0  0  0  0  0  0  0
    3.2703  -20.4544   24.0789 C   0  0  0  0  0  0  0  0  0  0  0  0
    4.3273  -20.6144   23.1330 N   0  0  0  0  0  0  0  0  0  0  0  0
    2.1071  -21.0568   23.8144 N   0  0  0  0  0  0  0  0  0  0  0  0
    1.0380  -20.9405   24.6700 C   0  0  0  0  0  0  0  0  0  0  0  0
    1.1939  -20.2035   25.8238 C   0  0  0  0  0  0  0  0  0  0  0  0
    2.4515  -19.5878   26.0868 C   0  0  0  0  0  0  0  0  0  0  0  0
    2.6192  -18.8449   27.2340 O   0  0  0  0  0  0  0  0  0  0  0  0
   -0.0577  -20.2668   26.5149 C   0  0  0  0  0  0  0  0  0  0  0  0
   -0.9112  -21.0459   25.7215 C   0  0  0  0  0  0  0  0  0  0  0  0
   -0.2453  -21.4378   24.6280 N   0  0  0  0  0  0  0  0  0  0  0  0
  1  2  1  0  0  0  0
  1  7  1  0  0  0  0
  2  3  1  0  0  0  0
  2  4  2  0  0  0  0
  4  5  1  0  0  0  0
  5  6  2  0  0  0  0
  5 11  1  0  0  0  0
  6  7  1  0  0  0  0
  6  9  1  0  0  0  0
  7  8  2  0  0  0  0
  9 10  2  0  0  0  0
 10 11  1  0  0  0  0
M  END
>  <CHROM.1>
1.81107133,-20.35564610,25.17536365,-0.25744097,0.31066577,1.03969434

>  <Name>
ligand

>  <RI>
0

>  <Rbt.Current_Directory>
/home/itssahil/PROJECTS/Mol_Feturizer/New_Systems/rnas/4LVW

>  <Rbt.Executable>
rbdock ($Id: //depot/dev/client3/rdock/2013.1/src/exe/rbdock.cxx#4 $)

>  <Rbt.Library>
libRbt.so (2013.1, Build901 2013/11/27)

>  <Rbt.Parameter_File>
/export/apps/rDock/src/rDock_2013.1_src/data/scripts/dock_solv.prm

>  <Rbt.Receptor>
prm/pocket_docking_5.prm

>  <SCORE>
-13.9527

>  <SCORE.INTER>
-13.9527

>  <SCORE.INTER.CONST>
1

>  <SCORE.INTER.POLAR>
0

>  <SCORE.INTER.ROT>
0

>  <SCORE.INTER.SOLV>
5.50214

>  <SCORE.INTER.VDW>
-14.7359

>  <SCORE.INTER.norm>
-1.26843

>  <SCORE.INTRA>
0

>  <SCORE.INTRA.DIHEDRAL>
0

>  <SCORE.INTRA.DIHEDRAL.0>
0

>  <SCORE.INTRA.POLAR>
0

>  <SCORE.INTRA.POLAR.0>
0

>  <SCORE.INTRA.REPUL>
0

>  <SCORE.INTRA.REPUL.0>
0

>  <SCORE.INTRA.SOLV>
0

>  <SCORE.INTRA.SOLV.lig_0>
-29.307

>  <SCORE.INTRA.VDW>
0

>  <SCORE.INTRA.VDW.0>
0

>  <SCORE.INTRA.norm>
0

>  <SCORE.RESTR>
0

>  <SCORE.RESTR.CAVITY>
0

>  <SCORE.RESTR.norm>
0

>  <SCORE.SYSTEM>
0

>  <SCORE.SYSTEM.CONST>
0

>  <SCORE.SYSTEM.DIHEDRAL>
0

>  <SCORE.SYSTEM.SOLV>
0

>  <SCORE.SYSTEM.norm>
0

>  <SCORE.heavy>
11

>  <SCORE.norm>
-1.26843

>  <RMSD>
3.443

$$$$
ligand
 OpenBabel11021811503D
libRbt.so/2013.1/901 2013/11/27
 11 12  0  0  0  0  0  0  0  0999 V2000
    3.4597  -19.7312   25.1932 N   0  0  0  0  0  0  0  0  0  0  0  0
    3.2701  -20.4608   24.0797 C   0  0  0  0  0  0  0  0  0  0  0  0
    4.3275  -20.6216   23.1344 N   0  0  0  0  0  0  0  0  0  0  0  0
    2.1073  -21.0641   23.8157 N   0  0  0  0  0  0  0  0  0  0  0  0
    1.0379  -20.9472   24.6707 C   0  0  0  0  0  0  0  0  0  0  0  0
    1.1931  -20.2084   25.8236 C   0  0  0  0  0  0  0  0  0  0  0  0
    2.4503  -19.5918   26.0861 C   0  0  0  0  0  0  0  0  0  0  0  0
    2.6173  -18.8472   27.2324 O   0  0  0  0  0  0  0  0  0  0  0  0
   -0.0587  -20.2713   26.5144 C   0  0  0  0  0  0  0  0  0  0  0  0
   -0.9116  -21.0520   25.7218 C   0  0  0  0  0  0  0  0  0  0  0  0
   -0.2452  -21.4450   24.6290 N   0  0  0  0  0  0  0  0  0  0  0  0
  1  2  1  0  0  0  0
  1  7  1  0  0  0  0
  2  3  1  0  0  0  0
  2  4  2  0  0  0  0
  4  5  1  0  0  0  0
  5  6  2  0  0  0  0
  5 11  1  0  0  0  0
  6  7  1  0  0  0  0
  6  9  1  0  0  0  0
  7  8  2  0  0  0  0
  9 10  2  0  0  0  0
 10 11  1  0  0  0  0
M  END
>  <CHROM.1>
1.81051943,-20.36121101,25.17554467,-0.25691907,0.31090683,1.03815497

>  <Name>
ligand

>  <RI>
0

>  <Rbt.Current_Directory>
/home/itssahil/PROJECTS/Mol_Feturizer/New_Systems/rnas/4LVW

>  <Rbt.Executable>
rbdock ($Id: //depot/dev/client3/rdock/2013.1/src/exe/rbdock.cxx#4 $)

>  <Rbt.Library>
libRbt.so (2013.1, Build901 2013/11/27)

>  <Rbt.Parameter_File>
/export/apps/rDock/src/rDock_2013.1_src/data/scripts/dock_solv.prm

>  <Rbt.Receptor>
prm/pocket_docking_5.prm

>  <SCORE>
-13.9509

>  <SCORE.INTER>
-13.9509

>  <SCORE.INTER.CONST>
1

>  <SCORE.INTER.POLAR>
0

>  <SCORE.INTER.ROT>
0

>  <SCORE.INTER.SOLV>
5.50746

>  <SCORE.INTER.VDW>
-14.7365

>  <SCORE.INTER.norm>
-1.26827

>  <SCORE.INTRA>
0

>  <SCORE.INTRA.DIHEDRAL>
0

>  <SCORE.INTRA.DIHEDRAL.0>
0

>  <SCORE.INTRA.POLAR>
0

>  <SCORE.INTRA.POLAR.0>
0

>  <SCORE.INTRA.REPUL>
0

>  <SCORE.INTRA.REPUL.0>
0

>  <SCORE.INTRA.SOLV>
0

>  <SCORE.INTRA.SOLV.lig_0>
-29.307

>  <SCORE.INTRA.VDW>
0

>  <SCORE.INTRA.VDW.0>
0

>  <SCORE.INTRA.norm>
0

>  <SCORE.RESTR>
0

>  <SCORE.RESTR.CAVITY>
0

>  <SCORE.RESTR.norm>
0

>  <SCORE.SYSTEM>
0

>  <SCORE.SYSTEM.CONST>
0

>  <SCORE.SYSTEM.DIHEDRAL>
0

>  <SCORE.SYSTEM.SOLV>
0

>  <SCORE.SYSTEM.norm>
0

>  <SCORE.heavy>
11

>  <SCORE.norm>
-1.26827

>  <RMSD>
3.443

$$$$
ligand
 OpenBabel11021811503D
libRbt.so/2013.1/901 2013/11/27
 11 12  0  0  0  0  0  0  0  0999 V2000
    3.4587  -19.7238   25.1959 N   0  0  0  0  0  0  0  0  0  0  0  0
    3.2703  -20.4519   24.0812 C   0  0  0  0  0  0  0  0  0  0  0  0
    4.3279  -20.6096   23.1356 N   0  0  0  0  0  0  0  0  0  0  0  0
    2.1084  -21.0565   23.8161 N   0  0  0  0  0  0  0  0  0  0  0  0
    1.0388  -20.9426   24.6713 C   0  0  0  0  0  0  0  0  0  0  0  0
    1.1928  -20.2055   25.8254 C   0  0  0  0  0  0  0  0  0  0  0  0
    2.4490  -19.5874   26.0889 C   0  0  0  0  0  0  0  0  0  0  0  0
    2.6148  -18.8444   27.2365 O   0  0  0  0  0  0  0  0  0  0  0  0
   -0.0590  -20.2715   26.5160 C   0  0  0  0  0  0  0  0  0  0  0  0
   -0.9107  -21.0521   25.7221 C   0  0  0  0  0  0  0  0  0  0  0  0
   -0.2435  -21.4424   24.6287 N   0  0  0  0  0  0  0  0  0  0  0  0
  1  2  1  0  0  0  0
  1  7  1  0  0  0  0
  2  3  1  0  0  0  0
  2  4  2  0  0  0  0
  4  5  1  0  0  0  0
  5  6  2  0  0  0  0
  5 11  1  0  0  0  0
  6  7  1  0  0  0  0
  6  9  1  0  0  0  0
  7  8  2  0  0  0  0
  9 10  2  0  0  0  0
 10 11  1  0  0  0  0
M  END
>  <CHROM.1>
1.81045306,-20.35630031,25.17711954,-0.25605417,0.31220624,1.03951244

>  <Name>
ligand

>  <RI>
0

>  <Rbt.Current_Directory>
/home/itssahil/PROJECTS/Mol_Feturizer/New_Systems/rnas/4LVW

>  <Rbt.Executable>
rbdock ($Id: //depot/dev/client3/rdock/2013.1/src/exe/rbdock.cxx#4 $)

>  <Rbt.Library>
libRbt.so (2013.1, Build901 2013/11/27)

>  <Rbt.Parameter_File>
/export/apps/rDock/src/rDock_2013.1_src/data/scripts/dock_solv.prm

>  <Rbt.Receptor>
prm/pocket_docking_5.prm

>  <SCORE>
-13.9555

>  <SCORE.INTER>
-13.9555

>  <SCORE.INTER.CONST>
1

>  <SCORE.INTER.POLAR>
0

>  <SCORE.INTER.ROT>
0

>  <SCORE.INTER.SOLV>
5.48546

>  <SCORE.INTER.VDW>
-14.7322

>  <SCORE.INTER.norm>
-1.26868

>  <SCORE.INTRA>
0

>  <SCORE.INTRA.DIHEDRAL>
0

>  <SCORE.INTRA.DIHEDRAL.0>
0

>  <SCORE.INTRA.POLAR>
0

>  <SCORE.INTRA.POLAR.0>
0

>  <SCORE.INTRA.REPUL>
0

>  <SCORE.INTRA.REPUL.0>
0

>  <SCORE.INTRA.SOLV>
0

>  <SCORE.INTRA.SOLV.lig_0>
-29.307

>  <SCORE.INTRA.VDW>
0

>  <SCORE.INTRA.VDW.0>
0

>  <SCORE.INTRA.norm>
0

>  <SCORE.RESTR>
0

>  <SCORE.RESTR.CAVITY>
0

>  <SCORE.RESTR.norm>
0

>  <SCORE.SYSTEM>
0

>  <SCORE.SYSTEM.CONST>
0

>  <SCORE.SYSTEM.DIHEDRAL>
0

>  <SCORE.SYSTEM.SOLV>
0

>  <SCORE.SYSTEM.norm>
0

>  <SCORE.heavy>
11

>  <SCORE.norm>
-1.26868

>  <RMSD>
3.443

$$$$
ligand
 OpenBabel11021811503D
libRbt.so/2013.1/901 2013/11/27
 11 12  0  0  0  0  0  0  0  0999 V2000
    3.4533  -19.7305   25.2166 N   0  0  0  0  0  0  0  0  0  0  0  0
    3.2652  -20.4490   24.0956 C   0  0  0  0  0  0  0  0  0  0  0  0
    4.3236  -20.5998   23.1497 N   0  0  0  0  0  0  0  0  0  0  0  0
    2.1030  -21.0503   23.8244 N   0  0  0  0  0  0  0  0  0  0  0  0
    1.0327  -20.9426   24.6795 C   0  0  0  0  0  0  0  0  0  0  0  0
    1.1864  -20.2154   25.8399 C   0  0  0  0  0  0  0  0  0  0  0  0
    2.4429  -19.6007   26.1098 C   0  0  0  0  0  0  0  0  0  0  0  0
    2.6084  -18.8675   27.2636 O   0  0  0  0  0  0  0  0  0  0  0  0
   -0.0661  -20.2859   26.5288 C   0  0  0  0  0  0  0  0  0  0  0  0
   -0.9178  -21.0591   25.7276 C   0  0  0  0  0  0  0  0  0  0  0  0
   -0.2500  -21.4408   24.6316 N   0  0  0  0  0  0  0  0  0  0  0  0
  1  2  1  0  0  0  0
  1  7  1  0  0  0  0
  2  3  1  0  0  0  0
  2  4  2  0  0  0  0
  4  5  1  0  0  0  0
  5  6  2  0  0  0  0
  5 11  1  0  0  0  0
  6  7  1  0  0  0  0
  6  9  1  0  0  0  0
  7  8  2  0  0  0  0
  9 10  2  0  0  0  0
 10 11  1  0  0  0  0
M  END
>  <CHROM.1>
1.80449414,-20.36129894,25.19094213,-0.25572489,0.31092575,1.04781449

>  <Name>
ligand

>  <RI>
0

>  <Rbt.Current_Directory>
/home/itssahil/PROJECTS/Mol_Feturizer/New_Systems/rnas/4LVW

>  <Rbt.Executable>
rbdock ($Id: //depot/dev/client3/rdock/2013.1/src/exe/rbdock.cxx#4 $)

>  <Rbt.Library>
libRbt.so (2013.1, Build901 2013/11/27)

>  <Rbt.Parameter_File>
/export/apps/rDock/src/rDock_2013.1_src/data/scripts/dock_solv.prm

>  <Rbt.Receptor>
prm/pocket_docking_5.prm

>  <SCORE>
-13.939

>  <SCORE.INTER>
-13.939

>  <SCORE.INTER.CONST>
1

>  <SCORE.INTER.POLAR>
0

>  <SCORE.INTER.ROT>
0

>  <SCORE.INTER.SOLV>
5.44543

>  <SCORE.INTER.VDW>
-14.7078

>  <SCORE.INTER.norm>
-1.26718

>  <SCORE.INTRA>
0

>  <SCORE.INTRA.DIHEDRAL>
0

>  <SCORE.INTRA.DIHEDRAL.0>
0

>  <SCORE.INTRA.POLAR>
0

>  <SCORE.INTRA.POLAR.0>
0

>  <SCORE.INTRA.REPUL>
0

>  <SCORE.INTRA.REPUL.0>
0

>  <SCORE.INTRA.SOLV>
0

>  <SCORE.INTRA.SOLV.lig_0>
-29.307

>  <SCORE.INTRA.VDW>
0

>  <SCORE.INTRA.VDW.0>
0

>  <SCORE.INTRA.norm>
0

>  <SCORE.RESTR>
0

>  <SCORE.RESTR.CAVITY>
0

>  <SCORE.RESTR.norm>
0

>  <SCORE.SYSTEM>
0

>  <SCORE.SYSTEM.CONST>
0

>  <SCORE.SYSTEM.DIHEDRAL>
0

>  <SCORE.SYSTEM.SOLV>
0

>  <SCORE.SYSTEM.norm>
0

>  <SCORE.heavy>
11

>  <SCORE.norm>
-1.26718

>  <RMSD>
3.443

$$$$
ligand
 OpenBabel11021811503D
libRbt.so/2013.1/901 2013/11/27
 11 12  0  0  0  0  0  0  0  0999 V2000
    3.4502  -19.7344   25.2319 N   0  0  0  0  0  0  0  0  0  0  0  0
    3.2672  -20.4542   24.1109 C   0  0  0  0  0  0  0  0  0  0  0  0
    4.3293  -20.6046   23.1691 N   0  0  0  0  0  0  0  0  0  0  0  0
    2.1067  -21.0571   23.8359 N   0  0  0  0  0  0  0  0  0  0  0  0
    1.0331  -20.9499   24.6869 C   0  0  0  0  0  0  0  0  0  0  0  0
    1.1815  -20.2213   25.8471 C   0  0  0  0  0  0  0  0  0  0  0  0
    2.4363  -19.6048   26.1211 C   0  0  0  0  0  0  0  0  0  0  0  0
    2.5965  -18.8703   27.2749 O   0  0  0  0  0  0  0  0  0  0  0  0
   -0.0734  -20.2927   26.5314 C   0  0  0  0  0  0  0  0  0  0  0  0
   -0.9212  -21.0677   25.7278 C   0  0  0  0  0  0  0  0  0  0  0  0
   -0.2489  -21.4497   24.6346 N   0  0  0  0  0  0  0  0  0  0  0  0
  1  2  1  0  0  0  0
  1  7  1  0  0  0  0
  2  3  1  0  0  0  0
  2  4  2  0  0  0  0
  4  5  1  0  0  0  0
  5  6  2  0  0  0  0
  5 11  1  0  0  0  0
  6  7  1  0  0  0  0
  6  9  1  0  0  0  0
  7  8  2  0  0  0  0
  9 10  2  0  0  0  0
 10 11  1  0  0  0  0
M  END
>  <CHROM.1>
1.80223082,-20.36714804,25.20065386,-0.25166186,0.31009392,1.04557723

>  <Name>
ligand

>  <RI>
0

>  <Rbt.Current_Directory>
/home/itssahil/PROJECTS/Mol_Feturizer/New_Systems/rnas/4LVW

>  <Rbt.Executable>
rbdock ($Id: //depot/dev/client3/rdock/2013.1/src/exe/rbdock.cxx#4 $)

>  <Rbt.Library>
libRbt.so (2013.1, Build901 2013/11/27)

>  <Rbt.Parameter_File>
/export/apps/rDock/src/rDock_2013.1_src/data/scripts/dock_solv.prm

>  <Rbt.Receptor>
prm/pocket_docking_5.prm

>  <SCORE>
-13.9261

>  <SCORE.INTER>
-13.9261

>  <SCORE.INTER.CONST>
1

>  <SCORE.INTER.POLAR>
0

>  <SCORE.INTER.ROT>
0

>  <SCORE.INTER.SOLV>
5.41041

>  <SCORE.INTER.VDW>
-14.6876

>  <SCORE.INTER.norm>
-1.26601

>  <SCORE.INTRA>
0

>  <SCORE.INTRA.DIHEDRAL>
0

>  <SCORE.INTRA.DIHEDRAL.0>
0

>  <SCORE.INTRA.POLAR>
0

>  <SCORE.INTRA.POLAR.0>
0

>  <SCORE.INTRA.REPUL>
0

>  <SCORE.INTRA.REPUL.0>
0

>  <SCORE.INTRA.SOLV>
0

>  <SCORE.INTRA.SOLV.lig_0>
-29.307

>  <SCORE.INTRA.VDW>
0

>  <SCORE.INTRA.VDW.0>
0

>  <SCORE.INTRA.norm>
0

>  <SCORE.RESTR>
0

>  <SCORE.RESTR.CAVITY>
0

>  <SCORE.RESTR.norm>
0

>  <SCORE.SYSTEM>
0

>  <SCORE.SYSTEM.CONST>
0

>  <SCORE.SYSTEM.DIHEDRAL>
0

>  <SCORE.SYSTEM.SOLV>
0

>  <SCORE.SYSTEM.norm>
0

>  <SCORE.heavy>
11

>  <SCORE.norm>
-1.26601

>  <RMSD>
3.443

$$$$
ligand
 OpenBabel11021811503D
libRbt.so/2013.1/901 2013/11/27
 11 12  0  0  0  0  0  0  0  0999 V2000
    3.4571  -19.7243   25.2062 N   0  0  0  0  0  0  0  0  0  0  0  0
    3.2703  -20.4456   24.0868 C   0  0  0  0  0  0  0  0  0  0  0  0
    4.3292  -20.5971   23.1416 N   0  0  0  0  0  0  0  0  0  0  0  0
    2.1090  -21.0490   23.8166 N   0  0  0  0  0  0  0  0  0  0  0  0
    1.0383  -20.9407   24.6712 C   0  0  0  0  0  0  0  0  0  0  0  0
    1.1906  -20.2106   25.8299 C   0  0  0  0  0  0  0  0  0  0  0  0
    2.4463  -19.5937   26.0988 C   0  0  0  0  0  0  0  0  0  0  0  0
    2.6105  -18.8577   27.2510 O   0  0  0  0  0  0  0  0  0  0  0  0
   -0.0619  -20.2812   26.5186 C   0  0  0  0  0  0  0  0  0  0  0  0
   -0.9124  -21.0573   25.7189 C   0  0  0  0  0  0  0  0  0  0  0  0
   -0.2438  -21.4406   24.6240 N   0  0  0  0  0  0  0  0  0  0  0  0
  1  2  1  0  0  0  0
  1  7  1  0  0  0  0
  2  3  1  0  0  0  0
  2  4  2  0  0  0  0
  4  5  1  0  0  0  0
  5  6  2  0  0  0  0
  5 11  1  0  0  0  0
  6  7  1  0  0  0  0
  6  9  1  0  0  0  0
  7  8  2  0  0  0  0
  9 10  2  0  0  0  0
 10 11  1  0  0  0  0
M  END
>  <CHROM.1>
1.80914251,-20.35722100,25.18151625,-0.25477200,0.31188218,1.04524036

>  <Name>
ligand

>  <RI>
0

>  <Rbt.Current_Directory>
/home/itssahil/PROJECTS/Mol_Feturizer/New_Systems/rnas/4LVW

>  <Rbt.Executable>
rbdock ($Id: //depot/dev/client3/rdock/2013.1/src/exe/rbdock.cxx#4 $)

>  <Rbt.Library>
libRbt.so (2013.1, Build901 2013/11/27)

>  <Rbt.Parameter_File>
/export/apps/rDock/src/rDock_2013.1_src/data/scripts/dock_solv.prm

>  <Rbt.Receptor>
prm/pocket_docking_5.prm

>  <SCORE>
-13.9452

>  <SCORE.INTER>
-13.9452

>  <SCORE.INTER.CONST>
1

>  <SCORE.INTER.POLAR>
0

>  <SCORE.INTER.ROT>
0

>  <SCORE.INTER.SOLV>
5.43953

>  <SCORE.INTER.VDW>
-14.71

>  <SCORE.INTER.norm>
-1.26775

>  <SCORE.INTRA>
0

>  <SCORE.INTRA.DIHEDRAL>
0

>  <SCORE.INTRA.DIHEDRAL.0>
0

>  <SCORE.INTRA.POLAR>
0

>  <SCORE.INTRA.POLAR.0>
0

>  <SCORE.INTRA.REPUL>
0

>  <SCORE.INTRA.REPUL.0>
0

>  <SCORE.INTRA.SOLV>
0

>  <SCORE.INTRA.SOLV.lig_0>
-29.307

>  <SCORE.INTRA.VDW>
0

>  <SCORE.INTRA.VDW.0>
0

>  <SCORE.INTRA.norm>
0

>  <SCORE.RESTR>
0

>  <SCORE.RESTR.CAVITY>
0

>  <SCORE.RESTR.norm>
0

>  <SCORE.SYSTEM>
0

>  <SCORE.SYSTEM.CONST>
0

>  <SCORE.SYSTEM.DIHEDRAL>
0

>  <SCORE.SYSTEM.SOLV>
0

>  <SCORE.SYSTEM.norm>
0

>  <SCORE.heavy>
11

>  <SCORE.norm>
-1.26775

>  <RMSD>
3.443

$$$$
ligand
 OpenBabel11021811503D
libRbt.so/2013.1/901 2013/11/27
 11 12  0  0  0  0  0  0  0  0999 V2000
    3.4570  -19.7138   25.1974 N   0  0  0  0  0  0  0  0  0  0  0  0
    3.2701  -20.4401   24.0812 C   0  0  0  0  0  0  0  0  0  0  0  0
    4.3277  -20.5930   23.1349 N   0  0  0  0  0  0  0  0  0  0  0  0
    2.1097  -21.0473   23.8155 N   0  0  0  0  0  0  0  0  0  0  0  0
    1.0401  -20.9380   24.6713 C   0  0  0  0  0  0  0  0  0  0  0  0
    1.1927  -20.2029   25.8268 C   0  0  0  0  0  0  0  0  0  0  0  0
    2.4473  -19.5819   26.0911 C   0  0  0  0  0  0  0  0  0  0  0  0
    2.6116  -18.8408   27.2401 O   0  0  0  0  0  0  0  0  0  0  0  0
   -0.0586  -20.2736   26.5178 C   0  0  0  0  0  0  0  0  0  0  0  0
   -0.9085  -21.0549   25.7227 C   0  0  0  0  0  0  0  0  0  0  0  0
   -0.2408  -21.4412   24.6282 N   0  0  0  0  0  0  0  0  0  0  0  0
  1  2  1  0  0  0  0
  1  7  1  0  0  0  0
  2  3  1  0  0  0  0
  2  4  2  0  0  0  0
  4  5  1  0  0  0  0
  5  6  2  0  0  0  0
  5 11  1  0  0  0  0
  6  7  1  0  0  0  0
  6  9  1  0  0  0  0
  7  8  2  0  0  0  0
  9 10  2  0  0  0  0
 10 11  1  0  0  0  0
M  END
>  <CHROM.1>
1.81047187,-20.35065425,25.17798516,-0.25500607,0.31473263,1.04122740

>  <Name>
ligand

>  <RI>
0

>  <Rbt.Current_Directory>
/home/itssahil/PROJECTS/Mol_Feturizer/New_Systems/rnas/4LVW

>  <Rbt.Executable>
rbdock ($Id: //depot/dev/client3/rdock/2013.1/src/exe/rbdock.cxx#4 $)

>  <Rbt.Library>
libRbt.so (2013.1, Build901 2013/11/27)

>  <Rbt.Parameter_File>
/export/apps/rDock/src/rDock_2013.1_src/data/scripts/dock_solv.prm

>  <Rbt.Receptor>
prm/pocket_docking_5.prm

>  <SCORE>
-13.9585

>  <SCORE.INTER>
-13.9585

>  <SCORE.INTER.CONST>
1

>  <SCORE.INTER.POLAR>
0

>  <SCORE.INTER.ROT>
0

>  <SCORE.INTER.SOLV>
5.46534

>  <SCORE.INTER.VDW>
-14.7275

>  <SCORE.INTER.norm>
-1.26896

>  <SCORE.INTRA>
0

>  <SCORE.INTRA.DIHEDRAL>
0

>  <SCORE.INTRA.DIHEDRAL.0>
0

>  <SCORE.INTRA.POLAR>
0

>  <SCORE.INTRA.POLAR.0>
0

>  <SCORE.INTRA.REPUL>
0

>  <SCORE.INTRA.REPUL.0>
0

>  <SCORE.INTRA.SOLV>
0

>  <SCORE.INTRA.SOLV.lig_0>
-29.307

>  <SCORE.INTRA.VDW>
0

>  <SCORE.INTRA.VDW.0>
0

>  <SCORE.INTRA.norm>
0

>  <SCORE.RESTR>
0

>  <SCORE.RESTR.CAVITY>
0

>  <SCORE.RESTR.norm>
0

>  <SCORE.SYSTEM>
0

>  <SCORE.SYSTEM.CONST>
0

>  <SCORE.SYSTEM.DIHEDRAL>
0

>  <SCORE.SYSTEM.SOLV>
0

>  <SCORE.SYSTEM.norm>
0

>  <SCORE.heavy>
11

>  <SCORE.norm>
-1.26896

>  <RMSD>
3.443

$$$$
ligand
 OpenBabel11021811503D
libRbt.so/2013.1/901 2013/11/27
 11 12  0  0  0  0  0  0  0  0999 V2000
    3.4563  -19.7264   25.2131 N   0  0  0  0  0  0  0  0  0  0  0  0
    3.2690  -20.4449   24.0920 C   0  0  0  0  0  0  0  0  0  0  0  0
    4.3281  -20.5958   23.1469 N   0  0  0  0  0  0  0  0  0  0  0  0
    2.1070  -21.0461   23.8199 N   0  0  0  0  0  0  0  0  0  0  0  0
    1.0360  -20.9382   24.6743 C   0  0  0  0  0  0  0  0  0  0  0  0
    1.1889  -20.2110   25.8347 C   0  0  0  0  0  0  0  0  0  0  0  0
    2.4453  -19.5964   26.1055 C   0  0  0  0  0  0  0  0  0  0  0  0
    2.6100  -18.8632   27.2595 O   0  0  0  0  0  0  0  0  0  0  0  0
   -0.0641  -20.2814   26.5227 C   0  0  0  0  0  0  0  0  0  0  0  0
   -0.9152  -21.0545   25.7209 C   0  0  0  0  0  0  0  0  0  0  0  0
   -0.2467  -21.4363   24.6254 N   0  0  0  0  0  0  0  0  0  0  0  0
  1  2  1  0  0  0  0
  1  7  1  0  0  0  0
  2  3  1  0  0  0  0
  2  4  2  0  0  0  0
  4  5  1  0  0  0  0
  5  6  2  0  0  0  0
  5 11  1  0  0  0  0
  6  7  1  0  0  0  0
  6  9  1  0  0  0  0
  7  8  2  0  0  0  0
  9 10  2  0  0  0  0
 10 11  1  0  0  0  0
M  END
>  <CHROM.1>
1.80748948,-20.35697901,25.18624933,-0.25509228,0.31047416,1.04758880

>  <Name>
ligand

>  <RI>
0

>  <Rbt.Current_Directory>
/home/itssahil/PROJECTS/Mol_Feturizer/New_Systems/rnas/4LVW

>  <Rbt.Executable>
rbdock ($Id: //depot/dev/client3/rdock/2013.1/src/exe/rbdock.cxx#4 $)

>  <Rbt.Library>
libRbt.so (2013.1, Build901 2013/11/27)

>  <Rbt.Parameter_File>
/export/apps/rDock/src/rDock_2013.1_src/data/scripts/dock_solv.prm

>  <Rbt.Receptor>
prm/pocket_docking_6.prm

>  <SCORE>
-13.943

>  <SCORE.INTER>
-13.943

>  <SCORE.INTER.CONST>
1

>  <SCORE.INTER.POLAR>
0

>  <SCORE.INTER.ROT>
0

>  <SCORE.INTER.SOLV>
5.43431

>  <SCORE.INTER.VDW>
-14.7068

>  <SCORE.INTER.norm>
-1.26754

>  <SCORE.INTRA>
0

>  <SCORE.INTRA.DIHEDRAL>
0

>  <SCORE.INTRA.DIHEDRAL.0>
0

>  <SCORE.INTRA.POLAR>
0

>  <SCORE.INTRA.POLAR.0>
0

>  <SCORE.INTRA.REPUL>
0

>  <SCORE.INTRA.REPUL.0>
0

>  <SCORE.INTRA.SOLV>
0

>  <SCORE.INTRA.SOLV.lig_0>
-29.307

>  <SCORE.INTRA.VDW>
0

>  <SCORE.INTRA.VDW.0>
0

>  <SCORE.INTRA.norm>
0

>  <SCORE.RESTR>
0

>  <SCORE.RESTR.CAVITY>
0

>  <SCORE.RESTR.norm>
0

>  <SCORE.SYSTEM>
0

>  <SCORE.SYSTEM.CONST>
0

>  <SCORE.SYSTEM.DIHEDRAL>
0

>  <SCORE.SYSTEM.SOLV>
0

>  <SCORE.SYSTEM.norm>
0

>  <SCORE.heavy>
11

>  <SCORE.norm>
-1.26754

>  <RMSD>
3.443

$$$$
ligand
 OpenBabel11021811503D
libRbt.so/2013.1/901 2013/11/27
 11 12  0  0  0  0  0  0  0  0999 V2000
    3.4542  -19.7205   25.2190 N   0  0  0  0  0  0  0  0  0  0  0  0
    3.2688  -20.4352   24.0952 C   0  0  0  0  0  0  0  0  0  0  0  0
    4.3285  -20.5805   23.1500 N   0  0  0  0  0  0  0  0  0  0  0  0
    2.1080  -21.0378   23.8206 N   0  0  0  0  0  0  0  0  0  0  0  0
    1.0366  -20.9353   24.6749 C   0  0  0  0  0  0  0  0  0  0  0  0
    1.1875  -20.2120   25.8380 C   0  0  0  0  0  0  0  0  0  0  0  0
    2.4426  -19.5958   26.1116 C   0  0  0  0  0  0  0  0  0  0  0  0
    2.6053  -18.8666   27.2683 O   0  0  0  0  0  0  0  0  0  0  0  0
   -0.0655  -20.2876   26.5253 C   0  0  0  0  0  0  0  0  0  0  0  0
   -0.9148  -21.0594   25.7203 C   0  0  0  0  0  0  0  0  0  0  0  0
   -0.2451  -21.4358   24.6236 N   0  0  0  0  0  0  0  0  0  0  0  0
  1  2  1  0  0  0  0
  1  7  1  0  0  0  0
  2  3  1  0  0  0  0
  2  4  2  0  0  0  0
  4  5  1  0  0  0  0
  5  6  2  0  0  0  0
  5 11  1  0  0  0  0
  6  7  1  0  0  0  0
  6  9  1  0  0  0  0
  7  8  2  0  0  0  0
  9 10  2  0  0  0  0
 10 11  1  0  0  0  0
M  END
>  <CHROM.1>
1.80664805,-20.35436287,25.18926197,-0.25367571,0.31206716,1.05083321

>  <Name>
ligand

>  <RI>
0

>  <Rbt.Current_Directory>
/home/itssahil/PROJECTS/Mol_Feturizer/New_Systems/rnas/4LVW

>  <Rbt.Executable>
rbdock ($Id: //depot/dev/client3/rdock/2013.1/src/exe/rbdock.cxx#4 $)

>  <Rbt.Library>
libRbt.so (2013.1, Build901 2013/11/27)

>  <Rbt.Parameter_File>
/export/apps/rDock/src/rDock_2013.1_src/data/scripts/dock_solv.prm

>  <Rbt.Receptor>
prm/pocket_docking_6.prm

>  <SCORE>
-13.9395

>  <SCORE.INTER>
-13.9395

>  <SCORE.INTER.CONST>
1

>  <SCORE.INTER.POLAR>
0

>  <SCORE.INTER.ROT>
0

>  <SCORE.INTER.SOLV>
5.41375

>  <SCORE.INTER.VDW>
-14.6976

>  <SCORE.INTER.norm>
-1.26723

>  <SCORE.INTRA>
0

>  <SCORE.INTRA.DIHEDRAL>
0

>  <SCORE.INTRA.DIHEDRAL.0>
0

>  <SCORE.INTRA.POLAR>
0

>  <SCORE.INTRA.POLAR.0>
0

>  <SCORE.INTRA.REPUL>
0

>  <SCORE.INTRA.REPUL.0>
0

>  <SCORE.INTRA.SOLV>
0

>  <SCORE.INTRA.SOLV.lig_0>
-29.307

>  <SCORE.INTRA.VDW>
0

>  <SCORE.INTRA.VDW.0>
0

>  <SCORE.INTRA.norm>
0

>  <SCORE.RESTR>
0

>  <SCORE.RESTR.CAVITY>
0

>  <SCORE.RESTR.norm>
0

>  <SCORE.SYSTEM>
0

>  <SCORE.SYSTEM.CONST>
0

>  <SCORE.SYSTEM.DIHEDRAL>
0

>  <SCORE.SYSTEM.SOLV>
0

>  <SCORE.SYSTEM.norm>
0

>  <SCORE.heavy>
11

>  <SCORE.norm>
-1.26723

>  <RMSD>
3.443

$$$$
ligand
 OpenBabel11021811503D
libRbt.so/2013.1/901 2013/11/27
 11 12  0  0  0  0  0  0  0  0999 V2000
    3.4558  -19.7184   25.2158 N   0  0  0  0  0  0  0  0  0  0  0  0
    3.2709  -20.4365   24.0939 C   0  0  0  0  0  0  0  0  0  0  0  0
    4.3309  -20.5842   23.1495 N   0  0  0  0  0  0  0  0  0  0  0  0
    2.1104  -21.0401   23.8207 N   0  0  0  0  0  0  0  0  0  0  0  0
    1.0386  -20.9354   24.6744 C   0  0  0  0  0  0  0  0  0  0  0  0
    1.1890  -20.2088   25.8355 C   0  0  0  0  0  0  0  0  0  0  0  0
    2.4439  -19.5915   26.1077 C   0  0  0  0  0  0  0  0  0  0  0  0
    2.6061  -18.8589   27.2623 O   0  0  0  0  0  0  0  0  0  0  0  0
   -0.0642  -20.2826   26.5226 C   0  0  0  0  0  0  0  0  0  0  0  0
   -0.9131  -21.0570   25.7196 C   0  0  0  0  0  0  0  0  0  0  0  0
   -0.2429  -21.4364   24.6242 N   0  0  0  0  0  0  0  0  0  0  0  0
  1  2  1  0  0  0  0
  1  7  1  0  0  0  0
  2  3  1  0  0  0  0
  2  4  2  0  0  0  0
  4  5  1  0  0  0  0
  5  6  2  0  0  0  0
  5 11  1  0  0  0  0
  6  7  1  0  0  0  0
  6  9  1  0  0  0  0
  7  8  2  0  0  0  0
  9 10  2  0  0  0  0
 10 11  1  0  0  0  0
M  END
>  <CHROM.1>
1.80842284,-20.35280354,25.18732150,-0.25328305,0.31211537,1.04785426

>  <Name>
ligand

>  <RI>
0

>  <Rbt.Current_Directory>
/home/itssahil/PROJECTS/Mol_Feturizer/New_Systems/rnas/4LVW

>  <Rbt.Executable>
rbdock ($Id: //depot/dev/client3/rdock/2013.1/src/exe/rbdock.cxx#4 $)

>  <Rbt.Library>
libRbt.so (2013.1, Build901 2013/11/27)

>  <Rbt.Parameter_File>
/export/apps/rDock/src/rDock_2013.1_src/data/scripts/dock_solv.prm

>  <Rbt.Receptor>
prm/pocket_docking_6.prm

>  <SCORE>
-13.9418

>  <SCORE.INTER>
-13.9418

>  <SCORE.INTER.CONST>
1

>  <SCORE.INTER.POLAR>
0

>  <SCORE.INTER.ROT>
0

>  <SCORE.INTER.SOLV>
5.41498

>  <SCORE.INTER.VDW>
-14.6996

>  <SCORE.INTER.norm>
-1.26744

>  <SCORE.INTRA>
0

>  <SCORE.INTRA.DIHEDRAL>
0

>  <SCORE.INTRA.DIHEDRAL.0>
0

>  <SCORE.INTRA.POLAR>
0

>  <SCORE.INTRA.POLAR.0>
0

>  <SCORE.INTRA.REPUL>
0

>  <SCORE.INTRA.REPUL.0>
0

>  <SCORE.INTRA.SOLV>
0

>  <SCORE.INTRA.SOLV.lig_0>
-29.307

>  <SCORE.INTRA.VDW>
0

>  <SCORE.INTRA.VDW.0>
0

>  <SCORE.INTRA.norm>
0

>  <SCORE.RESTR>
0

>  <SCORE.RESTR.CAVITY>
0

>  <SCORE.RESTR.norm>
0

>  <SCORE.SYSTEM>
0

>  <SCORE.SYSTEM.CONST>
0

>  <SCORE.SYSTEM.DIHEDRAL>
0

>  <SCORE.SYSTEM.SOLV>
0

>  <SCORE.SYSTEM.norm>
0

>  <SCORE.heavy>
11

>  <SCORE.norm>
-1.26744

>  <RMSD>
3.443

$$$$
ligand
 OpenBabel11021811503D
libRbt.so/2013.1/901 2013/11/27
 11 12  0  0  0  0  0  0  0  0999 V2000
    3.4542  -19.7180   25.2014 N   0  0  0  0  0  0  0  0  0  0  0  0
    3.2705  -20.4484   24.0874 C   0  0  0  0  0  0  0  0  0  0  0  0
    4.3296  -20.6018   23.1429 N   0  0  0  0  0  0  0  0  0  0  0  0
    2.1119  -21.0594   23.8222 N   0  0  0  0  0  0  0  0  0  0  0  0
    1.0411  -20.9501   24.6765 C   0  0  0  0  0  0  0  0  0  0  0  0
    1.1904  -20.2108   25.8297 C   0  0  0  0  0  0  0  0  0  0  0  0
    2.4432  -19.5858   26.0935 C   0  0  0  0  0  0  0  0  0  0  0  0
    2.6042  -18.8405   27.2402 O   0  0  0  0  0  0  0  0  0  0  0  0
   -0.0615  -20.2824   26.5195 C   0  0  0  0  0  0  0  0  0  0  0  0
   -0.9085  -21.0684   25.7259 C   0  0  0  0  0  0  0  0  0  0  0  0
   -0.2386  -21.4566   24.6335 N   0  0  0  0  0  0  0  0  0  0  0  0
  1  2  1  0  0  0  0
  1  7  1  0  0  0  0
  2  3  1  0  0  0  0
  2  4  2  0  0  0  0
  4  5  1  0  0  0  0
  5  6  2  0  0  0  0
  5 11  1  0  0  0  0
  6  7  1  0  0  0  0
  6  9  1  0  0  0  0
  7  8  2  0  0  0  0
  9 10  2  0  0  0  0
 10 11  1  0  0  0  0
M  END
>  <CHROM.1>
1.80933376,-20.35912472,25.18211716,-0.25259022,0.31629531,1.03721876

>  <Name>
ligand

>  <RI>
0

>  <Rbt.Current_Directory>
/home/itssahil/PROJECTS/Mol_Feturizer/New_Systems/rnas/4LVW

>  <Rbt.Executable>
rbdock ($Id: //depot/dev/client3/rdock/2013.1/src/exe/rbdock.cxx#4 $)

>  <Rbt.Library>
libRbt.so (2013.1, Build901 2013/11/27)

>  <Rbt.Parameter_File>
/export/apps/rDock/src/rDock_2013.1_src/data/scripts/dock_solv.prm

>  <Rbt.Receptor>
prm/pocket_docking_6.prm

>  <SCORE>
-13.9239

>  <SCORE.INTER>
-13.9239

>  <SCORE.INTER.CONST>
1

>  <SCORE.INTER.POLAR>
0

>  <SCORE.INTER.ROT>
0

>  <SCORE.INTER.SOLV>
5.45277

>  <SCORE.INTER.VDW>
-14.7002

>  <SCORE.INTER.norm>
-1.26581

>  <SCORE.INTRA>
0

>  <SCORE.INTRA.DIHEDRAL>
0

>  <SCORE.INTRA.DIHEDRAL.0>
0

>  <SCORE.INTRA.POLAR>
0

>  <SCORE.INTRA.POLAR.0>
0

>  <SCORE.INTRA.REPUL>
0

>  <SCORE.INTRA.REPUL.0>
0

>  <SCORE.INTRA.SOLV>
0

>  <SCORE.INTRA.SOLV.lig_0>
-29.307

>  <SCORE.INTRA.VDW>
0

>  <SCORE.INTRA.VDW.0>
0

>  <SCORE.INTRA.norm>
0

>  <SCORE.RESTR>
0

>  <SCORE.RESTR.CAVITY>
0

>  <SCORE.RESTR.norm>
0

>  <SCORE.SYSTEM>
0

>  <SCORE.SYSTEM.CONST>
0

>  <SCORE.SYSTEM.DIHEDRAL>
0

>  <SCORE.SYSTEM.SOLV>
0

>  <SCORE.SYSTEM.norm>
0

>  <SCORE.heavy>
11

>  <SCORE.norm>
-1.26581

>  <RMSD>
3.443

$$$$
ligand
 OpenBabel11021811503D
libRbt.so/2013.1/901 2013/11/27
 11 12  0  0  0  0  0  0  0  0999 V2000
    3.4574  -19.7227   25.2063 N   0  0  0  0  0  0  0  0  0  0  0  0
    3.2704  -20.4454   24.0878 C   0  0  0  0  0  0  0  0  0  0  0  0
    4.3291  -20.5985   23.1428 N   0  0  0  0  0  0  0  0  0  0  0  0
    2.1088  -21.0489   23.8185 N   0  0  0  0  0  0  0  0  0  0  0  0
    1.0382  -20.9392   24.6730 C   0  0  0  0  0  0  0  0  0  0  0  0
    1.1908  -20.2076   25.8307 C   0  0  0  0  0  0  0  0  0  0  0  0
    2.4466  -19.5906   26.0988 C   0  0  0  0  0  0  0  0  0  0  0  0
    2.6110  -18.8532   27.2500 O   0  0  0  0  0  0  0  0  0  0  0  0
   -0.0618  -20.2770   26.5196 C   0  0  0  0  0  0  0  0  0  0  0  0
   -0.9125  -21.0539   25.7209 C   0  0  0  0  0  0  0  0  0  0  0  0
   -0.2440  -21.4389   24.6265 N   0  0  0  0  0  0  0  0  0  0  0  0
  1  2  1  0  0  0  0
  1  7  1  0  0  0  0
  2  3  1  0  0  0  0
  2  4  2  0  0  0  0
  4  5  1  0  0  0  0
  5  6  2  0  0  0  0
  5 11  1  0  0  0  0
  6  7  1  0  0  0  0
  6  9  1  0  0  0  0
  7  8  2  0  0  0  0
  9 10  2  0  0  0  0
 10 11  1  0  0  0  0
M  END
>  <CHROM.1>
1.80922591,-20.35525276,25.18250017,-0.25493143,0.31168648,1.04395701

>  <Name>
ligand

>  <RI>
0

>  <Rbt.Current_Directory>
/home/itssahil/PROJECTS/Mol_Feturizer/New_Systems/rnas/4LVW

>  <Rbt.Executable>
rbdock ($Id: //depot/dev/client3/rdock/2013.1/src/exe/rbdock.cxx#4 $)

>  <Rbt.Library>
libRbt.so (2013.1, Build901 2013/11/27)

>  <Rbt.Parameter_File>
/export/apps/rDock/src/rDock_2013.1_src/data/scripts/dock_solv.prm

>  <Rbt.Receptor>
prm/pocket_docking_6.prm

>  <SCORE>
-13.9439

>  <SCORE.INTER>
-13.9439

>  <SCORE.INTER.CONST>
1

>  <SCORE.INTER.POLAR>
0

>  <SCORE.INTER.ROT>
0

>  <SCORE.INTER.SOLV>
5.44425

>  <SCORE.INTER.VDW>
-14.7107

>  <SCORE.INTER.norm>
-1.26762

>  <SCORE.INTRA>
0

>  <SCORE.INTRA.DIHEDRAL>
0

>  <SCORE.INTRA.DIHEDRAL.0>
0

>  <SCORE.INTRA.POLAR>
0

>  <SCORE.INTRA.POLAR.0>
0

>  <SCORE.INTRA.REPUL>
0

>  <SCORE.INTRA.REPUL.0>
0

>  <SCORE.INTRA.SOLV>
0

>  <SCORE.INTRA.SOLV.lig_0>
-29.307

>  <SCORE.INTRA.VDW>
0

>  <SCORE.INTRA.VDW.0>
0

>  <SCORE.INTRA.norm>
0

>  <SCORE.RESTR>
0

>  <SCORE.RESTR.CAVITY>
0

>  <SCORE.RESTR.norm>
0

>  <SCORE.SYSTEM>
0

>  <SCORE.SYSTEM.CONST>
0

>  <SCORE.SYSTEM.DIHEDRAL>
0

>  <SCORE.SYSTEM.SOLV>
0

>  <SCORE.SYSTEM.norm>
0

>  <SCORE.heavy>
11

>  <SCORE.norm>
-1.26762

>  <RMSD>
3.443

$$$$
ligand
 OpenBabel11021811503D
libRbt.so/2013.1/901 2013/11/27
 11 12  0  0  0  0  0  0  0  0999 V2000
    3.4585  -19.7172   25.2033 N   0  0  0  0  0  0  0  0  0  0  0  0
    3.2734  -20.4466   24.0888 C   0  0  0  0  0  0  0  0  0  0  0  0
    4.3331  -20.6031   23.1453 N   0  0  0  0  0  0  0  0  0  0  0  0
    2.1131  -21.0535   23.8222 N   0  0  0  0  0  0  0  0  0  0  0  0
    1.0417  -20.9409   24.6753 C   0  0  0  0  0  0  0  0  0  0  0  0
    1.1923  -20.2025   25.8290 C   0  0  0  0  0  0  0  0  0  0  0  0
    2.4469  -19.5819   26.0944 C   0  0  0  0  0  0  0  0  0  0  0  0
    2.6093  -18.8377   27.2415 O   0  0  0  0  0  0  0  0  0  0  0  0
   -0.0605  -20.2702   26.5174 C   0  0  0  0  0  0  0  0  0  0  0  0
   -0.9094  -21.0531   25.7227 C   0  0  0  0  0  0  0  0  0  0  0  0
   -0.2396  -21.4430   24.6308 N   0  0  0  0  0  0  0  0  0  0  0  0
  1  2  1  0  0  0  0
  1  7  1  0  0  0  0
  2  3  1  0  0  0  0
  2  4  2  0  0  0  0
  4  5  1  0  0  0  0
  5  6  2  0  0  0  0
  5 11  1  0  0  0  0
  6  7  1  0  0  0  0
  6  9  1  0  0  0  0
  7  8  2  0  0  0  0
  9 10  2  0  0  0  0
 10 11  1  0  0  0  0
M  END
>  <CHROM.1>
1.81144400,-20.35273829,25.18200654,-0.25344290,0.31284859,1.03787732

>  <Name>
ligand

>  <RI>
0

>  <Rbt.Current_Directory>
/home/itssahil/PROJECTS/Mol_Feturizer/New_Systems/rnas/4LVW

>  <Rbt.Executable>
rbdock ($Id: //depot/dev/client3/rdock/2013.1/src/exe/rbdock.cxx#4 $)

>  <Rbt.Library>
libRbt.so (2013.1, Build901 2013/11/27)

>  <Rbt.Parameter_File>
/export/apps/rDock/src/rDock_2013.1_src/data/scripts/dock_solv.prm

>  <Rbt.Receptor>
prm/pocket_docking_6.prm

>  <SCORE>
-13.9585

>  <SCORE.INTER>
-13.9585

>  <SCORE.INTER.CONST>
1

>  <SCORE.INTER.POLAR>
0

>  <SCORE.INTER.ROT>
0

>  <SCORE.INTER.SOLV>
5.44591

>  <SCORE.INTER.VDW>
-14.7209

>  <SCORE.INTER.norm>
-1.26895

>  <SCORE.INTRA>
0

>  <SCORE.INTRA.DIHEDRAL>
0

>  <SCORE.INTRA.DIHEDRAL.0>
0

>  <SCORE.INTRA.POLAR>
0

>  <SCORE.INTRA.POLAR.0>
0

>  <SCORE.INTRA.REPUL>
0

>  <SCORE.INTRA.REPUL.0>
0

>  <SCORE.INTRA.SOLV>
0

>  <SCORE.INTRA.SOLV.lig_0>
-29.307

>  <SCORE.INTRA.VDW>
0

>  <SCORE.INTRA.VDW.0>
0

>  <SCORE.INTRA.norm>
0

>  <SCORE.RESTR>
0

>  <SCORE.RESTR.CAVITY>
0

>  <SCORE.RESTR.norm>
0

>  <SCORE.SYSTEM>
0

>  <SCORE.SYSTEM.CONST>
0

>  <SCORE.SYSTEM.DIHEDRAL>
0

>  <SCORE.SYSTEM.SOLV>
0

>  <SCORE.SYSTEM.norm>
0

>  <SCORE.heavy>
11

>  <SCORE.norm>
-1.26895

>  <RMSD>
3.443

$$$$
ligand
 OpenBabel11021811503D
libRbt.so/2013.1/901 2013/11/27
 11 12  0  0  0  0  0  0  0  0999 V2000
    3.4551  -19.7212   25.2300 N   0  0  0  0  0  0  0  0  0  0  0  0
    3.2689  -20.4263   24.1002 C   0  0  0  0  0  0  0  0  0  0  0  0
    4.3292  -20.5672   23.1551 N   0  0  0  0  0  0  0  0  0  0  0  0
    2.1066  -21.0230   23.8193 N   0  0  0  0  0  0  0  0  0  0  0  0
    1.0344  -20.9241   24.6732 C   0  0  0  0  0  0  0  0  0  0  0  0
    1.1861  -20.2107   25.8423 C   0  0  0  0  0  0  0  0  0  0  0  0
    2.4428  -19.6006   26.1223 C   0  0  0  0  0  0  0  0  0  0  0  0
    2.6063  -18.8811   27.2850 O   0  0  0  0  0  0  0  0  0  0  0  0
   -0.0680  -20.2878   26.5274 C   0  0  0  0  0  0  0  0  0  0  0  0
   -0.9187  -21.0506   25.7152 C   0  0  0  0  0  0  0  0  0  0  0  0
   -0.2488  -21.4203   24.6164 N   0  0  0  0  0  0  0  0  0  0  0  0
  1  2  1  0  0  0  0
  1  7  1  0  0  0  0
  2  3  1  0  0  0  0
  2  4  2  0  0  0  0
  4  5  1  0  0  0  0
  5  6  2  0  0  0  0
  5 11  1  0  0  0  0
  6  7  1  0  0  0  0
  6  9  1  0  0  0  0
  7  8  2  0  0  0  0
  9 10  2  0  0  0  0
 10 11  1  0  0  0  0
M  END
>  <CHROM.1>
1.80564016,-20.34969627,25.19312788,-0.25417328,0.30879092,1.05901824

>  <Name>
ligand

>  <RI>
0

>  <Rbt.Current_Directory>
/home/itssahil/PROJECTS/Mol_Feturizer/New_Systems/rnas/4LVW

>  <Rbt.Executable>
rbdock ($Id: //depot/dev/client3/rdock/2013.1/src/exe/rbdock.cxx#4 $)

>  <Rbt.Library>
libRbt.so (2013.1, Build901 2013/11/27)

>  <Rbt.Parameter_File>
/export/apps/rDock/src/rDock_2013.1_src/data/scripts/dock_solv.prm

>  <Rbt.Receptor>
prm/pocket_docking_6.prm

>  <SCORE>
-13.929

>  <SCORE.INTER>
-13.929

>  <SCORE.INTER.CONST>
1

>  <SCORE.INTER.POLAR>
0

>  <SCORE.INTER.ROT>
0

>  <SCORE.INTER.SOLV>
5.38828

>  <SCORE.INTER.VDW>
-14.6821

>  <SCORE.INTER.norm>
-1.26627

>  <SCORE.INTRA>
0

>  <SCORE.INTRA.DIHEDRAL>
0

>  <SCORE.INTRA.DIHEDRAL.0>
0

>  <SCORE.INTRA.POLAR>
0

>  <SCORE.INTRA.POLAR.0>
0

>  <SCORE.INTRA.REPUL>
0

>  <SCORE.INTRA.REPUL.0>
0

>  <SCORE.INTRA.SOLV>
0

>  <SCORE.INTRA.SOLV.lig_0>
-29.307

>  <SCORE.INTRA.VDW>
0

>  <SCORE.INTRA.VDW.0>
0

>  <SCORE.INTRA.norm>
0

>  <SCORE.RESTR>
0

>  <SCORE.RESTR.CAVITY>
0

>  <SCORE.RESTR.norm>
0

>  <SCORE.SYSTEM>
0

>  <SCORE.SYSTEM.CONST>
0

>  <SCORE.SYSTEM.DIHEDRAL>
0

>  <SCORE.SYSTEM.SOLV>
0

>  <SCORE.SYSTEM.norm>
0

>  <SCORE.heavy>
11

>  <SCORE.norm>
-1.26627

>  <RMSD>
3.443

$$$$
ligand
 OpenBabel11021811503D
libRbt.so/2013.1/901 2013/11/27
 11 12  0  0  0  0  0  0  0  0999 V2000
    3.4563  -19.7145   25.2023 N   0  0  0  0  0  0  0  0  0  0  0  0
    3.2710  -20.4431   24.0874 C   0  0  0  0  0  0  0  0  0  0  0  0
    4.3297  -20.5973   23.1425 N   0  0  0  0  0  0  0  0  0  0  0  0
    2.1112  -21.0514   23.8216 N   0  0  0  0  0  0  0  0  0  0  0  0
    1.0406  -20.9410   24.6761 C   0  0  0  0  0  0  0  0  0  0  0  0
    1.1916  -20.2035   25.8303 C   0  0  0  0  0  0  0  0  0  0  0  0
    2.4456  -19.5814   26.0947 C   0  0  0  0  0  0  0  0  0  0  0  0
    2.6083  -18.8380   27.2424 O   0  0  0  0  0  0  0  0  0  0  0  0
   -0.0604  -20.2735   26.5202 C   0  0  0  0  0  0  0  0  0  0  0  0
   -0.9091  -21.0569   25.7257 C   0  0  0  0  0  0  0  0  0  0  0  0
   -0.2400  -21.4449   24.6327 N   0  0  0  0  0  0  0  0  0  0  0  0
  1  2  1  0  0  0  0
  1  7  1  0  0  0  0
  2  3  1  0  0  0  0
  2  4  2  0  0  0  0
  4  5  1  0  0  0  0
  5  6  2  0  0  0  0
  5 11  1  0  0  0  0
  6  7  1  0  0  0  0
  6  9  1  0  0  0  0
  7  8  2  0  0  0  0
  9 10  2  0  0  0  0
 10 11  1  0  0  0  0
M  END
>  <CHROM.1>
1.81013486,-20.35228044,25.18243752,-0.25378109,0.31464744,1.03889719

>  <Name>
ligand

>  <RI>
0

>  <Rbt.Current_Directory>
/home/itssahil/PROJECTS/Mol_Feturizer/New_Systems/rnas/4LVW

>  <Rbt.Executable>
rbdock ($Id: //depot/dev/client3/rdock/2013.1/src/exe/rbdock.cxx#4 $)

>  <Rbt.Library>
libRbt.so (2013.1, Build901 2013/11/27)

>  <Rbt.Parameter_File>
/export/apps/rDock/src/rDock_2013.1_src/data/scripts/dock_solv.prm

>  <Rbt.Receptor>
prm/pocket_docking_6.prm

>  <SCORE>
-13.9599

>  <SCORE.INTER>
-13.9599

>  <SCORE.INTER.CONST>
1

>  <SCORE.INTER.POLAR>
0

>  <SCORE.INTER.ROT>
0

>  <SCORE.INTER.SOLV>
5.44966

>  <SCORE.INTER.VDW>
-14.7231

>  <SCORE.INTER.norm>
-1.26908

>  <SCORE.INTRA>
0

>  <SCORE.INTRA.DIHEDRAL>
0

>  <SCORE.INTRA.DIHEDRAL.0>
0

>  <SCORE.INTRA.POLAR>
0

>  <SCORE.INTRA.POLAR.0>
0

>  <SCORE.INTRA.REPUL>
0

>  <SCORE.INTRA.REPUL.0>
0

>  <SCORE.INTRA.SOLV>
0

>  <SCORE.INTRA.SOLV.lig_0>
-29.307

>  <SCORE.INTRA.VDW>
0

>  <SCORE.INTRA.VDW.0>
0

>  <SCORE.INTRA.norm>
0

>  <SCORE.RESTR>
0

>  <SCORE.RESTR.CAVITY>
0

>  <SCORE.RESTR.norm>
0

>  <SCORE.SYSTEM>
0

>  <SCORE.SYSTEM.CONST>
0

>  <SCORE.SYSTEM.DIHEDRAL>
0

>  <SCORE.SYSTEM.SOLV>
0

>  <SCORE.SYSTEM.norm>
0

>  <SCORE.heavy>
11

>  <SCORE.norm>
-1.26908

>  <RMSD>
3.443

$$$$
ligand
 OpenBabel11021811503D
libRbt.so/2013.1/901 2013/11/27
 11 12  0  0  0  0  0  0  0  0999 V2000
    3.4572  -19.7156   25.2024 N   0  0  0  0  0  0  0  0  0  0  0  0
    3.2720  -20.4436   24.0871 C   0  0  0  0  0  0  0  0  0  0  0  0
    4.3311  -20.5979   23.1426 N   0  0  0  0  0  0  0  0  0  0  0  0
    2.1121  -21.0513   23.8204 N   0  0  0  0  0  0  0  0  0  0  0  0
    1.0412  -20.9407   24.6745 C   0  0  0  0  0  0  0  0  0  0  0  0
    1.1919  -20.2038   25.8291 C   0  0  0  0  0  0  0  0  0  0  0  0
    2.4462  -19.5824   26.0944 C   0  0  0  0  0  0  0  0  0  0  0  0
    2.6087  -18.8396   27.2424 O   0  0  0  0  0  0  0  0  0  0  0  0
   -0.0604  -20.2736   26.5183 C   0  0  0  0  0  0  0  0  0  0  0  0
   -0.9091  -21.0561   25.7231 C   0  0  0  0  0  0  0  0  0  0  0  0
   -0.2397  -21.4440   24.6302 N   0  0  0  0  0  0  0  0  0  0  0  0
  1  2  1  0  0  0  0
  1  7  1  0  0  0  0
  2  3  1  0  0  0  0
  2  4  2  0  0  0  0
  4  5  1  0  0  0  0
  5  6  2  0  0  0  0
  5 11  1  0  0  0  0
  6  7  1  0  0  0  0
  6  9  1  0  0  0  0
  7  8  2  0  0  0  0
  9 10  2  0  0  0  0
 10 11  1  0  0  0  0
M  END
>  <CHROM.1>
1.81072632,-20.35259894,25.18145034,-0.25360209,0.31400083,1.03927522

>  <Name>
ligand

>  <RI>
0

>  <Rbt.Current_Directory>
/home/itssahil/PROJECTS/Mol_Feturizer/New_Systems/rnas/4LVW

>  <Rbt.Executable>
rbdock ($Id: //depot/dev/client3/rdock/2013.1/src/exe/rbdock.cxx#4 $)

>  <Rbt.Library>
libRbt.so (2013.1, Build901 2013/11/27)

>  <Rbt.Parameter_File>
/export/apps/rDock/src/rDock_2013.1_src/data/scripts/dock_solv.prm

>  <Rbt.Receptor>
prm/pocket_docking_6.prm

>  <SCORE>
-13.961

>  <SCORE.INTER>
-13.961

>  <SCORE.INTER.CONST>
1

>  <SCORE.INTER.POLAR>
0

>  <SCORE.INTER.ROT>
0

>  <SCORE.INTER.SOLV>
5.44472

>  <SCORE.INTER.VDW>
-14.7222

>  <SCORE.INTER.norm>
-1.26918

>  <SCORE.INTRA>
0

>  <SCORE.INTRA.DIHEDRAL>
0

>  <SCORE.INTRA.DIHEDRAL.0>
0

>  <SCORE.INTRA.POLAR>
0

>  <SCORE.INTRA.POLAR.0>
0

>  <SCORE.INTRA.REPUL>
0

>  <SCORE.INTRA.REPUL.0>
0

>  <SCORE.INTRA.SOLV>
0

>  <SCORE.INTRA.SOLV.lig_0>
-29.307

>  <SCORE.INTRA.VDW>
0

>  <SCORE.INTRA.VDW.0>
0

>  <SCORE.INTRA.norm>
0

>  <SCORE.RESTR>
0

>  <SCORE.RESTR.CAVITY>
0

>  <SCORE.RESTR.norm>
0

>  <SCORE.SYSTEM>
0

>  <SCORE.SYSTEM.CONST>
0

>  <SCORE.SYSTEM.DIHEDRAL>
0

>  <SCORE.SYSTEM.SOLV>
0

>  <SCORE.SYSTEM.norm>
0

>  <SCORE.heavy>
11

>  <SCORE.norm>
-1.26918

>  <RMSD>
3.443

$$$$
ligand
 OpenBabel11021811503D
libRbt.so/2013.1/901 2013/11/27
 11 12  0  0  0  0  0  0  0  0999 V2000
    3.4586  -19.7293   25.1949 N   0  0  0  0  0  0  0  0  0  0  0  0
    3.2682  -20.4565   24.0799 C   0  0  0  0  0  0  0  0  0  0  0  0
    4.3263  -20.6192   23.1357 N   0  0  0  0  0  0  0  0  0  0  0  0
    2.1039  -21.0557   23.8134 N   0  0  0  0  0  0  0  0  0  0  0  0
    1.0337  -20.9368   24.6672 C   0  0  0  0  0  0  0  0  0  0  0  0
    1.1897  -20.2004   25.8214 C   0  0  0  0  0  0  0  0  0  0  0  0
    2.4485  -19.5882   26.0866 C   0  0  0  0  0  0  0  0  0  0  0  0
    2.6163  -18.8460   27.2343 O   0  0  0  0  0  0  0  0  0  0  0  0
   -0.0632  -20.2605   26.5105 C   0  0  0  0  0  0  0  0  0  0  0  0
   -0.9175  -21.0372   25.7155 C   0  0  0  0  0  0  0  0  0  0  0  0
   -0.2509  -21.4306   24.6230 N   0  0  0  0  0  0  0  0  0  0  0  0
  1  2  1  0  0  0  0
  1  7  1  0  0  0  0
  2  3  1  0  0  0  0
  2  4  2  0  0  0  0
  4  5  1  0  0  0  0
  5  6  2  0  0  0  0
  5 11  1  0  0  0  0
  6  7  1  0  0  0  0
  6  9  1  0  0  0  0
  7  8  2  0  0  0  0
  9 10  2  0  0  0  0
 10 11  1  0  0  0  0
M  END
>  <CHROM.1>
1.80749083,-20.35411987,25.17398337,-0.25740217,0.30752738,1.03992360

>  <Name>
ligand

>  <RI>
0

>  <Rbt.Current_Directory>
/home/itssahil/PROJECTS/Mol_Feturizer/New_Systems/rnas/4LVW

>  <Rbt.Executable>
rbdock ($Id: //depot/dev/client3/rdock/2013.1/src/exe/rbdock.cxx#4 $)

>  <Rbt.Library>
libRbt.so (2013.1, Build901 2013/11/27)

>  <Rbt.Parameter_File>
/export/apps/rDock/src/rDock_2013.1_src/data/scripts/dock_solv.prm

>  <Rbt.Receptor>
prm/pocket_docking_6.prm

>  <SCORE>
-13.9421

>  <SCORE.INTER>
-13.9421

>  <SCORE.INTER.CONST>
1

>  <SCORE.INTER.POLAR>
0

>  <SCORE.INTER.ROT>
0

>  <SCORE.INTER.SOLV>
5.51555

>  <SCORE.INTER.VDW>
-14.7332

>  <SCORE.INTER.norm>
-1.26746

>  <SCORE.INTRA>
0

>  <SCORE.INTRA.DIHEDRAL>
0

>  <SCORE.INTRA.DIHEDRAL.0>
0

>  <SCORE.INTRA.POLAR>
0

>  <SCORE.INTRA.POLAR.0>
0

>  <SCORE.INTRA.REPUL>
0

>  <SCORE.INTRA.REPUL.0>
0

>  <SCORE.INTRA.SOLV>
0

>  <SCORE.INTRA.SOLV.lig_0>
-29.307

>  <SCORE.INTRA.VDW>
0

>  <SCORE.INTRA.VDW.0>
0

>  <SCORE.INTRA.norm>
0

>  <SCORE.RESTR>
0

>  <SCORE.RESTR.CAVITY>
0

>  <SCORE.RESTR.norm>
0

>  <SCORE.SYSTEM>
0

>  <SCORE.SYSTEM.CONST>
0

>  <SCORE.SYSTEM.DIHEDRAL>
0

>  <SCORE.SYSTEM.SOLV>
0

>  <SCORE.SYSTEM.norm>
0

>  <SCORE.heavy>
11

>  <SCORE.norm>
-1.26746

>  <RMSD>
3.443

$$$$
ligand
 OpenBabel11021811503D
libRbt.so/2013.1/901 2013/11/27
 11 12  0  0  0  0  0  0  0  0999 V2000
    3.4548  -19.7317   25.2170 N   0  0  0  0  0  0  0  0  0  0  0  0
    3.2669  -20.4483   24.0948 C   0  0  0  0  0  0  0  0  0  0  0  0
    4.3259  -20.5989   23.1497 N   0  0  0  0  0  0  0  0  0  0  0  0
    2.1043  -21.0479   23.8218 N   0  0  0  0  0  0  0  0  0  0  0  0
    1.0333  -20.9402   24.6761 C   0  0  0  0  0  0  0  0  0  0  0  0
    1.1868  -20.2149   25.8376 C   0  0  0  0  0  0  0  0  0  0  0  0
    2.4438  -19.6020   26.1095 C   0  0  0  0  0  0  0  0  0  0  0  0
    2.6091  -18.8707   27.2646 O   0  0  0  0  0  0  0  0  0  0  0  0
   -0.0663  -20.2850   26.5254 C   0  0  0  0  0  0  0  0  0  0  0  0
   -0.9182  -21.0560   25.7223 C   0  0  0  0  0  0  0  0  0  0  0  0
   -0.2499  -21.4369   24.6263 N   0  0  0  0  0  0  0  0  0  0  0  0
  1  2  1  0  0  0  0
  1  7  1  0  0  0  0
  2  3  1  0  0  0  0
  2  4  2  0  0  0  0
  4  5  1  0  0  0  0
  5  6  2  0  0  0  0
  5 11  1  0  0  0  0
  6  7  1  0  0  0  0
  6  9  1  0  0  0  0
  7  8  2  0  0  0  0
  9 10  2  0  0  0  0
 10 11  1  0  0  0  0
M  END
>  <CHROM.1>
1.80532206,-20.36053297,25.18904757,-0.25552257,0.30951479,1.04920739

>  <Name>
ligand

>  <RI>
0

>  <Rbt.Current_Directory>
/home/itssahil/PROJECTS/Mol_Feturizer/New_Systems/rnas/4LVW

>  <Rbt.Executable>
rbdock ($Id: //depot/dev/client3/rdock/2013.1/src/exe/rbdock.cxx#4 $)

>  <Rbt.Library>
libRbt.so (2013.1, Build901 2013/11/27)

>  <Rbt.Parameter_File>
/export/apps/rDock/src/rDock_2013.1_src/data/scripts/dock_solv.prm

>  <Rbt.Receptor>
prm/pocket_docking_6.prm

>  <SCORE>
-13.9397

>  <SCORE.INTER>
-13.9397

>  <SCORE.INTER.CONST>
1

>  <SCORE.INTER.POLAR>
0

>  <SCORE.INTER.ROT>
0

>  <SCORE.INTER.SOLV>
5.43661

>  <SCORE.INTER.VDW>
-14.7053

>  <SCORE.INTER.norm>
-1.26724

>  <SCORE.INTRA>
0

>  <SCORE.INTRA.DIHEDRAL>
0

>  <SCORE.INTRA.DIHEDRAL.0>
0

>  <SCORE.INTRA.POLAR>
0

>  <SCORE.INTRA.POLAR.0>
0

>  <SCORE.INTRA.REPUL>
0

>  <SCORE.INTRA.REPUL.0>
0

>  <SCORE.INTRA.SOLV>
0

>  <SCORE.INTRA.SOLV.lig_0>
-29.307

>  <SCORE.INTRA.VDW>
0

>  <SCORE.INTRA.VDW.0>
0

>  <SCORE.INTRA.norm>
0

>  <SCORE.RESTR>
0

>  <SCORE.RESTR.CAVITY>
0

>  <SCORE.RESTR.norm>
0

>  <SCORE.SYSTEM>
0

>  <SCORE.SYSTEM.CONST>
0

>  <SCORE.SYSTEM.DIHEDRAL>
0

>  <SCORE.SYSTEM.SOLV>
0

>  <SCORE.SYSTEM.norm>
0

>  <SCORE.heavy>
11

>  <SCORE.norm>
-1.26724

>  <RMSD>
3.443

$$$$
ligand
 OpenBabel11021811503D
libRbt.so/2013.1/901 2013/11/27
 11 12  0  0  0  0  0  0  0  0999 V2000
    3.4575  -19.7165   25.2060 N   0  0  0  0  0  0  0  0  0  0  0  0
    3.2734  -20.4454   24.0911 C   0  0  0  0  0  0  0  0  0  0  0  0
    4.3336  -20.6013   23.1482 N   0  0  0  0  0  0  0  0  0  0  0  0
    2.1134  -21.0527   23.8235 N   0  0  0  0  0  0  0  0  0  0  0  0
    1.0415  -20.9408   24.6761 C   0  0  0  0  0  0  0  0  0  0  0  0
    1.1911  -20.2028   25.8301 C   0  0  0  0  0  0  0  0  0  0  0  0
    2.4454  -19.5818   26.0965 C   0  0  0  0  0  0  0  0  0  0  0  0
    2.6068  -18.8380   27.2440 O   0  0  0  0  0  0  0  0  0  0  0  0
   -0.0621  -20.2712   26.5178 C   0  0  0  0  0  0  0  0  0  0  0  0
   -0.9102  -21.0541   25.7222 C   0  0  0  0  0  0  0  0  0  0  0  0
   -0.2396  -21.4434   24.6306 N   0  0  0  0  0  0  0  0  0  0  0  0
  1  2  1  0  0  0  0
  1  7  1  0  0  0  0
  2  3  1  0  0  0  0
  2  4  2  0  0  0  0
  4  5  1  0  0  0  0
  5  6  2  0  0  0  0
  5 11  1  0  0  0  0
  6  7  1  0  0  0  0
  6  9  1  0  0  0  0
  7  8  2  0  0  0  0
  9 10  2  0  0  0  0
 10 11  1  0  0  0  0
M  END
>  <CHROM.1>
1.81070224,-20.35256674,25.18346636,-0.25270967,0.31286219,1.03803082

>  <Name>
ligand

>  <RI>
0

>  <Rbt.Current_Directory>
/home/itssahil/PROJECTS/Mol_Feturizer/New_Systems/rnas/4LVW

>  <Rbt.Executable>
rbdock ($Id: //depot/dev/client3/rdock/2013.1/src/exe/rbdock.cxx#4 $)

>  <Rbt.Library>
libRbt.so (2013.1, Build901 2013/11/27)

>  <Rbt.Parameter_File>
/export/apps/rDock/src/rDock_2013.1_src/data/scripts/dock_solv.prm

>  <Rbt.Receptor>
prm/pocket_docking_7.prm

>  <SCORE>
-13.9585

>  <SCORE.INTER>
-13.9585

>  <SCORE.INTER.CONST>
1

>  <SCORE.INTER.POLAR>
0

>  <SCORE.INTER.ROT>
0

>  <SCORE.INTER.SOLV>
5.43688

>  <SCORE.INTER.VDW>
-14.7179

>  <SCORE.INTER.norm>
-1.26895

>  <SCORE.INTRA>
0

>  <SCORE.INTRA.DIHEDRAL>
0

>  <SCORE.INTRA.DIHEDRAL.0>
0

>  <SCORE.INTRA.POLAR>
0

>  <SCORE.INTRA.POLAR.0>
0

>  <SCORE.INTRA.REPUL>
0

>  <SCORE.INTRA.REPUL.0>
0

>  <SCORE.INTRA.SOLV>
0

>  <SCORE.INTRA.SOLV.lig_0>
-29.307

>  <SCORE.INTRA.VDW>
0

>  <SCORE.INTRA.VDW.0>
0

>  <SCORE.INTRA.norm>
0

>  <SCORE.RESTR>
0

>  <SCORE.RESTR.CAVITY>
0

>  <SCORE.RESTR.norm>
0

>  <SCORE.SYSTEM>
0

>  <SCORE.SYSTEM.CONST>
0

>  <SCORE.SYSTEM.DIHEDRAL>
0

>  <SCORE.SYSTEM.SOLV>
0

>  <SCORE.SYSTEM.norm>
0

>  <SCORE.heavy>
11

>  <SCORE.norm>
-1.26895

>  <RMSD>
3.443

$$$$
ligand
 OpenBabel11021811503D
libRbt.so/2013.1/901 2013/11/27
 11 12  0  0  0  0  0  0  0  0999 V2000
    3.4573  -19.7270   25.2113 N   0  0  0  0  0  0  0  0  0  0  0  0
    3.2698  -20.4445   24.0896 C   0  0  0  0  0  0  0  0  0  0  0  0
    4.3288  -20.5951   23.1445 N   0  0  0  0  0  0  0  0  0  0  0  0
    2.1074  -21.0449   23.8169 N   0  0  0  0  0  0  0  0  0  0  0  0
    1.0365  -20.9372   24.6713 C   0  0  0  0  0  0  0  0  0  0  0  0
    1.1896  -20.2111   25.8324 C   0  0  0  0  0  0  0  0  0  0  0  0
    2.4463  -19.5973   26.1038 C   0  0  0  0  0  0  0  0  0  0  0  0
    2.6112  -18.8652   27.2584 O   0  0  0  0  0  0  0  0  0  0  0  0
   -0.0634  -20.2815   26.5202 C   0  0  0  0  0  0  0  0  0  0  0  0
   -0.9149  -21.0535   25.7176 C   0  0  0  0  0  0  0  0  0  0  0  0
   -0.2465  -21.4347   24.6218 N   0  0  0  0  0  0  0  0  0  0  0  0
  1  2  1  0  0  0  0
  1  7  1  0  0  0  0
  2  3  1  0  0  0  0
  2  4  2  0  0  0  0
  4  5  1  0  0  0  0
  5  6  2  0  0  0  0
  5 11  1  0  0  0  0
  6  7  1  0  0  0  0
  6  9  1  0  0  0  0
  7  8  2  0  0  0  0
  9 10  2  0  0  0  0
 10 11  1  0  0  0  0
M  END
>  <CHROM.1>
1.80819161,-20.35681975,25.18381514,-0.25527920,0.31000959,1.04851530

>  <Name>
ligand

>  <RI>
0

>  <Rbt.Current_Directory>
/home/itssahil/PROJECTS/Mol_Feturizer/New_Systems/rnas/4LVW

>  <Rbt.Executable>
rbdock ($Id: //depot/dev/client3/rdock/2013.1/src/exe/rbdock.cxx#4 $)

>  <Rbt.Library>
libRbt.so (2013.1, Build901 2013/11/27)

>  <Rbt.Parameter_File>
/export/apps/rDock/src/rDock_2013.1_src/data/scripts/dock_solv.prm

>  <Rbt.Receptor>
prm/pocket_docking_7.prm

>  <SCORE>
-13.9442

>  <SCORE.INTER>
-13.9442

>  <SCORE.INTER.CONST>
1

>  <SCORE.INTER.POLAR>
0

>  <SCORE.INTER.ROT>
0

>  <SCORE.INTER.SOLV>
5.4327

>  <SCORE.INTER.VDW>
-14.707

>  <SCORE.INTER.norm>
-1.26765

>  <SCORE.INTRA>
0

>  <SCORE.INTRA.DIHEDRAL>
0

>  <SCORE.INTRA.DIHEDRAL.0>
0

>  <SCORE.INTRA.POLAR>
0

>  <SCORE.INTRA.POLAR.0>
0

>  <SCORE.INTRA.REPUL>
0

>  <SCORE.INTRA.REPUL.0>
0

>  <SCORE.INTRA.SOLV>
0

>  <SCORE.INTRA.SOLV.lig_0>
-29.307

>  <SCORE.INTRA.VDW>
0

>  <SCORE.INTRA.VDW.0>
0

>  <SCORE.INTRA.norm>
0

>  <SCORE.RESTR>
0

>  <SCORE.RESTR.CAVITY>
0

>  <SCORE.RESTR.norm>
0

>  <SCORE.SYSTEM>
0

>  <SCORE.SYSTEM.CONST>
0

>  <SCORE.SYSTEM.DIHEDRAL>
0

>  <SCORE.SYSTEM.SOLV>
0

>  <SCORE.SYSTEM.norm>
0

>  <SCORE.heavy>
11

>  <SCORE.norm>
-1.26765

>  <RMSD>
3.443

$$$$
ligand
 OpenBabel11021811503D
libRbt.so/2013.1/901 2013/11/27
 11 12  0  0  0  0  0  0  0  0999 V2000
    3.4523  -19.7252   25.2210 N   0  0  0  0  0  0  0  0  0  0  0  0
    3.2659  -20.4417   24.0984 C   0  0  0  0  0  0  0  0  0  0  0  0
    4.3249  -20.5890   23.1528 N   0  0  0  0  0  0  0  0  0  0  0  0
    2.1046  -21.0441   23.8255 N   0  0  0  0  0  0  0  0  0  0  0  0
    1.0337  -20.9396   24.6803 C   0  0  0  0  0  0  0  0  0  0  0  0
    1.1857  -20.2145   25.8421 C   0  0  0  0  0  0  0  0  0  0  0  0
    2.4413  -19.5985   26.1139 C   0  0  0  0  0  0  0  0  0  0  0  0
    2.6051  -18.8675   27.2693 O   0  0  0  0  0  0  0  0  0  0  0  0
   -0.0670  -20.2883   26.5303 C   0  0  0  0  0  0  0  0  0  0  0  0
   -0.9171  -21.0610   25.7271 C   0  0  0  0  0  0  0  0  0  0  0  0
   -0.2483  -21.4396   24.6306 N   0  0  0  0  0  0  0  0  0  0  0  0
  1  2  1  0  0  0  0
  1  7  1  0  0  0  0
  2  3  1  0  0  0  0
  2  4  2  0  0  0  0
  4  5  1  0  0  0  0
  5  6  2  0  0  0  0
  5 11  1  0  0  0  0
  6  7  1  0  0  0  0
  6  9  1  0  0  0  0
  7  8  2  0  0  0  0
  9 10  2  0  0  0  0
 10 11  1  0  0  0  0
M  END
>  <CHROM.1>
1.80441085,-20.35823463,25.19323284,-0.25449197,0.31191142,1.04944200

>  <Name>
ligand

>  <RI>
0

>  <Rbt.Current_Directory>
/home/itssahil/PROJECTS/Mol_Feturizer/New_Systems/rnas/4LVW

>  <Rbt.Executable>
rbdock ($Id: //depot/dev/client3/rdock/2013.1/src/exe/rbdock.cxx#4 $)

>  <Rbt.Library>
libRbt.so (2013.1, Build901 2013/11/27)

>  <Rbt.Parameter_File>
/export/apps/rDock/src/rDock_2013.1_src/data/scripts/dock_solv.prm

>  <Rbt.Receptor>
prm/pocket_docking_7.prm

>  <SCORE>
-13.9366

>  <SCORE.INTER>
-13.9366

>  <SCORE.INTER.CONST>
1

>  <SCORE.INTER.POLAR>
0

>  <SCORE.INTER.ROT>
0

>  <SCORE.INTER.SOLV>
5.42876

>  <SCORE.INTER.VDW>
-14.7006

>  <SCORE.INTER.norm>
-1.26696

>  <SCORE.INTRA>
0

>  <SCORE.INTRA.DIHEDRAL>
0

>  <SCORE.INTRA.DIHEDRAL.0>
0

>  <SCORE.INTRA.POLAR>
0

>  <SCORE.INTRA.POLAR.0>
0

>  <SCORE.INTRA.REPUL>
0

>  <SCORE.INTRA.REPUL.0>
0

>  <SCORE.INTRA.SOLV>
0

>  <SCORE.INTRA.SOLV.lig_0>
-29.307

>  <SCORE.INTRA.VDW>
0

>  <SCORE.INTRA.VDW.0>
0

>  <SCORE.INTRA.norm>
0

>  <SCORE.RESTR>
0

>  <SCORE.RESTR.CAVITY>
0

>  <SCORE.RESTR.norm>
0

>  <SCORE.SYSTEM>
0

>  <SCORE.SYSTEM.CONST>
0

>  <SCORE.SYSTEM.DIHEDRAL>
0

>  <SCORE.SYSTEM.SOLV>
0

>  <SCORE.SYSTEM.norm>
0

>  <SCORE.heavy>
11

>  <SCORE.norm>
-1.26696

>  <RMSD>
3.443

$$$$
ligand
 OpenBabel11021811503D
libRbt.so/2013.1/901 2013/11/27
 11 12  0  0  0  0  0  0  0  0999 V2000
    3.4576  -19.7130   25.2041 N   0  0  0  0  0  0  0  0  0  0  0  0
    3.2736  -20.4427   24.0896 C   0  0  0  0  0  0  0  0  0  0  0  0
    4.3334  -20.5977   23.1461 N   0  0  0  0  0  0  0  0  0  0  0  0
    2.1141  -21.0513   23.8230 N   0  0  0  0  0  0  0  0  0  0  0  0
    1.0426  -20.9402   24.6762 C   0  0  0  0  0  0  0  0  0  0  0  0
    1.1921  -20.2016   25.8299 C   0  0  0  0  0  0  0  0  0  0  0  0
    2.4459  -19.5791   26.0952 C   0  0  0  0  0  0  0  0  0  0  0  0
    2.6072  -18.8346   27.2424 O   0  0  0  0  0  0  0  0  0  0  0  0
   -0.0606  -20.2710   26.5183 C   0  0  0  0  0  0  0  0  0  0  0  0
   -0.9083  -21.0551   25.7236 C   0  0  0  0  0  0  0  0  0  0  0  0
   -0.2380  -21.4442   24.6317 N   0  0  0  0  0  0  0  0  0  0  0  0
  1  2  1  0  0  0  0
  1  7  1  0  0  0  0
  2  3  1  0  0  0  0
  2  4  2  0  0  0  0
  4  5  1  0  0  0  0
  5  6  2  0  0  0  0
  5 11  1  0  0  0  0
  6  7  1  0  0  0  0
  6  9  1  0  0  0  0
  7  8  2  0  0  0  0
  9 10  2  0  0  0  0
 10 11  1  0  0  0  0
M  END
>  <CHROM.1>
1.81148732,-20.35091438,25.18287299,-0.25268741,0.31409525,1.03762079

>  <Name>
ligand

>  <RI>
0

>  <Rbt.Current_Directory>
/home/itssahil/PROJECTS/Mol_Feturizer/New_Systems/rnas/4LVW

>  <Rbt.Executable>
rbdock ($Id: //depot/dev/client3/rdock/2013.1/src/exe/rbdock.cxx#4 $)

>  <Rbt.Library>
libRbt.so (2013.1, Build901 2013/11/27)

>  <Rbt.Parameter_File>
/export/apps/rDock/src/rDock_2013.1_src/data/scripts/dock_solv.prm

>  <Rbt.Receptor>
prm/pocket_docking_7.prm

>  <SCORE>
-13.9585

>  <SCORE.INTER>
-13.9585

>  <SCORE.INTER.CONST>
1

>  <SCORE.INTER.POLAR>
0

>  <SCORE.INTER.ROT>
0

>  <SCORE.INTER.SOLV>
5.43721

>  <SCORE.INTER.VDW>
-14.7181

>  <SCORE.INTER.norm>
-1.26896

>  <SCORE.INTRA>
0

>  <SCORE.INTRA.DIHEDRAL>
0

>  <SCORE.INTRA.DIHEDRAL.0>
0

>  <SCORE.INTRA.POLAR>
0

>  <SCORE.INTRA.POLAR.0>
0

>  <SCORE.INTRA.REPUL>
0

>  <SCORE.INTRA.REPUL.0>
0

>  <SCORE.INTRA.SOLV>
0

>  <SCORE.INTRA.SOLV.lig_0>
-29.307

>  <SCORE.INTRA.VDW>
0

>  <SCORE.INTRA.VDW.0>
0

>  <SCORE.INTRA.norm>
0

>  <SCORE.RESTR>
0

>  <SCORE.RESTR.CAVITY>
0

>  <SCORE.RESTR.norm>
0

>  <SCORE.SYSTEM>
0

>  <SCORE.SYSTEM.CONST>
0

>  <SCORE.SYSTEM.DIHEDRAL>
0

>  <SCORE.SYSTEM.SOLV>
0

>  <SCORE.SYSTEM.norm>
0

>  <SCORE.heavy>
11

>  <SCORE.norm>
-1.26896

>  <RMSD>
3.443

$$$$
ligand
 OpenBabel11021811503D
libRbt.so/2013.1/901 2013/11/27
 11 12  0  0  0  0  0  0  0  0999 V2000
    3.4548  -19.7295   25.2166 N   0  0  0  0  0  0  0  0  0  0  0  0
    3.2686  -20.4480   24.0953 C   0  0  0  0  0  0  0  0  0  0  0  0
    4.3283  -20.5983   23.1509 N   0  0  0  0  0  0  0  0  0  0  0  0
    2.1069  -21.0497   23.8225 N   0  0  0  0  0  0  0  0  0  0  0  0
    1.0354  -20.9424   24.6762 C   0  0  0  0  0  0  0  0  0  0  0  0
    1.1872  -20.2152   25.8368 C   0  0  0  0  0  0  0  0  0  0  0  0
    2.4432  -19.6000   26.1084 C   0  0  0  0  0  0  0  0  0  0  0  0
    2.6068  -18.8668   27.2625 O   0  0  0  0  0  0  0  0  0  0  0  0
   -0.0661  -20.2862   26.5240 C   0  0  0  0  0  0  0  0  0  0  0  0
   -0.9164  -21.0596   25.7216 C   0  0  0  0  0  0  0  0  0  0  0  0
   -0.2470  -21.4411   24.6264 N   0  0  0  0  0  0  0  0  0  0  0  0
  1  2  1  0  0  0  0
  1  7  1  0  0  0  0
  2  3  1  0  0  0  0
  2  4  2  0  0  0  0
  4  5  1  0  0  0  0
  5  6  2  0  0  0  0
  5 11  1  0  0  0  0
  6  7  1  0  0  0  0
  6  9  1  0  0  0  0
  7  8  2  0  0  0  0
  9 10  2  0  0  0  0
 10 11  1  0  0  0  0
M  END
>  <CHROM.1>
1.80631161,-20.36082964,25.18866678,-0.25429347,0.31055885,1.04741534

>  <Name>
ligand

>  <RI>
0

>  <Rbt.Current_Directory>
/home/itssahil/PROJECTS/Mol_Feturizer/New_Systems/rnas/4LVW

>  <Rbt.Executable>
rbdock ($Id: //depot/dev/client3/rdock/2013.1/src/exe/rbdock.cxx#4 $)

>  <Rbt.Library>
libRbt.so (2013.1, Build901 2013/11/27)

>  <Rbt.Parameter_File>
/export/apps/rDock/src/rDock_2013.1_src/data/scripts/dock_solv.prm

>  <Rbt.Receptor>
prm/pocket_docking_7.prm

>  <SCORE>
-13.9405

>  <SCORE.INTER>
-13.9405

>  <SCORE.INTER.CONST>
1

>  <SCORE.INTER.POLAR>
0

>  <SCORE.INTER.ROT>
0

>  <SCORE.INTER.SOLV>
5.42879

>  <SCORE.INTER.VDW>
-14.7033

>  <SCORE.INTER.norm>
-1.26732

>  <SCORE.INTRA>
0

>  <SCORE.INTRA.DIHEDRAL>
0

>  <SCORE.INTRA.DIHEDRAL.0>
0

>  <SCORE.INTRA.POLAR>
0

>  <SCORE.INTRA.POLAR.0>
0

>  <SCORE.INTRA.REPUL>
0

>  <SCORE.INTRA.REPUL.0>
0

>  <SCORE.INTRA.SOLV>
0

>  <SCORE.INTRA.SOLV.lig_0>
-29.307

>  <SCORE.INTRA.VDW>
0

>  <SCORE.INTRA.VDW.0>
0

>  <SCORE.INTRA.norm>
0

>  <SCORE.RESTR>
0

>  <SCORE.RESTR.CAVITY>
0

>  <SCORE.RESTR.norm>
0

>  <SCORE.SYSTEM>
0

>  <SCORE.SYSTEM.CONST>
0

>  <SCORE.SYSTEM.DIHEDRAL>
0

>  <SCORE.SYSTEM.SOLV>
0

>  <SCORE.SYSTEM.norm>
0

>  <SCORE.heavy>
11

>  <SCORE.norm>
-1.26732

>  <RMSD>
3.443

$$$$
ligand
 OpenBabel11021811503D
libRbt.so/2013.1/901 2013/11/27
 11 12  0  0  0  0  0  0  0  0999 V2000
    3.4570  -19.7129   25.1990 N   0  0  0  0  0  0  0  0  0  0  0  0
    3.2711  -20.4403   24.0833 C   0  0  0  0  0  0  0  0  0  0  0  0
    4.3294  -20.5933   23.1377 N   0  0  0  0  0  0  0  0  0  0  0  0
    2.1113  -21.0485   23.8174 N   0  0  0  0  0  0  0  0  0  0  0  0
    1.0412  -20.9392   24.6726 C   0  0  0  0  0  0  0  0  0  0  0  0
    1.1926  -20.2030   25.8276 C   0  0  0  0  0  0  0  0  0  0  0  0
    2.4468  -19.5810   26.0921 C   0  0  0  0  0  0  0  0  0  0  0  0
    2.6100  -18.8388   27.2405 O   0  0  0  0  0  0  0  0  0  0  0  0
   -0.0590  -20.2739   26.5180 C   0  0  0  0  0  0  0  0  0  0  0  0
   -0.9080  -21.0565   25.7231 C   0  0  0  0  0  0  0  0  0  0  0  0
   -0.2394  -21.4432   24.6293 N   0  0  0  0  0  0  0  0  0  0  0  0
  1  2  1  0  0  0  0
  1  7  1  0  0  0  0
  2  3  1  0  0  0  0
  2  4  2  0  0  0  0
  4  5  1  0  0  0  0
  5  6  2  0  0  0  0
  5 11  1  0  0  0  0
  6  7  1  0  0  0  0
  6  9  1  0  0  0  0
  7  8  2  0  0  0  0
  9 10  2  0  0  0  0
 10 11  1  0  0  0  0
M  END
>  <CHROM.1>
1.81087775,-20.35091363,25.17923183,-0.25417865,0.31501968,1.04013832

>  <Name>
ligand

>  <RI>
0

>  <Rbt.Current_Directory>
/home/itssahil/PROJECTS/Mol_Feturizer/New_Systems/rnas/4LVW

>  <Rbt.Executable>
rbdock ($Id: //depot/dev/client3/rdock/2013.1/src/exe/rbdock.cxx#4 $)

>  <Rbt.Library>
libRbt.so (2013.1, Build901 2013/11/27)

>  <Rbt.Parameter_File>
/export/apps/rDock/src/rDock_2013.1_src/data/scripts/dock_solv.prm

>  <Rbt.Receptor>
prm/pocket_docking_7.prm

>  <SCORE>
-13.9596

>  <SCORE.INTER>
-13.9596

>  <SCORE.INTER.CONST>
1

>  <SCORE.INTER.POLAR>
0

>  <SCORE.INTER.ROT>
0

>  <SCORE.INTER.SOLV>
5.45488

>  <SCORE.INTER.VDW>
-14.7247

>  <SCORE.INTER.norm>
-1.26905

>  <SCORE.INTRA>
0

>  <SCORE.INTRA.DIHEDRAL>
0

>  <SCORE.INTRA.DIHEDRAL.0>
0

>  <SCORE.INTRA.POLAR>
0

>  <SCORE.INTRA.POLAR.0>
0

>  <SCORE.INTRA.REPUL>
0

>  <SCORE.INTRA.REPUL.0>
0

>  <SCORE.INTRA.SOLV>
0

>  <SCORE.INTRA.SOLV.lig_0>
-29.307

>  <SCORE.INTRA.VDW>
0

>  <SCORE.INTRA.VDW.0>
0

>  <SCORE.INTRA.norm>
0

>  <SCORE.RESTR>
0

>  <SCORE.RESTR.CAVITY>
0

>  <SCORE.RESTR.norm>
0

>  <SCORE.SYSTEM>
0

>  <SCORE.SYSTEM.CONST>
0

>  <SCORE.SYSTEM.DIHEDRAL>
0

>  <SCORE.SYSTEM.SOLV>
0

>  <SCORE.SYSTEM.norm>
0

>  <SCORE.heavy>
11

>  <SCORE.norm>
-1.26905

>  <RMSD>
3.443

$$$$
ligand
 OpenBabel11021811503D
libRbt.so/2013.1/901 2013/11/27
 11 12  0  0  0  0  0  0  0  0999 V2000
    3.4531  -19.7145   25.2408 N   0  0  0  0  0  0  0  0  0  0  0  0
    3.2737  -20.4288   24.1157 C   0  0  0  0  0  0  0  0  0  0  0  0
    4.3378  -20.5722   23.1752 N   0  0  0  0  0  0  0  0  0  0  0  0
    2.1149  -21.0326   23.8354 N   0  0  0  0  0  0  0  0  0  0  0  0
    1.0394  -20.9320   24.6849 C   0  0  0  0  0  0  0  0  0  0  0  0
    1.1842  -20.2092   25.8492 C   0  0  0  0  0  0  0  0  0  0  0  0
    2.4372  -19.5917   26.1288 C   0  0  0  0  0  0  0  0  0  0  0  0
    2.5938  -18.8629   27.2867 O   0  0  0  0  0  0  0  0  0  0  0  0
   -0.0719  -20.2867   26.5307 C   0  0  0  0  0  0  0  0  0  0  0  0
   -0.9166  -21.0591   25.7214 C   0  0  0  0  0  0  0  0  0  0  0  0
   -0.2414  -21.4340   24.6275 N   0  0  0  0  0  0  0  0  0  0  0  0
  1  2  1  0  0  0  0
  1  7  1  0  0  0  0
  2  3  1  0  0  0  0
  2  4  2  0  0  0  0
  4  5  1  0  0  0  0
  5  6  2  0  0  0  0
  5 11  1  0  0  0  0
  6  7  1  0  0  0  0
  6  9  1  0  0  0  0
  7  8  2  0  0  0  0
  9 10  2  0  0  0  0
 10 11  1  0  0  0  0
M  END
>  <CHROM.1>
1.80644859,-20.35039057,25.20313504,-0.24889164,0.31086164,1.04996925

>  <Name>
ligand

>  <RI>
0

>  <Rbt.Current_Directory>
/home/itssahil/PROJECTS/Mol_Feturizer/New_Systems/rnas/4LVW

>  <Rbt.Executable>
rbdock ($Id: //depot/dev/client3/rdock/2013.1/src/exe/rbdock.cxx#4 $)

>  <Rbt.Library>
libRbt.so (2013.1, Build901 2013/11/27)

>  <Rbt.Parameter_File>
/export/apps/rDock/src/rDock_2013.1_src/data/scripts/dock_solv.prm

>  <Rbt.Receptor>
prm/pocket_docking_7.prm

>  <SCORE>
-13.9261

>  <SCORE.INTER>
-13.9261

>  <SCORE.INTER.CONST>
1

>  <SCORE.INTER.POLAR>
0

>  <SCORE.INTER.ROT>
0

>  <SCORE.INTER.SOLV>
5.35527

>  <SCORE.INTER.VDW>
-14.6692

>  <SCORE.INTER.norm>
-1.26601

>  <SCORE.INTRA>
0

>  <SCORE.INTRA.DIHEDRAL>
0

>  <SCORE.INTRA.DIHEDRAL.0>
0

>  <SCORE.INTRA.POLAR>
0

>  <SCORE.INTRA.POLAR.0>
0

>  <SCORE.INTRA.REPUL>
0

>  <SCORE.INTRA.REPUL.0>
0

>  <SCORE.INTRA.SOLV>
0

>  <SCORE.INTRA.SOLV.lig_0>
-29.307

>  <SCORE.INTRA.VDW>
0

>  <SCORE.INTRA.VDW.0>
0

>  <SCORE.INTRA.norm>
0

>  <SCORE.RESTR>
0

>  <SCORE.RESTR.CAVITY>
0

>  <SCORE.RESTR.norm>
0

>  <SCORE.SYSTEM>
0

>  <SCORE.SYSTEM.CONST>
0

>  <SCORE.SYSTEM.DIHEDRAL>
0

>  <SCORE.SYSTEM.SOLV>
0

>  <SCORE.SYSTEM.norm>
0

>  <SCORE.heavy>
11

>  <SCORE.norm>
-1.26601

>  <RMSD>
3.443

$$$$
ligand
 OpenBabel11021811503D
libRbt.so/2013.1/901 2013/11/27
 11 12  0  0  0  0  0  0  0  0999 V2000
    3.4584  -19.7183   25.2015 N   0  0  0  0  0  0  0  0  0  0  0  0
    3.2722  -20.4461   24.0861 C   0  0  0  0  0  0  0  0  0  0  0  0
    4.3310  -20.6019   23.1417 N   0  0  0  0  0  0  0  0  0  0  0  0
    2.1113  -21.0521   23.8195 N   0  0  0  0  0  0  0  0  0  0  0  0
    1.0406  -20.9400   24.6736 C   0  0  0  0  0  0  0  0  0  0  0  0
    1.1925  -20.2034   25.8282 C   0  0  0  0  0  0  0  0  0  0  0  0
    2.4476  -19.5837   26.0935 C   0  0  0  0  0  0  0  0  0  0  0  0
    2.6112  -18.8411   27.2415 O   0  0  0  0  0  0  0  0  0  0  0  0
   -0.0599  -20.2713   26.5175 C   0  0  0  0  0  0  0  0  0  0  0  0
   -0.9098  -21.0527   25.7222 C   0  0  0  0  0  0  0  0  0  0  0  0
   -0.2410  -21.4415   24.6294 N   0  0  0  0  0  0  0  0  0  0  0  0
  1  2  1  0  0  0  0
  1  7  1  0  0  0  0
  2  3  1  0  0  0  0
  2  4  2  0  0  0  0
  4  5  1  0  0  0  0
  5  6  2  0  0  0  0
  5 11  1  0  0  0  0
  6  7  1  0  0  0  0
  6  9  1  0  0  0  0
  7  8  2  0  0  0  0
  9 10  2  0  0  0  0
 10 11  1  0  0  0  0
M  END
>  <CHROM.1>
1.81103247,-20.35298694,25.18054061,-0.25438066,0.31278234,1.03951398

>  <Name>
ligand

>  <RI>
0

>  <Rbt.Current_Directory>
/home/itssahil/PROJECTS/Mol_Feturizer/New_Systems/rnas/4LVW

>  <Rbt.Executable>
rbdock ($Id: //depot/dev/client3/rdock/2013.1/src/exe/rbdock.cxx#4 $)

>  <Rbt.Library>
libRbt.so (2013.1, Build901 2013/11/27)

>  <Rbt.Parameter_File>
/export/apps/rDock/src/rDock_2013.1_src/data/scripts/dock_solv.prm

>  <Rbt.Receptor>
prm/pocket_docking_7.prm

>  <SCORE>
-13.9599

>  <SCORE.INTER>
-13.9599

>  <SCORE.INTER.CONST>
1

>  <SCORE.INTER.POLAR>
0

>  <SCORE.INTER.ROT>
0

>  <SCORE.INTER.SOLV>
5.45345

>  <SCORE.INTER.VDW>
-14.7244

>  <SCORE.INTER.norm>
-1.26909

>  <SCORE.INTRA>
0

>  <SCORE.INTRA.DIHEDRAL>
0

>  <SCORE.INTRA.DIHEDRAL.0>
0

>  <SCORE.INTRA.POLAR>
0

>  <SCORE.INTRA.POLAR.0>
0

>  <SCORE.INTRA.REPUL>
0

>  <SCORE.INTRA.REPUL.0>
0

>  <SCORE.INTRA.SOLV>
0

>  <SCORE.INTRA.SOLV.lig_0>
-29.307

>  <SCORE.INTRA.VDW>
0

>  <SCORE.INTRA.VDW.0>
0

>  <SCORE.INTRA.norm>
0

>  <SCORE.RESTR>
0

>  <SCORE.RESTR.CAVITY>
0

>  <SCORE.RESTR.norm>
0

>  <SCORE.SYSTEM>
0

>  <SCORE.SYSTEM.CONST>
0

>  <SCORE.SYSTEM.DIHEDRAL>
0

>  <SCORE.SYSTEM.SOLV>
0

>  <SCORE.SYSTEM.norm>
0

>  <SCORE.heavy>
11

>  <SCORE.norm>
-1.26909

>  <RMSD>
3.443

$$$$
ligand
 OpenBabel11021811503D
libRbt.so/2013.1/901 2013/11/27
 11 12  0  0  0  0  0  0  0  0999 V2000
    3.4446  -19.6905   25.2285 N   0  0  0  0  0  0  0  0  0  0  0  0
    3.2824  -20.4325   24.1188 C   0  0  0  0  0  0  0  0  0  0  0  0
    4.3516  -20.5746   23.1838 N   0  0  0  0  0  0  0  0  0  0  0  0
    2.1368  -21.0656   23.8494 N   0  0  0  0  0  0  0  0  0  0  0  0
    1.0575  -20.9684   24.6944 C   0  0  0  0  0  0  0  0  0  0  0  0
    1.1848  -20.2179   25.8430 C   0  0  0  0  0  0  0  0  0  0  0  0
    2.4244  -19.5691   26.1116 C   0  0  0  0  0  0  0  0  0  0  0  0
    2.5634  -18.8124   27.2537 O   0  0  0  0  0  0  0  0  0  0  0  0
   -0.0711  -20.3060   26.5235 C   0  0  0  0  0  0  0  0  0  0  0  0
   -0.8980  -21.1128   25.7295 C   0  0  0  0  0  0  0  0  0  0  0  0
   -0.2128  -21.4975   24.6454 N   0  0  0  0  0  0  0  0  0  0  0  0
  1  2  1  0  0  0  0
  1  7  1  0  0  0  0
  2  3  1  0  0  0  0
  2  4  2  0  0  0  0
  4  5  1  0  0  0  0
  5  6  2  0  0  0  0
  5 11  1  0  0  0  0
  6  7  1  0  0  0  0
  6  9  1  0  0  0  0
  7  8  2  0  0  0  0
  9 10  2  0  0  0  0
 10 11  1  0  0  0  0
M  END
>  <CHROM.1>
1.81131939,-20.36033757,25.20139389,-0.23603978,0.32718758,1.02426538

>  <Name>
ligand

>  <RI>
0

>  <Rbt.Current_Directory>
/home/itssahil/PROJECTS/Mol_Feturizer/New_Systems/rnas/4LVW

>  <Rbt.Executable>
rbdock ($Id: //depot/dev/client3/rdock/2013.1/src/exe/rbdock.cxx#4 $)

>  <Rbt.Library>
libRbt.so (2013.1, Build901 2013/11/27)

>  <Rbt.Parameter_File>
/export/apps/rDock/src/rDock_2013.1_src/data/scripts/dock_solv.prm

>  <Rbt.Receptor>
prm/pocket_docking_7.prm

>  <SCORE>
-13.8958

>  <SCORE.INTER>
-13.8958

>  <SCORE.INTER.CONST>
1

>  <SCORE.INTER.POLAR>
0

>  <SCORE.INTER.ROT>
0

>  <SCORE.INTER.SOLV>
5.32169

>  <SCORE.INTER.VDW>
-14.6378

>  <SCORE.INTER.norm>
-1.26326

>  <SCORE.INTRA>
0

>  <SCORE.INTRA.DIHEDRAL>
0

>  <SCORE.INTRA.DIHEDRAL.0>
0

>  <SCORE.INTRA.POLAR>
0

>  <SCORE.INTRA.POLAR.0>
0

>  <SCORE.INTRA.REPUL>
0

>  <SCORE.INTRA.REPUL.0>
0

>  <SCORE.INTRA.SOLV>
0

>  <SCORE.INTRA.SOLV.lig_0>
-29.307

>  <SCORE.INTRA.VDW>
0

>  <SCORE.INTRA.VDW.0>
0

>  <SCORE.INTRA.norm>
0

>  <SCORE.RESTR>
0

>  <SCORE.RESTR.CAVITY>
0

>  <SCORE.RESTR.norm>
0

>  <SCORE.SYSTEM>
0

>  <SCORE.SYSTEM.CONST>
0

>  <SCORE.SYSTEM.DIHEDRAL>
0

>  <SCORE.SYSTEM.SOLV>
0

>  <SCORE.SYSTEM.norm>
0

>  <SCORE.heavy>
11

>  <SCORE.norm>
-1.26326

>  <RMSD>
3.443

$$$$
ligand
 OpenBabel11021811503D
libRbt.so/2013.1/901 2013/11/27
 11 12  0  0  0  0  0  0  0  0999 V2000
    3.4553  -19.7302   25.2130 N   0  0  0  0  0  0  0  0  0  0  0  0
    3.2685  -20.4478   24.0912 C   0  0  0  0  0  0  0  0  0  0  0  0
    4.3276  -20.5973   23.1461 N   0  0  0  0  0  0  0  0  0  0  0  0
    2.1067  -21.0494   23.8186 N   0  0  0  0  0  0  0  0  0  0  0  0
    1.0357  -20.9429   24.6730 C   0  0  0  0  0  0  0  0  0  0  0  0
    1.1881  -20.2166   25.8341 C   0  0  0  0  0  0  0  0  0  0  0  0
    2.4442  -19.6015   26.1055 C   0  0  0  0  0  0  0  0  0  0  0  0
    2.6084  -18.8693   27.2601 O   0  0  0  0  0  0  0  0  0  0  0  0
   -0.0648  -20.2882   26.5220 C   0  0  0  0  0  0  0  0  0  0  0  0
   -0.9156  -21.0611   25.7194 C   0  0  0  0  0  0  0  0  0  0  0  0
   -0.2468  -21.4416   24.6236 N   0  0  0  0  0  0  0  0  0  0  0  0
  1  2  1  0  0  0  0
  1  7  1  0  0  0  0
  2  3  1  0  0  0  0
  2  4  2  0  0  0  0
  4  5  1  0  0  0  0
  5  6  2  0  0  0  0
  5 11  1  0  0  0  0
  6  7  1  0  0  0  0
  6  9  1  0  0  0  0
  7  8  2  0  0  0  0
  9 10  2  0  0  0  0
 10 11  1  0  0  0  0
M  END
>  <CHROM.1>
1.80681965,-20.36164858,25.18553017,-0.25476933,0.31091189,1.04836742

>  <Name>
ligand

>  <RI>
0

>  <Rbt.Current_Directory>
/home/itssahil/PROJECTS/Mol_Feturizer/New_Systems/rnas/4LVW

>  <Rbt.Executable>
rbdock ($Id: //depot/dev/client3/rdock/2013.1/src/exe/rbdock.cxx#4 $)

>  <Rbt.Library>
libRbt.so (2013.1, Build901 2013/11/27)

>  <Rbt.Parameter_File>
/export/apps/rDock/src/rDock_2013.1_src/data/scripts/dock_solv.prm

>  <Rbt.Receptor>
prm/pocket_docking_7.prm

>  <SCORE>
-13.9423

>  <SCORE.INTER>
-13.9423

>  <SCORE.INTER.CONST>
1

>  <SCORE.INTER.POLAR>
0

>  <SCORE.INTER.ROT>
0

>  <SCORE.INTER.SOLV>
5.43232

>  <SCORE.INTER.VDW>
-14.7057

>  <SCORE.INTER.norm>
-1.26748

>  <SCORE.INTRA>
0

>  <SCORE.INTRA.DIHEDRAL>
0

>  <SCORE.INTRA.DIHEDRAL.0>
0

>  <SCORE.INTRA.POLAR>
0

>  <SCORE.INTRA.POLAR.0>
0

>  <SCORE.INTRA.REPUL>
0

>  <SCORE.INTRA.REPUL.0>
0

>  <SCORE.INTRA.SOLV>
0

>  <SCORE.INTRA.SOLV.lig_0>
-29.307

>  <SCORE.INTRA.VDW>
0

>  <SCORE.INTRA.VDW.0>
0

>  <SCORE.INTRA.norm>
0

>  <SCORE.RESTR>
0

>  <SCORE.RESTR.CAVITY>
0

>  <SCORE.RESTR.norm>
0

>  <SCORE.SYSTEM>
0

>  <SCORE.SYSTEM.CONST>
0

>  <SCORE.SYSTEM.DIHEDRAL>
0

>  <SCORE.SYSTEM.SOLV>
0

>  <SCORE.SYSTEM.norm>
0

>  <SCORE.heavy>
11

>  <SCORE.norm>
-1.26748

>  <RMSD>
3.443

$$$$
ligand
 OpenBabel11021811503D
libRbt.so/2013.1/901 2013/11/27
 11 12  0  0  0  0  0  0  0  0999 V2000
    3.4564  -19.7272   25.2118 N   0  0  0  0  0  0  0  0  0  0  0  0
    3.2689  -20.4446   24.0899 C   0  0  0  0  0  0  0  0  0  0  0  0
    4.3278  -20.5944   23.1445 N   0  0  0  0  0  0  0  0  0  0  0  0
    2.1068  -21.0455   23.8175 N   0  0  0  0  0  0  0  0  0  0  0  0
    1.0360  -20.9386   24.6722 C   0  0  0  0  0  0  0  0  0  0  0  0
    1.1891  -20.2126   25.8333 C   0  0  0  0  0  0  0  0  0  0  0  0
    2.4456  -19.5982   26.1046 C   0  0  0  0  0  0  0  0  0  0  0  0
    2.6104  -18.8663   27.2593 O   0  0  0  0  0  0  0  0  0  0  0  0
   -0.0637  -20.2837   26.5215 C   0  0  0  0  0  0  0  0  0  0  0  0
   -0.9150  -21.0560   25.7190 C   0  0  0  0  0  0  0  0  0  0  0  0
   -0.2467  -21.4366   24.6230 N   0  0  0  0  0  0  0  0  0  0  0  0
  1  2  1  0  0  0  0
  1  7  1  0  0  0  0
  2  3  1  0  0  0  0
  2  4  2  0  0  0  0
  4  5  1  0  0  0  0
  5  6  2  0  0  0  0
  5 11  1  0  0  0  0
  6  7  1  0  0  0  0
  6  9  1  0  0  0  0
  7  8  2  0  0  0  0
  9 10  2  0  0  0  0
 10 11  1  0  0  0  0
M  END
>  <CHROM.1>
1.80758596,-20.35785058,25.18461553,-0.25526048,0.31058261,1.04871733

>  <Name>
ligand

>  <RI>
0

>  <Rbt.Current_Directory>
/home/itssahil/PROJECTS/Mol_Feturizer/New_Systems/rnas/4LVW

>  <Rbt.Executable>
rbdock ($Id: //depot/dev/client3/rdock/2013.1/src/exe/rbdock.cxx#4 $)

>  <Rbt.Library>
libRbt.so (2013.1, Build901 2013/11/27)

>  <Rbt.Parameter_File>
/export/apps/rDock/src/rDock_2013.1_src/data/scripts/dock_solv.prm

>  <Rbt.Receptor>
prm/pocket_docking_7.prm

>  <SCORE>
-13.9437

>  <SCORE.INTER>
-13.9437

>  <SCORE.INTER.CONST>
1

>  <SCORE.INTER.POLAR>
0

>  <SCORE.INTER.ROT>
0

>  <SCORE.INTER.SOLV>
5.43391

>  <SCORE.INTER.VDW>
-14.7071

>  <SCORE.INTER.norm>
-1.26761

>  <SCORE.INTRA>
0

>  <SCORE.INTRA.DIHEDRAL>
0

>  <SCORE.INTRA.DIHEDRAL.0>
0

>  <SCORE.INTRA.POLAR>
0

>  <SCORE.INTRA.POLAR.0>
0

>  <SCORE.INTRA.REPUL>
0

>  <SCORE.INTRA.REPUL.0>
0

>  <SCORE.INTRA.SOLV>
0

>  <SCORE.INTRA.SOLV.lig_0>
-29.307

>  <SCORE.INTRA.VDW>
0

>  <SCORE.INTRA.VDW.0>
0

>  <SCORE.INTRA.norm>
0

>  <SCORE.RESTR>
0

>  <SCORE.RESTR.CAVITY>
0

>  <SCORE.RESTR.norm>
0

>  <SCORE.SYSTEM>
0

>  <SCORE.SYSTEM.CONST>
0

>  <SCORE.SYSTEM.DIHEDRAL>
0

>  <SCORE.SYSTEM.SOLV>
0

>  <SCORE.SYSTEM.norm>
0

>  <SCORE.heavy>
11

>  <SCORE.norm>
-1.26761

>  <RMSD>
3.443

$$$$
ligand
 OpenBabel11021811503D
libRbt.so/2013.1/901 2013/11/27
 11 12  0  0  0  0  0  0  0  0999 V2000
    3.4573  -19.7140   25.1998 N   0  0  0  0  0  0  0  0  0  0  0  0
    3.2713  -20.4418   24.0844 C   0  0  0  0  0  0  0  0  0  0  0  0
    4.3299  -20.5963   23.1394 N   0  0  0  0  0  0  0  0  0  0  0  0
    2.1111  -21.0492   23.8184 N   0  0  0  0  0  0  0  0  0  0  0  0
    1.0407  -20.9385   24.6731 C   0  0  0  0  0  0  0  0  0  0  0  0
    1.1922  -20.2017   25.8276 C   0  0  0  0  0  0  0  0  0  0  0  0
    2.4468  -19.5806   26.0923 C   0  0  0  0  0  0  0  0  0  0  0  0
    2.6101  -18.8380   27.2404 O   0  0  0  0  0  0  0  0  0  0  0  0
   -0.0597  -20.2712   26.5176 C   0  0  0  0  0  0  0  0  0  0  0  0
   -0.9090  -21.0535   25.7227 C   0  0  0  0  0  0  0  0  0  0  0  0
   -0.2403  -21.4414   24.6294 N   0  0  0  0  0  0  0  0  0  0  0  0
  1  2  1  0  0  0  0
  1  7  1  0  0  0  0
  2  3  1  0  0  0  0
  2  4  2  0  0  0  0
  4  5  1  0  0  0  0
  5  6  2  0  0  0  0
  5 11  1  0  0  0  0
  6  7  1  0  0  0  0
  6  9  1  0  0  0  0
  7  8  2  0  0  0  0
  9 10  2  0  0  0  0
 10 11  1  0  0  0  0
M  END
>  <CHROM.1>
1.81066244,-20.35056895,25.17964097,-0.25423271,0.31405784,1.03956790

>  <Name>
ligand

>  <RI>
0

>  <Rbt.Current_Directory>
/home/itssahil/PROJECTS/Mol_Feturizer/New_Systems/rnas/4LVW

>  <Rbt.Executable>
rbdock ($Id: //depot/dev/client3/rdock/2013.1/src/exe/rbdock.cxx#4 $)

>  <Rbt.Library>
libRbt.so (2013.1, Build901 2013/11/27)

>  <Rbt.Parameter_File>
/export/apps/rDock/src/rDock_2013.1_src/data/scripts/dock_solv.prm

>  <Rbt.Receptor>
prm/pocket_docking_7.prm

>  <SCORE>
-13.9594

>  <SCORE.INTER>
-13.9594

>  <SCORE.INTER.CONST>
1

>  <SCORE.INTER.POLAR>
0

>  <SCORE.INTER.ROT>
0

>  <SCORE.INTER.SOLV>
5.45368

>  <SCORE.INTER.VDW>
-14.7241

>  <SCORE.INTER.norm>
-1.26903

>  <SCORE.INTRA>
0

>  <SCORE.INTRA.DIHEDRAL>
0

>  <SCORE.INTRA.DIHEDRAL.0>
0

>  <SCORE.INTRA.POLAR>
0

>  <SCORE.INTRA.POLAR.0>
0

>  <SCORE.INTRA.REPUL>
0

>  <SCORE.INTRA.REPUL.0>
0

>  <SCORE.INTRA.SOLV>
0

>  <SCORE.INTRA.SOLV.lig_0>
-29.307

>  <SCORE.INTRA.VDW>
0

>  <SCORE.INTRA.VDW.0>
0

>  <SCORE.INTRA.norm>
0

>  <SCORE.RESTR>
0

>  <SCORE.RESTR.CAVITY>
0

>  <SCORE.RESTR.norm>
0

>  <SCORE.SYSTEM>
0

>  <SCORE.SYSTEM.CONST>
0

>  <SCORE.SYSTEM.DIHEDRAL>
0

>  <SCORE.SYSTEM.SOLV>
0

>  <SCORE.SYSTEM.norm>
0

>  <SCORE.heavy>
11

>  <SCORE.norm>
-1.26903

>  <RMSD>
3.443

$$$$
ligand
 OpenBabel11021811503D
libRbt.so/2013.1/901 2013/11/27
 11 12  0  0  0  0  0  0  0  0999 V2000
    3.4547  -19.7214   25.2103 N   0  0  0  0  0  0  0  0  0  0  0  0
    3.2687  -20.4407   24.0894 C   0  0  0  0  0  0  0  0  0  0  0  0
    4.3277  -20.5894   23.1441 N   0  0  0  0  0  0  0  0  0  0  0  0
    2.1079  -21.0447   23.8180 N   0  0  0  0  0  0  0  0  0  0  0  0
    1.0370  -20.9391   24.6727 C   0  0  0  0  0  0  0  0  0  0  0  0
    1.1886  -20.2112   25.8328 C   0  0  0  0  0  0  0  0  0  0  0  0
    2.4437  -19.5936   26.1031 C   0  0  0  0  0  0  0  0  0  0  0  0
    2.6070  -18.8597   27.2567 O   0  0  0  0  0  0  0  0  0  0  0  0
   -0.0639  -20.2844   26.5213 C   0  0  0  0  0  0  0  0  0  0  0  0
   -0.9136  -21.0597   25.7200 C   0  0  0  0  0  0  0  0  0  0  0  0
   -0.2445  -21.4403   24.6244 N   0  0  0  0  0  0  0  0  0  0  0  0
  1  2  1  0  0  0  0
  1  7  1  0  0  0  0
  2  3  1  0  0  0  0
  2  4  2  0  0  0  0
  4  5  1  0  0  0  0
  5  6  2  0  0  0  0
  5 11  1  0  0  0  0
  6  7  1  0  0  0  0
  6  9  1  0  0  0  0
  7  8  2  0  0  0  0
  9 10  2  0  0  0  0
 10 11  1  0  0  0  0
M  END
>  <CHROM.1>
1.80730989,-20.35592667,25.18421990,-0.25417666,0.31268391,1.04701081

>  <Name>
ligand

>  <RI>
0

>  <Rbt.Current_Directory>
/home/itssahil/PROJECTS/Mol_Feturizer/New_Systems/rnas/4LVW

>  <Rbt.Executable>
rbdock ($Id: //depot/dev/client3/rdock/2013.1/src/exe/rbdock.cxx#4 $)

>  <Rbt.Library>
libRbt.so (2013.1, Build901 2013/11/27)

>  <Rbt.Parameter_File>
/export/apps/rDock/src/rDock_2013.1_src/data/scripts/dock_solv.prm

>  <Rbt.Receptor>
prm/pocket_docking_7.prm

>  <SCORE>
-13.9411

>  <SCORE.INTER>
-13.9411

>  <SCORE.INTER.CONST>
1

>  <SCORE.INTER.POLAR>
0

>  <SCORE.INTER.ROT>
0

>  <SCORE.INTER.SOLV>
5.43619

>  <SCORE.INTER.VDW>
-14.7061

>  <SCORE.INTER.norm>
-1.26738

>  <SCORE.INTRA>
0

>  <SCORE.INTRA.DIHEDRAL>
0

>  <SCORE.INTRA.DIHEDRAL.0>
0

>  <SCORE.INTRA.POLAR>
0

>  <SCORE.INTRA.POLAR.0>
0

>  <SCORE.INTRA.REPUL>
0

>  <SCORE.INTRA.REPUL.0>
0

>  <SCORE.INTRA.SOLV>
0

>  <SCORE.INTRA.SOLV.lig_0>
-29.307

>  <SCORE.INTRA.VDW>
0

>  <SCORE.INTRA.VDW.0>
0

>  <SCORE.INTRA.norm>
0

>  <SCORE.RESTR>
0

>  <SCORE.RESTR.CAVITY>
0

>  <SCORE.RESTR.norm>
0

>  <SCORE.SYSTEM>
0

>  <SCORE.SYSTEM.CONST>
0

>  <SCORE.SYSTEM.DIHEDRAL>
0

>  <SCORE.SYSTEM.SOLV>
0

>  <SCORE.SYSTEM.norm>
0

>  <SCORE.heavy>
11

>  <SCORE.norm>
-1.26738

>  <RMSD>
3.443

$$$$
ligand
 OpenBabel11021811503D
libRbt.so/2013.1/901 2013/11/27
 11 12  0  0  0  0  0  0  0  0999 V2000
    3.4507  -19.7148   25.2270 N   0  0  0  0  0  0  0  0  0  0  0  0
    3.2686  -20.4310   24.1035 C   0  0  0  0  0  0  0  0  0  0  0  0
    4.3296  -20.5734   23.1593 N   0  0  0  0  0  0  0  0  0  0  0  0
    2.1102  -21.0377   23.8283 N   0  0  0  0  0  0  0  0  0  0  0  0
    1.0376  -20.9381   24.6816 C   0  0  0  0  0  0  0  0  0  0  0  0
    1.1851  -20.2135   25.8444 C   0  0  0  0  0  0  0  0  0  0  0  0
    2.4379  -19.5929   26.1186 C   0  0  0  0  0  0  0  0  0  0  0  0
    2.5972  -18.8623   27.2749 O   0  0  0  0  0  0  0  0  0  0  0  0
   -0.0683  -20.2927   26.5306 C   0  0  0  0  0  0  0  0  0  0  0  0
   -0.9143  -21.0680   25.7255 C   0  0  0  0  0  0  0  0  0  0  0  0
   -0.2424  -21.4429   24.6296 N   0  0  0  0  0  0  0  0  0  0  0  0
  1  2  1  0  0  0  0
  1  7  1  0  0  0  0
  2  3  1  0  0  0  0
  2  4  2  0  0  0  0
  4  5  1  0  0  0  0
  5  6  2  0  0  0  0
  5 11  1  0  0  0  0
  6  7  1  0  0  0  0
  6  9  1  0  0  0  0
  7  8  2  0  0  0  0
  9 10  2  0  0  0  0
 10 11  1  0  0  0  0
M  END
>  <CHROM.1>
1.80529366,-20.35422839,25.19625169,-0.25114566,0.31452367,1.04932300

>  <Name>
ligand

>  <RI>
0

>  <Rbt.Current_Directory>
/home/itssahil/PROJECTS/Mol_Feturizer/New_Systems/rnas/4LVW

>  <Rbt.Executable>
rbdock ($Id: //depot/dev/client3/rdock/2013.1/src/exe/rbdock.cxx#4 $)

>  <Rbt.Library>
libRbt.so (2013.1, Build901 2013/11/27)

>  <Rbt.Parameter_File>
/export/apps/rDock/src/rDock_2013.1_src/data/scripts/dock_solv.prm

>  <Rbt.Receptor>
prm/pocket_docking_8.prm

>  <SCORE>
-13.9331

>  <SCORE.INTER>
-13.9331

>  <SCORE.INTER.CONST>
1

>  <SCORE.INTER.POLAR>
0

>  <SCORE.INTER.ROT>
0

>  <SCORE.INTER.SOLV>
5.39592

>  <SCORE.INTER.VDW>
-14.6874

>  <SCORE.INTER.norm>
-1.26665

>  <SCORE.INTRA>
0

>  <SCORE.INTRA.DIHEDRAL>
0

>  <SCORE.INTRA.DIHEDRAL.0>
0

>  <SCORE.INTRA.POLAR>
0

>  <SCORE.INTRA.POLAR.0>
0

>  <SCORE.INTRA.REPUL>
0

>  <SCORE.INTRA.REPUL.0>
0

>  <SCORE.INTRA.SOLV>
0

>  <SCORE.INTRA.SOLV.lig_0>
-29.307

>  <SCORE.INTRA.VDW>
0

>  <SCORE.INTRA.VDW.0>
0

>  <SCORE.INTRA.norm>
0

>  <SCORE.RESTR>
0

>  <SCORE.RESTR.CAVITY>
0

>  <SCORE.RESTR.norm>
0

>  <SCORE.SYSTEM>
0

>  <SCORE.SYSTEM.CONST>
0

>  <SCORE.SYSTEM.DIHEDRAL>
0

>  <SCORE.SYSTEM.SOLV>
0

>  <SCORE.SYSTEM.norm>
0

>  <SCORE.heavy>
11

>  <SCORE.norm>
-1.26665

>  <RMSD>
3.443

$$$$
ligand
 OpenBabel11021811503D
libRbt.so/2013.1/901 2013/11/27
 11 12  0  0  0  0  0  0  0  0999 V2000
    3.4572  -19.7253   25.2112 N   0  0  0  0  0  0  0  0  0  0  0  0
    3.2703  -20.4453   24.0909 C   0  0  0  0  0  0  0  0  0  0  0  0
    4.3297  -20.5974   23.1465 N   0  0  0  0  0  0  0  0  0  0  0  0
    2.1083  -21.0468   23.8192 N   0  0  0  0  0  0  0  0  0  0  0  0
    1.0370  -20.9378   24.6730 C   0  0  0  0  0  0  0  0  0  0  0  0
    1.1895  -20.2091   25.8325 C   0  0  0  0  0  0  0  0  0  0  0  0
    2.4458  -19.5941   26.1031 C   0  0  0  0  0  0  0  0  0  0  0  0
    2.6100  -18.8595   27.2561 O   0  0  0  0  0  0  0  0  0  0  0  0
   -0.0638  -20.2786   26.5201 C   0  0  0  0  0  0  0  0  0  0  0  0
   -0.9146  -21.0527   25.7190 C   0  0  0  0  0  0  0  0  0  0  0  0
   -0.2457  -21.4359   24.6242 N   0  0  0  0  0  0  0  0  0  0  0  0
  1  2  1  0  0  0  0
  1  7  1  0  0  0  0
  2  3  1  0  0  0  0
  2  4  2  0  0  0  0
  4  5  1  0  0  0  0
  5  6  2  0  0  0  0
  5 11  1  0  0  0  0
  6  7  1  0  0  0  0
  6  9  1  0  0  0  0
  7  8  2  0  0  0  0
  9 10  2  0  0  0  0
 10 11  1  0  0  0  0
M  END
>  <CHROM.1>
1.80831799,-20.35591687,25.18451510,-0.25474484,0.31026379,1.04618926

>  <Name>
ligand

>  <RI>
0

>  <Rbt.Current_Directory>
/home/itssahil/PROJECTS/Mol_Feturizer/New_Systems/rnas/4LVW

>  <Rbt.Executable>
rbdock ($Id: //depot/dev/client3/rdock/2013.1/src/exe/rbdock.cxx#4 $)

>  <Rbt.Library>
libRbt.so (2013.1, Build901 2013/11/27)

>  <Rbt.Parameter_File>
/export/apps/rDock/src/rDock_2013.1_src/data/scripts/dock_solv.prm

>  <Rbt.Receptor>
prm/pocket_docking_8.prm

>  <SCORE>
-13.9432

>  <SCORE.INTER>
-13.9432

>  <SCORE.INTER.CONST>
1

>  <SCORE.INTER.POLAR>
0

>  <SCORE.INTER.ROT>
0

>  <SCORE.INTER.SOLV>
5.43417

>  <SCORE.INTER.VDW>
-14.7068

>  <SCORE.INTER.norm>
-1.26756

>  <SCORE.INTRA>
0

>  <SCORE.INTRA.DIHEDRAL>
0

>  <SCORE.INTRA.DIHEDRAL.0>
0

>  <SCORE.INTRA.POLAR>
0

>  <SCORE.INTRA.POLAR.0>
0

>  <SCORE.INTRA.REPUL>
0

>  <SCORE.INTRA.REPUL.0>
0

>  <SCORE.INTRA.SOLV>
0

>  <SCORE.INTRA.SOLV.lig_0>
-29.307

>  <SCORE.INTRA.VDW>
0

>  <SCORE.INTRA.VDW.0>
0

>  <SCORE.INTRA.norm>
0

>  <SCORE.RESTR>
0

>  <SCORE.RESTR.CAVITY>
0

>  <SCORE.RESTR.norm>
0

>  <SCORE.SYSTEM>
0

>  <SCORE.SYSTEM.CONST>
0

>  <SCORE.SYSTEM.DIHEDRAL>
0

>  <SCORE.SYSTEM.SOLV>
0

>  <SCORE.SYSTEM.norm>
0

>  <SCORE.heavy>
11

>  <SCORE.norm>
-1.26756

>  <RMSD>
3.443

$$$$
ligand
 OpenBabel11021811503D
libRbt.so/2013.1/901 2013/11/27
 11 12  0  0  0  0  0  0  0  0999 V2000
    3.4544  -19.7262   25.2265 N   0  0  0  0  0  0  0  0  0  0  0  0
    3.2723  -20.4491   24.1073 C   0  0  0  0  0  0  0  0  0  0  0  0
    4.3349  -20.6015   23.1665 N   0  0  0  0  0  0  0  0  0  0  0  0
    2.1123  -21.0533   23.8335 N   0  0  0  0  0  0  0  0  0  0  0  0
    1.0382  -20.9443   24.6837 C   0  0  0  0  0  0  0  0  0  0  0  0
    1.1857  -20.2126   25.8420 C   0  0  0  0  0  0  0  0  0  0  0  0
    2.4401  -19.5948   26.1150 C   0  0  0  0  0  0  0  0  0  0  0  0
    2.5994  -18.8571   27.2668 O   0  0  0  0  0  0  0  0  0  0  0  0
   -0.0695  -20.2828   26.5259 C   0  0  0  0  0  0  0  0  0  0  0  0
   -0.9165  -21.0603   25.7240 C   0  0  0  0  0  0  0  0  0  0  0  0
   -0.2435  -21.4449   24.6322 N   0  0  0  0  0  0  0  0  0  0  0  0
  1  2  1  0  0  0  0
  1  7  1  0  0  0  0
  2  3  1  0  0  0  0
  2  4  2  0  0  0  0
  4  5  1  0  0  0  0
  5  6  2  0  0  0  0
  5 11  1  0  0  0  0
  6  7  1  0  0  0  0
  6  9  1  0  0  0  0
  7  8  2  0  0  0  0
  9 10  2  0  0  0  0
 10 11  1  0  0  0  0
M  END
>  <CHROM.1>
1.80683828,-20.35985565,25.19624083,-0.25099452,0.31028471,1.04270731

>  <Name>
ligand

>  <RI>
0

>  <Rbt.Current_Directory>
/home/itssahil/PROJECTS/Mol_Feturizer/New_Systems/rnas/4LVW

>  <Rbt.Executable>
rbdock ($Id: //depot/dev/client3/rdock/2013.1/src/exe/rbdock.cxx#4 $)

>  <Rbt.Library>
libRbt.so (2013.1, Build901 2013/11/27)

>  <Rbt.Parameter_File>
/export/apps/rDock/src/rDock_2013.1_src/data/scripts/dock_solv.prm

>  <Rbt.Receptor>
prm/pocket_docking_8.prm

>  <SCORE>
-13.9351

>  <SCORE.INTER>
-13.9351

>  <SCORE.INTER.CONST>
1

>  <SCORE.INTER.POLAR>
0

>  <SCORE.INTER.ROT>
0

>  <SCORE.INTER.SOLV>
5.40163

>  <SCORE.INTER.VDW>
-14.6906

>  <SCORE.INTER.norm>
-1.26683

>  <SCORE.INTRA>
0

>  <SCORE.INTRA.DIHEDRAL>
0

>  <SCORE.INTRA.DIHEDRAL.0>
0

>  <SCORE.INTRA.POLAR>
0

>  <SCORE.INTRA.POLAR.0>
0

>  <SCORE.INTRA.REPUL>
0

>  <SCORE.INTRA.REPUL.0>
0

>  <SCORE.INTRA.SOLV>
0

>  <SCORE.INTRA.SOLV.lig_0>
-29.307

>  <SCORE.INTRA.VDW>
0

>  <SCORE.INTRA.VDW.0>
0

>  <SCORE.INTRA.norm>
0

>  <SCORE.RESTR>
0

>  <SCORE.RESTR.CAVITY>
0

>  <SCORE.RESTR.norm>
0

>  <SCORE.SYSTEM>
0

>  <SCORE.SYSTEM.CONST>
0

>  <SCORE.SYSTEM.DIHEDRAL>
0

>  <SCORE.SYSTEM.SOLV>
0

>  <SCORE.SYSTEM.norm>
0

>  <SCORE.heavy>
11

>  <SCORE.norm>
-1.26683

>  <RMSD>
3.443

$$$$
ligand
 OpenBabel11021811503D
libRbt.so/2013.1/901 2013/11/27
 11 12  0  0  0  0  0  0  0  0999 V2000
    3.4571  -19.7260   25.2076 N   0  0  0  0  0  0  0  0  0  0  0  0
    3.2685  -20.4427   24.0855 C   0  0  0  0  0  0  0  0  0  0  0  0
    4.3266  -20.5924   23.1392 N   0  0  0  0  0  0  0  0  0  0  0  0
    2.1060  -21.0431   23.8137 N   0  0  0  0  0  0  0  0  0  0  0  0
    1.0359  -20.9363   24.6692 C   0  0  0  0  0  0  0  0  0  0  0  0
    1.1901  -20.2109   25.8306 C   0  0  0  0  0  0  0  0  0  0  0  0
    2.4470  -19.5972   26.1012 C   0  0  0  0  0  0  0  0  0  0  0  0
    2.6129  -18.8659   27.2562 O   0  0  0  0  0  0  0  0  0  0  0  0
   -0.0622  -20.2821   26.5197 C   0  0  0  0  0  0  0  0  0  0  0  0
   -0.9144  -21.0536   25.7175 C   0  0  0  0  0  0  0  0  0  0  0  0
   -0.2471  -21.4339   24.6207 N   0  0  0  0  0  0  0  0  0  0  0  0
  1  2  1  0  0  0  0
  1  7  1  0  0  0  0
  2  3  1  0  0  0  0
  2  4  2  0  0  0  0
  4  5  1  0  0  0  0
  5  6  2  0  0  0  0
  5 11  1  0  0  0  0
  6  7  1  0  0  0  0
  6  9  1  0  0  0  0
  7  8  2  0  0  0  0
  9 10  2  0  0  0  0
 10 11  1  0  0  0  0
M  END
>  <CHROM.1>
1.80800925,-20.35609345,25.18134608,-0.25613052,0.31067982,1.04950581

>  <Name>
ligand

>  <RI>
0

>  <Rbt.Current_Directory>
/home/itssahil/PROJECTS/Mol_Feturizer/New_Systems/rnas/4LVW

>  <Rbt.Executable>
rbdock ($Id: //depot/dev/client3/rdock/2013.1/src/exe/rbdock.cxx#4 $)

>  <Rbt.Library>
libRbt.so (2013.1, Build901 2013/11/27)

>  <Rbt.Parameter_File>
/export/apps/rDock/src/rDock_2013.1_src/data/scripts/dock_solv.prm

>  <Rbt.Receptor>
prm/pocket_docking_8.prm

>  <SCORE>
-13.9423

>  <SCORE.INTER>
-13.9423

>  <SCORE.INTER.CONST>
1

>  <SCORE.INTER.POLAR>
0

>  <SCORE.INTER.ROT>
0

>  <SCORE.INTER.SOLV>
5.44761

>  <SCORE.INTER.VDW>
-14.7107

>  <SCORE.INTER.norm>
-1.26748

>  <SCORE.INTRA>
0

>  <SCORE.INTRA.DIHEDRAL>
0

>  <SCORE.INTRA.DIHEDRAL.0>
0

>  <SCORE.INTRA.POLAR>
0

>  <SCORE.INTRA.POLAR.0>
0

>  <SCORE.INTRA.REPUL>
0

>  <SCORE.INTRA.REPUL.0>
0

>  <SCORE.INTRA.SOLV>
0

>  <SCORE.INTRA.SOLV.lig_0>
-29.307

>  <SCORE.INTRA.VDW>
0

>  <SCORE.INTRA.VDW.0>
0

>  <SCORE.INTRA.norm>
0

>  <SCORE.RESTR>
0

>  <SCORE.RESTR.CAVITY>
0

>  <SCORE.RESTR.norm>
0

>  <SCORE.SYSTEM>
0

>  <SCORE.SYSTEM.CONST>
0

>  <SCORE.SYSTEM.DIHEDRAL>
0

>  <SCORE.SYSTEM.SOLV>
0

>  <SCORE.SYSTEM.norm>
0

>  <SCORE.heavy>
11

>  <SCORE.norm>
-1.26748

>  <RMSD>
3.443

$$$$
ligand
 OpenBabel11021811503D
libRbt.so/2013.1/901 2013/11/27
 11 12  0  0  0  0  0  0  0  0999 V2000
    3.4546  -19.7306   25.2135 N   0  0  0  0  0  0  0  0  0  0  0  0
    3.2667  -20.4506   24.0934 C   0  0  0  0  0  0  0  0  0  0  0  0
    4.3252  -20.6027   23.1480 N   0  0  0  0  0  0  0  0  0  0  0  0
    2.1044  -21.0520   23.8228 N   0  0  0  0  0  0  0  0  0  0  0  0
    1.0339  -20.9430   24.6775 C   0  0  0  0  0  0  0  0  0  0  0  0
    1.1875  -20.2142   25.8369 C   0  0  0  0  0  0  0  0  0  0  0  0
    2.4441  -19.5994   26.1063 C   0  0  0  0  0  0  0  0  0  0  0  0
    2.6094  -18.8648   27.2593 O   0  0  0  0  0  0  0  0  0  0  0  0
   -0.0651  -20.2837   26.5257 C   0  0  0  0  0  0  0  0  0  0  0  0
   -0.9168  -21.0577   25.7253 C   0  0  0  0  0  0  0  0  0  0  0  0
   -0.2489  -21.4410   24.6299 N   0  0  0  0  0  0  0  0  0  0  0  0
  1  2  1  0  0  0  0
  1  7  1  0  0  0  0
  2  3  1  0  0  0  0
  2  4  2  0  0  0  0
  4  5  1  0  0  0  0
  5  6  2  0  0  0  0
  5 11  1  0  0  0  0
  6  7  1  0  0  0  0
  6  9  1  0  0  0  0
  7  8  2  0  0  0  0
  9 10  2  0  0  0  0
 10 11  1  0  0  0  0
M  END
>  <CHROM.1>
1.80572896,-20.36112545,25.18833945,-0.25561953,0.31065671,1.04647266

>  <Name>
ligand

>  <RI>
0

>  <Rbt.Current_Directory>
/home/itssahil/PROJECTS/Mol_Feturizer/New_Systems/rnas/4LVW

>  <Rbt.Executable>
rbdock ($Id: //depot/dev/client3/rdock/2013.1/src/exe/rbdock.cxx#4 $)

>  <Rbt.Library>
libRbt.so (2013.1, Build901 2013/11/27)

>  <Rbt.Parameter_File>
/export/apps/rDock/src/rDock_2013.1_src/data/scripts/dock_solv.prm

>  <Rbt.Receptor>
prm/pocket_docking_8.prm

>  <SCORE>
-13.9397

>  <SCORE.INTER>
-13.9397

>  <SCORE.INTER.CONST>
1

>  <SCORE.INTER.POLAR>
0

>  <SCORE.INTER.ROT>
0

>  <SCORE.INTER.SOLV>
5.44983

>  <SCORE.INTER.VDW>
-14.7097

>  <SCORE.INTER.norm>
-1.26724

>  <SCORE.INTRA>
0

>  <SCORE.INTRA.DIHEDRAL>
0

>  <SCORE.INTRA.DIHEDRAL.0>
0

>  <SCORE.INTRA.POLAR>
0

>  <SCORE.INTRA.POLAR.0>
0

>  <SCORE.INTRA.REPUL>
0

>  <SCORE.INTRA.REPUL.0>
0

>  <SCORE.INTRA.SOLV>
0

>  <SCORE.INTRA.SOLV.lig_0>
-29.307

>  <SCORE.INTRA.VDW>
0

>  <SCORE.INTRA.VDW.0>
0

>  <SCORE.INTRA.norm>
0

>  <SCORE.RESTR>
0

>  <SCORE.RESTR.CAVITY>
0

>  <SCORE.RESTR.norm>
0

>  <SCORE.SYSTEM>
0

>  <SCORE.SYSTEM.CONST>
0

>  <SCORE.SYSTEM.DIHEDRAL>
0

>  <SCORE.SYSTEM.SOLV>
0

>  <SCORE.SYSTEM.norm>
0

>  <SCORE.heavy>
11

>  <SCORE.norm>
-1.26724

>  <RMSD>
3.443

$$$$
ligand
 OpenBabel11021811503D
libRbt.so/2013.1/901 2013/11/27
 11 12  0  0  0  0  0  0  0  0999 V2000
    3.4552  -19.7271   25.2135 N   0  0  0  0  0  0  0  0  0  0  0  0
    3.2687  -20.4446   24.0917 C   0  0  0  0  0  0  0  0  0  0  0  0
    4.3279  -20.5934   23.1465 N   0  0  0  0  0  0  0  0  0  0  0  0
    2.1072  -21.0468   23.8191 N   0  0  0  0  0  0  0  0  0  0  0  0
    1.0362  -20.9409   24.6735 C   0  0  0  0  0  0  0  0  0  0  0  0
    1.1883  -20.2147   25.8347 C   0  0  0  0  0  0  0  0  0  0  0  0
    2.4440  -19.5991   26.1061 C   0  0  0  0  0  0  0  0  0  0  0  0
    2.6079  -18.8669   27.2608 O   0  0  0  0  0  0  0  0  0  0  0  0
   -0.0646  -20.2872   26.5226 C   0  0  0  0  0  0  0  0  0  0  0  0
   -0.9150  -21.0603   25.7200 C   0  0  0  0  0  0  0  0  0  0  0  0
   -0.2460  -21.4403   24.6241 N   0  0  0  0  0  0  0  0  0  0  0  0
  1  2  1  0  0  0  0
  1  7  1  0  0  0  0
  2  3  1  0  0  0  0
  2  4  2  0  0  0  0
  4  5  1  0  0  0  0
  5  6  2  0  0  0  0
  5 11  1  0  0  0  0
  6  7  1  0  0  0  0
  6  9  1  0  0  0  0
  7  8  2  0  0  0  0
  9 10  2  0  0  0  0
 10 11  1  0  0  0  0
M  END
>  <CHROM.1>
1.80702002,-20.35939866,25.18607120,-0.25454353,0.31138765,1.04844170

>  <Name>
ligand

>  <RI>
0

>  <Rbt.Current_Directory>
/home/itssahil/PROJECTS/Mol_Feturizer/New_Systems/rnas/4LVW

>  <Rbt.Executable>
rbdock ($Id: //depot/dev/client3/rdock/2013.1/src/exe/rbdock.cxx#4 $)

>  <Rbt.Library>
libRbt.so (2013.1, Build901 2013/11/27)

>  <Rbt.Parameter_File>
/export/apps/rDock/src/rDock_2013.1_src/data/scripts/dock_solv.prm

>  <Rbt.Receptor>
prm/pocket_docking_8.prm

>  <SCORE>
-13.9424

>  <SCORE.INTER>
-13.9424

>  <SCORE.INTER.CONST>
1

>  <SCORE.INTER.POLAR>
0

>  <SCORE.INTER.ROT>
0

>  <SCORE.INTER.SOLV>
5.42964

>  <SCORE.INTER.VDW>
-14.7048

>  <SCORE.INTER.norm>
-1.26749

>  <SCORE.INTRA>
0

>  <SCORE.INTRA.DIHEDRAL>
0

>  <SCORE.INTRA.DIHEDRAL.0>
0

>  <SCORE.INTRA.POLAR>
0

>  <SCORE.INTRA.POLAR.0>
0

>  <SCORE.INTRA.REPUL>
0

>  <SCORE.INTRA.REPUL.0>
0

>  <SCORE.INTRA.SOLV>
0

>  <SCORE.INTRA.SOLV.lig_0>
-29.307

>  <SCORE.INTRA.VDW>
0

>  <SCORE.INTRA.VDW.0>
0

>  <SCORE.INTRA.norm>
0

>  <SCORE.RESTR>
0

>  <SCORE.RESTR.CAVITY>
0

>  <SCORE.RESTR.norm>
0

>  <SCORE.SYSTEM>
0

>  <SCORE.SYSTEM.CONST>
0

>  <SCORE.SYSTEM.DIHEDRAL>
0

>  <SCORE.SYSTEM.SOLV>
0

>  <SCORE.SYSTEM.norm>
0

>  <SCORE.heavy>
11

>  <SCORE.norm>
-1.26749

>  <RMSD>
3.443

$$$$
ligand
 OpenBabel11021811503D
libRbt.so/2013.1/901 2013/11/27
 11 12  0  0  0  0  0  0  0  0999 V2000
    3.4561  -19.7278   25.2154 N   0  0  0  0  0  0  0  0  0  0  0  0
    3.2707  -20.4449   24.0930 C   0  0  0  0  0  0  0  0  0  0  0  0
    4.3308  -20.5936   23.1489 N   0  0  0  0  0  0  0  0  0  0  0  0
    2.1094  -21.0466   23.8189 N   0  0  0  0  0  0  0  0  0  0  0  0
    1.0374  -20.9409   24.6722 C   0  0  0  0  0  0  0  0  0  0  0  0
    1.1884  -20.2152   25.8338 C   0  0  0  0  0  0  0  0  0  0  0  0
    2.4440  -19.5999   26.1069 C   0  0  0  0  0  0  0  0  0  0  0  0
    2.6068  -18.8682   27.2621 O   0  0  0  0  0  0  0  0  0  0  0  0
   -0.0653  -20.2876   26.5204 C   0  0  0  0  0  0  0  0  0  0  0  0
   -0.9149  -21.0603   25.7165 C   0  0  0  0  0  0  0  0  0  0  0  0
   -0.2449  -21.4400   24.6212 N   0  0  0  0  0  0  0  0  0  0  0  0
  1  2  1  0  0  0  0
  1  7  1  0  0  0  0
  2  3  1  0  0  0  0
  2  4  2  0  0  0  0
  4  5  1  0  0  0  0
  5  6  2  0  0  0  0
  5 11  1  0  0  0  0
  6  7  1  0  0  0  0
  6  9  1  0  0  0  0
  7  8  2  0  0  0  0
  9 10  2  0  0  0  0
 10 11  1  0  0  0  0
M  END
>  <CHROM.1>
1.80782244,-20.35973323,25.18585838,-0.25366268,0.31063681,1.04855804

>  <Name>
ligand

>  <RI>
0

>  <Rbt.Current_Directory>
/home/itssahil/PROJECTS/Mol_Feturizer/New_Systems/rnas/4LVW

>  <Rbt.Executable>
rbdock ($Id: //depot/dev/client3/rdock/2013.1/src/exe/rbdock.cxx#4 $)

>  <Rbt.Library>
libRbt.so (2013.1, Build901 2013/11/27)

>  <Rbt.Parameter_File>
/export/apps/rDock/src/rDock_2013.1_src/data/scripts/dock_solv.prm

>  <Rbt.Receptor>
prm/pocket_docking_8.prm

>  <SCORE>
-13.942

>  <SCORE.INTER>
-13.942

>  <SCORE.INTER.CONST>
1

>  <SCORE.INTER.POLAR>
0

>  <SCORE.INTER.ROT>
0

>  <SCORE.INTER.SOLV>
5.41724

>  <SCORE.INTER.VDW>
-14.7004

>  <SCORE.INTER.norm>
-1.26746

>  <SCORE.INTRA>
0

>  <SCORE.INTRA.DIHEDRAL>
0

>  <SCORE.INTRA.DIHEDRAL.0>
0

>  <SCORE.INTRA.POLAR>
0

>  <SCORE.INTRA.POLAR.0>
0

>  <SCORE.INTRA.REPUL>
0

>  <SCORE.INTRA.REPUL.0>
0

>  <SCORE.INTRA.SOLV>
0

>  <SCORE.INTRA.SOLV.lig_0>
-29.307

>  <SCORE.INTRA.VDW>
0

>  <SCORE.INTRA.VDW.0>
0

>  <SCORE.INTRA.norm>
0

>  <SCORE.RESTR>
0

>  <SCORE.RESTR.CAVITY>
0

>  <SCORE.RESTR.norm>
0

>  <SCORE.SYSTEM>
0

>  <SCORE.SYSTEM.CONST>
0

>  <SCORE.SYSTEM.DIHEDRAL>
0

>  <SCORE.SYSTEM.SOLV>
0

>  <SCORE.SYSTEM.norm>
0

>  <SCORE.heavy>
11

>  <SCORE.norm>
-1.26746

>  <RMSD>
3.443

$$$$
ligand
 OpenBabel11021811503D
libRbt.so/2013.1/901 2013/11/27
 11 12  0  0  0  0  0  0  0  0999 V2000
    3.4582  -19.6837   25.2127 N   0  0  0  0  0  0  0  0  0  0  0  0
    3.2819  -20.4126   24.0965 C   0  0  0  0  0  0  0  0  0  0  0  0
    4.3398  -20.5453   23.1474 N   0  0  0  0  0  0  0  0  0  0  0  0
    2.1323  -21.0411   23.8333 N   0  0  0  0  0  0  0  0  0  0  0  0
    1.0631  -20.9522   24.6919 C   0  0  0  0  0  0  0  0  0  0  0  0
    1.2049  -20.2151   25.8475 C   0  0  0  0  0  0  0  0  0  0  0  0
    2.4486  -19.5712   26.1091 C   0  0  0  0  0  0  0  0  0  0  0  0
    2.6020  -18.8279   27.2581 O   0  0  0  0  0  0  0  0  0  0  0  0
   -0.0430  -20.3095   26.5417 C   0  0  0  0  0  0  0  0  0  0  0  0
   -0.8803  -21.1060   25.7482 C   0  0  0  0  0  0  0  0  0  0  0  0
   -0.2084  -21.4790   24.6518 N   0  0  0  0  0  0  0  0  0  0  0  0
  1  2  1  0  0  0  0
  1  7  1  0  0  0  0
  2  3  1  0  0  0  0
  2  4  2  0  0  0  0
  4  5  1  0  0  0  0
  5  6  2  0  0  0  0
  5 11  1  0  0  0  0
  6  7  1  0  0  0  0
  6  9  1  0  0  0  0
  7  8  2  0  0  0  0
  9 10  2  0  0  0  0
 10 11  1  0  0  0  0
M  END
>  <CHROM.1>
1.82371945,-20.35102671,25.19704991,-0.24744346,0.33203818,1.03950571

>  <Name>
ligand

>  <RI>
0

>  <Rbt.Current_Directory>
/home/itssahil/PROJECTS/Mol_Feturizer/New_Systems/rnas/4LVW

>  <Rbt.Executable>
rbdock ($Id: //depot/dev/client3/rdock/2013.1/src/exe/rbdock.cxx#4 $)

>  <Rbt.Library>
libRbt.so (2013.1, Build901 2013/11/27)

>  <Rbt.Parameter_File>
/export/apps/rDock/src/rDock_2013.1_src/data/scripts/dock_solv.prm

>  <Rbt.Receptor>
prm/pocket_docking_8.prm

>  <SCORE>
-13.8703

>  <SCORE.INTER>
-13.8703

>  <SCORE.INTER.CONST>
1

>  <SCORE.INTER.POLAR>
0

>  <SCORE.INTER.ROT>
0

>  <SCORE.INTER.SOLV>
5.34797

>  <SCORE.INTER.VDW>
-14.6295

>  <SCORE.INTER.norm>
-1.26094

>  <SCORE.INTRA>
0

>  <SCORE.INTRA.DIHEDRAL>
0

>  <SCORE.INTRA.DIHEDRAL.0>
0

>  <SCORE.INTRA.POLAR>
0

>  <SCORE.INTRA.POLAR.0>
0

>  <SCORE.INTRA.REPUL>
0

>  <SCORE.INTRA.REPUL.0>
0

>  <SCORE.INTRA.SOLV>
0

>  <SCORE.INTRA.SOLV.lig_0>
-29.307

>  <SCORE.INTRA.VDW>
0

>  <SCORE.INTRA.VDW.0>
0

>  <SCORE.INTRA.norm>
0

>  <SCORE.RESTR>
0

>  <SCORE.RESTR.CAVITY>
0

>  <SCORE.RESTR.norm>
0

>  <SCORE.SYSTEM>
0

>  <SCORE.SYSTEM.CONST>
0

>  <SCORE.SYSTEM.DIHEDRAL>
0

>  <SCORE.SYSTEM.SOLV>
0

>  <SCORE.SYSTEM.norm>
0

>  <SCORE.heavy>
11

>  <SCORE.norm>
-1.26094

>  <RMSD>
3.443

$$$$
ligand
 OpenBabel11021811503D
libRbt.so/2013.1/901 2013/11/27
 11 12  0  0  0  0  0  0  0  0999 V2000
    3.4563  -19.7211   25.2129 N   0  0  0  0  0  0  0  0  0  0  0  0
    3.2702  -20.4377   24.0903 C   0  0  0  0  0  0  0  0  0  0  0  0
    4.3296  -20.5851   23.1451 N   0  0  0  0  0  0  0  0  0  0  0  0
    2.1090  -21.0400   23.8169 N   0  0  0  0  0  0  0  0  0  0  0  0
    1.0378  -20.9354   24.6713 C   0  0  0  0  0  0  0  0  0  0  0  0
    1.1894  -20.2103   25.8332 C   0  0  0  0  0  0  0  0  0  0  0  0
    2.4449  -19.5944   26.1054 C   0  0  0  0  0  0  0  0  0  0  0  0
    2.6084  -18.8633   27.2609 O   0  0  0  0  0  0  0  0  0  0  0  0
   -0.0635  -20.2839   26.5208 C   0  0  0  0  0  0  0  0  0  0  0  0
   -0.9134  -21.0566   25.7173 C   0  0  0  0  0  0  0  0  0  0  0  0
   -0.2442  -21.4353   24.6211 N   0  0  0  0  0  0  0  0  0  0  0  0
  1  2  1  0  0  0  0
  1  7  1  0  0  0  0
  2  3  1  0  0  0  0
  2  4  2  0  0  0  0
  4  5  1  0  0  0  0
  5  6  2  0  0  0  0
  5 11  1  0  0  0  0
  6  7  1  0  0  0  0
  6  9  1  0  0  0  0
  7  8  2  0  0  0  0
  9 10  2  0  0  0  0
 10 11  1  0  0  0  0
M  END
>  <CHROM.1>
1.80836160,-20.35409103,25.18450098,-0.25419687,0.31165535,1.04932836

>  <Name>
ligand

>  <RI>
0

>  <Rbt.Current_Directory>
/home/itssahil/PROJECTS/Mol_Feturizer/New_Systems/rnas/4LVW

>  <Rbt.Executable>
rbdock ($Id: //depot/dev/client3/rdock/2013.1/src/exe/rbdock.cxx#4 $)

>  <Rbt.Library>
libRbt.so (2013.1, Build901 2013/11/27)

>  <Rbt.Parameter_File>
/export/apps/rDock/src/rDock_2013.1_src/data/scripts/dock_solv.prm

>  <Rbt.Receptor>
prm/pocket_docking_8.prm

>  <SCORE>
-13.9427

>  <SCORE.INTER>
-13.9427

>  <SCORE.INTER.CONST>
1

>  <SCORE.INTER.POLAR>
0

>  <SCORE.INTER.ROT>
0

>  <SCORE.INTER.SOLV>
5.42255

>  <SCORE.INTER.VDW>
-14.7027

>  <SCORE.INTER.norm>
-1.26752

>  <SCORE.INTRA>
0

>  <SCORE.INTRA.DIHEDRAL>
0

>  <SCORE.INTRA.DIHEDRAL.0>
0

>  <SCORE.INTRA.POLAR>
0

>  <SCORE.INTRA.POLAR.0>
0

>  <SCORE.INTRA.REPUL>
0

>  <SCORE.INTRA.REPUL.0>
0

>  <SCORE.INTRA.SOLV>
0

>  <SCORE.INTRA.SOLV.lig_0>
-29.307

>  <SCORE.INTRA.VDW>
0

>  <SCORE.INTRA.VDW.0>
0

>  <SCORE.INTRA.norm>
0

>  <SCORE.RESTR>
0

>  <SCORE.RESTR.CAVITY>
0

>  <SCORE.RESTR.norm>
0

>  <SCORE.SYSTEM>
0

>  <SCORE.SYSTEM.CONST>
0

>  <SCORE.SYSTEM.DIHEDRAL>
0

>  <SCORE.SYSTEM.SOLV>
0

>  <SCORE.SYSTEM.norm>
0

>  <SCORE.heavy>
11

>  <SCORE.norm>
-1.26752

>  <RMSD>
3.443

$$$$
ligand
 OpenBabel11021811503D
libRbt.so/2013.1/901 2013/11/27
 11 12  0  0  0  0  0  0  0  0999 V2000
    3.4580  -19.7156   25.2032 N   0  0  0  0  0  0  0  0  0  0  0  0
    3.2731  -20.4437   24.0879 C   0  0  0  0  0  0  0  0  0  0  0  0
    4.3325  -20.5986   23.1440 N   0  0  0  0  0  0  0  0  0  0  0  0
    2.1130  -21.0510   23.8209 N   0  0  0  0  0  0  0  0  0  0  0  0
    1.0418  -20.9399   24.6745 C   0  0  0  0  0  0  0  0  0  0  0  0
    1.1923  -20.2028   25.8290 C   0  0  0  0  0  0  0  0  0  0  0  0
    2.4467  -19.5818   26.0947 C   0  0  0  0  0  0  0  0  0  0  0  0
    2.6090  -18.8388   27.2427 O   0  0  0  0  0  0  0  0  0  0  0  0
   -0.0603  -20.2719   26.5177 C   0  0  0  0  0  0  0  0  0  0  0  0
   -0.9090  -21.0543   25.7223 C   0  0  0  0  0  0  0  0  0  0  0  0
   -0.2393  -21.4427   24.6298 N   0  0  0  0  0  0  0  0  0  0  0  0
  1  2  1  0  0  0  0
  1  7  1  0  0  0  0
  2  3  1  0  0  0  0
  2  4  2  0  0  0  0
  4  5  1  0  0  0  0
  5  6  2  0  0  0  0
  5 11  1  0  0  0  0
  6  7  1  0  0  0  0
  6  9  1  0  0  0  0
  7  8  2  0  0  0  0
  9 10  2  0  0  0  0
 10 11  1  0  0  0  0
M  END
>  <CHROM.1>
1.81133873,-20.35193563,25.18166445,-0.25341849,0.31344580,1.03903140

>  <Name>
ligand

>  <RI>
0

>  <Rbt.Current_Directory>
/home/itssahil/PROJECTS/Mol_Feturizer/New_Systems/rnas/4LVW

>  <Rbt.Executable>
rbdock ($Id: //depot/dev/client3/rdock/2013.1/src/exe/rbdock.cxx#4 $)

>  <Rbt.Library>
libRbt.so (2013.1, Build901 2013/11/27)

>  <Rbt.Parameter_File>
/export/apps/rDock/src/rDock_2013.1_src/data/scripts/dock_solv.prm

>  <Rbt.Receptor>
prm/pocket_docking_8.prm

>  <SCORE>
-13.961

>  <SCORE.INTER>
-13.961

>  <SCORE.INTER.CONST>
1

>  <SCORE.INTER.POLAR>
0

>  <SCORE.INTER.ROT>
0

>  <SCORE.INTER.SOLV>
5.44045

>  <SCORE.INTER.VDW>
-14.7208

>  <SCORE.INTER.norm>
-1.26918

>  <SCORE.INTRA>
0

>  <SCORE.INTRA.DIHEDRAL>
0

>  <SCORE.INTRA.DIHEDRAL.0>
0

>  <SCORE.INTRA.POLAR>
0

>  <SCORE.INTRA.POLAR.0>
0

>  <SCORE.INTRA.REPUL>
0

>  <SCORE.INTRA.REPUL.0>
0

>  <SCORE.INTRA.SOLV>
0

>  <SCORE.INTRA.SOLV.lig_0>
-29.307

>  <SCORE.INTRA.VDW>
0

>  <SCORE.INTRA.VDW.0>
0

>  <SCORE.INTRA.norm>
0

>  <SCORE.RESTR>
0

>  <SCORE.RESTR.CAVITY>
0

>  <SCORE.RESTR.norm>
0

>  <SCORE.SYSTEM>
0

>  <SCORE.SYSTEM.CONST>
0

>  <SCORE.SYSTEM.DIHEDRAL>
0

>  <SCORE.SYSTEM.SOLV>
0

>  <SCORE.SYSTEM.norm>
0

>  <SCORE.heavy>
11

>  <SCORE.norm>
-1.26918

>  <RMSD>
3.443

$$$$
ligand
 OpenBabel11021811503D
libRbt.so/2013.1/901 2013/11/27
 11 12  0  0  0  0  0  0  0  0999 V2000
    3.4567  -19.7120   25.2032 N   0  0  0  0  0  0  0  0  0  0  0  0
    3.2718  -20.4391   24.0872 C   0  0  0  0  0  0  0  0  0  0  0  0
    4.3308  -20.5917   23.1424 N   0  0  0  0  0  0  0  0  0  0  0  0
    2.1122  -21.0473   23.8203 N   0  0  0  0  0  0  0  0  0  0  0  0
    1.0414  -20.9384   24.6747 C   0  0  0  0  0  0  0  0  0  0  0  0
    1.1919  -20.2025   25.8299 C   0  0  0  0  0  0  0  0  0  0  0  0
    2.4457  -19.5804   26.0956 C   0  0  0  0  0  0  0  0  0  0  0  0
    2.6079  -18.8386   27.2443 O   0  0  0  0  0  0  0  0  0  0  0  0
   -0.0602  -20.2738   26.5193 C   0  0  0  0  0  0  0  0  0  0  0  0
   -0.9085  -21.0563   25.7235 C   0  0  0  0  0  0  0  0  0  0  0  0
   -0.2391  -21.4426   24.6301 N   0  0  0  0  0  0  0  0  0  0  0  0
  1  2  1  0  0  0  0
  1  7  1  0  0  0  0
  2  3  1  0  0  0  0
  2  4  2  0  0  0  0
  4  5  1  0  0  0  0
  5  6  2  0  0  0  0
  5 11  1  0  0  0  0
  6  7  1  0  0  0  0
  6  9  1  0  0  0  0
  7  8  2  0  0  0  0
  9 10  2  0  0  0  0
 10 11  1  0  0  0  0
M  END
>  <CHROM.1>
1.81065673,-20.35021189,25.18201030,-0.25339437,0.31472725,1.04017185

>  <Name>
ligand

>  <RI>
0

>  <Rbt.Current_Directory>
/home/itssahil/PROJECTS/Mol_Feturizer/New_Systems/rnas/4LVW

>  <Rbt.Executable>
rbdock ($Id: //depot/dev/client3/rdock/2013.1/src/exe/rbdock.cxx#4 $)

>  <Rbt.Library>
libRbt.so (2013.1, Build901 2013/11/27)

>  <Rbt.Parameter_File>
/export/apps/rDock/src/rDock_2013.1_src/data/scripts/dock_solv.prm

>  <Rbt.Receptor>
prm/pocket_docking_8.prm

>  <SCORE>
-13.9604

>  <SCORE.INTER>
-13.9604

>  <SCORE.INTER.CONST>
1

>  <SCORE.INTER.POLAR>
0

>  <SCORE.INTER.ROT>
0

>  <SCORE.INTER.SOLV>
5.44118

>  <SCORE.INTER.VDW>
-14.7207

>  <SCORE.INTER.norm>
-1.26913

>  <SCORE.INTRA>
0

>  <SCORE.INTRA.DIHEDRAL>
0

>  <SCORE.INTRA.DIHEDRAL.0>
0

>  <SCORE.INTRA.POLAR>
0

>  <SCORE.INTRA.POLAR.0>
0

>  <SCORE.INTRA.REPUL>
0

>  <SCORE.INTRA.REPUL.0>
0

>  <SCORE.INTRA.SOLV>
0

>  <SCORE.INTRA.SOLV.lig_0>
-29.307

>  <SCORE.INTRA.VDW>
0

>  <SCORE.INTRA.VDW.0>
0

>  <SCORE.INTRA.norm>
0

>  <SCORE.RESTR>
0

>  <SCORE.RESTR.CAVITY>
0

>  <SCORE.RESTR.norm>
0

>  <SCORE.SYSTEM>
0

>  <SCORE.SYSTEM.CONST>
0

>  <SCORE.SYSTEM.DIHEDRAL>
0

>  <SCORE.SYSTEM.SOLV>
0

>  <SCORE.SYSTEM.norm>
0

>  <SCORE.heavy>
11

>  <SCORE.norm>
-1.26913

>  <RMSD>
3.443

$$$$
ligand
 OpenBabel11021811503D
libRbt.so/2013.1/901 2013/11/27
 11 12  0  0  0  0  0  0  0  0999 V2000
    3.4553  -19.7234   25.2156 N   0  0  0  0  0  0  0  0  0  0  0  0
    3.2702  -20.4415   24.0939 C   0  0  0  0  0  0  0  0  0  0  0  0
    4.3301  -20.5897   23.1494 N   0  0  0  0  0  0  0  0  0  0  0  0
    2.1094  -21.0448   23.8207 N   0  0  0  0  0  0  0  0  0  0  0  0
    1.0377  -20.9396   24.6743 C   0  0  0  0  0  0  0  0  0  0  0  0
    1.1883  -20.2128   25.8353 C   0  0  0  0  0  0  0  0  0  0  0  0
    2.4434  -19.5960   26.1075 C   0  0  0  0  0  0  0  0  0  0  0  0
    2.6058  -18.8633   27.2620 O   0  0  0  0  0  0  0  0  0  0  0  0
   -0.0649  -20.2862   26.5224 C   0  0  0  0  0  0  0  0  0  0  0  0
   -0.9141  -21.0604   25.7195 C   0  0  0  0  0  0  0  0  0  0  0  0
   -0.2440  -21.4402   24.6242 N   0  0  0  0  0  0  0  0  0  0  0  0
  1  2  1  0  0  0  0
  1  7  1  0  0  0  0
  2  3  1  0  0  0  0
  2  4  2  0  0  0  0
  4  5  1  0  0  0  0
  5  6  2  0  0  0  0
  5 11  1  0  0  0  0
  6  7  1  0  0  0  0
  6  9  1  0  0  0  0
  7  8  2  0  0  0  0
  9 10  2  0  0  0  0
 10 11  1  0  0  0  0
M  END
>  <CHROM.1>
1.80767865,-20.35719797,25.18721710,-0.25344420,0.31181410,1.04775117

>  <Name>
ligand

>  <RI>
0

>  <Rbt.Current_Directory>
/home/itssahil/PROJECTS/Mol_Feturizer/New_Systems/rnas/4LVW

>  <Rbt.Executable>
rbdock ($Id: //depot/dev/client3/rdock/2013.1/src/exe/rbdock.cxx#4 $)

>  <Rbt.Library>
libRbt.so (2013.1, Build901 2013/11/27)

>  <Rbt.Parameter_File>
/export/apps/rDock/src/rDock_2013.1_src/data/scripts/dock_solv.prm

>  <Rbt.Receptor>
prm/pocket_docking_8.prm

>  <SCORE>
-13.9418

>  <SCORE.INTER>
-13.9418

>  <SCORE.INTER.CONST>
1

>  <SCORE.INTER.POLAR>
0

>  <SCORE.INTER.ROT>
0

>  <SCORE.INTER.SOLV>
5.41879

>  <SCORE.INTER.VDW>
-14.7008

>  <SCORE.INTER.norm>
-1.26743

>  <SCORE.INTRA>
0

>  <SCORE.INTRA.DIHEDRAL>
0

>  <SCORE.INTRA.DIHEDRAL.0>
0

>  <SCORE.INTRA.POLAR>
0

>  <SCORE.INTRA.POLAR.0>
0

>  <SCORE.INTRA.REPUL>
0

>  <SCORE.INTRA.REPUL.0>
0

>  <SCORE.INTRA.SOLV>
0

>  <SCORE.INTRA.SOLV.lig_0>
-29.307

>  <SCORE.INTRA.VDW>
0

>  <SCORE.INTRA.VDW.0>
0

>  <SCORE.INTRA.norm>
0

>  <SCORE.RESTR>
0

>  <SCORE.RESTR.CAVITY>
0

>  <SCORE.RESTR.norm>
0

>  <SCORE.SYSTEM>
0

>  <SCORE.SYSTEM.CONST>
0

>  <SCORE.SYSTEM.DIHEDRAL>
0

>  <SCORE.SYSTEM.SOLV>
0

>  <SCORE.SYSTEM.norm>
0

>  <SCORE.heavy>
11

>  <SCORE.norm>
-1.26743

>  <RMSD>
3.443

$$$$
ligand
 OpenBabel11021811503D
libRbt.so/2013.1/901 2013/11/27
 11 12  0  0  0  0  0  0  0  0999 V2000
    3.4567  -19.7123   25.1952 N   0  0  0  0  0  0  0  0  0  0  0  0
    3.2699  -20.4404   24.0801 C   0  0  0  0  0  0  0  0  0  0  0  0
    4.3273  -20.5939   23.1336 N   0  0  0  0  0  0  0  0  0  0  0  0
    2.1099  -21.0489   23.8157 N   0  0  0  0  0  0  0  0  0  0  0  0
    1.0406  -20.9392   24.6718 C   0  0  0  0  0  0  0  0  0  0  0  0
    1.1930  -20.2023   25.8262 C   0  0  0  0  0  0  0  0  0  0  0  0
    2.4473  -19.5800   26.0891 C   0  0  0  0  0  0  0  0  0  0  0  0
    2.6115  -18.8371   27.2369 O   0  0  0  0  0  0  0  0  0  0  0  0
   -0.0579  -20.2730   26.5179 C   0  0  0  0  0  0  0  0  0  0  0  0
   -0.9076  -21.0561   25.7242 C   0  0  0  0  0  0  0  0  0  0  0  0
   -0.2400  -21.4434   24.6300 N   0  0  0  0  0  0  0  0  0  0  0  0
  1  2  1  0  0  0  0
  1  7  1  0  0  0  0
  2  3  1  0  0  0  0
  2  4  2  0  0  0  0
  4  5  1  0  0  0  0
  5  6  2  0  0  0  0
  5 11  1  0  0  0  0
  6  7  1  0  0  0  0
  6  9  1  0  0  0  0
  7  8  2  0  0  0  0
  9 10  2  0  0  0  0
 10 11  1  0  0  0  0
M  END
>  <CHROM.1>
1.81064806,-20.35054718,25.17734517,-0.25497082,0.31561068,1.03977760

>  <Name>
ligand

>  <RI>
0

>  <Rbt.Current_Directory>
/home/itssahil/PROJECTS/Mol_Feturizer/New_Systems/rnas/4LVW

>  <Rbt.Executable>
rbdock ($Id: //depot/dev/client3/rdock/2013.1/src/exe/rbdock.cxx#4 $)

>  <Rbt.Library>
libRbt.so (2013.1, Build901 2013/11/27)

>  <Rbt.Parameter_File>
/export/apps/rDock/src/rDock_2013.1_src/data/scripts/dock_solv.prm

>  <Rbt.Receptor>
prm/pocket_docking_8.prm

>  <SCORE>
-13.9562

>  <SCORE.INTER>
-13.9562

>  <SCORE.INTER.CONST>
1

>  <SCORE.INTER.POLAR>
0

>  <SCORE.INTER.ROT>
0

>  <SCORE.INTER.SOLV>
5.47257

>  <SCORE.INTER.VDW>
-14.7283

>  <SCORE.INTER.norm>
-1.26875

>  <SCORE.INTRA>
0

>  <SCORE.INTRA.DIHEDRAL>
0

>  <SCORE.INTRA.DIHEDRAL.0>
0

>  <SCORE.INTRA.POLAR>
0

>  <SCORE.INTRA.POLAR.0>
0

>  <SCORE.INTRA.REPUL>
0

>  <SCORE.INTRA.REPUL.0>
0

>  <SCORE.INTRA.SOLV>
0

>  <SCORE.INTRA.SOLV.lig_0>
-29.307

>  <SCORE.INTRA.VDW>
0

>  <SCORE.INTRA.VDW.0>
0

>  <SCORE.INTRA.norm>
0

>  <SCORE.RESTR>
0

>  <SCORE.RESTR.CAVITY>
0

>  <SCORE.RESTR.norm>
0

>  <SCORE.SYSTEM>
0

>  <SCORE.SYSTEM.CONST>
0

>  <SCORE.SYSTEM.DIHEDRAL>
0

>  <SCORE.SYSTEM.SOLV>
0

>  <SCORE.SYSTEM.norm>
0

>  <SCORE.heavy>
11

>  <SCORE.norm>
-1.26875

>  <RMSD>
3.443

$$$$
ligand
 OpenBabel11021811503D
libRbt.so/2013.1/901 2013/11/27
 11 12  0  0  0  0  0  0  0  0999 V2000
    3.4494  -19.6870   25.2161 N   0  0  0  0  0  0  0  0  0  0  0  0
    3.2713  -20.4109   24.0970 C   0  0  0  0  0  0  0  0  0  0  0  0
    4.3327  -20.5522   23.1531 N   0  0  0  0  0  0  0  0  0  0  0  0
    2.1164  -21.0262   23.8259 N   0  0  0  0  0  0  0  0  0  0  0  0
    1.0437  -20.9283   24.6791 C   0  0  0  0  0  0  0  0  0  0  0  0
    1.1872  -20.1960   25.8375 C   0  0  0  0  0  0  0  0  0  0  0  0
    2.4363  -19.5661   26.1075 C   0  0  0  0  0  0  0  0  0  0  0  0
    2.5915  -18.8278   27.2594 O   0  0  0  0  0  0  0  0  0  0  0  0
   -0.0653  -20.2790   26.5248 C   0  0  0  0  0  0  0  0  0  0  0  0
   -0.9069  -21.0642   25.7246 C   0  0  0  0  0  0  0  0  0  0  0  0
   -0.2332  -21.4414   24.6307 N   0  0  0  0  0  0  0  0  0  0  0  0
  1  2  1  0  0  0  0
  1  7  1  0  0  0  0
  2  3  1  0  0  0  0
  2  4  2  0  0  0  0
  4  5  1  0  0  0  0
  5  6  2  0  0  0  0
  5 11  1  0  0  0  0
  6  7  1  0  0  0  0
  6  9  1  0  0  0  0
  7  8  2  0  0  0  0
  9 10  2  0  0  0  0
 10 11  1  0  0  0  0
M  END
>  <CHROM.1>
1.80797633,-20.33672694,25.18994060,-0.24830807,0.32011355,1.04259312

>  <Name>
ligand

>  <RI>
0

>  <Rbt.Current_Directory>
/home/itssahil/PROJECTS/Mol_Feturizer/New_Systems/rnas/4LVW

>  <Rbt.Executable>
rbdock ($Id: //depot/dev/client3/rdock/2013.1/src/exe/rbdock.cxx#4 $)

>  <Rbt.Library>
libRbt.so (2013.1, Build901 2013/11/27)

>  <Rbt.Parameter_File>
/export/apps/rDock/src/rDock_2013.1_src/data/scripts/dock_solv.prm

>  <Rbt.Receptor>
prm/pocket_docking_3.prm

>  <SCORE>
-13.9783

>  <SCORE.INTER>
-13.9783

>  <SCORE.INTER.CONST>
1

>  <SCORE.INTER.POLAR>
0

>  <SCORE.INTER.ROT>
0

>  <SCORE.INTER.SOLV>
5.40136

>  <SCORE.INTER.VDW>
-14.7193

>  <SCORE.INTER.norm>
-1.27076

>  <SCORE.INTRA>
0

>  <SCORE.INTRA.DIHEDRAL>
0

>  <SCORE.INTRA.DIHEDRAL.0>
0

>  <SCORE.INTRA.POLAR>
0

>  <SCORE.INTRA.POLAR.0>
0

>  <SCORE.INTRA.REPUL>
0

>  <SCORE.INTRA.REPUL.0>
0

>  <SCORE.INTRA.SOLV>
0

>  <SCORE.INTRA.SOLV.lig_0>
-29.307

>  <SCORE.INTRA.VDW>
0

>  <SCORE.INTRA.VDW.0>
0

>  <SCORE.INTRA.norm>
0

>  <SCORE.RESTR>
0

>  <SCORE.RESTR.CAVITY>
0

>  <SCORE.RESTR.norm>
0

>  <SCORE.SYSTEM>
0

>  <SCORE.SYSTEM.CONST>
0

>  <SCORE.SYSTEM.DIHEDRAL>
0

>  <SCORE.SYSTEM.SOLV>
0

>  <SCORE.SYSTEM.norm>
0

>  <SCORE.heavy>
11

>  <SCORE.norm>
-1.27076

>  <RMSD>
3.444

$$$$
ligand
 OpenBabel11021811503D
libRbt.so/2013.1/901 2013/11/27
 11 12  0  0  0  0  0  0  0  0999 V2000
    3.4501  -19.6839   25.1978 N   0  0  0  0  0  0  0  0  0  0  0  0
    3.2665  -20.4062   24.0785 C   0  0  0  0  0  0  0  0  0  0  0  0
    4.3227  -20.5448   23.1285 N   0  0  0  0  0  0  0  0  0  0  0  0
    2.1108  -21.0223   23.8129 N   0  0  0  0  0  0  0  0  0  0  0  0
    1.0427  -20.9269   24.6723 C   0  0  0  0  0  0  0  0  0  0  0  0
    1.1920  -20.1964   25.8311 C   0  0  0  0  0  0  0  0  0  0  0  0
    2.4419  -19.5656   26.0950 C   0  0  0  0  0  0  0  0  0  0  0  0
    2.6028  -18.8289   27.2473 O   0  0  0  0  0  0  0  0  0  0  0  0
   -0.0566  -20.2817   26.5253 C   0  0  0  0  0  0  0  0  0  0  0  0
   -0.9018  -21.0666   25.7285 C   0  0  0  0  0  0  0  0  0  0  0  0
   -0.2338  -21.4413   24.6302 N   0  0  0  0  0  0  0  0  0  0  0  0
  1  2  1  0  0  0  0
  1  7  1  0  0  0  0
  2  3  1  0  0  0  0
  2  4  2  0  0  0  0
  4  5  1  0  0  0  0
  5  6  2  0  0  0  0
  5 11  1  0  0  0  0
  6  7  1  0  0  0  0
  6  9  1  0  0  0  0
  7  8  2  0  0  0  0
  9 10  2  0  0  0  0
 10 11  1  0  0  0  0
M  END
>  <CHROM.1>
1.80926957,-20.33534476,25.17978228,-0.25286462,0.32385412,1.04565407

>  <Name>
ligand

>  <RI>
0

>  <Rbt.Current_Directory>
/home/itssahil/PROJECTS/Mol_Feturizer/New_Systems/rnas/4LVW

>  <Rbt.Executable>
rbdock ($Id: //depot/dev/client3/rdock/2013.1/src/exe/rbdock.cxx#4 $)

>  <Rbt.Library>
libRbt.so (2013.1, Build901 2013/11/27)

>  <Rbt.Parameter_File>
/export/apps/rDock/src/rDock_2013.1_src/data/scripts/dock_solv.prm

>  <Rbt.Receptor>
prm/pocket_docking_3.prm

>  <SCORE>
-13.9733

>  <SCORE.INTER>
-13.9733

>  <SCORE.INTER.CONST>
1

>  <SCORE.INTER.POLAR>
0

>  <SCORE.INTER.ROT>
0

>  <SCORE.INTER.SOLV>
5.47506

>  <SCORE.INTER.VDW>
-14.7406

>  <SCORE.INTER.norm>
-1.2703

>  <SCORE.INTRA>
0

>  <SCORE.INTRA.DIHEDRAL>
0

>  <SCORE.INTRA.DIHEDRAL.0>
0

>  <SCORE.INTRA.POLAR>
0

>  <SCORE.INTRA.POLAR.0>
0

>  <SCORE.INTRA.REPUL>
0

>  <SCORE.INTRA.REPUL.0>
0

>  <SCORE.INTRA.SOLV>
0

>  <SCORE.INTRA.SOLV.lig_0>
-29.307

>  <SCORE.INTRA.VDW>
0

>  <SCORE.INTRA.VDW.0>
0

>  <SCORE.INTRA.norm>
0

>  <SCORE.RESTR>
0

>  <SCORE.RESTR.CAVITY>
0

>  <SCORE.RESTR.norm>
0

>  <SCORE.SYSTEM>
0

>  <SCORE.SYSTEM.CONST>
0

>  <SCORE.SYSTEM.DIHEDRAL>
0

>  <SCORE.SYSTEM.SOLV>
0

>  <SCORE.SYSTEM.norm>
0

>  <SCORE.heavy>
11

>  <SCORE.norm>
-1.2703

>  <RMSD>
3.444

$$$$
ligand
 OpenBabel11021811503D
libRbt.so/2013.1/901 2013/11/27
 11 12  0  0  0  0  0  0  0  0999 V2000
    3.4495  -19.6863   25.2136 N   0  0  0  0  0  0  0  0  0  0  0  0
    3.2705  -20.4093   24.0940 C   0  0  0  0  0  0  0  0  0  0  0  0
    4.3312  -20.5499   23.1492 N   0  0  0  0  0  0  0  0  0  0  0  0
    2.1155  -21.0245   23.8234 N   0  0  0  0  0  0  0  0  0  0  0  0
    1.0434  -20.9273   24.6776 C   0  0  0  0  0  0  0  0  0  0  0  0
    1.1878  -20.1959   25.8364 C   0  0  0  0  0  0  0  0  0  0  0  0
    2.4371  -19.5662   26.1059 C   0  0  0  0  0  0  0  0  0  0  0  0
    2.5932  -18.8287   27.2583 O   0  0  0  0  0  0  0  0  0  0  0  0
   -0.0642  -20.2793   26.5247 C   0  0  0  0  0  0  0  0  0  0  0  0
   -0.9064  -21.0640   25.7245 C   0  0  0  0  0  0  0  0  0  0  0  0
   -0.2335  -21.4403   24.6298 N   0  0  0  0  0  0  0  0  0  0  0  0
  1  2  1  0  0  0  0
  1  7  1  0  0  0  0
  2  3  1  0  0  0  0
  2  4  2  0  0  0  0
  4  5  1  0  0  0  0
  5  6  2  0  0  0  0
  5 11  1  0  0  0  0
  6  7  1  0  0  0  0
  6  9  1  0  0  0  0
  7  8  2  0  0  0  0
  9 10  2  0  0  0  0
 10 11  1  0  0  0  0
M  END
>  <CHROM.1>
1.80807730,-20.33606234,25.18823998,-0.24902250,0.32052564,1.04358141

>  <Name>
ligand

>  <RI>
0

>  <Rbt.Current_Directory>
/home/itssahil/PROJECTS/Mol_Feturizer/New_Systems/rnas/4LVW

>  <Rbt.Executable>
rbdock ($Id: //depot/dev/client3/rdock/2013.1/src/exe/rbdock.cxx#4 $)

>  <Rbt.Library>
libRbt.so (2013.1, Build901 2013/11/27)

>  <Rbt.Parameter_File>
/export/apps/rDock/src/rDock_2013.1_src/data/scripts/dock_solv.prm

>  <Rbt.Receptor>
prm/pocket_docking_3.prm

>  <SCORE>
-13.9775

>  <SCORE.INTER>
-13.9775

>  <SCORE.INTER.CONST>
1

>  <SCORE.INTER.POLAR>
0

>  <SCORE.INTER.ROT>
0

>  <SCORE.INTER.SOLV>
5.41201

>  <SCORE.INTER.VDW>
-14.7224

>  <SCORE.INTER.norm>
-1.27068

>  <SCORE.INTRA>
0

>  <SCORE.INTRA.DIHEDRAL>
0

>  <SCORE.INTRA.DIHEDRAL.0>
0

>  <SCORE.INTRA.POLAR>
0

>  <SCORE.INTRA.POLAR.0>
0

>  <SCORE.INTRA.REPUL>
0

>  <SCORE.INTRA.REPUL.0>
0

>  <SCORE.INTRA.SOLV>
0

>  <SCORE.INTRA.SOLV.lig_0>
-29.307

>  <SCORE.INTRA.VDW>
0

>  <SCORE.INTRA.VDW.0>
0

>  <SCORE.INTRA.norm>
0

>  <SCORE.RESTR>
0

>  <SCORE.RESTR.CAVITY>
0

>  <SCORE.RESTR.norm>
0

>  <SCORE.SYSTEM>
0

>  <SCORE.SYSTEM.CONST>
0

>  <SCORE.SYSTEM.DIHEDRAL>
0

>  <SCORE.SYSTEM.SOLV>
0

>  <SCORE.SYSTEM.norm>
0

>  <SCORE.heavy>
11

>  <SCORE.norm>
-1.27068

>  <RMSD>
3.444

$$$$
ligand
 OpenBabel11021811503D
libRbt.so/2013.1/901 2013/11/27
 11 12  0  0  0  0  0  0  0  0999 V2000
    3.4484  -19.6885   25.2237 N   0  0  0  0  0  0  0  0  0  0  0  0
    3.2711  -20.4076   24.1013 C   0  0  0  0  0  0  0  0  0  0  0  0
    4.3335  -20.5458   23.1582 N   0  0  0  0  0  0  0  0  0  0  0  0
    2.1161  -21.0211   23.8263 N   0  0  0  0  0  0  0  0  0  0  0  0
    1.0424  -20.9259   24.6787 C   0  0  0  0  0  0  0  0  0  0  0  0
    1.1851  -20.1985   25.8403 C   0  0  0  0  0  0  0  0  0  0  0  0
    2.4343  -19.5706   26.1143 C   0  0  0  0  0  0  0  0  0  0  0  0
    2.5887  -18.8371   27.2695 O   0  0  0  0  0  0  0  0  0  0  0  0
   -0.0683  -20.2834   26.5258 C   0  0  0  0  0  0  0  0  0  0  0  0
   -0.9095  -21.0647   25.7213 C   0  0  0  0  0  0  0  0  0  0  0  0
   -0.2347  -21.4379   24.6267 N   0  0  0  0  0  0  0  0  0  0  0  0
  1  2  1  0  0  0  0
  1  7  1  0  0  0  0
  2  3  1  0  0  0  0
  2  4  2  0  0  0  0
  4  5  1  0  0  0  0
  5  6  2  0  0  0  0
  5 11  1  0  0  0  0
  6  7  1  0  0  0  0
  6  9  1  0  0  0  0
  7  8  2  0  0  0  0
  9 10  2  0  0  0  0
 10 11  1  0  0  0  0
M  END
>  <CHROM.1>
1.80652536,-20.33698214,25.19288065,-0.24759915,0.31891322,1.04650066

>  <Name>
ligand

>  <RI>
0

>  <Rbt.Current_Directory>
/home/itssahil/PROJECTS/Mol_Feturizer/New_Systems/rnas/4LVW

>  <Rbt.Executable>
rbdock ($Id: //depot/dev/client3/rdock/2013.1/src/exe/rbdock.cxx#4 $)

>  <Rbt.Library>
libRbt.so (2013.1, Build901 2013/11/27)

>  <Rbt.Parameter_File>
/export/apps/rDock/src/rDock_2013.1_src/data/scripts/dock_solv.prm

>  <Rbt.Receptor>
prm/pocket_docking_3.prm

>  <SCORE>
-13.959

>  <SCORE.INTER>
-13.959

>  <SCORE.INTER.CONST>
1

>  <SCORE.INTER.POLAR>
0

>  <SCORE.INTER.ROT>
0

>  <SCORE.INTER.SOLV>
5.38064

>  <SCORE.INTER.VDW>
-14.6996

>  <SCORE.INTER.norm>
-1.269

>  <SCORE.INTRA>
0

>  <SCORE.INTRA.DIHEDRAL>
0

>  <SCORE.INTRA.DIHEDRAL.0>
0

>  <SCORE.INTRA.POLAR>
0

>  <SCORE.INTRA.POLAR.0>
0

>  <SCORE.INTRA.REPUL>
0

>  <SCORE.INTRA.REPUL.0>
0

>  <SCORE.INTRA.SOLV>
0

>  <SCORE.INTRA.SOLV.lig_0>
-29.307

>  <SCORE.INTRA.VDW>
0

>  <SCORE.INTRA.VDW.0>
0

>  <SCORE.INTRA.norm>
0

>  <SCORE.RESTR>
0

>  <SCORE.RESTR.CAVITY>
0

>  <SCORE.RESTR.norm>
0

>  <SCORE.SYSTEM>
0

>  <SCORE.SYSTEM.CONST>
0

>  <SCORE.SYSTEM.DIHEDRAL>
0

>  <SCORE.SYSTEM.SOLV>
0

>  <SCORE.SYSTEM.norm>
0

>  <SCORE.heavy>
11

>  <SCORE.norm>
-1.269

>  <RMSD>
3.444

$$$$
ligand
 OpenBabel11021811503D
libRbt.so/2013.1/901 2013/11/27
 11 12  0  0  0  0  0  0  0  0999 V2000
    3.4468  -19.6870   25.2155 N   0  0  0  0  0  0  0  0  0  0  0  0
    3.2746  -20.4182   24.1002 C   0  0  0  0  0  0  0  0  0  0  0  0
    4.3377  -20.5572   23.1579 N   0  0  0  0  0  0  0  0  0  0  0  0
    2.1243  -21.0432   23.8317 N   0  0  0  0  0  0  0  0  0  0  0  0
    1.0503  -20.9481   24.6837 C   0  0  0  0  0  0  0  0  0  0  0  0
    1.1879  -20.2085   25.8381 C   0  0  0  0  0  0  0  0  0  0  0  0
    2.4322  -19.5683   26.1055 C   0  0  0  0  0  0  0  0  0  0  0  0
    2.5815  -18.8226   27.2535 O   0  0  0  0  0  0  0  0  0  0  0  0
   -0.0646  -20.2965   26.5250 C   0  0  0  0  0  0  0  0  0  0  0  0
   -0.9000  -21.0920   25.7286 C   0  0  0  0  0  0  0  0  0  0  0  0
   -0.2229  -21.4704   24.6372 N   0  0  0  0  0  0  0  0  0  0  0  0
  1  2  1  0  0  0  0
  1  7  1  0  0  0  0
  2  3  1  0  0  0  0
  2  4  2  0  0  0  0
  4  5  1  0  0  0  0
  5  6  2  0  0  0  0
  5 11  1  0  0  0  0
  6  7  1  0  0  0  0
  6  9  1  0  0  0  0
  7  8  2  0  0  0  0
  9 10  2  0  0  0  0
 10 11  1  0  0  0  0
M  END
>  <CHROM.1>
1.81005605,-20.34835905,25.19174453,-0.24391292,0.32582109,1.03570676

>  <Name>
ligand

>  <RI>
0

>  <Rbt.Current_Directory>
/home/itssahil/PROJECTS/Mol_Feturizer/New_Systems/rnas/4LVW

>  <Rbt.Executable>
rbdock ($Id: //depot/dev/client3/rdock/2013.1/src/exe/rbdock.cxx#4 $)

>  <Rbt.Library>
libRbt.so (2013.1, Build901 2013/11/27)

>  <Rbt.Parameter_File>
/export/apps/rDock/src/rDock_2013.1_src/data/scripts/dock_solv.prm

>  <Rbt.Receptor>
prm/pocket_docking_3.prm

>  <SCORE>
-13.92

>  <SCORE.INTER>
-13.92

>  <SCORE.INTER.CONST>
1

>  <SCORE.INTER.POLAR>
0

>  <SCORE.INTER.ROT>
0

>  <SCORE.INTER.SOLV>
5.37615

>  <SCORE.INTER.VDW>
-14.6721

>  <SCORE.INTER.norm>
-1.26546

>  <SCORE.INTRA>
0

>  <SCORE.INTRA.DIHEDRAL>
0

>  <SCORE.INTRA.DIHEDRAL.0>
0

>  <SCORE.INTRA.POLAR>
0

>  <SCORE.INTRA.POLAR.0>
0

>  <SCORE.INTRA.REPUL>
0

>  <SCORE.INTRA.REPUL.0>
0

>  <SCORE.INTRA.SOLV>
0

>  <SCORE.INTRA.SOLV.lig_0>
-29.307

>  <SCORE.INTRA.VDW>
0

>  <SCORE.INTRA.VDW.0>
0

>  <SCORE.INTRA.norm>
0

>  <SCORE.RESTR>
0

>  <SCORE.RESTR.CAVITY>
0

>  <SCORE.RESTR.norm>
0

>  <SCORE.SYSTEM>
0

>  <SCORE.SYSTEM.CONST>
0

>  <SCORE.SYSTEM.DIHEDRAL>
0

>  <SCORE.SYSTEM.SOLV>
0

>  <SCORE.SYSTEM.norm>
0

>  <SCORE.heavy>
11

>  <SCORE.norm>
-1.26546

>  <RMSD>
3.444

$$$$
ligand
 OpenBabel11021811503D
libRbt.so/2013.1/901 2013/11/27
 11 12  0  0  0  0  0  0  0  0999 V2000
    3.4457  -19.6893   25.2239 N   0  0  0  0  0  0  0  0  0  0  0  0
    3.2682  -20.4080   24.1013 C   0  0  0  0  0  0  0  0  0  0  0  0
    4.3303  -20.5453   23.1576 N   0  0  0  0  0  0  0  0  0  0  0  0
    2.1133  -21.0217   23.8265 N   0  0  0  0  0  0  0  0  0  0  0  0
    1.0399  -20.9273   24.6793 C   0  0  0  0  0  0  0  0  0  0  0  0
    1.1829  -20.2004   25.8412 C   0  0  0  0  0  0  0  0  0  0  0  0
    2.4319  -19.5722   26.1150 C   0  0  0  0  0  0  0  0  0  0  0  0
    2.5866  -18.8392   27.2704 O   0  0  0  0  0  0  0  0  0  0  0  0
   -0.0703  -20.2860   26.5272 C   0  0  0  0  0  0  0  0  0  0  0  0
   -0.9115  -21.0672   25.7227 C   0  0  0  0  0  0  0  0  0  0  0  0
   -0.2371  -21.4397   24.6276 N   0  0  0  0  0  0  0  0  0  0  0  0
  1  2  1  0  0  0  0
  1  7  1  0  0  0  0
  2  3  1  0  0  0  0
  2  4  2  0  0  0  0
  4  5  1  0  0  0  0
  5  6  2  0  0  0  0
  5 11  1  0  0  0  0
  6  7  1  0  0  0  0
  6  9  1  0  0  0  0
  7  8  2  0  0  0  0
  9 10  2  0  0  0  0
 10 11  1  0  0  0  0
M  END
>  <CHROM.1>
1.80404490,-20.33830706,25.19346100,-0.24780390,0.31942446,1.04702068

>  <Name>
ligand

>  <RI>
0

>  <Rbt.Current_Directory>
/home/itssahil/PROJECTS/Mol_Feturizer/New_Systems/rnas/4LVW

>  <Rbt.Executable>
rbdock ($Id: //depot/dev/client3/rdock/2013.1/src/exe/rbdock.cxx#4 $)

>  <Rbt.Library>
libRbt.so (2013.1, Build901 2013/11/27)

>  <Rbt.Parameter_File>
/export/apps/rDock/src/rDock_2013.1_src/data/scripts/dock_solv.prm

>  <Rbt.Receptor>
prm/pocket_docking_3.prm

>  <SCORE>
-13.9545

>  <SCORE.INTER>
-13.9545

>  <SCORE.INTER.CONST>
1

>  <SCORE.INTER.POLAR>
0

>  <SCORE.INTER.ROT>
0

>  <SCORE.INTER.SOLV>
5.39415

>  <SCORE.INTER.VDW>
-14.7011

>  <SCORE.INTER.norm>
-1.26859

>  <SCORE.INTRA>
0

>  <SCORE.INTRA.DIHEDRAL>
0

>  <SCORE.INTRA.DIHEDRAL.0>
0

>  <SCORE.INTRA.POLAR>
0

>  <SCORE.INTRA.POLAR.0>
0

>  <SCORE.INTRA.REPUL>
0

>  <SCORE.INTRA.REPUL.0>
0

>  <SCORE.INTRA.SOLV>
0

>  <SCORE.INTRA.SOLV.lig_0>
-29.307

>  <SCORE.INTRA.VDW>
0

>  <SCORE.INTRA.VDW.0>
0

>  <SCORE.INTRA.norm>
0

>  <SCORE.RESTR>
0

>  <SCORE.RESTR.CAVITY>
0

>  <SCORE.RESTR.norm>
0

>  <SCORE.SYSTEM>
0

>  <SCORE.SYSTEM.CONST>
0

>  <SCORE.SYSTEM.DIHEDRAL>
0

>  <SCORE.SYSTEM.SOLV>
0

>  <SCORE.SYSTEM.norm>
0

>  <SCORE.heavy>
11

>  <SCORE.norm>
-1.26859

>  <RMSD>
3.444

$$$$
ligand
 OpenBabel11021811503D
libRbt.so/2013.1/901 2013/11/27
 11 12  0  0  0  0  0  0  0  0999 V2000
    3.4540  -19.7077   25.2140 N   0  0  0  0  0  0  0  0  0  0  0  0
    3.2711  -20.4301   24.0947 C   0  0  0  0  0  0  0  0  0  0  0  0
    4.3311  -20.5771   23.1501 N   0  0  0  0  0  0  0  0  0  0  0  0
    2.1126  -21.0388   23.8240 N   0  0  0  0  0  0  0  0  0  0  0  0
    1.0409  -20.9352   24.6780 C   0  0  0  0  0  0  0  0  0  0  0  0
    1.1894  -20.2042   25.8366 C   0  0  0  0  0  0  0  0  0  0  0  0
    2.4421  -19.5814   26.1060 C   0  0  0  0  0  0  0  0  0  0  0  0
    2.6023  -18.8444   27.2581 O   0  0  0  0  0  0  0  0  0  0  0  0
   -0.0632  -20.2803   26.5247 C   0  0  0  0  0  0  0  0  0  0  0  0
   -0.9097  -21.0604   25.7247 C   0  0  0  0  0  0  0  0  0  0  0  0
   -0.2388  -21.4410   24.6302 N   0  0  0  0  0  0  0  0  0  0  0  0
  1  2  1  0  0  0  0
  1  7  1  0  0  0  0
  2  3  1  0  0  0  0
  2  4  2  0  0  0  0
  4  5  1  0  0  0  0
  5  6  2  0  0  0  0
  5 11  1  0  0  0  0
  6  7  1  0  0  0  0
  6  9  1  0  0  0  0
  7  8  2  0  0  0  0
  9 10  2  0  0  0  0
 10 11  1  0  0  0  0
M  END
>  <CHROM.1>
1.80889202,-20.34811503,25.18857655,-0.25187823,0.31554465,1.04408109

>  <Name>
ligand

>  <RI>
0

>  <Rbt.Current_Directory>
/home/itssahil/PROJECTS/Mol_Feturizer/New_Systems/rnas/4LVW

>  <Rbt.Executable>
rbdock ($Id: //depot/dev/client3/rdock/2013.1/src/exe/rbdock.cxx#4 $)

>  <Rbt.Library>
libRbt.so (2013.1, Build901 2013/11/27)

>  <Rbt.Parameter_File>
/export/apps/rDock/src/rDock_2013.1_src/data/scripts/dock_solv.prm

>  <Rbt.Receptor>
prm/pocket_docking_3.prm

>  <SCORE>
-13.9385

>  <SCORE.INTER>
-13.9385

>  <SCORE.INTER.CONST>
1

>  <SCORE.INTER.POLAR>
0

>  <SCORE.INTER.ROT>
0

>  <SCORE.INTER.SOLV>
5.41611

>  <SCORE.INTER.VDW>
-14.6977

>  <SCORE.INTER.norm>
-1.26714

>  <SCORE.INTRA>
0

>  <SCORE.INTRA.DIHEDRAL>
0

>  <SCORE.INTRA.DIHEDRAL.0>
0

>  <SCORE.INTRA.POLAR>
0

>  <SCORE.INTRA.POLAR.0>
0

>  <SCORE.INTRA.REPUL>
0

>  <SCORE.INTRA.REPUL.0>
0

>  <SCORE.INTRA.SOLV>
0

>  <SCORE.INTRA.SOLV.lig_0>
-29.307

>  <SCORE.INTRA.VDW>
0

>  <SCORE.INTRA.VDW.0>
0

>  <SCORE.INTRA.norm>
0

>  <SCORE.RESTR>
0

>  <SCORE.RESTR.CAVITY>
0

>  <SCORE.RESTR.norm>
0

>  <SCORE.SYSTEM>
0

>  <SCORE.SYSTEM.CONST>
0

>  <SCORE.SYSTEM.DIHEDRAL>
0

>  <SCORE.SYSTEM.SOLV>
0

>  <SCORE.SYSTEM.norm>
0

>  <SCORE.heavy>
11

>  <SCORE.norm>
-1.26714

>  <RMSD>
3.444

$$$$
ligand
 OpenBabel11021811503D
libRbt.so/2013.1/901 2013/11/27
 11 12  0  0  0  0  0  0  0  0999 V2000
    3.4492  -19.6853   25.2195 N   0  0  0  0  0  0  0  0  0  0  0  0
    3.2712  -20.4056   24.0980 C   0  0  0  0  0  0  0  0  0  0  0  0
    4.3327  -20.5438   23.1537 N   0  0  0  0  0  0  0  0  0  0  0  0
    2.1164  -21.0202   23.8248 N   0  0  0  0  0  0  0  0  0  0  0  0
    1.0436  -20.9251   24.6784 C   0  0  0  0  0  0  0  0  0  0  0  0
    1.1871  -20.1965   25.8391 C   0  0  0  0  0  0  0  0  0  0  0  0
    2.4360  -19.5674   26.1112 C   0  0  0  0  0  0  0  0  0  0  0  0
    2.5912  -18.8327   27.2655 O   0  0  0  0  0  0  0  0  0  0  0  0
   -0.0655  -20.2817   26.5261 C   0  0  0  0  0  0  0  0  0  0  0  0
   -0.9070  -21.0644   25.7234 C   0  0  0  0  0  0  0  0  0  0  0  0
   -0.2332  -21.4381   24.6282 N   0  0  0  0  0  0  0  0  0  0  0  0
  1  2  1  0  0  0  0
  1  7  1  0  0  0  0
  2  3  1  0  0  0  0
  2  4  2  0  0  0  0
  4  5  1  0  0  0  0
  5  6  2  0  0  0  0
  5 11  1  0  0  0  0
  6  7  1  0  0  0  0
  6  9  1  0  0  0  0
  7  8  2  0  0  0  0
  9 10  2  0  0  0  0
 10 11  1  0  0  0  0
M  END
>  <CHROM.1>
1.80786367,-20.33505609,25.19111171,-0.24823301,0.32015854,1.04578067

>  <Name>
ligand

>  <RI>
0

>  <Rbt.Current_Directory>
/home/itssahil/PROJECTS/Mol_Feturizer/New_Systems/rnas/4LVW

>  <Rbt.Executable>
rbdock ($Id: //depot/dev/client3/rdock/2013.1/src/exe/rbdock.cxx#4 $)

>  <Rbt.Library>
libRbt.so (2013.1, Build901 2013/11/27)

>  <Rbt.Parameter_File>
/export/apps/rDock/src/rDock_2013.1_src/data/scripts/dock_solv.prm

>  <Rbt.Receptor>
prm/pocket_docking_3.prm

>  <SCORE>
-13.9584

>  <SCORE.INTER>
-13.9584

>  <SCORE.INTER.CONST>
1

>  <SCORE.INTER.POLAR>
0

>  <SCORE.INTER.ROT>
0

>  <SCORE.INTER.SOLV>
5.3922

>  <SCORE.INTER.VDW>
-14.703

>  <SCORE.INTER.norm>
-1.26895

>  <SCORE.INTRA>
0

>  <SCORE.INTRA.DIHEDRAL>
0

>  <SCORE.INTRA.DIHEDRAL.0>
0

>  <SCORE.INTRA.POLAR>
0

>  <SCORE.INTRA.POLAR.0>
0

>  <SCORE.INTRA.REPUL>
0

>  <SCORE.INTRA.REPUL.0>
0

>  <SCORE.INTRA.SOLV>
0

>  <SCORE.INTRA.SOLV.lig_0>
-29.307

>  <SCORE.INTRA.VDW>
0

>  <SCORE.INTRA.VDW.0>
0

>  <SCORE.INTRA.norm>
0

>  <SCORE.RESTR>
0

>  <SCORE.RESTR.CAVITY>
0

>  <SCORE.RESTR.norm>
0

>  <SCORE.SYSTEM>
0

>  <SCORE.SYSTEM.CONST>
0

>  <SCORE.SYSTEM.DIHEDRAL>
0

>  <SCORE.SYSTEM.SOLV>
0

>  <SCORE.SYSTEM.norm>
0

>  <SCORE.heavy>
11

>  <SCORE.norm>
-1.26895

>  <RMSD>
3.444

$$$$
ligand
 OpenBabel11021811503D
libRbt.so/2013.1/901 2013/11/27
 11 12  0  0  0  0  0  0  0  0999 V2000
    3.4500  -19.6901   25.2336 N   0  0  0  0  0  0  0  0  0  0  0  0
    3.2726  -20.4022   24.1068 C   0  0  0  0  0  0  0  0  0  0  0  0
    4.3353  -20.5356   23.1633 N   0  0  0  0  0  0  0  0  0  0  0  0
    2.1172  -21.0130   23.8276 N   0  0  0  0  0  0  0  0  0  0  0  0
    1.0432  -20.9221   24.6801 C   0  0  0  0  0  0  0  0  0  0  0  0
    1.1860  -20.2018   25.8461 C   0  0  0  0  0  0  0  0  0  0  0  0
    2.4356  -19.5767   26.1245 C   0  0  0  0  0  0  0  0  0  0  0  0
    2.5901  -18.8503   27.2841 O   0  0  0  0  0  0  0  0  0  0  0  0
   -0.0678  -20.2898   26.5305 C   0  0  0  0  0  0  0  0  0  0  0  0
   -0.9093  -21.0655   25.7210 C   0  0  0  0  0  0  0  0  0  0  0  0
   -0.2344  -21.4326   24.6244 N   0  0  0  0  0  0  0  0  0  0  0  0
  1  2  1  0  0  0  0
  1  7  1  0  0  0  0
  2  3  1  0  0  0  0
  2  4  2  0  0  0  0
  4  5  1  0  0  0  0
  5  6  2  0  0  0  0
  5 11  1  0  0  0  0
  6  7  1  0  0  0  0
  6  9  1  0  0  0  0
  7  8  2  0  0  0  0
  9 10  2  0  0  0  0
 10 11  1  0  0  0  0
M  END
>  <CHROM.1>
1.80758458,-20.33690939,25.19812074,-0.24764578,0.31794043,1.05256154

>  <Name>
ligand

>  <RI>
0

>  <Rbt.Current_Directory>
/home/itssahil/PROJECTS/Mol_Feturizer/New_Systems/rnas/4LVW

>  <Rbt.Executable>
rbdock ($Id: //depot/dev/client3/rdock/2013.1/src/exe/rbdock.cxx#4 $)

>  <Rbt.Library>
libRbt.so (2013.1, Build901 2013/11/27)

>  <Rbt.Parameter_File>
/export/apps/rDock/src/rDock_2013.1_src/data/scripts/dock_solv.prm

>  <Rbt.Receptor>
prm/pocket_docking_3.prm

>  <SCORE>
-13.9615

>  <SCORE.INTER>
-13.9615

>  <SCORE.INTER.CONST>
1

>  <SCORE.INTER.POLAR>
0

>  <SCORE.INTER.ROT>
0

>  <SCORE.INTER.SOLV>
5.3489

>  <SCORE.INTER.VDW>
-14.6907

>  <SCORE.INTER.norm>
-1.26923

>  <SCORE.INTRA>
0

>  <SCORE.INTRA.DIHEDRAL>
0

>  <SCORE.INTRA.DIHEDRAL.0>
0

>  <SCORE.INTRA.POLAR>
0

>  <SCORE.INTRA.POLAR.0>
0

>  <SCORE.INTRA.REPUL>
0

>  <SCORE.INTRA.REPUL.0>
0

>  <SCORE.INTRA.SOLV>
0

>  <SCORE.INTRA.SOLV.lig_0>
-29.307

>  <SCORE.INTRA.VDW>
0

>  <SCORE.INTRA.VDW.0>
0

>  <SCORE.INTRA.norm>
0

>  <SCORE.RESTR>
0

>  <SCORE.RESTR.CAVITY>
0

>  <SCORE.RESTR.norm>
0

>  <SCORE.SYSTEM>
0

>  <SCORE.SYSTEM.CONST>
0

>  <SCORE.SYSTEM.DIHEDRAL>
0

>  <SCORE.SYSTEM.SOLV>
0

>  <SCORE.SYSTEM.norm>
0

>  <SCORE.heavy>
11

>  <SCORE.norm>
-1.26923

>  <RMSD>
3.444

$$$$
ligand
 OpenBabel11021811503D
libRbt.so/2013.1/901 2013/11/27
 11 12  0  0  0  0  0  0  0  0999 V2000
    3.4470  -19.6906   25.2333 N   0  0  0  0  0  0  0  0  0  0  0  0
    3.2697  -20.4011   24.1054 C   0  0  0  0  0  0  0  0  0  0  0  0
    4.3324  -20.5328   23.1617 N   0  0  0  0  0  0  0  0  0  0  0  0
    2.1145  -21.0117   23.8254 N   0  0  0  0  0  0  0  0  0  0  0  0
    1.0405  -20.9224   24.6780 C   0  0  0  0  0  0  0  0  0  0  0  0
    1.1832  -20.2038   25.8451 C   0  0  0  0  0  0  0  0  0  0  0  0
    2.4326  -19.5788   26.1244 C   0  0  0  0  0  0  0  0  0  0  0  0
    2.5870  -18.8542   27.2851 O   0  0  0  0  0  0  0  0  0  0  0  0
   -0.0706  -20.2931   26.5295 C   0  0  0  0  0  0  0  0  0  0  0  0
   -0.9119  -21.0678   25.7188 C   0  0  0  0  0  0  0  0  0  0  0  0
   -0.2369  -21.4331   24.6216 N   0  0  0  0  0  0  0  0  0  0  0  0
  1  2  1  0  0  0  0
  1  7  1  0  0  0  0
  2  3  1  0  0  0  0
  2  4  2  0  0  0  0
  4  5  1  0  0  0  0
  5  6  2  0  0  0  0
  5 11  1  0  0  0  0
  6  7  1  0  0  0  0
  6  9  1  0  0  0  0
  7  8  2  0  0  0  0
  9 10  2  0  0  0  0
 10 11  1  0  0  0  0
M  END
>  <CHROM.1>
1.80476531,-20.33776554,25.19692427,-0.24757028,0.31819233,1.05405638

>  <Name>
ligand

>  <RI>
0

>  <Rbt.Current_Directory>
/home/itssahil/PROJECTS/Mol_Feturizer/New_Systems/rnas/4LVW

>  <Rbt.Executable>
rbdock ($Id: //depot/dev/client3/rdock/2013.1/src/exe/rbdock.cxx#4 $)

>  <Rbt.Library>
libRbt.so (2013.1, Build901 2013/11/27)

>  <Rbt.Parameter_File>
/export/apps/rDock/src/rDock_2013.1_src/data/scripts/dock_solv.prm

>  <Rbt.Receptor>
prm/pocket_docking_3.prm

>  <SCORE>
-13.9555

>  <SCORE.INTER>
-13.9555

>  <SCORE.INTER.CONST>
1

>  <SCORE.INTER.POLAR>
0

>  <SCORE.INTER.ROT>
0

>  <SCORE.INTER.SOLV>
5.35974

>  <SCORE.INTER.VDW>
-14.6903

>  <SCORE.INTER.norm>
-1.26868

>  <SCORE.INTRA>
0

>  <SCORE.INTRA.DIHEDRAL>
0

>  <SCORE.INTRA.DIHEDRAL.0>
0

>  <SCORE.INTRA.POLAR>
0

>  <SCORE.INTRA.POLAR.0>
0

>  <SCORE.INTRA.REPUL>
0

>  <SCORE.INTRA.REPUL.0>
0

>  <SCORE.INTRA.SOLV>
0

>  <SCORE.INTRA.SOLV.lig_0>
-29.307

>  <SCORE.INTRA.VDW>
0

>  <SCORE.INTRA.VDW.0>
0

>  <SCORE.INTRA.norm>
0

>  <SCORE.RESTR>
0

>  <SCORE.RESTR.CAVITY>
0

>  <SCORE.RESTR.norm>
0

>  <SCORE.SYSTEM>
0

>  <SCORE.SYSTEM.CONST>
0

>  <SCORE.SYSTEM.DIHEDRAL>
0

>  <SCORE.SYSTEM.SOLV>
0

>  <SCORE.SYSTEM.norm>
0

>  <SCORE.heavy>
11

>  <SCORE.norm>
-1.26868

>  <RMSD>
3.444

$$$$
ligand
 OpenBabel11021811503D
libRbt.so/2013.1/901 2013/11/27
 11 12  0  0  0  0  0  0  0  0999 V2000
    3.4471  -19.7281   25.2489 N   0  0  0  0  0  0  0  0  0  0  0  0
    3.2774  -20.4691   24.1397 C   0  0  0  0  0  0  0  0  0  0  0  0
    4.3509  -20.6381   23.2142 N   0  0  0  0  0  0  0  0  0  0  0  0
    2.1199  -21.0765   23.8620 N   0  0  0  0  0  0  0  0  0  0  0  0
    1.0359  -20.9524   24.6974 C   0  0  0  0  0  0  0  0  0  0  0  0
    1.1706  -20.2019   25.8452 C   0  0  0  0  0  0  0  0  0  0  0  0
    2.4224  -19.5810   26.1229 C   0  0  0  0  0  0  0  0  0  0  0  0
    2.5689  -18.8246   27.2643 O   0  0  0  0  0  0  0  0  0  0  0  0
   -0.0928  -20.2594   26.5152 C   0  0  0  0  0  0  0  0  0  0  0  0
   -0.9312  -21.0491   25.7161 C   0  0  0  0  0  0  0  0  0  0  0  0
   -0.2457  -21.4523   24.6388 N   0  0  0  0  0  0  0  0  0  0  0  0
  1  2  1  0  0  0  0
  1  7  1  0  0  0  0
  2  3  1  0  0  0  0
  2  4  2  0  0  0  0
  4  5  1  0  0  0  0
  5  6  2  0  0  0  0
  5 11  1  0  0  0  0
  6  7  1  0  0  0  0
  6  9  1  0  0  0  0
  7  8  2  0  0  0  0
  9 10  2  0  0  0  0
 10 11  1  0  0  0  0
M  END
>  <CHROM.1>
1.79914208,-20.36036265,25.20939024,-0.24089691,0.30317162,1.02321136

>  <Name>
ligand

>  <RI>
0

>  <Rbt.Current_Directory>
/home/itssahil/PROJECTS/Mol_Feturizer/New_Systems/rnas/4LVW

>  <Rbt.Executable>
rbdock ($Id: //depot/dev/client3/rdock/2013.1/src/exe/rbdock.cxx#4 $)

>  <Rbt.Library>
libRbt.so (2013.1, Build901 2013/11/27)

>  <Rbt.Parameter_File>
/export/apps/rDock/src/rDock_2013.1_src/data/scripts/dock_solv.prm

>  <Rbt.Receptor>
prm/pocket_docking_3.prm

>  <SCORE>
-13.9044

>  <SCORE.INTER>
-13.9044

>  <SCORE.INTER.CONST>
1

>  <SCORE.INTER.POLAR>
0

>  <SCORE.INTER.ROT>
0

>  <SCORE.INTER.SOLV>
5.37475

>  <SCORE.INTER.VDW>
-14.6612

>  <SCORE.INTER.norm>
-1.26404

>  <SCORE.INTRA>
0

>  <SCORE.INTRA.DIHEDRAL>
0

>  <SCORE.INTRA.DIHEDRAL.0>
0

>  <SCORE.INTRA.POLAR>
0

>  <SCORE.INTRA.POLAR.0>
0

>  <SCORE.INTRA.REPUL>
0

>  <SCORE.INTRA.REPUL.0>
0

>  <SCORE.INTRA.SOLV>
0

>  <SCORE.INTRA.SOLV.lig_0>
-29.307

>  <SCORE.INTRA.VDW>
0

>  <SCORE.INTRA.VDW.0>
0

>  <SCORE.INTRA.norm>
0

>  <SCORE.RESTR>
0

>  <SCORE.RESTR.CAVITY>
0

>  <SCORE.RESTR.norm>
0

>  <SCORE.SYSTEM>
0

>  <SCORE.SYSTEM.CONST>
0

>  <SCORE.SYSTEM.DIHEDRAL>
0

>  <SCORE.SYSTEM.SOLV>
0

>  <SCORE.SYSTEM.norm>
0

>  <SCORE.heavy>
11

>  <SCORE.norm>
-1.26404

>  <RMSD>
3.444

$$$$
ligand
 OpenBabel11021811503D
libRbt.so/2013.1/901 2013/11/27
 11 12  0  0  0  0  0  0  0  0999 V2000
    3.4487  -19.6896   25.2302 N   0  0  0  0  0  0  0  0  0  0  0  0
    3.2714  -20.4031   24.1043 C   0  0  0  0  0  0  0  0  0  0  0  0
    4.3335  -20.5358   23.1599 N   0  0  0  0  0  0  0  0  0  0  0  0
    2.1167  -21.0160   23.8267 N   0  0  0  0  0  0  0  0  0  0  0  0
    1.0434  -20.9260   24.6801 C   0  0  0  0  0  0  0  0  0  0  0  0
    1.1861  -20.2043   25.8453 C   0  0  0  0  0  0  0  0  0  0  0  0
    2.4349  -19.5770   26.1219 C   0  0  0  0  0  0  0  0  0  0  0  0
    2.5894  -18.8492   27.2807 O   0  0  0  0  0  0  0  0  0  0  0  0
   -0.0669  -20.2936   26.5310 C   0  0  0  0  0  0  0  0  0  0  0  0
   -0.9079  -21.0714   25.7230 C   0  0  0  0  0  0  0  0  0  0  0  0
   -0.2334  -21.4385   24.6261 N   0  0  0  0  0  0  0  0  0  0  0  0
  1  2  1  0  0  0  0
  1  7  1  0  0  0  0
  2  3  1  0  0  0  0
  2  4  2  0  0  0  0
  4  5  1  0  0  0  0
  5  6  2  0  0  0  0
  5 11  1  0  0  0  0
  6  7  1  0  0  0  0
  6  9  1  0  0  0  0
  7  8  2  0  0  0  0
  9 10  2  0  0  0  0
 10 11  1  0  0  0  0
M  END
>  <CHROM.1>
1.80731285,-20.33906305,25.19689219,-0.24767505,0.31977313,1.05160737

>  <Name>
ligand

>  <RI>
0

>  <Rbt.Current_Directory>
/home/itssahil/PROJECTS/Mol_Feturizer/New_Systems/rnas/4LVW

>  <Rbt.Executable>
rbdock ($Id: //depot/dev/client3/rdock/2013.1/src/exe/rbdock.cxx#4 $)

>  <Rbt.Library>
libRbt.so (2013.1, Build901 2013/11/27)

>  <Rbt.Parameter_File>
/export/apps/rDock/src/rDock_2013.1_src/data/scripts/dock_solv.prm

>  <Rbt.Receptor>
prm/pocket_docking_3.prm

>  <SCORE>
-13.9623

>  <SCORE.INTER>
-13.9623

>  <SCORE.INTER.CONST>
1

>  <SCORE.INTER.POLAR>
0

>  <SCORE.INTER.ROT>
0

>  <SCORE.INTER.SOLV>
5.36007

>  <SCORE.INTER.VDW>
-14.6949

>  <SCORE.INTER.norm>
-1.2693

>  <SCORE.INTRA>
0

>  <SCORE.INTRA.DIHEDRAL>
0

>  <SCORE.INTRA.DIHEDRAL.0>
0

>  <SCORE.INTRA.POLAR>
0

>  <SCORE.INTRA.POLAR.0>
0

>  <SCORE.INTRA.REPUL>
0

>  <SCORE.INTRA.REPUL.0>
0

>  <SCORE.INTRA.SOLV>
0

>  <SCORE.INTRA.SOLV.lig_0>
-29.307

>  <SCORE.INTRA.VDW>
0

>  <SCORE.INTRA.VDW.0>
0

>  <SCORE.INTRA.norm>
0

>  <SCORE.RESTR>
0

>  <SCORE.RESTR.CAVITY>
0

>  <SCORE.RESTR.norm>
0

>  <SCORE.SYSTEM>
0

>  <SCORE.SYSTEM.CONST>
0

>  <SCORE.SYSTEM.DIHEDRAL>
0

>  <SCORE.SYSTEM.SOLV>
0

>  <SCORE.SYSTEM.norm>
0

>  <SCORE.heavy>
11

>  <SCORE.norm>
-1.2693

>  <RMSD>
3.444

$$$$
ligand
 OpenBabel11021811503D
libRbt.so/2013.1/901 2013/11/27
 11 12  0  0  0  0  0  0  0  0999 V2000
    3.4492  -19.6902   25.2332 N   0  0  0  0  0  0  0  0  0  0  0  0
    3.2726  -20.4054   24.1082 C   0  0  0  0  0  0  0  0  0  0  0  0
    4.3355  -20.5399   23.1650 N   0  0  0  0  0  0  0  0  0  0  0  0
    2.1180  -21.0181   23.8305 N   0  0  0  0  0  0  0  0  0  0  0  0
    1.0438  -20.9264   24.6827 C   0  0  0  0  0  0  0  0  0  0  0  0
    1.1858  -20.2031   25.8469 C   0  0  0  0  0  0  0  0  0  0  0  0
    2.4346  -19.5758   26.1238 C   0  0  0  0  0  0  0  0  0  0  0  0
    2.5883  -18.8464   27.2817 O   0  0  0  0  0  0  0  0  0  0  0  0
   -0.0680  -20.2907   26.5315 C   0  0  0  0  0  0  0  0  0  0  0  0
   -0.9085  -21.0694   25.7239 C   0  0  0  0  0  0  0  0  0  0  0  0
   -0.2331  -21.4385   24.6282 N   0  0  0  0  0  0  0  0  0  0  0  0
  1  2  1  0  0  0  0
  1  7  1  0  0  0  0
  2  3  1  0  0  0  0
  2  4  2  0  0  0  0
  4  5  1  0  0  0  0
  5  6  2  0  0  0  0
  5 11  1  0  0  0  0
  6  7  1  0  0  0  0
  6  9  1  0  0  0  0
  7  8  2  0  0  0  0
  9 10  2  0  0  0  0
 10 11  1  0  0  0  0
M  END
>  <CHROM.1>
1.80753296,-20.33901827,25.19930299,-0.24702288,0.31892316,1.04989435

>  <Name>
ligand

>  <RI>
0

>  <Rbt.Current_Directory>
/home/itssahil/PROJECTS/Mol_Feturizer/New_Systems/rnas/4LVW

>  <Rbt.Executable>
rbdock ($Id: //depot/dev/client3/rdock/2013.1/src/exe/rbdock.cxx#4 $)

>  <Rbt.Library>
libRbt.so (2013.1, Build901 2013/11/27)

>  <Rbt.Parameter_File>
/export/apps/rDock/src/rDock_2013.1_src/data/scripts/dock_solv.prm

>  <Rbt.Receptor>
prm/pocket_docking_3.prm

>  <SCORE>
-13.9616

>  <SCORE.INTER>
-13.9616

>  <SCORE.INTER.CONST>
1

>  <SCORE.INTER.POLAR>
0

>  <SCORE.INTER.ROT>
0

>  <SCORE.INTER.SOLV>
5.35168

>  <SCORE.INTER.VDW>
-14.6917

>  <SCORE.INTER.norm>
-1.26924

>  <SCORE.INTRA>
0

>  <SCORE.INTRA.DIHEDRAL>
0

>  <SCORE.INTRA.DIHEDRAL.0>
0

>  <SCORE.INTRA.POLAR>
0

>  <SCORE.INTRA.POLAR.0>
0

>  <SCORE.INTRA.REPUL>
0

>  <SCORE.INTRA.REPUL.0>
0

>  <SCORE.INTRA.SOLV>
0

>  <SCORE.INTRA.SOLV.lig_0>
-29.307

>  <SCORE.INTRA.VDW>
0

>  <SCORE.INTRA.VDW.0>
0

>  <SCORE.INTRA.norm>
0

>  <SCORE.RESTR>
0

>  <SCORE.RESTR.CAVITY>
0

>  <SCORE.RESTR.norm>
0

>  <SCORE.SYSTEM>
0

>  <SCORE.SYSTEM.CONST>
0

>  <SCORE.SYSTEM.DIHEDRAL>
0

>  <SCORE.SYSTEM.SOLV>
0

>  <SCORE.SYSTEM.norm>
0

>  <SCORE.heavy>
11

>  <SCORE.norm>
-1.26924

>  <RMSD>
3.444

$$$$
ligand
 OpenBabel11021811503D
libRbt.so/2013.1/901 2013/11/27
 11 12  0  0  0  0  0  0  0  0999 V2000
    3.4490  -19.6876   25.2240 N   0  0  0  0  0  0  0  0  0  0  0  0
    3.2697  -20.4008   24.0982 C   0  0  0  0  0  0  0  0  0  0  0  0
    4.3301  -20.5333   23.1519 N   0  0  0  0  0  0  0  0  0  0  0  0
    2.1144  -21.0133   23.8224 N   0  0  0  0  0  0  0  0  0  0  0  0
    1.0426  -20.9234   24.6776 C   0  0  0  0  0  0  0  0  0  0  0  0
    1.1874  -20.2021   25.8428 C   0  0  0  0  0  0  0  0  0  0  0  0
    2.4368  -19.5751   26.1175 C   0  0  0  0  0  0  0  0  0  0  0  0
    2.5934  -18.8477   27.2762 O   0  0  0  0  0  0  0  0  0  0  0  0
   -0.0645  -20.2914   26.5305 C   0  0  0  0  0  0  0  0  0  0  0  0
   -0.9070  -21.0688   25.7237 C   0  0  0  0  0  0  0  0  0  0  0  0
   -0.2344  -21.4357   24.6256 N   0  0  0  0  0  0  0  0  0  0  0  0
  1  2  1  0  0  0  0
  1  7  1  0  0  0  0
  2  3  1  0  0  0  0
  2  4  2  0  0  0  0
  4  5  1  0  0  0  0
  5  6  2  0  0  0  0
  5 11  1  0  0  0  0
  6  7  1  0  0  0  0
  6  9  1  0  0  0  0
  7  8  2  0  0  0  0
  9 10  2  0  0  0  0
 10 11  1  0  0  0  0
M  END
>  <CHROM.1>
1.80747611,-20.33676802,25.19325229,-0.24932379,0.32045118,1.05242172

>  <Name>
ligand

>  <RI>
0

>  <Rbt.Current_Directory>
/home/itssahil/PROJECTS/Mol_Feturizer/New_Systems/rnas/4LVW

>  <Rbt.Executable>
rbdock ($Id: //depot/dev/client3/rdock/2013.1/src/exe/rbdock.cxx#4 $)

>  <Rbt.Library>
libRbt.so (2013.1, Build901 2013/11/27)

>  <Rbt.Parameter_File>
/export/apps/rDock/src/rDock_2013.1_src/data/scripts/dock_solv.prm

>  <Rbt.Receptor>
prm/pocket_docking_3.prm

>  <SCORE>
-13.9603

>  <SCORE.INTER>
-13.9603

>  <SCORE.INTER.CONST>
1

>  <SCORE.INTER.POLAR>
0

>  <SCORE.INTER.ROT>
0

>  <SCORE.INTER.SOLV>
5.3872

>  <SCORE.INTER.VDW>
-14.7026

>  <SCORE.INTER.norm>
-1.26912

>  <SCORE.INTRA>
0

>  <SCORE.INTRA.DIHEDRAL>
0

>  <SCORE.INTRA.DIHEDRAL.0>
0

>  <SCORE.INTRA.POLAR>
0

>  <SCORE.INTRA.POLAR.0>
0

>  <SCORE.INTRA.REPUL>
0

>  <SCORE.INTRA.REPUL.0>
0

>  <SCORE.INTRA.SOLV>
0

>  <SCORE.INTRA.SOLV.lig_0>
-29.307

>  <SCORE.INTRA.VDW>
0

>  <SCORE.INTRA.VDW.0>
0

>  <SCORE.INTRA.norm>
0

>  <SCORE.RESTR>
0

>  <SCORE.RESTR.CAVITY>
0

>  <SCORE.RESTR.norm>
0

>  <SCORE.SYSTEM>
0

>  <SCORE.SYSTEM.CONST>
0

>  <SCORE.SYSTEM.DIHEDRAL>
0

>  <SCORE.SYSTEM.SOLV>
0

>  <SCORE.SYSTEM.norm>
0

>  <SCORE.heavy>
11

>  <SCORE.norm>
-1.26912

>  <RMSD>
3.444

$$$$
ligand
 OpenBabel11021811503D
libRbt.so/2013.1/901 2013/11/27
 11 12  0  0  0  0  0  0  0  0999 V2000
    3.4493  -19.6833   25.1925 N   0  0  0  0  0  0  0  0  0  0  0  0
    3.2636  -20.4030   24.0718 C   0  0  0  0  0  0  0  0  0  0  0  0
    4.3178  -20.5389   23.1192 N   0  0  0  0  0  0  0  0  0  0  0  0
    2.1076  -21.0191   23.8073 N   0  0  0  0  0  0  0  0  0  0  0  0
    1.0414  -20.9262   24.6693 C   0  0  0  0  0  0  0  0  0  0  0  0
    1.1928  -20.1983   25.8294 C   0  0  0  0  0  0  0  0  0  0  0  0
    2.4430  -19.5675   26.0921 C   0  0  0  0  0  0  0  0  0  0  0  0
    2.6061  -18.8335   27.2458 O   0  0  0  0  0  0  0  0  0  0  0  0
   -0.0542  -20.2859   26.5261 C   0  0  0  0  0  0  0  0  0  0  0  0
   -0.9008  -21.0692   25.7294 C   0  0  0  0  0  0  0  0  0  0  0  0
   -0.2350  -21.4411   24.6288 N   0  0  0  0  0  0  0  0  0  0  0  0
  1  2  1  0  0  0  0
  1  7  1  0  0  0  0
  2  3  1  0  0  0  0
  2  4  2  0  0  0  0
  4  5  1  0  0  0  0
  5  6  2  0  0  0  0
  5 11  1  0  0  0  0
  6  7  1  0  0  0  0
  6  9  1  0  0  0  0
  7  8  2  0  0  0  0
  9 10  2  0  0  0  0
 10 11  1  0  0  0  0
M  END
>  <CHROM.1>
1.80873988,-20.33544684,25.17646495,-0.25460268,0.32535445,1.04854837

>  <Name>
ligand

>  <RI>
0

>  <Rbt.Current_Directory>
/home/itssahil/PROJECTS/Mol_Feturizer/New_Systems/rnas/4LVW

>  <Rbt.Executable>
rbdock ($Id: //depot/dev/client3/rdock/2013.1/src/exe/rbdock.cxx#4 $)

>  <Rbt.Library>
libRbt.so (2013.1, Build901 2013/11/27)

>  <Rbt.Parameter_File>
/export/apps/rDock/src/rDock_2013.1_src/data/scripts/dock_solv.prm

>  <Rbt.Receptor>
prm/pocket_docking_3.prm

>  <SCORE>
-13.9709

>  <SCORE.INTER>
-13.9709

>  <SCORE.INTER.CONST>
1

>  <SCORE.INTER.POLAR>
0

>  <SCORE.INTER.ROT>
0

>  <SCORE.INTER.SOLV>
5.50276

>  <SCORE.INTER.VDW>
-14.7482

>  <SCORE.INTER.norm>
-1.27008

>  <SCORE.INTRA>
0

>  <SCORE.INTRA.DIHEDRAL>
0

>  <SCORE.INTRA.DIHEDRAL.0>
0

>  <SCORE.INTRA.POLAR>
0

>  <SCORE.INTRA.POLAR.0>
0

>  <SCORE.INTRA.REPUL>
0

>  <SCORE.INTRA.REPUL.0>
0

>  <SCORE.INTRA.SOLV>
0

>  <SCORE.INTRA.SOLV.lig_0>
-29.307

>  <SCORE.INTRA.VDW>
0

>  <SCORE.INTRA.VDW.0>
0

>  <SCORE.INTRA.norm>
0

>  <SCORE.RESTR>
0

>  <SCORE.RESTR.CAVITY>
0

>  <SCORE.RESTR.norm>
0

>  <SCORE.SYSTEM>
0

>  <SCORE.SYSTEM.CONST>
0

>  <SCORE.SYSTEM.DIHEDRAL>
0

>  <SCORE.SYSTEM.SOLV>
0

>  <SCORE.SYSTEM.norm>
0

>  <SCORE.heavy>
11

>  <SCORE.norm>
-1.27008

>  <RMSD>
3.444

$$$$
ligand
 OpenBabel11021811503D
libRbt.so/2013.1/901 2013/11/27
 11 12  0  0  0  0  0  0  0  0999 V2000
    3.4495  -19.6894   25.2299 N   0  0  0  0  0  0  0  0  0  0  0  0
    3.2715  -20.4028   24.1039 C   0  0  0  0  0  0  0  0  0  0  0  0
    4.3336  -20.5368   23.1598 N   0  0  0  0  0  0  0  0  0  0  0  0
    2.1161  -21.0141   23.8261 N   0  0  0  0  0  0  0  0  0  0  0  0
    1.0427  -20.9227   24.6793 C   0  0  0  0  0  0  0  0  0  0  0  0
    1.1862  -20.2012   25.8445 C   0  0  0  0  0  0  0  0  0  0  0  0
    2.4357  -19.5755   26.1214 C   0  0  0  0  0  0  0  0  0  0  0  0
    2.5909  -18.8479   27.2802 O   0  0  0  0  0  0  0  0  0  0  0  0
   -0.0671  -20.2888   26.5299 C   0  0  0  0  0  0  0  0  0  0  0  0
   -0.9090  -21.0656   25.7218 C   0  0  0  0  0  0  0  0  0  0  0  0
   -0.2348  -21.4336   24.6250 N   0  0  0  0  0  0  0  0  0  0  0  0
  1  2  1  0  0  0  0
  1  7  1  0  0  0  0
  2  3  1  0  0  0  0
  2  4  2  0  0  0  0
  4  5  1  0  0  0  0
  5  6  2  0  0  0  0
  5 11  1  0  0  0  0
  6  7  1  0  0  0  0
  6  9  1  0  0  0  0
  7  8  2  0  0  0  0
  9 10  2  0  0  0  0
 10 11  1  0  0  0  0
M  END
>  <CHROM.1>
1.80730349,-20.33676326,25.19622989,-0.24817169,0.31854740,1.05173812

>  <Name>
ligand

>  <RI>
0

>  <Rbt.Current_Directory>
/home/itssahil/PROJECTS/Mol_Feturizer/New_Systems/rnas/4LVW

>  <Rbt.Executable>
rbdock ($Id: //depot/dev/client3/rdock/2013.1/src/exe/rbdock.cxx#4 $)

>  <Rbt.Library>
libRbt.so (2013.1, Build901 2013/11/27)

>  <Rbt.Parameter_File>
/export/apps/rDock/src/rDock_2013.1_src/data/scripts/dock_solv.prm

>  <Rbt.Receptor>
prm/pocket_docking_3.prm

>  <SCORE>
-13.9614

>  <SCORE.INTER>
-13.9614

>  <SCORE.INTER.CONST>
1

>  <SCORE.INTER.POLAR>
0

>  <SCORE.INTER.ROT>
0

>  <SCORE.INTER.SOLV>
5.36319

>  <SCORE.INTER.VDW>
-14.6954

>  <SCORE.INTER.norm>
-1.26922

>  <SCORE.INTRA>
0

>  <SCORE.INTRA.DIHEDRAL>
0

>  <SCORE.INTRA.DIHEDRAL.0>
0

>  <SCORE.INTRA.POLAR>
0

>  <SCORE.INTRA.POLAR.0>
0

>  <SCORE.INTRA.REPUL>
0

>  <SCORE.INTRA.REPUL.0>
0

>  <SCORE.INTRA.SOLV>
0

>  <SCORE.INTRA.SOLV.lig_0>
-29.307

>  <SCORE.INTRA.VDW>
0

>  <SCORE.INTRA.VDW.0>
0

>  <SCORE.INTRA.norm>
0

>  <SCORE.RESTR>
0

>  <SCORE.RESTR.CAVITY>
0

>  <SCORE.RESTR.norm>
0

>  <SCORE.SYSTEM>
0

>  <SCORE.SYSTEM.CONST>
0

>  <SCORE.SYSTEM.DIHEDRAL>
0

>  <SCORE.SYSTEM.SOLV>
0

>  <SCORE.SYSTEM.norm>
0

>  <SCORE.heavy>
11

>  <SCORE.norm>
-1.26922

>  <RMSD>
3.444

$$$$
ligand
 OpenBabel11021811503D
libRbt.so/2013.1/901 2013/11/27
 11 12  0  0  0  0  0  0  0  0999 V2000
    3.4621  -19.6834   25.2117 N   0  0  0  0  0  0  0  0  0  0  0  0
    3.2860  -20.4044   24.0903 C   0  0  0  0  0  0  0  0  0  0  0  0
    4.3509  -20.5479   23.1507 N   0  0  0  0  0  0  0  0  0  0  0  0
    2.1300  -21.0148   23.8131 N   0  0  0  0  0  0  0  0  0  0  0  0
    1.0540  -20.9145   24.6620 C   0  0  0  0  0  0  0  0  0  0  0  0
    1.1954  -20.1850   25.8224 C   0  0  0  0  0  0  0  0  0  0  0  0
    2.4457  -19.5605   26.0990 C   0  0  0  0  0  0  0  0  0  0  0  0
    2.5989  -18.8250   27.2530 O   0  0  0  0  0  0  0  0  0  0  0  0
   -0.0604  -20.2645   26.5042 C   0  0  0  0  0  0  0  0  0  0  0  0
   -0.9015  -21.0449   25.6989 C   0  0  0  0  0  0  0  0  0  0  0  0
   -0.2246  -21.4226   24.6071 N   0  0  0  0  0  0  0  0  0  0  0  0
  1  2  1  0  0  0  0
  1  7  1  0  0  0  0
  2  3  1  0  0  0  0
  2  4  2  0  0  0  0
  4  5  1  0  0  0  0
  5  6  2  0  0  0  0
  5 11  1  0  0  0  0
  6  7  1  0  0  0  0
  6  9  1  0  0  0  0
  7  8  2  0  0  0  0
  9 10  2  0  0  0  0
 10 11  1  0  0  0  0
M  END
>  <CHROM.1>
1.81838434,-20.32683342,25.17721319,-0.24646664,0.31466877,1.04400416

>  <Name>
ligand

>  <RI>
0

>  <Rbt.Current_Directory>
/home/itssahil/PROJECTS/Mol_Feturizer/New_Systems/rnas/4LVW

>  <Rbt.Executable>
rbdock ($Id: //depot/dev/client3/rdock/2013.1/src/exe/rbdock.cxx#4 $)

>  <Rbt.Library>
libRbt.so (2013.1, Build901 2013/11/27)

>  <Rbt.Parameter_File>
/export/apps/rDock/src/rDock_2013.1_src/data/scripts/dock_solv.prm

>  <Rbt.Receptor>
prm/pocket_docking_4.prm

>  <SCORE>
-13.9422

>  <SCORE.INTER>
-13.9422

>  <SCORE.INTER.CONST>
1

>  <SCORE.INTER.POLAR>
0

>  <SCORE.INTER.ROT>
0

>  <SCORE.INTER.SOLV>
5.34478

>  <SCORE.INTER.VDW>
-14.6764

>  <SCORE.INTER.norm>
-1.26748

>  <SCORE.INTRA>
0

>  <SCORE.INTRA.DIHEDRAL>
0

>  <SCORE.INTRA.DIHEDRAL.0>
0

>  <SCORE.INTRA.POLAR>
0

>  <SCORE.INTRA.POLAR.0>
0

>  <SCORE.INTRA.REPUL>
0

>  <SCORE.INTRA.REPUL.0>
0

>  <SCORE.INTRA.SOLV>
0

>  <SCORE.INTRA.SOLV.lig_0>
-29.307

>  <SCORE.INTRA.VDW>
0

>  <SCORE.INTRA.VDW.0>
0

>  <SCORE.INTRA.norm>
0

>  <SCORE.RESTR>
0

>  <SCORE.RESTR.CAVITY>
0

>  <SCORE.RESTR.norm>
0

>  <SCORE.SYSTEM>
0

>  <SCORE.SYSTEM.CONST>
0

>  <SCORE.SYSTEM.DIHEDRAL>
0

>  <SCORE.SYSTEM.SOLV>
0

>  <SCORE.SYSTEM.norm>
0

>  <SCORE.heavy>
11

>  <SCORE.norm>
-1.26748

>  <RMSD>
3.444

$$$$
ligand
 OpenBabel11021811503D
libRbt.so/2013.1/901 2013/11/27
 11 12  0  0  0  0  0  0  0  0999 V2000
    3.4461  -19.6887   25.2194 N   0  0  0  0  0  0  0  0  0  0  0  0
    3.2660  -20.4004   24.0928 C   0  0  0  0  0  0  0  0  0  0  0  0
    4.3257  -20.5313   23.1455 N   0  0  0  0  0  0  0  0  0  0  0  0
    2.1108  -21.0131   23.8172 N   0  0  0  0  0  0  0  0  0  0  0  0
    1.0396  -20.9247   24.6735 C   0  0  0  0  0  0  0  0  0  0  0  0
    1.1852  -20.2050   25.8395 C   0  0  0  0  0  0  0  0  0  0  0  0
    2.4346  -19.5778   26.1139 C   0  0  0  0  0  0  0  0  0  0  0  0
    2.5919  -18.8520   27.2735 O   0  0  0  0  0  0  0  0  0  0  0  0
   -0.0660  -20.2957   26.5282 C   0  0  0  0  0  0  0  0  0  0  0  0
   -0.9089  -21.0724   25.7211 C   0  0  0  0  0  0  0  0  0  0  0  0
   -0.2372  -21.4375   24.6219 N   0  0  0  0  0  0  0  0  0  0  0  0
  1  2  1  0  0  0  0
  1  7  1  0  0  0  0
  2  3  1  0  0  0  0
  2  4  2  0  0  0  0
  4  5  1  0  0  0  0
  5  6  2  0  0  0  0
  5 11  1  0  0  0  0
  6  7  1  0  0  0  0
  6  9  1  0  0  0  0
  7  8  2  0  0  0  0
  9 10  2  0  0  0  0
 10 11  1  0  0  0  0
M  END
>  <CHROM.1>
1.80477124,-20.33851230,25.18924575,-0.24990550,0.32124569,1.05396407

>  <Name>
ligand

>  <RI>
0

>  <Rbt.Current_Directory>
/home/itssahil/PROJECTS/Mol_Feturizer/New_Systems/rnas/4LVW

>  <Rbt.Executable>
rbdock ($Id: //depot/dev/client3/rdock/2013.1/src/exe/rbdock.cxx#4 $)

>  <Rbt.Library>
libRbt.so (2013.1, Build901 2013/11/27)

>  <Rbt.Parameter_File>
/export/apps/rDock/src/rDock_2013.1_src/data/scripts/dock_solv.prm

>  <Rbt.Receptor>
prm/pocket_docking_4.prm

>  <SCORE>
-13.9539

>  <SCORE.INTER>
-13.9539

>  <SCORE.INTER.CONST>
1

>  <SCORE.INTER.POLAR>
0

>  <SCORE.INTER.ROT>
0

>  <SCORE.INTER.SOLV>
5.41348

>  <SCORE.INTER.VDW>
-14.7071

>  <SCORE.INTER.norm>
-1.26854

>  <SCORE.INTRA>
0

>  <SCORE.INTRA.DIHEDRAL>
0

>  <SCORE.INTRA.DIHEDRAL.0>
0

>  <SCORE.INTRA.POLAR>
0

>  <SCORE.INTRA.POLAR.0>
0

>  <SCORE.INTRA.REPUL>
0

>  <SCORE.INTRA.REPUL.0>
0

>  <SCORE.INTRA.SOLV>
0

>  <SCORE.INTRA.SOLV.lig_0>
-29.307

>  <SCORE.INTRA.VDW>
0

>  <SCORE.INTRA.VDW.0>
0

>  <SCORE.INTRA.norm>
0

>  <SCORE.RESTR>
0

>  <SCORE.RESTR.CAVITY>
0

>  <SCORE.RESTR.norm>
0

>  <SCORE.SYSTEM>
0

>  <SCORE.SYSTEM.CONST>
0

>  <SCORE.SYSTEM.DIHEDRAL>
0

>  <SCORE.SYSTEM.SOLV>
0

>  <SCORE.SYSTEM.norm>
0

>  <SCORE.heavy>
11

>  <SCORE.norm>
-1.26854

>  <RMSD>
3.444

$$$$
ligand
 OpenBabel11021811503D
libRbt.so/2013.1/901 2013/11/27
 11 12  0  0  0  0  0  0  0  0999 V2000
    3.4491  -19.6879   25.2315 N   0  0  0  0  0  0  0  0  0  0  0  0
    3.2722  -20.4012   24.1054 C   0  0  0  0  0  0  0  0  0  0  0  0
    4.3347  -20.5342   23.1616 N   0  0  0  0  0  0  0  0  0  0  0  0
    2.1175  -21.0137   23.8272 N   0  0  0  0  0  0  0  0  0  0  0  0
    1.0437  -20.9234   24.6800 C   0  0  0  0  0  0  0  0  0  0  0  0
    1.1861  -20.2019   25.8453 C   0  0  0  0  0  0  0  0  0  0  0  0
    2.4350  -19.5750   26.1227 C   0  0  0  0  0  0  0  0  0  0  0  0
    2.5891  -18.8474   27.2816 O   0  0  0  0  0  0  0  0  0  0  0  0
   -0.0674  -20.2908   26.5303 C   0  0  0  0  0  0  0  0  0  0  0  0
   -0.9082  -21.0683   25.7218 C   0  0  0  0  0  0  0  0  0  0  0  0
   -0.2333  -21.4355   24.6253 N   0  0  0  0  0  0  0  0  0  0  0  0
  1  2  1  0  0  0  0
  1  7  1  0  0  0  0
  2  3  1  0  0  0  0
  2  4  2  0  0  0  0
  4  5  1  0  0  0  0
  5  6  2  0  0  0  0
  5 11  1  0  0  0  0
  6  7  1  0  0  0  0
  6  9  1  0  0  0  0
  7  8  2  0  0  0  0
  9 10  2  0  0  0  0
 10 11  1  0  0  0  0
M  END
>  <CHROM.1>
1.80756250,-20.33678371,25.19723691,-0.24736790,0.31921583,1.05159425

>  <Name>
ligand

>  <RI>
0

>  <Rbt.Current_Directory>
/home/itssahil/PROJECTS/Mol_Feturizer/New_Systems/rnas/4LVW

>  <Rbt.Executable>
rbdock ($Id: //depot/dev/client3/rdock/2013.1/src/exe/rbdock.cxx#4 $)

>  <Rbt.Library>
libRbt.so (2013.1, Build901 2013/11/27)

>  <Rbt.Parameter_File>
/export/apps/rDock/src/rDock_2013.1_src/data/scripts/dock_solv.prm

>  <Rbt.Receptor>
prm/pocket_docking_4.prm

>  <SCORE>
-13.9616

>  <SCORE.INTER>
-13.9616

>  <SCORE.INTER.CONST>
1

>  <SCORE.INTER.POLAR>
0

>  <SCORE.INTER.ROT>
0

>  <SCORE.INTER.SOLV>
5.35341

>  <SCORE.INTER.VDW>
-14.6922

>  <SCORE.INTER.norm>
-1.26924

>  <SCORE.INTRA>
0

>  <SCORE.INTRA.DIHEDRAL>
0

>  <SCORE.INTRA.DIHEDRAL.0>
0

>  <SCORE.INTRA.POLAR>
0

>  <SCORE.INTRA.POLAR.0>
0

>  <SCORE.INTRA.REPUL>
0

>  <SCORE.INTRA.REPUL.0>
0

>  <SCORE.INTRA.SOLV>
0

>  <SCORE.INTRA.SOLV.lig_0>
-29.307

>  <SCORE.INTRA.VDW>
0

>  <SCORE.INTRA.VDW.0>
0

>  <SCORE.INTRA.norm>
0

>  <SCORE.RESTR>
0

>  <SCORE.RESTR.CAVITY>
0

>  <SCORE.RESTR.norm>
0

>  <SCORE.SYSTEM>
0

>  <SCORE.SYSTEM.CONST>
0

>  <SCORE.SYSTEM.DIHEDRAL>
0

>  <SCORE.SYSTEM.SOLV>
0

>  <SCORE.SYSTEM.norm>
0

>  <SCORE.heavy>
11

>  <SCORE.norm>
-1.26924

>  <RMSD>
3.444

$$$$
ligand
 OpenBabel11021811503D
libRbt.so/2013.1/901 2013/11/27
 11 12  0  0  0  0  0  0  0  0999 V2000
    3.4520  -19.7074   25.2241 N   0  0  0  0  0  0  0  0  0  0  0  0
    3.2699  -20.4221   24.0997 C   0  0  0  0  0  0  0  0  0  0  0  0
    4.3305  -20.5626   23.1549 N   0  0  0  0  0  0  0  0  0  0  0  0
    2.1116  -21.0290   23.8241 N   0  0  0  0  0  0  0  0  0  0  0  0
    1.0393  -20.9313   24.6780 C   0  0  0  0  0  0  0  0  0  0  0  0
    1.1869  -20.2082   25.8417 C   0  0  0  0  0  0  0  0  0  0  0  0
    2.4395  -19.5873   26.1163 C   0  0  0  0  0  0  0  0  0  0  0  0
    2.5988  -18.8582   27.2736 O   0  0  0  0  0  0  0  0  0  0  0  0
   -0.0661  -20.2890   26.5284 C   0  0  0  0  0  0  0  0  0  0  0  0
   -0.9120  -21.0637   25.7225 C   0  0  0  0  0  0  0  0  0  0  0  0
   -0.2404  -21.4367   24.6259 N   0  0  0  0  0  0  0  0  0  0  0  0
  1  2  1  0  0  0  0
  1  7  1  0  0  0  0
  2  3  1  0  0  0  0
  2  4  2  0  0  0  0
  4  5  1  0  0  0  0
  5  6  2  0  0  0  0
  5 11  1  0  0  0  0
  6  7  1  0  0  0  0
  6  9  1  0  0  0  0
  7  8  2  0  0  0  0
  9 10  2  0  0  0  0
 10 11  1  0  0  0  0
M  END
>  <CHROM.1>
1.80692340,-20.34768291,25.19316473,-0.25123931,0.31521095,1.05076127

>  <Name>
ligand

>  <RI>
0

>  <Rbt.Current_Directory>
/home/itssahil/PROJECTS/Mol_Feturizer/New_Systems/rnas/4LVW

>  <Rbt.Executable>
rbdock ($Id: //depot/dev/client3/rdock/2013.1/src/exe/rbdock.cxx#4 $)

>  <Rbt.Library>
libRbt.so (2013.1, Build901 2013/11/27)

>  <Rbt.Parameter_File>
/export/apps/rDock/src/rDock_2013.1_src/data/scripts/dock_solv.prm

>  <Rbt.Receptor>
prm/pocket_docking_4.prm

>  <SCORE>
-13.9354

>  <SCORE.INTER>
-13.9354

>  <SCORE.INTER.CONST>
1

>  <SCORE.INTER.POLAR>
0

>  <SCORE.INTER.ROT>
0

>  <SCORE.INTER.SOLV>
5.39178

>  <SCORE.INTER.VDW>
-14.6875

>  <SCORE.INTER.norm>
-1.26685

>  <SCORE.INTRA>
0

>  <SCORE.INTRA.DIHEDRAL>
0

>  <SCORE.INTRA.DIHEDRAL.0>
0

>  <SCORE.INTRA.POLAR>
0

>  <SCORE.INTRA.POLAR.0>
0

>  <SCORE.INTRA.REPUL>
0

>  <SCORE.INTRA.REPUL.0>
0

>  <SCORE.INTRA.SOLV>
0

>  <SCORE.INTRA.SOLV.lig_0>
-29.307

>  <SCORE.INTRA.VDW>
0

>  <SCORE.INTRA.VDW.0>
0

>  <SCORE.INTRA.norm>
0

>  <SCORE.RESTR>
0

>  <SCORE.RESTR.CAVITY>
0

>  <SCORE.RESTR.norm>
0

>  <SCORE.SYSTEM>
0

>  <SCORE.SYSTEM.CONST>
0

>  <SCORE.SYSTEM.DIHEDRAL>
0

>  <SCORE.SYSTEM.SOLV>
0

>  <SCORE.SYSTEM.norm>
0

>  <SCORE.heavy>
11

>  <SCORE.norm>
-1.26685

>  <RMSD>
3.444

$$$$
ligand
 OpenBabel11021811503D
libRbt.so/2013.1/901 2013/11/27
 11 12  0  0  0  0  0  0  0  0999 V2000
    3.4429  -19.6859   25.2178 N   0  0  0  0  0  0  0  0  0  0  0  0
    3.2728  -20.4160   24.1015 C   0  0  0  0  0  0  0  0  0  0  0  0
    4.3363  -20.5506   23.1589 N   0  0  0  0  0  0  0  0  0  0  0  0
    2.1244  -21.0439   23.8321 N   0  0  0  0  0  0  0  0  0  0  0  0
    1.0501  -20.9532   24.6842 C   0  0  0  0  0  0  0  0  0  0  0  0
    1.1855  -20.2149   25.8397 C   0  0  0  0  0  0  0  0  0  0  0  0
    2.4280  -19.5715   26.1080 C   0  0  0  0  0  0  0  0  0  0  0  0
    2.5751  -18.8270   27.2571 O   0  0  0  0  0  0  0  0  0  0  0  0
   -0.0667  -20.3075   26.5265 C   0  0  0  0  0  0  0  0  0  0  0  0
   -0.8998  -21.1042   25.7289 C   0  0  0  0  0  0  0  0  0  0  0  0
   -0.2216  -21.4791   24.6370 N   0  0  0  0  0  0  0  0  0  0  0  0
  1  2  1  0  0  0  0
  1  7  1  0  0  0  0
  2  3  1  0  0  0  0
  2  4  2  0  0  0  0
  4  5  1  0  0  0  0
  5  6  2  0  0  0  0
  5 11  1  0  0  0  0
  6  7  1  0  0  0  0
  6  9  1  0  0  0  0
  7  8  2  0  0  0  0
  9 10  2  0  0  0  0
 10 11  1  0  0  0  0
M  END
>  <CHROM.1>
1.80807602,-20.35199140,25.19314495,-0.24235998,0.32832815,1.03665694

>  <Name>
ligand

>  <RI>
0

>  <Rbt.Current_Directory>
/home/itssahil/PROJECTS/Mol_Feturizer/New_Systems/rnas/4LVW

>  <Rbt.Executable>
rbdock ($Id: //depot/dev/client3/rdock/2013.1/src/exe/rbdock.cxx#4 $)

>  <Rbt.Library>
libRbt.so (2013.1, Build901 2013/11/27)

>  <Rbt.Parameter_File>
/export/apps/rDock/src/rDock_2013.1_src/data/scripts/dock_solv.prm

>  <Rbt.Receptor>
prm/pocket_docking_4.prm

>  <SCORE>
-13.9154

>  <SCORE.INTER>
-13.9154

>  <SCORE.INTER.CONST>
1

>  <SCORE.INTER.POLAR>
0

>  <SCORE.INTER.ROT>
0

>  <SCORE.INTER.SOLV>
5.36851

>  <SCORE.INTER.VDW>
-14.6664

>  <SCORE.INTER.norm>
-1.26503

>  <SCORE.INTRA>
0

>  <SCORE.INTRA.DIHEDRAL>
0

>  <SCORE.INTRA.DIHEDRAL.0>
0

>  <SCORE.INTRA.POLAR>
0

>  <SCORE.INTRA.POLAR.0>
0

>  <SCORE.INTRA.REPUL>
0

>  <SCORE.INTRA.REPUL.0>
0

>  <SCORE.INTRA.SOLV>
0

>  <SCORE.INTRA.SOLV.lig_0>
-29.307

>  <SCORE.INTRA.VDW>
0

>  <SCORE.INTRA.VDW.0>
0

>  <SCORE.INTRA.norm>
0

>  <SCORE.RESTR>
0

>  <SCORE.RESTR.CAVITY>
0

>  <SCORE.RESTR.norm>
0

>  <SCORE.SYSTEM>
0

>  <SCORE.SYSTEM.CONST>
0

>  <SCORE.SYSTEM.DIHEDRAL>
0

>  <SCORE.SYSTEM.SOLV>
0

>  <SCORE.SYSTEM.norm>
0

>  <SCORE.heavy>
11

>  <SCORE.norm>
-1.26503

>  <RMSD>
3.444

$$$$
ligand
 OpenBabel11021811503D
libRbt.so/2013.1/901 2013/11/27
 11 12  0  0  0  0  0  0  0  0999 V2000
    3.4494  -19.6843   25.1991 N   0  0  0  0  0  0  0  0  0  0  0  0
    3.2652  -20.4039   24.0781 C   0  0  0  0  0  0  0  0  0  0  0  0
    4.3212  -20.5406   23.1275 N   0  0  0  0  0  0  0  0  0  0  0  0
    2.1093  -21.0191   23.8114 N   0  0  0  0  0  0  0  0  0  0  0  0
    1.0415  -20.9254   24.6714 C   0  0  0  0  0  0  0  0  0  0  0  0
    1.1913  -20.1975   25.8318 C   0  0  0  0  0  0  0  0  0  0  0  0
    2.4415  -19.5677   26.0969 C   0  0  0  0  0  0  0  0  0  0  0  0
    2.6030  -18.8338   27.2508 O   0  0  0  0  0  0  0  0  0  0  0  0
   -0.0571  -20.2842   26.5262 C   0  0  0  0  0  0  0  0  0  0  0  0
   -0.9027  -21.0669   25.7279 C   0  0  0  0  0  0  0  0  0  0  0  0
   -0.2352  -21.4393   24.6285 N   0  0  0  0  0  0  0  0  0  0  0  0
  1  2  1  0  0  0  0
  1  7  1  0  0  0  0
  2  3  1  0  0  0  0
  2  4  2  0  0  0  0
  4  5  1  0  0  0  0
  5  6  2  0  0  0  0
  5 11  1  0  0  0  0
  6  7  1  0  0  0  0
  6  9  1  0  0  0  0
  7  8  2  0  0  0  0
  9 10  2  0  0  0  0
 10 11  1  0  0  0  0
M  END
>  <CHROM.1>
1.80836268,-20.33519295,25.18003430,-0.25328535,0.32376302,1.04810753

>  <Name>
ligand

>  <RI>
0

>  <Rbt.Current_Directory>
/home/itssahil/PROJECTS/Mol_Feturizer/New_Systems/rnas/4LVW

>  <Rbt.Executable>
rbdock ($Id: //depot/dev/client3/rdock/2013.1/src/exe/rbdock.cxx#4 $)

>  <Rbt.Library>
libRbt.so (2013.1, Build901 2013/11/27)

>  <Rbt.Parameter_File>
/export/apps/rDock/src/rDock_2013.1_src/data/scripts/dock_solv.prm

>  <Rbt.Receptor>
prm/pocket_docking_4.prm

>  <SCORE>
-13.9731

>  <SCORE.INTER>
-13.9731

>  <SCORE.INTER.CONST>
1

>  <SCORE.INTER.POLAR>
0

>  <SCORE.INTER.ROT>
0

>  <SCORE.INTER.SOLV>
5.47781

>  <SCORE.INTER.VDW>
-14.7413

>  <SCORE.INTER.norm>
-1.27028

>  <SCORE.INTRA>
0

>  <SCORE.INTRA.DIHEDRAL>
0

>  <SCORE.INTRA.DIHEDRAL.0>
0

>  <SCORE.INTRA.POLAR>
0

>  <SCORE.INTRA.POLAR.0>
0

>  <SCORE.INTRA.REPUL>
0

>  <SCORE.INTRA.REPUL.0>
0

>  <SCORE.INTRA.SOLV>
0

>  <SCORE.INTRA.SOLV.lig_0>
-29.307

>  <SCORE.INTRA.VDW>
0

>  <SCORE.INTRA.VDW.0>
0

>  <SCORE.INTRA.norm>
0

>  <SCORE.RESTR>
0

>  <SCORE.RESTR.CAVITY>
0

>  <SCORE.RESTR.norm>
0

>  <SCORE.SYSTEM>
0

>  <SCORE.SYSTEM.CONST>
0

>  <SCORE.SYSTEM.DIHEDRAL>
0

>  <SCORE.SYSTEM.SOLV>
0

>  <SCORE.SYSTEM.norm>
0

>  <SCORE.heavy>
11

>  <SCORE.norm>
-1.27028

>  <RMSD>
3.444

$$$$
ligand
 OpenBabel11021811503D
libRbt.so/2013.1/901 2013/11/27
 11 12  0  0  0  0  0  0  0  0999 V2000
    3.4400  -19.6834   25.1809 N   0  0  0  0  0  0  0  0  0  0  0  0
    3.2545  -20.4017   24.0594 C   0  0  0  0  0  0  0  0  0  0  0  0
    4.3062  -20.5297   23.1029 N   0  0  0  0  0  0  0  0  0  0  0  0
    2.1011  -21.0237   23.7974 N   0  0  0  0  0  0  0  0  0  0  0  0
    1.0373  -20.9387   24.6632 C   0  0  0  0  0  0  0  0  0  0  0  0
    1.1887  -20.2125   25.8244 C   0  0  0  0  0  0  0  0  0  0  0  0
    2.4361  -19.5753   26.0843 C   0  0  0  0  0  0  0  0  0  0  0  0
    2.5991  -18.8428   27.2390 O   0  0  0  0  0  0  0  0  0  0  0  0
   -0.0555  -20.3086   26.5252 C   0  0  0  0  0  0  0  0  0  0  0  0
   -0.9004  -21.0949   25.7296 C   0  0  0  0  0  0  0  0  0  0  0  0
   -0.2363  -21.4606   24.6259 N   0  0  0  0  0  0  0  0  0  0  0  0
  1  2  1  0  0  0  0
  1  7  1  0  0  0  0
  2  3  1  0  0  0  0
  2  4  2  0  0  0  0
  4  5  1  0  0  0  0
  5  6  2  0  0  0  0
  5 11  1  0  0  0  0
  6  7  1  0  0  0  0
  6  9  1  0  0  0  0
  7  8  2  0  0  0  0
  9 10  2  0  0  0  0
 10 11  1  0  0  0  0
M  END
>  <CHROM.1>
1.80307179,-20.34474584,25.16909065,-0.25477524,0.33191170,1.05079150

>  <Name>
ligand

>  <RI>
0

>  <Rbt.Current_Directory>
/home/itssahil/PROJECTS/Mol_Feturizer/New_Systems/rnas/4LVW

>  <Rbt.Executable>
rbdock ($Id: //depot/dev/client3/rdock/2013.1/src/exe/rbdock.cxx#4 $)

>  <Rbt.Library>
libRbt.so (2013.1, Build901 2013/11/27)

>  <Rbt.Parameter_File>
/export/apps/rDock/src/rDock_2013.1_src/data/scripts/dock_solv.prm

>  <Rbt.Receptor>
prm/pocket_docking_4.prm

>  <SCORE>
-13.9212

>  <SCORE.INTER>
-13.9212

>  <SCORE.INTER.CONST>
1

>  <SCORE.INTER.POLAR>
0

>  <SCORE.INTER.ROT>
0

>  <SCORE.INTER.SOLV>
5.56155

>  <SCORE.INTER.VDW>
-14.7347

>  <SCORE.INTER.norm>
-1.26556

>  <SCORE.INTRA>
0

>  <SCORE.INTRA.DIHEDRAL>
0

>  <SCORE.INTRA.DIHEDRAL.0>
0

>  <SCORE.INTRA.POLAR>
0

>  <SCORE.INTRA.POLAR.0>
0

>  <SCORE.INTRA.REPUL>
0

>  <SCORE.INTRA.REPUL.0>
0

>  <SCORE.INTRA.SOLV>
0

>  <SCORE.INTRA.SOLV.lig_0>
-29.307

>  <SCORE.INTRA.VDW>
0

>  <SCORE.INTRA.VDW.0>
0

>  <SCORE.INTRA.norm>
0

>  <SCORE.RESTR>
0

>  <SCORE.RESTR.CAVITY>
0

>  <SCORE.RESTR.norm>
0

>  <SCORE.SYSTEM>
0

>  <SCORE.SYSTEM.CONST>
0

>  <SCORE.SYSTEM.DIHEDRAL>
0

>  <SCORE.SYSTEM.SOLV>
0

>  <SCORE.SYSTEM.norm>
0

>  <SCORE.heavy>
11

>  <SCORE.norm>
-1.26556

>  <RMSD>
3.444

$$$$
ligand
 OpenBabel11021811503D
libRbt.so/2013.1/901 2013/11/27
 11 12  0  0  0  0  0  0  0  0999 V2000
    3.4499  -19.6883   25.2270 N   0  0  0  0  0  0  0  0  0  0  0  0
    3.2722  -20.4051   24.1032 C   0  0  0  0  0  0  0  0  0  0  0  0
    4.3341  -20.5409   23.1591 N   0  0  0  0  0  0  0  0  0  0  0  0
    2.1173  -21.0184   23.8276 N   0  0  0  0  0  0  0  0  0  0  0  0
    1.0441  -20.9255   24.6809 C   0  0  0  0  0  0  0  0  0  0  0  0
    1.1872  -20.2004   25.8439 C   0  0  0  0  0  0  0  0  0  0  0  0
    2.4363  -19.5726   26.1185 C   0  0  0  0  0  0  0  0  0  0  0  0
    2.5912  -18.8415   27.2751 O   0  0  0  0  0  0  0  0  0  0  0  0
   -0.0658  -20.2872   26.5300 C   0  0  0  0  0  0  0  0  0  0  0  0
   -0.9071  -21.0671   25.7244 C   0  0  0  0  0  0  0  0  0  0  0  0
   -0.2329  -21.4378   24.6285 N   0  0  0  0  0  0  0  0  0  0  0  0
  1  2  1  0  0  0  0
  1  7  1  0  0  0  0
  2  3  1  0  0  0  0
  2  4  2  0  0  0  0
  4  5  1  0  0  0  0
  5  6  2  0  0  0  0
  5 11  1  0  0  0  0
  6  7  1  0  0  0  0
  6  9  1  0  0  0  0
  7  8  2  0  0  0  0
  9 10  2  0  0  0  0
 10 11  1  0  0  0  0
M  END
>  <CHROM.1>
1.80829185,-20.33728568,25.19581031,-0.24796088,0.31953734,1.04870673

>  <Name>
ligand

>  <RI>
0

>  <Rbt.Current_Directory>
/home/itssahil/PROJECTS/Mol_Feturizer/New_Systems/rnas/4LVW

>  <Rbt.Executable>
rbdock ($Id: //depot/dev/client3/rdock/2013.1/src/exe/rbdock.cxx#4 $)

>  <Rbt.Library>
libRbt.so (2013.1, Build901 2013/11/27)

>  <Rbt.Parameter_File>
/export/apps/rDock/src/rDock_2013.1_src/data/scripts/dock_solv.prm

>  <Rbt.Receptor>
prm/pocket_docking_5.prm

>  <SCORE>
-13.9637

>  <SCORE.INTER>
-13.9637

>  <SCORE.INTER.CONST>
1

>  <SCORE.INTER.POLAR>
0

>  <SCORE.INTER.ROT>
0

>  <SCORE.INTER.SOLV>
5.36756

>  <SCORE.INTER.VDW>
-14.6983

>  <SCORE.INTER.norm>
-1.26942

>  <SCORE.INTRA>
0

>  <SCORE.INTRA.DIHEDRAL>
0

>  <SCORE.INTRA.DIHEDRAL.0>
0

>  <SCORE.INTRA.POLAR>
0

>  <SCORE.INTRA.POLAR.0>
0

>  <SCORE.INTRA.REPUL>
0

>  <SCORE.INTRA.REPUL.0>
0

>  <SCORE.INTRA.SOLV>
0

>  <SCORE.INTRA.SOLV.lig_0>
-29.307

>  <SCORE.INTRA.VDW>
0

>  <SCORE.INTRA.VDW.0>
0

>  <SCORE.INTRA.norm>
0

>  <SCORE.RESTR>
0

>  <SCORE.RESTR.CAVITY>
0

>  <SCORE.RESTR.norm>
0

>  <SCORE.SYSTEM>
0

>  <SCORE.SYSTEM.CONST>
0

>  <SCORE.SYSTEM.DIHEDRAL>
0

>  <SCORE.SYSTEM.SOLV>
0

>  <SCORE.SYSTEM.norm>
0

>  <SCORE.heavy>
11

>  <SCORE.norm>
-1.26942

>  <RMSD>
3.444

$$$$
ligand
 OpenBabel11021811503D
libRbt.so/2013.1/901 2013/11/27
 11 12  0  0  0  0  0  0  0  0999 V2000
    3.4483  -19.6872   25.2143 N   0  0  0  0  0  0  0  0  0  0  0  0
    3.2623  -20.3913   24.0839 C   0  0  0  0  0  0  0  0  0  0  0  0
    4.3183  -20.5190   23.1320 N   0  0  0  0  0  0  0  0  0  0  0  0
    2.1045  -20.9991   23.8085 N   0  0  0  0  0  0  0  0  0  0  0  0
    1.0366  -20.9133   24.6691 C   0  0  0  0  0  0  0  0  0  0  0  0
    1.1882  -20.2013   25.8392 C   0  0  0  0  0  0  0  0  0  0  0  0
    2.4403  -19.5792   26.1131 C   0  0  0  0  0  0  0  0  0  0  0  0
    2.6036  -18.8612   27.2767 O   0  0  0  0  0  0  0  0  0  0  0  0
   -0.0608  -20.2930   26.5317 C   0  0  0  0  0  0  0  0  0  0  0  0
   -0.9087  -21.0623   25.7227 C   0  0  0  0  0  0  0  0  0  0  0  0
   -0.2418  -21.4223   24.6188 N   0  0  0  0  0  0  0  0  0  0  0  0
  1  2  1  0  0  0  0
  1  7  1  0  0  0  0
  2  3  1  0  0  0  0
  2  4  2  0  0  0  0
  4  5  1  0  0  0  0
  5  6  2  0  0  0  0
  5 11  1  0  0  0  0
  6  7  1  0  0  0  0
  6  9  1  0  0  0  0
  7  8  2  0  0  0  0
  9 10  2  0  0  0  0
 10 11  1  0  0  0  0
M  END
>  <CHROM.1>
1.80510347,-20.33238994,25.18588947,-0.25456325,0.32063145,1.06176007

>  <Name>
ligand

>  <RI>
0

>  <Rbt.Current_Directory>
/home/itssahil/PROJECTS/Mol_Feturizer/New_Systems/rnas/4LVW

>  <Rbt.Executable>
rbdock ($Id: //depot/dev/client3/rdock/2013.1/src/exe/rbdock.cxx#4 $)

>  <Rbt.Library>
libRbt.so (2013.1, Build901 2013/11/27)

>  <Rbt.Parameter_File>
/export/apps/rDock/src/rDock_2013.1_src/data/scripts/dock_solv.prm

>  <Rbt.Receptor>
prm/pocket_docking_5.prm

>  <SCORE>
-13.9467

>  <SCORE.INTER>
-13.9467

>  <SCORE.INTER.CONST>
1

>  <SCORE.INTER.POLAR>
0

>  <SCORE.INTER.ROT>
0

>  <SCORE.INTER.SOLV>
5.45314

>  <SCORE.INTER.VDW>
-14.7155

>  <SCORE.INTER.norm>
-1.26788

>  <SCORE.INTRA>
0

>  <SCORE.INTRA.DIHEDRAL>
0

>  <SCORE.INTRA.DIHEDRAL.0>
0

>  <SCORE.INTRA.POLAR>
0

>  <SCORE.INTRA.POLAR.0>
0

>  <SCORE.INTRA.REPUL>
0

>  <SCORE.INTRA.REPUL.0>
0

>  <SCORE.INTRA.SOLV>
0

>  <SCORE.INTRA.SOLV.lig_0>
-29.307

>  <SCORE.INTRA.VDW>
0

>  <SCORE.INTRA.VDW.0>
0

>  <SCORE.INTRA.norm>
0

>  <SCORE.RESTR>
0

>  <SCORE.RESTR.CAVITY>
0

>  <SCORE.RESTR.norm>
0

>  <SCORE.SYSTEM>
0

>  <SCORE.SYSTEM.CONST>
0

>  <SCORE.SYSTEM.DIHEDRAL>
0

>  <SCORE.SYSTEM.SOLV>
0

>  <SCORE.SYSTEM.norm>
0

>  <SCORE.heavy>
11

>  <SCORE.norm>
-1.26788

>  <RMSD>
3.444

$$$$
ligand
 OpenBabel11021811503D
libRbt.so/2013.1/901 2013/11/27
 11 12  0  0  0  0  0  0  0  0999 V2000
    3.4491  -19.6863   25.2227 N   0  0  0  0  0  0  0  0  0  0  0  0
    3.2697  -20.3997   24.0971 C   0  0  0  0  0  0  0  0  0  0  0  0
    4.3300  -20.5321   23.1506 N   0  0  0  0  0  0  0  0  0  0  0  0
    2.1147  -21.0128   23.8217 N   0  0  0  0  0  0  0  0  0  0  0  0
    1.0430  -20.9230   24.6772 C   0  0  0  0  0  0  0  0  0  0  0  0
    1.1879  -20.2015   25.8422 C   0  0  0  0  0  0  0  0  0  0  0  0
    2.4371  -19.5740   26.1165 C   0  0  0  0  0  0  0  0  0  0  0  0
    2.5937  -18.8464   27.2750 O   0  0  0  0  0  0  0  0  0  0  0  0
   -0.0638  -20.2911   26.5303 C   0  0  0  0  0  0  0  0  0  0  0  0
   -0.9063  -21.0690   25.7238 C   0  0  0  0  0  0  0  0  0  0  0  0
   -0.2339  -21.4358   24.6256 N   0  0  0  0  0  0  0  0  0  0  0  0
  1  2  1  0  0  0  0
  1  7  1  0  0  0  0
  2  3  1  0  0  0  0
  2  4  2  0  0  0  0
  4  5  1  0  0  0  0
  5  6  2  0  0  0  0
  5 11  1  0  0  0  0
  6  7  1  0  0  0  0
  6  9  1  0  0  0  0
  7  8  2  0  0  0  0
  9 10  2  0  0  0  0
 10 11  1  0  0  0  0
M  END
>  <CHROM.1>
1.80781036,-20.33607052,25.19254153,-0.24936848,0.32089332,1.05226449

>  <Name>
ligand

>  <RI>
0

>  <Rbt.Current_Directory>
/home/itssahil/PROJECTS/Mol_Feturizer/New_Systems/rnas/4LVW

>  <Rbt.Executable>
rbdock ($Id: //depot/dev/client3/rdock/2013.1/src/exe/rbdock.cxx#4 $)

>  <Rbt.Library>
libRbt.so (2013.1, Build901 2013/11/27)

>  <Rbt.Parameter_File>
/export/apps/rDock/src/rDock_2013.1_src/data/scripts/dock_solv.prm

>  <Rbt.Receptor>
prm/pocket_docking_5.prm

>  <SCORE>
-13.9602

>  <SCORE.INTER>
-13.9602

>  <SCORE.INTER.CONST>
1

>  <SCORE.INTER.POLAR>
0

>  <SCORE.INTER.ROT>
0

>  <SCORE.INTER.SOLV>
5.38982

>  <SCORE.INTER.VDW>
-14.7034

>  <SCORE.INTER.norm>
-1.26911

>  <SCORE.INTRA>
0

>  <SCORE.INTRA.DIHEDRAL>
0

>  <SCORE.INTRA.DIHEDRAL.0>
0

>  <SCORE.INTRA.POLAR>
0

>  <SCORE.INTRA.POLAR.0>
0

>  <SCORE.INTRA.REPUL>
0

>  <SCORE.INTRA.REPUL.0>
0

>  <SCORE.INTRA.SOLV>
0

>  <SCORE.INTRA.SOLV.lig_0>
-29.307

>  <SCORE.INTRA.VDW>
0

>  <SCORE.INTRA.VDW.0>
0

>  <SCORE.INTRA.norm>
0

>  <SCORE.RESTR>
0

>  <SCORE.RESTR.CAVITY>
0

>  <SCORE.RESTR.norm>
0

>  <SCORE.SYSTEM>
0

>  <SCORE.SYSTEM.CONST>
0

>  <SCORE.SYSTEM.DIHEDRAL>
0

>  <SCORE.SYSTEM.SOLV>
0

>  <SCORE.SYSTEM.norm>
0

>  <SCORE.heavy>
11

>  <SCORE.norm>
-1.26911

>  <RMSD>
3.444

$$$$
ligand
 OpenBabel11021811503D
libRbt.so/2013.1/901 2013/11/27
 11 12  0  0  0  0  0  0  0  0999 V2000
    3.4488  -19.6877   25.2302 N   0  0  0  0  0  0  0  0  0  0  0  0
    3.2716  -20.4020   24.1048 C   0  0  0  0  0  0  0  0  0  0  0  0
    4.3340  -20.5355   23.1608 N   0  0  0  0  0  0  0  0  0  0  0  0
    2.1170  -21.0149   23.8273 N   0  0  0  0  0  0  0  0  0  0  0  0
    1.0434  -20.9241   24.6803 C   0  0  0  0  0  0  0  0  0  0  0  0
    1.1859  -20.2016   25.8451 C   0  0  0  0  0  0  0  0  0  0  0  0
    2.4348  -19.5743   26.1216 C   0  0  0  0  0  0  0  0  0  0  0  0
    2.5891  -18.8457   27.2799 O   0  0  0  0  0  0  0  0  0  0  0  0
   -0.0673  -20.2902   26.5304 C   0  0  0  0  0  0  0  0  0  0  0  0
   -0.9082  -21.0685   25.7228 C   0  0  0  0  0  0  0  0  0  0  0  0
   -0.2335  -21.4365   24.6263 N   0  0  0  0  0  0  0  0  0  0  0  0
  1  2  1  0  0  0  0
  1  7  1  0  0  0  0
  2  3  1  0  0  0  0
  2  4  2  0  0  0  0
  4  5  1  0  0  0  0
  5  6  2  0  0  0  0
  5 11  1  0  0  0  0
  6  7  1  0  0  0  0
  6  9  1  0  0  0  0
  7  8  2  0  0  0  0
  9 10  2  0  0  0  0
 10 11  1  0  0  0  0
M  END
>  <CHROM.1>
1.80728712,-20.33693346,25.19691581,-0.24751056,0.31948864,1.05083172

>  <Name>
ligand

>  <RI>
0

>  <Rbt.Current_Directory>
/home/itssahil/PROJECTS/Mol_Feturizer/New_Systems/rnas/4LVW

>  <Rbt.Executable>
rbdock ($Id: //depot/dev/client3/rdock/2013.1/src/exe/rbdock.cxx#4 $)

>  <Rbt.Library>
libRbt.so (2013.1, Build901 2013/11/27)

>  <Rbt.Parameter_File>
/export/apps/rDock/src/rDock_2013.1_src/data/scripts/dock_solv.prm

>  <Rbt.Receptor>
prm/pocket_docking_5.prm

>  <SCORE>
-13.9612

>  <SCORE.INTER>
-13.9612

>  <SCORE.INTER.CONST>
1

>  <SCORE.INTER.POLAR>
0

>  <SCORE.INTER.ROT>
0

>  <SCORE.INTER.SOLV>
5.35988

>  <SCORE.INTER.VDW>
-14.6941

>  <SCORE.INTER.norm>
-1.2692

>  <SCORE.INTRA>
0

>  <SCORE.INTRA.DIHEDRAL>
0

>  <SCORE.INTRA.DIHEDRAL.0>
0

>  <SCORE.INTRA.POLAR>
0

>  <SCORE.INTRA.POLAR.0>
0

>  <SCORE.INTRA.REPUL>
0

>  <SCORE.INTRA.REPUL.0>
0

>  <SCORE.INTRA.SOLV>
0

>  <SCORE.INTRA.SOLV.lig_0>
-29.307

>  <SCORE.INTRA.VDW>
0

>  <SCORE.INTRA.VDW.0>
0

>  <SCORE.INTRA.norm>
0

>  <SCORE.RESTR>
0

>  <SCORE.RESTR.CAVITY>
0

>  <SCORE.RESTR.norm>
0

>  <SCORE.SYSTEM>
0

>  <SCORE.SYSTEM.CONST>
0

>  <SCORE.SYSTEM.DIHEDRAL>
0

>  <SCORE.SYSTEM.SOLV>
0

>  <SCORE.SYSTEM.norm>
0

>  <SCORE.heavy>
11

>  <SCORE.norm>
-1.2692

>  <RMSD>
3.444

$$$$
ligand
 OpenBabel11021811503D
libRbt.so/2013.1/901 2013/11/27
 11 12  0  0  0  0  0  0  0  0999 V2000
    3.4486  -19.6893   25.2439 N   0  0  0  0  0  0  0  0  0  0  0  0
    3.2776  -20.4096   24.1213 C   0  0  0  0  0  0  0  0  0  0  0  0
    4.3453  -20.5491   23.1844 N   0  0  0  0  0  0  0  0  0  0  0  0
    2.1240  -21.0231   23.8404 N   0  0  0  0  0  0  0  0  0  0  0  0
    1.0455  -20.9267   24.6865 C   0  0  0  0  0  0  0  0  0  0  0  0
    1.1817  -20.1980   25.8481 C   0  0  0  0  0  0  0  0  0  0  0  0
    2.4294  -19.5702   26.1286 C   0  0  0  0  0  0  0  0  0  0  0  0
    2.5774  -18.8354   27.2838 O   0  0  0  0  0  0  0  0  0  0  0  0
   -0.0757  -20.2818   26.5264 C   0  0  0  0  0  0  0  0  0  0  0  0
   -0.9124  -21.0638   25.7181 C   0  0  0  0  0  0  0  0  0  0  0  0
   -0.2315  -21.4384   24.6277 N   0  0  0  0  0  0  0  0  0  0  0  0
  1  2  1  0  0  0  0
  1  7  1  0  0  0  0
  2  3  1  0  0  0  0
  2  4  2  0  0  0  0
  4  5  1  0  0  0  0
  5  6  2  0  0  0  0
  5 11  1  0  0  0  0
  6  7  1  0  0  0  0
  6  9  1  0  0  0  0
  7  8  2  0  0  0  0
  9 10  2  0  0  0  0
 10 11  1  0  0  0  0
M  END
>  <CHROM.1>
1.80678500,-20.33736684,25.20436294,-0.24251949,0.31580839,1.04380530

>  <Name>
ligand

>  <RI>
0

>  <Rbt.Current_Directory>
/home/itssahil/PROJECTS/Mol_Feturizer/New_Systems/rnas/4LVW

>  <Rbt.Executable>
rbdock ($Id: //depot/dev/client3/rdock/2013.1/src/exe/rbdock.cxx#4 $)

>  <Rbt.Library>
libRbt.so (2013.1, Build901 2013/11/27)

>  <Rbt.Parameter_File>
/export/apps/rDock/src/rDock_2013.1_src/data/scripts/dock_solv.prm

>  <Rbt.Receptor>
prm/pocket_docking_5.prm

>  <SCORE>
-13.9475

>  <SCORE.INTER>
-13.9475

>  <SCORE.INTER.CONST>
1

>  <SCORE.INTER.POLAR>
0

>  <SCORE.INTER.ROT>
0

>  <SCORE.INTER.SOLV>
5.32162

>  <SCORE.INTER.VDW>
-14.6722

>  <SCORE.INTER.norm>
-1.26795

>  <SCORE.INTRA>
0

>  <SCORE.INTRA.DIHEDRAL>
0

>  <SCORE.INTRA.DIHEDRAL.0>
0

>  <SCORE.INTRA.POLAR>
0

>  <SCORE.INTRA.POLAR.0>
0

>  <SCORE.INTRA.REPUL>
0

>  <SCORE.INTRA.REPUL.0>
0

>  <SCORE.INTRA.SOLV>
0

>  <SCORE.INTRA.SOLV.lig_0>
-29.307

>  <SCORE.INTRA.VDW>
0

>  <SCORE.INTRA.VDW.0>
0

>  <SCORE.INTRA.norm>
0

>  <SCORE.RESTR>
0

>  <SCORE.RESTR.CAVITY>
0

>  <SCORE.RESTR.norm>
0

>  <SCORE.SYSTEM>
0

>  <SCORE.SYSTEM.CONST>
0

>  <SCORE.SYSTEM.DIHEDRAL>
0

>  <SCORE.SYSTEM.SOLV>
0

>  <SCORE.SYSTEM.norm>
0

>  <SCORE.heavy>
11

>  <SCORE.norm>
-1.26795

>  <RMSD>
3.444

$$$$
ligand
 OpenBabel11021811503D
libRbt.so/2013.1/901 2013/11/27
 11 12  0  0  0  0  0  0  0  0999 V2000
    3.4496  -19.6834   25.2011 N   0  0  0  0  0  0  0  0  0  0  0  0
    3.2664  -20.4039   24.0806 C   0  0  0  0  0  0  0  0  0  0  0  0
    4.3228  -20.5408   23.1305 N   0  0  0  0  0  0  0  0  0  0  0  0
    2.1109  -21.0200   23.8139 N   0  0  0  0  0  0  0  0  0  0  0  0
    1.0427  -20.9263   24.6733 C   0  0  0  0  0  0  0  0  0  0  0  0
    1.1916  -20.1975   25.8332 C   0  0  0  0  0  0  0  0  0  0  0  0
    2.4412  -19.5667   26.0983 C   0  0  0  0  0  0  0  0  0  0  0  0
    2.6018  -18.8318   27.2517 O   0  0  0  0  0  0  0  0  0  0  0  0
   -0.0571  -20.2843   26.5271 C   0  0  0  0  0  0  0  0  0  0  0  0
   -0.9019  -21.0682   25.7290 C   0  0  0  0  0  0  0  0  0  0  0  0
   -0.2337  -21.4410   24.6302 N   0  0  0  0  0  0  0  0  0  0  0  0
  1  2  1  0  0  0  0
  1  7  1  0  0  0  0
  2  3  1  0  0  0  0
  2  4  2  0  0  0  0
  4  5  1  0  0  0  0
  5  6  2  0  0  0  0
  5 11  1  0  0  0  0
  6  7  1  0  0  0  0
  6  9  1  0  0  0  0
  7  8  2  0  0  0  0
  9 10  2  0  0  0  0
 10 11  1  0  0  0  0
M  END
>  <CHROM.1>
1.80899205,-20.33528808,25.18178094,-0.25256182,0.32404839,1.04710715

>  <Name>
ligand

>  <RI>
0

>  <Rbt.Current_Directory>
/home/itssahil/PROJECTS/Mol_Feturizer/New_Systems/rnas/4LVW

>  <Rbt.Executable>
rbdock ($Id: //depot/dev/client3/rdock/2013.1/src/exe/rbdock.cxx#4 $)

>  <Rbt.Library>
libRbt.so (2013.1, Build901 2013/11/27)

>  <Rbt.Parameter_File>
/export/apps/rDock/src/rDock_2013.1_src/data/scripts/dock_solv.prm

>  <Rbt.Receptor>
prm/pocket_docking_5.prm

>  <SCORE>
-13.9747

>  <SCORE.INTER>
-13.9747

>  <SCORE.INTER.CONST>
1

>  <SCORE.INTER.POLAR>
0

>  <SCORE.INTER.ROT>
0

>  <SCORE.INTER.SOLV>
5.46649

>  <SCORE.INTER.VDW>
-14.7386

>  <SCORE.INTER.norm>
-1.27043

>  <SCORE.INTRA>
0

>  <SCORE.INTRA.DIHEDRAL>
0

>  <SCORE.INTRA.DIHEDRAL.0>
0

>  <SCORE.INTRA.POLAR>
0

>  <SCORE.INTRA.POLAR.0>
0

>  <SCORE.INTRA.REPUL>
0

>  <SCORE.INTRA.REPUL.0>
0

>  <SCORE.INTRA.SOLV>
0

>  <SCORE.INTRA.SOLV.lig_0>
-29.307

>  <SCORE.INTRA.VDW>
0

>  <SCORE.INTRA.VDW.0>
0

>  <SCORE.INTRA.norm>
0

>  <SCORE.RESTR>
0

>  <SCORE.RESTR.CAVITY>
0

>  <SCORE.RESTR.norm>
0

>  <SCORE.SYSTEM>
0

>  <SCORE.SYSTEM.CONST>
0

>  <SCORE.SYSTEM.DIHEDRAL>
0

>  <SCORE.SYSTEM.SOLV>
0

>  <SCORE.SYSTEM.norm>
0

>  <SCORE.heavy>
11

>  <SCORE.norm>
-1.27043

>  <RMSD>
3.444

$$$$
ligand
 OpenBabel11021811503D
libRbt.so/2013.1/901 2013/11/27
 11 12  0  0  0  0  0  0  0  0999 V2000
    3.4498  -19.6856   25.2103 N   0  0  0  0  0  0  0  0  0  0  0  0
    3.2698  -20.4083   24.0906 C   0  0  0  0  0  0  0  0  0  0  0  0
    4.3295  -20.5485   23.1447 N   0  0  0  0  0  0  0  0  0  0  0  0
    2.1145  -21.0235   23.8210 N   0  0  0  0  0  0  0  0  0  0  0  0
    1.0433  -20.9266   24.6762 C   0  0  0  0  0  0  0  0  0  0  0  0
    1.1888  -20.1955   25.8352 C   0  0  0  0  0  0  0  0  0  0  0  0
    2.4383  -19.5658   26.1036 C   0  0  0  0  0  0  0  0  0  0  0  0
    2.5956  -18.8286   27.2560 O   0  0  0  0  0  0  0  0  0  0  0  0
   -0.0625  -20.2793   26.5246 C   0  0  0  0  0  0  0  0  0  0  0  0
   -0.9054  -21.0637   25.7251 C   0  0  0  0  0  0  0  0  0  0  0  0
   -0.2336  -21.4397   24.6296 N   0  0  0  0  0  0  0  0  0  0  0  0
  1  2  1  0  0  0  0
  1  7  1  0  0  0  0
  2  3  1  0  0  0  0
  2  4  2  0  0  0  0
  4  5  1  0  0  0  0
  5  6  2  0  0  0  0
  5 11  1  0  0  0  0
  6  7  1  0  0  0  0
  6  9  1  0  0  0  0
  7  8  2  0  0  0  0
  9 10  2  0  0  0  0
 10 11  1  0  0  0  0
M  END
>  <CHROM.1>
1.80842078,-20.33545526,25.18631743,-0.24989467,0.32109149,1.04415444

>  <Name>
ligand

>  <RI>
0

>  <Rbt.Current_Directory>
/home/itssahil/PROJECTS/Mol_Feturizer/New_Systems/rnas/4LVW

>  <Rbt.Executable>
rbdock ($Id: //depot/dev/client3/rdock/2013.1/src/exe/rbdock.cxx#4 $)

>  <Rbt.Library>
libRbt.so (2013.1, Build901 2013/11/27)

>  <Rbt.Parameter_File>
/export/apps/rDock/src/rDock_2013.1_src/data/scripts/dock_solv.prm

>  <Rbt.Receptor>
prm/pocket_docking_5.prm

>  <SCORE>
-13.9766

>  <SCORE.INTER>
-13.9766

>  <SCORE.INTER.CONST>
1

>  <SCORE.INTER.POLAR>
0

>  <SCORE.INTER.ROT>
0

>  <SCORE.INTER.SOLV>
5.42526

>  <SCORE.INTER.VDW>
-14.7262

>  <SCORE.INTER.norm>
-1.2706

>  <SCORE.INTRA>
0

>  <SCORE.INTRA.DIHEDRAL>
0

>  <SCORE.INTRA.DIHEDRAL.0>
0

>  <SCORE.INTRA.POLAR>
0

>  <SCORE.INTRA.POLAR.0>
0

>  <SCORE.INTRA.REPUL>
0

>  <SCORE.INTRA.REPUL.0>
0

>  <SCORE.INTRA.SOLV>
0

>  <SCORE.INTRA.SOLV.lig_0>
-29.307

>  <SCORE.INTRA.VDW>
0

>  <SCORE.INTRA.VDW.0>
0

>  <SCORE.INTRA.norm>
0

>  <SCORE.RESTR>
0

>  <SCORE.RESTR.CAVITY>
0

>  <SCORE.RESTR.norm>
0

>  <SCORE.SYSTEM>
0

>  <SCORE.SYSTEM.CONST>
0

>  <SCORE.SYSTEM.DIHEDRAL>
0

>  <SCORE.SYSTEM.SOLV>
0

>  <SCORE.SYSTEM.norm>
0

>  <SCORE.heavy>
11

>  <SCORE.norm>
-1.2706

>  <RMSD>
3.444

$$$$
ligand
 OpenBabel11021811503D
libRbt.so/2013.1/901 2013/11/27
 11 12  0  0  0  0  0  0  0  0999 V2000
    3.4495  -19.6881   25.2209 N   0  0  0  0  0  0  0  0  0  0  0  0
    3.2730  -20.4129   24.1021 C   0  0  0  0  0  0  0  0  0  0  0  0
    4.3361  -20.5556   23.1603 N   0  0  0  0  0  0  0  0  0  0  0  0
    2.1184  -21.0278   23.8294 N   0  0  0  0  0  0  0  0  0  0  0  0
    1.0441  -20.9286   24.6806 C   0  0  0  0  0  0  0  0  0  0  0  0
    1.1860  -20.1953   25.8387 C   0  0  0  0  0  0  0  0  0  0  0  0
    2.4349  -19.5659   26.1103 C   0  0  0  0  0  0  0  0  0  0  0  0
    2.5885  -18.8266   27.2619 O   0  0  0  0  0  0  0  0  0  0  0  0
   -0.0679  -20.2770   26.5238 C   0  0  0  0  0  0  0  0  0  0  0  0
   -0.9084  -21.0624   25.7228 C   0  0  0  0  0  0  0  0  0  0  0  0
   -0.2329  -21.4410   24.6304 N   0  0  0  0  0  0  0  0  0  0  0  0
  1  2  1  0  0  0  0
  1  7  1  0  0  0  0
  2  3  1  0  0  0  0
  2  4  2  0  0  0  0
  4  5  1  0  0  0  0
  5  6  2  0  0  0  0
  5 11  1  0  0  0  0
  6  7  1  0  0  0  0
  6  9  1  0  0  0  0
  7  8  2  0  0  0  0
  9 10  2  0  0  0  0
 10 11  1  0  0  0  0
M  END
>  <CHROM.1>
1.80781235,-20.33694510,25.19233245,-0.24696115,0.31872960,1.04128091

>  <Name>
ligand

>  <RI>
0

>  <Rbt.Current_Directory>
/home/itssahil/PROJECTS/Mol_Feturizer/New_Systems/rnas/4LVW

>  <Rbt.Executable>
rbdock ($Id: //depot/dev/client3/rdock/2013.1/src/exe/rbdock.cxx#4 $)

>  <Rbt.Library>
libRbt.so (2013.1, Build901 2013/11/27)

>  <Rbt.Parameter_File>
/export/apps/rDock/src/rDock_2013.1_src/data/scripts/dock_solv.prm

>  <Rbt.Receptor>
prm/pocket_docking_5.prm

>  <SCORE>
-13.9762

>  <SCORE.INTER>
-13.9762

>  <SCORE.INTER.CONST>
1

>  <SCORE.INTER.POLAR>
0

>  <SCORE.INTER.ROT>
0

>  <SCORE.INTER.SOLV>
5.38578

>  <SCORE.INTER.VDW>
-14.7127

>  <SCORE.INTER.norm>
-1.27056

>  <SCORE.INTRA>
0

>  <SCORE.INTRA.DIHEDRAL>
0

>  <SCORE.INTRA.DIHEDRAL.0>
0

>  <SCORE.INTRA.POLAR>
0

>  <SCORE.INTRA.POLAR.0>
0

>  <SCORE.INTRA.REPUL>
0

>  <SCORE.INTRA.REPUL.0>
0

>  <SCORE.INTRA.SOLV>
0

>  <SCORE.INTRA.SOLV.lig_0>
-29.307

>  <SCORE.INTRA.VDW>
0

>  <SCORE.INTRA.VDW.0>
0

>  <SCORE.INTRA.norm>
0

>  <SCORE.RESTR>
0

>  <SCORE.RESTR.CAVITY>
0

>  <SCORE.RESTR.norm>
0

>  <SCORE.SYSTEM>
0

>  <SCORE.SYSTEM.CONST>
0

>  <SCORE.SYSTEM.DIHEDRAL>
0

>  <SCORE.SYSTEM.SOLV>
0

>  <SCORE.SYSTEM.norm>
0

>  <SCORE.heavy>
11

>  <SCORE.norm>
-1.27056

>  <RMSD>
3.444

$$$$
ligand
 OpenBabel11021811503D
libRbt.so/2013.1/901 2013/11/27
 11 12  0  0  0  0  0  0  0  0999 V2000
    3.4556  -19.7117   25.1991 N   0  0  0  0  0  0  0  0  0  0  0  0
    3.2704  -20.4400   24.0839 C   0  0  0  0  0  0  0  0  0  0  0  0
    4.3293  -20.5942   23.1392 N   0  0  0  0  0  0  0  0  0  0  0  0
    2.1105  -21.0480   23.8177 N   0  0  0  0  0  0  0  0  0  0  0  0
    1.0398  -20.9376   24.6720 C   0  0  0  0  0  0  0  0  0  0  0  0
    1.1906  -20.2004   25.8264 C   0  0  0  0  0  0  0  0  0  0  0  0
    2.4448  -19.5786   26.0912 C   0  0  0  0  0  0  0  0  0  0  0  0
    2.6073  -18.8355   27.2391 O   0  0  0  0  0  0  0  0  0  0  0  0
   -0.0615  -20.2703   26.5159 C   0  0  0  0  0  0  0  0  0  0  0  0
   -0.9102  -21.0533   25.7210 C   0  0  0  0  0  0  0  0  0  0  0  0
   -0.2410  -21.4412   24.6281 N   0  0  0  0  0  0  0  0  0  0  0  0
  1  2  1  0  0  0  0
  1  7  1  0  0  0  0
  2  3  1  0  0  0  0
  2  4  2  0  0  0  0
  4  5  1  0  0  0  0
  5  6  2  0  0  0  0
  5 11  1  0  0  0  0
  6  7  1  0  0  0  0
  6  9  1  0  0  0  0
  7  8  2  0  0  0  0
  9 10  2  0  0  0  0
 10 11  1  0  0  0  0
M  END
>  <CHROM.1>
1.80930520,-20.34913539,25.17860941,-0.25366738,0.31434544,1.03909417

>  <Name>
ligand

>  <RI>
0

>  <Rbt.Current_Directory>
/home/itssahil/PROJECTS/Mol_Feturizer/New_Systems/rnas/4LVW

>  <Rbt.Executable>
rbdock ($Id: //depot/dev/client3/rdock/2013.1/src/exe/rbdock.cxx#4 $)

>  <Rbt.Library>
libRbt.so (2013.1, Build901 2013/11/27)

>  <Rbt.Parameter_File>
/export/apps/rDock/src/rDock_2013.1_src/data/scripts/dock_solv.prm

>  <Rbt.Receptor>
prm/pocket_docking_5.prm

>  <SCORE>
-13.954

>  <SCORE.INTER>
-13.954

>  <SCORE.INTER.CONST>
1

>  <SCORE.INTER.POLAR>
0

>  <SCORE.INTER.ROT>
0

>  <SCORE.INTER.SOLV>
5.45863

>  <SCORE.INTER.VDW>
-14.7222

>  <SCORE.INTER.norm>
-1.26855

>  <SCORE.INTRA>
0

>  <SCORE.INTRA.DIHEDRAL>
0

>  <SCORE.INTRA.DIHEDRAL.0>
0

>  <SCORE.INTRA.POLAR>
0

>  <SCORE.INTRA.POLAR.0>
0

>  <SCORE.INTRA.REPUL>
0

>  <SCORE.INTRA.REPUL.0>
0

>  <SCORE.INTRA.SOLV>
0

>  <SCORE.INTRA.SOLV.lig_0>
-29.307

>  <SCORE.INTRA.VDW>
0

>  <SCORE.INTRA.VDW.0>
0

>  <SCORE.INTRA.norm>
0

>  <SCORE.RESTR>
0

>  <SCORE.RESTR.CAVITY>
0

>  <SCORE.RESTR.norm>
0

>  <SCORE.SYSTEM>
0

>  <SCORE.SYSTEM.CONST>
0

>  <SCORE.SYSTEM.DIHEDRAL>
0

>  <SCORE.SYSTEM.SOLV>
0

>  <SCORE.SYSTEM.norm>
0

>  <SCORE.heavy>
11

>  <SCORE.norm>
-1.26855

>  <RMSD>
3.444

$$$$
ligand
 OpenBabel11021811503D
libRbt.so/2013.1/901 2013/11/27
 11 12  0  0  0  0  0  0  0  0999 V2000
    3.4494  -19.6882   25.2243 N   0  0  0  0  0  0  0  0  0  0  0  0
    3.2712  -20.4063   24.1014 C   0  0  0  0  0  0  0  0  0  0  0  0
    4.3325  -20.5426   23.1567 N   0  0  0  0  0  0  0  0  0  0  0  0
    2.1165  -21.0206   23.8274 N   0  0  0  0  0  0  0  0  0  0  0  0
    1.0439  -20.9273   24.6814 C   0  0  0  0  0  0  0  0  0  0  0  0
    1.1875  -20.2009   25.8435 C   0  0  0  0  0  0  0  0  0  0  0  0
    2.4365  -19.5722   26.1165 C   0  0  0  0  0  0  0  0  0  0  0  0
    2.5918  -18.8397   27.2722 O   0  0  0  0  0  0  0  0  0  0  0  0
   -0.0649  -20.2877   26.5307 C   0  0  0  0  0  0  0  0  0  0  0  0
   -0.9064  -21.0690   25.7266 C   0  0  0  0  0  0  0  0  0  0  0  0
   -0.2329  -21.4404   24.6306 N   0  0  0  0  0  0  0  0  0  0  0  0
  1  2  1  0  0  0  0
  1  7  1  0  0  0  0
  2  3  1  0  0  0  0
  2  4  2  0  0  0  0
  4  5  1  0  0  0  0
  5  6  2  0  0  0  0
  5 11  1  0  0  0  0
  6  7  1  0  0  0  0
  6  9  1  0  0  0  0
  7  8  2  0  0  0  0
  9 10  2  0  0  0  0
 10 11  1  0  0  0  0
M  END
>  <CHROM.1>
1.80815541,-20.33815801,25.19510148,-0.24838264,0.32041993,1.04776798

>  <Name>
ligand

>  <RI>
0

>  <Rbt.Current_Directory>
/home/itssahil/PROJECTS/Mol_Feturizer/New_Systems/rnas/4LVW

>  <Rbt.Executable>
rbdock ($Id: //depot/dev/client3/rdock/2013.1/src/exe/rbdock.cxx#4 $)

>  <Rbt.Library>
libRbt.so (2013.1, Build901 2013/11/27)

>  <Rbt.Parameter_File>
/export/apps/rDock/src/rDock_2013.1_src/data/scripts/dock_solv.prm

>  <Rbt.Receptor>
prm/pocket_docking_5.prm

>  <SCORE>
-13.9632

>  <SCORE.INTER>
-13.9632

>  <SCORE.INTER.CONST>
1

>  <SCORE.INTER.POLAR>
0

>  <SCORE.INTER.ROT>
0

>  <SCORE.INTER.SOLV>
5.37978

>  <SCORE.INTER.VDW>
-14.7021

>  <SCORE.INTER.norm>
-1.26938

>  <SCORE.INTRA>
0

>  <SCORE.INTRA.DIHEDRAL>
0

>  <SCORE.INTRA.DIHEDRAL.0>
0

>  <SCORE.INTRA.POLAR>
0

>  <SCORE.INTRA.POLAR.0>
0

>  <SCORE.INTRA.REPUL>
0

>  <SCORE.INTRA.REPUL.0>
0

>  <SCORE.INTRA.SOLV>
0

>  <SCORE.INTRA.SOLV.lig_0>
-29.307

>  <SCORE.INTRA.VDW>
0

>  <SCORE.INTRA.VDW.0>
0

>  <SCORE.INTRA.norm>
0

>  <SCORE.RESTR>
0

>  <SCORE.RESTR.CAVITY>
0

>  <SCORE.RESTR.norm>
0

>  <SCORE.SYSTEM>
0

>  <SCORE.SYSTEM.CONST>
0

>  <SCORE.SYSTEM.DIHEDRAL>
0

>  <SCORE.SYSTEM.SOLV>
0

>  <SCORE.SYSTEM.norm>
0

>  <SCORE.heavy>
11

>  <SCORE.norm>
-1.26938

>  <RMSD>
3.444

$$$$
ligand
 OpenBabel11021811503D
libRbt.so/2013.1/901 2013/11/27
 11 12  0  0  0  0  0  0  0  0999 V2000
    3.4492  -19.6844   25.2032 N   0  0  0  0  0  0  0  0  0  0  0  0
    3.2635  -20.3973   24.0782 C   0  0  0  0  0  0  0  0  0  0  0  0
    4.3187  -20.5297   23.1261 N   0  0  0  0  0  0  0  0  0  0  0  0
    2.1068  -21.0098   23.8087 N   0  0  0  0  0  0  0  0  0  0  0  0
    1.0397  -20.9200   24.6699 C   0  0  0  0  0  0  0  0  0  0  0  0
    1.1910  -20.1991   25.8345 C   0  0  0  0  0  0  0  0  0  0  0  0
    2.4420  -19.5721   26.1023 C   0  0  0  0  0  0  0  0  0  0  0  0
    2.6050  -18.8450   27.2604 O   0  0  0  0  0  0  0  0  0  0  0  0
   -0.0570  -20.2885   26.5291 C   0  0  0  0  0  0  0  0  0  0  0  0
   -0.9040  -21.0657   25.7269 C   0  0  0  0  0  0  0  0  0  0  0  0
   -0.2376  -21.4324   24.6249 N   0  0  0  0  0  0  0  0  0  0  0  0
  1  2  1  0  0  0  0
  1  7  1  0  0  0  0
  2  3  1  0  0  0  0
  2  4  2  0  0  0  0
  4  5  1  0  0  0  0
  5  6  2  0  0  0  0
  5 11  1  0  0  0  0
  6  7  1  0  0  0  0
  6  9  1  0  0  0  0
  7  8  2  0  0  0  0
  9 10  2  0  0  0  0
 10 11  1  0  0  0  0
M  END
>  <CHROM.1>
1.80748147,-20.33357703,25.18146507,-0.25443516,0.32320686,1.05427097

>  <Name>
ligand

>  <RI>
0

>  <Rbt.Current_Directory>
/home/itssahil/PROJECTS/Mol_Feturizer/New_Systems/rnas/4LVW

>  <Rbt.Executable>
rbdock ($Id: //depot/dev/client3/rdock/2013.1/src/exe/rbdock.cxx#4 $)

>  <Rbt.Library>
libRbt.so (2013.1, Build901 2013/11/27)

>  <Rbt.Parameter_File>
/export/apps/rDock/src/rDock_2013.1_src/data/scripts/dock_solv.prm

>  <Rbt.Receptor>
prm/pocket_docking_5.prm

>  <SCORE>
-13.9525

>  <SCORE.INTER>
-13.9525

>  <SCORE.INTER.CONST>
1

>  <SCORE.INTER.POLAR>
0

>  <SCORE.INTER.ROT>
0

>  <SCORE.INTER.SOLV>
5.47635

>  <SCORE.INTER.VDW>
-14.7271

>  <SCORE.INTER.norm>
-1.26841

>  <SCORE.INTRA>
0

>  <SCORE.INTRA.DIHEDRAL>
0

>  <SCORE.INTRA.DIHEDRAL.0>
0

>  <SCORE.INTRA.POLAR>
0

>  <SCORE.INTRA.POLAR.0>
0

>  <SCORE.INTRA.REPUL>
0

>  <SCORE.INTRA.REPUL.0>
0

>  <SCORE.INTRA.SOLV>
0

>  <SCORE.INTRA.SOLV.lig_0>
-29.307

>  <SCORE.INTRA.VDW>
0

>  <SCORE.INTRA.VDW.0>
0

>  <SCORE.INTRA.norm>
0

>  <SCORE.RESTR>
0

>  <SCORE.RESTR.CAVITY>
0

>  <SCORE.RESTR.norm>
0

>  <SCORE.SYSTEM>
0

>  <SCORE.SYSTEM.CONST>
0

>  <SCORE.SYSTEM.DIHEDRAL>
0

>  <SCORE.SYSTEM.SOLV>
0

>  <SCORE.SYSTEM.norm>
0

>  <SCORE.heavy>
11

>  <SCORE.norm>
-1.26841

>  <RMSD>
3.444

$$$$
ligand
 OpenBabel11021811503D
libRbt.so/2013.1/901 2013/11/27
 11 12  0  0  0  0  0  0  0  0999 V2000
    3.4579  -19.6829   25.2060 N   0  0  0  0  0  0  0  0  0  0  0  0
    3.2809  -20.4108   24.0892 C   0  0  0  0  0  0  0  0  0  0  0  0
    4.3444  -20.5583   23.1486 N   0  0  0  0  0  0  0  0  0  0  0  0
    2.1253  -21.0244   23.8176 N   0  0  0  0  0  0  0  0  0  0  0  0
    1.0506  -20.9207   24.6677 C   0  0  0  0  0  0  0  0  0  0  0  0
    1.1929  -20.1842   25.8236 C   0  0  0  0  0  0  0  0  0  0  0  0
    2.4428  -19.5562   26.0943 C   0  0  0  0  0  0  0  0  0  0  0  0
    2.5969  -18.8137   27.2438 O   0  0  0  0  0  0  0  0  0  0  0  0
   -0.0616  -20.2615   26.5080 C   0  0  0  0  0  0  0  0  0  0  0  0
   -0.9030  -21.0478   25.7088 C   0  0  0  0  0  0  0  0  0  0  0  0
   -0.2274  -21.4309   24.6180 N   0  0  0  0  0  0  0  0  0  0  0  0
  1  2  1  0  0  0  0
  1  7  1  0  0  0  0
  2  3  1  0  0  0  0
  2  4  2  0  0  0  0
  4  5  1  0  0  0  0
  5  6  2  0  0  0  0
  5 11  1  0  0  0  0
  6  7  1  0  0  0  0
  6  9  1  0  0  0  0
  7  8  2  0  0  0  0
  9 10  2  0  0  0  0
 10 11  1  0  0  0  0
M  END
>  <CHROM.1>
1.81498458,-20.32888966,25.17817455,-0.24726326,0.31678090,1.03836695

>  <Name>
ligand

>  <RI>
0

>  <Rbt.Current_Directory>
/home/itssahil/PROJECTS/Mol_Feturizer/New_Systems/rnas/4LVW

>  <Rbt.Executable>
rbdock ($Id: //depot/dev/client3/rdock/2013.1/src/exe/rbdock.cxx#4 $)

>  <Rbt.Library>
libRbt.so (2013.1, Build901 2013/11/27)

>  <Rbt.Parameter_File>
/export/apps/rDock/src/rDock_2013.1_src/data/scripts/dock_solv.prm

>  <Rbt.Receptor>
prm/pocket_docking_5.prm

>  <SCORE>
-13.9337

>  <SCORE.INTER>
-13.9337

>  <SCORE.INTER.CONST>
1

>  <SCORE.INTER.POLAR>
0

>  <SCORE.INTER.ROT>
0

>  <SCORE.INTER.SOLV>
5.38446

>  <SCORE.INTER.VDW>
-14.684

>  <SCORE.INTER.norm>
-1.2667

>  <SCORE.INTRA>
0

>  <SCORE.INTRA.DIHEDRAL>
0

>  <SCORE.INTRA.DIHEDRAL.0>
0

>  <SCORE.INTRA.POLAR>
0

>  <SCORE.INTRA.POLAR.0>
0

>  <SCORE.INTRA.REPUL>
0

>  <SCORE.INTRA.REPUL.0>
0

>  <SCORE.INTRA.SOLV>
0

>  <SCORE.INTRA.SOLV.lig_0>
-29.307

>  <SCORE.INTRA.VDW>
0

>  <SCORE.INTRA.VDW.0>
0

>  <SCORE.INTRA.norm>
0

>  <SCORE.RESTR>
0

>  <SCORE.RESTR.CAVITY>
0

>  <SCORE.RESTR.norm>
0

>  <SCORE.SYSTEM>
0

>  <SCORE.SYSTEM.CONST>
0

>  <SCORE.SYSTEM.DIHEDRAL>
0

>  <SCORE.SYSTEM.SOLV>
0

>  <SCORE.SYSTEM.norm>
0

>  <SCORE.heavy>
11

>  <SCORE.norm>
-1.2667

>  <RMSD>
3.444

$$$$
ligand
 OpenBabel11021811503D
libRbt.so/2013.1/901 2013/11/27
 11 12  0  0  0  0  0  0  0  0999 V2000
    3.4487  -19.6858   25.2160 N   0  0  0  0  0  0  0  0  0  0  0  0
    3.2718  -20.4100   24.0969 C   0  0  0  0  0  0  0  0  0  0  0  0
    4.3332  -20.5491   23.1527 N   0  0  0  0  0  0  0  0  0  0  0  0
    2.1182  -21.0278   23.8261 N   0  0  0  0  0  0  0  0  0  0  0  0
    1.0455  -20.9322   24.6797 C   0  0  0  0  0  0  0  0  0  0  0  0
    1.1878  -20.1996   25.8380 C   0  0  0  0  0  0  0  0  0  0  0  0
    2.4355  -19.5670   26.1076 C   0  0  0  0  0  0  0  0  0  0  0  0
    2.5896  -18.8284   27.2595 O   0  0  0  0  0  0  0  0  0  0  0  0
   -0.0644  -20.2852   26.5257 C   0  0  0  0  0  0  0  0  0  0  0  0
   -0.9045  -21.0722   25.7258 C   0  0  0  0  0  0  0  0  0  0  0  0
   -0.2303  -21.4480   24.6316 N   0  0  0  0  0  0  0  0  0  0  0  0
  1  2  1  0  0  0  0
  1  7  1  0  0  0  0
  2  3  1  0  0  0  0
  2  4  2  0  0  0  0
  4  5  1  0  0  0  0
  5  6  2  0  0  0  0
  5 11  1  0  0  0  0
  6  7  1  0  0  0  0
  6  9  1  0  0  0  0
  7  8  2  0  0  0  0
  9 10  2  0  0  0  0
 10 11  1  0  0  0  0
M  END
>  <CHROM.1>
1.80864009,-20.33897594,25.19028913,-0.24743892,0.32209067,1.04230855

>  <Name>
ligand

>  <RI>
0

>  <Rbt.Current_Directory>
/home/itssahil/PROJECTS/Mol_Feturizer/New_Systems/rnas/4LVW

>  <Rbt.Executable>
rbdock ($Id: //depot/dev/client3/rdock/2013.1/src/exe/rbdock.cxx#4 $)

>  <Rbt.Library>
libRbt.so (2013.1, Build901 2013/11/27)

>  <Rbt.Parameter_File>
/export/apps/rDock/src/rDock_2013.1_src/data/scripts/dock_solv.prm

>  <Rbt.Receptor>
prm/pocket_docking_5.prm

>  <SCORE>
-13.9472

>  <SCORE.INTER>
-13.9472

>  <SCORE.INTER.CONST>
1

>  <SCORE.INTER.POLAR>
0

>  <SCORE.INTER.ROT>
0

>  <SCORE.INTER.SOLV>
5.3947

>  <SCORE.INTER.VDW>
-14.6963

>  <SCORE.INTER.norm>
-1.26792

>  <SCORE.INTRA>
0

>  <SCORE.INTRA.DIHEDRAL>
0

>  <SCORE.INTRA.DIHEDRAL.0>
0

>  <SCORE.INTRA.POLAR>
0

>  <SCORE.INTRA.POLAR.0>
0

>  <SCORE.INTRA.REPUL>
0

>  <SCORE.INTRA.REPUL.0>
0

>  <SCORE.INTRA.SOLV>
0

>  <SCORE.INTRA.SOLV.lig_0>
-29.307

>  <SCORE.INTRA.VDW>
0

>  <SCORE.INTRA.VDW.0>
0

>  <SCORE.INTRA.norm>
0

>  <SCORE.RESTR>
0

>  <SCORE.RESTR.CAVITY>
0

>  <SCORE.RESTR.norm>
0

>  <SCORE.SYSTEM>
0

>  <SCORE.SYSTEM.CONST>
0

>  <SCORE.SYSTEM.DIHEDRAL>
0

>  <SCORE.SYSTEM.SOLV>
0

>  <SCORE.SYSTEM.norm>
0

>  <SCORE.heavy>
11

>  <SCORE.norm>
-1.26792

>  <RMSD>
3.444

$$$$
ligand
 OpenBabel11021811503D
libRbt.so/2013.1/901 2013/11/27
 11 12  0  0  0  0  0  0  0  0999 V2000
    3.4492  -19.6892   25.2318 N   0  0  0  0  0  0  0  0  0  0  0  0
    3.2723  -20.4038   24.1065 C   0  0  0  0  0  0  0  0  0  0  0  0
    4.3348  -20.5377   23.1628 N   0  0  0  0  0  0  0  0  0  0  0  0
    2.1176  -21.0167   23.8289 N   0  0  0  0  0  0  0  0  0  0  0  0
    1.0439  -20.9255   24.6817 C   0  0  0  0  0  0  0  0  0  0  0  0
    1.1862  -20.2028   25.8462 C   0  0  0  0  0  0  0  0  0  0  0  0
    2.4350  -19.5754   26.1229 C   0  0  0  0  0  0  0  0  0  0  0  0
    2.5890  -18.8465   27.2810 O   0  0  0  0  0  0  0  0  0  0  0  0
   -0.0672  -20.2910   26.5313 C   0  0  0  0  0  0  0  0  0  0  0  0
   -0.9080  -21.0695   25.7237 C   0  0  0  0  0  0  0  0  0  0  0  0
   -0.2330  -21.4379   24.6275 N   0  0  0  0  0  0  0  0  0  0  0  0
  1  2  1  0  0  0  0
  1  7  1  0  0  0  0
  2  3  1  0  0  0  0
  2  4  2  0  0  0  0
  4  5  1  0  0  0  0
  5  6  2  0  0  0  0
  5 11  1  0  0  0  0
  6  7  1  0  0  0  0
  6  9  1  0  0  0  0
  7  8  2  0  0  0  0
  9 10  2  0  0  0  0
 10 11  1  0  0  0  0
M  END
>  <CHROM.1>
1.80766106,-20.33829423,25.19826076,-0.24732605,0.31931333,1.05048070

>  <Name>
ligand

>  <RI>
0

>  <Rbt.Current_Directory>
/home/itssahil/PROJECTS/Mol_Feturizer/New_Systems/rnas/4LVW

>  <Rbt.Executable>
rbdock ($Id: //depot/dev/client3/rdock/2013.1/src/exe/rbdock.cxx#4 $)

>  <Rbt.Library>
libRbt.so (2013.1, Build901 2013/11/27)

>  <Rbt.Parameter_File>
/export/apps/rDock/src/rDock_2013.1_src/data/scripts/dock_solv.prm

>  <Rbt.Receptor>
prm/pocket_docking_6.prm

>  <SCORE>
-13.9626

>  <SCORE.INTER>
-13.9626

>  <SCORE.INTER.CONST>
1

>  <SCORE.INTER.POLAR>
0

>  <SCORE.INTER.ROT>
0

>  <SCORE.INTER.SOLV>
5.35402

>  <SCORE.INTER.VDW>
-14.6931

>  <SCORE.INTER.norm>
-1.26933

>  <SCORE.INTRA>
0

>  <SCORE.INTRA.DIHEDRAL>
0

>  <SCORE.INTRA.DIHEDRAL.0>
0

>  <SCORE.INTRA.POLAR>
0

>  <SCORE.INTRA.POLAR.0>
0

>  <SCORE.INTRA.REPUL>
0

>  <SCORE.INTRA.REPUL.0>
0

>  <SCORE.INTRA.SOLV>
0

>  <SCORE.INTRA.SOLV.lig_0>
-29.307

>  <SCORE.INTRA.VDW>
0

>  <SCORE.INTRA.VDW.0>
0

>  <SCORE.INTRA.norm>
0

>  <SCORE.RESTR>
0

>  <SCORE.RESTR.CAVITY>
0

>  <SCORE.RESTR.norm>
0

>  <SCORE.SYSTEM>
0

>  <SCORE.SYSTEM.CONST>
0

>  <SCORE.SYSTEM.DIHEDRAL>
0

>  <SCORE.SYSTEM.SOLV>
0

>  <SCORE.SYSTEM.norm>
0

>  <SCORE.heavy>
11

>  <SCORE.norm>
-1.26933

>  <RMSD>
3.444

$$$$
ligand
 OpenBabel11021811503D
libRbt.so/2013.1/901 2013/11/27
 11 12  0  0  0  0  0  0  0  0999 V2000
    3.4557  -19.7117   25.1990 N   0  0  0  0  0  0  0  0  0  0  0  0
    3.2692  -20.4377   24.0826 C   0  0  0  0  0  0  0  0  0  0  0  0
    4.3267  -20.5892   23.1359 N   0  0  0  0  0  0  0  0  0  0  0  0
    2.1093  -21.0458   23.8168 N   0  0  0  0  0  0  0  0  0  0  0  0
    1.0398  -20.9380   24.6730 C   0  0  0  0  0  0  0  0  0  0  0  0
    1.1920  -20.2032   25.8288 C   0  0  0  0  0  0  0  0  0  0  0  0
    2.4461  -19.5812   26.0931 C   0  0  0  0  0  0  0  0  0  0  0  0
    2.6100  -18.8405   27.2423 O   0  0  0  0  0  0  0  0  0  0  0  0
   -0.0590  -20.2755   26.5201 C   0  0  0  0  0  0  0  0  0  0  0  0
   -0.9085  -21.0572   25.7249 C   0  0  0  0  0  0  0  0  0  0  0  0
   -0.2407  -21.4423   24.6300 N   0  0  0  0  0  0  0  0  0  0  0  0
  1  2  1  0  0  0  0
  1  7  1  0  0  0  0
  2  3  1  0  0  0  0
  2  4  2  0  0  0  0
  4  5  1  0  0  0  0
  5  6  2  0  0  0  0
  5 11  1  0  0  0  0
  6  7  1  0  0  0  0
  6  9  1  0  0  0  0
  7  8  2  0  0  0  0
  9 10  2  0  0  0  0
 10 11  1  0  0  0  0
M  END
>  <CHROM.1>
1.80974143,-20.35015470,25.17975355,-0.25475485,0.31567463,1.04163008

>  <Name>
ligand

>  <RI>
0

>  <Rbt.Current_Directory>
/home/itssahil/PROJECTS/Mol_Feturizer/New_Systems/rnas/4LVW

>  <Rbt.Executable>
rbdock ($Id: //depot/dev/client3/rdock/2013.1/src/exe/rbdock.cxx#4 $)

>  <Rbt.Library>
libRbt.so (2013.1, Build901 2013/11/27)

>  <Rbt.Parameter_File>
/export/apps/rDock/src/rDock_2013.1_src/data/scripts/dock_solv.prm

>  <Rbt.Receptor>
prm/pocket_docking_6.prm

>  <SCORE>
-13.9572

>  <SCORE.INTER>
-13.9572

>  <SCORE.INTER.CONST>
1

>  <SCORE.INTER.POLAR>
0

>  <SCORE.INTER.ROT>
0

>  <SCORE.INTER.SOLV>
5.46557

>  <SCORE.INTER.VDW>
-14.7266

>  <SCORE.INTER.norm>
-1.26883

>  <SCORE.INTRA>
0

>  <SCORE.INTRA.DIHEDRAL>
0

>  <SCORE.INTRA.DIHEDRAL.0>
0

>  <SCORE.INTRA.POLAR>
0

>  <SCORE.INTRA.POLAR.0>
0

>  <SCORE.INTRA.REPUL>
0

>  <SCORE.INTRA.REPUL.0>
0

>  <SCORE.INTRA.SOLV>
0

>  <SCORE.INTRA.SOLV.lig_0>
-29.307

>  <SCORE.INTRA.VDW>
0

>  <SCORE.INTRA.VDW.0>
0

>  <SCORE.INTRA.norm>
0

>  <SCORE.RESTR>
0

>  <SCORE.RESTR.CAVITY>
0

>  <SCORE.RESTR.norm>
0

>  <SCORE.SYSTEM>
0

>  <SCORE.SYSTEM.CONST>
0

>  <SCORE.SYSTEM.DIHEDRAL>
0

>  <SCORE.SYSTEM.SOLV>
0

>  <SCORE.SYSTEM.norm>
0

>  <SCORE.heavy>
11

>  <SCORE.norm>
-1.26883

>  <RMSD>
3.444

$$$$
ligand
 OpenBabel11021811503D
libRbt.so/2013.1/901 2013/11/27
 11 12  0  0  0  0  0  0  0  0999 V2000
    3.4493  -19.6877   25.2201 N   0  0  0  0  0  0  0  0  0  0  0  0
    3.2705  -20.4053   24.0969 C   0  0  0  0  0  0  0  0  0  0  0  0
    4.3313  -20.5415   23.1517 N   0  0  0  0  0  0  0  0  0  0  0  0
    2.1154  -21.0190   23.8230 N   0  0  0  0  0  0  0  0  0  0  0  0
    1.0431  -20.9257   24.6774 C   0  0  0  0  0  0  0  0  0  0  0  0
    1.1874  -20.2000   25.8399 C   0  0  0  0  0  0  0  0  0  0  0  0
    2.4367  -19.5718   26.1127 C   0  0  0  0  0  0  0  0  0  0  0  0
    2.5927  -18.8399   27.2687 O   0  0  0  0  0  0  0  0  0  0  0  0
   -0.0648  -20.2866   26.5274 C   0  0  0  0  0  0  0  0  0  0  0  0
   -0.9069  -21.0672   25.7233 C   0  0  0  0  0  0  0  0  0  0  0  0
   -0.2338  -21.4383   24.6269 N   0  0  0  0  0  0  0  0  0  0  0  0
  1  2  1  0  0  0  0
  1  7  1  0  0  0  0
  2  3  1  0  0  0  0
  2  4  2  0  0  0  0
  4  5  1  0  0  0  0
  5  6  2  0  0  0  0
  5 11  1  0  0  0  0
  6  7  1  0  0  0  0
  6  9  1  0  0  0  0
  7  8  2  0  0  0  0
  9 10  2  0  0  0  0
 10 11  1  0  0  0  0
M  END
>  <CHROM.1>
1.80777028,-20.33709347,25.19114696,-0.24889521,0.32027510,1.04840196

>  <Name>
ligand

>  <RI>
0

>  <Rbt.Current_Directory>
/home/itssahil/PROJECTS/Mol_Feturizer/New_Systems/rnas/4LVW

>  <Rbt.Executable>
rbdock ($Id: //depot/dev/client3/rdock/2013.1/src/exe/rbdock.cxx#4 $)

>  <Rbt.Library>
libRbt.so (2013.1, Build901 2013/11/27)

>  <Rbt.Parameter_File>
/export/apps/rDock/src/rDock_2013.1_src/data/scripts/dock_solv.prm

>  <Rbt.Receptor>
prm/pocket_docking_6.prm

>  <SCORE>
-13.961

>  <SCORE.INTER>
-13.961

>  <SCORE.INTER.CONST>
1

>  <SCORE.INTER.POLAR>
0

>  <SCORE.INTER.ROT>
0

>  <SCORE.INTER.SOLV>
5.39374

>  <SCORE.INTER.VDW>
-14.7052

>  <SCORE.INTER.norm>
-1.26918

>  <SCORE.INTRA>
0

>  <SCORE.INTRA.DIHEDRAL>
0

>  <SCORE.INTRA.DIHEDRAL.0>
0

>  <SCORE.INTRA.POLAR>
0

>  <SCORE.INTRA.POLAR.0>
0

>  <SCORE.INTRA.REPUL>
0

>  <SCORE.INTRA.REPUL.0>
0

>  <SCORE.INTRA.SOLV>
0

>  <SCORE.INTRA.SOLV.lig_0>
-29.307

>  <SCORE.INTRA.VDW>
0

>  <SCORE.INTRA.VDW.0>
0

>  <SCORE.INTRA.norm>
0

>  <SCORE.RESTR>
0

>  <SCORE.RESTR.CAVITY>
0

>  <SCORE.RESTR.norm>
0

>  <SCORE.SYSTEM>
0

>  <SCORE.SYSTEM.CONST>
0

>  <SCORE.SYSTEM.DIHEDRAL>
0

>  <SCORE.SYSTEM.SOLV>
0

>  <SCORE.SYSTEM.norm>
0

>  <SCORE.heavy>
11

>  <SCORE.norm>
-1.26918

>  <RMSD>
3.444

$$$$
ligand
 OpenBabel11021811503D
libRbt.so/2013.1/901 2013/11/27
 11 12  0  0  0  0  0  0  0  0999 V2000
    3.4519  -19.7062   25.1990 N   0  0  0  0  0  0  0  0  0  0  0  0
    3.2654  -20.4310   24.0818 C   0  0  0  0  0  0  0  0  0  0  0  0
    4.3223  -20.5796   23.1339 N   0  0  0  0  0  0  0  0  0  0  0  0
    2.1063  -21.0408   23.8164 N   0  0  0  0  0  0  0  0  0  0  0  0
    1.0375  -20.9358   24.6738 C   0  0  0  0  0  0  0  0  0  0  0  0
    1.1896  -20.2022   25.8304 C   0  0  0  0  0  0  0  0  0  0  0  0
    2.4430  -19.5785   26.0942 C   0  0  0  0  0  0  0  0  0  0  0  0
    2.6068  -18.8390   27.2442 O   0  0  0  0  0  0  0  0  0  0  0  0
   -0.0606  -20.2774   26.5229 C   0  0  0  0  0  0  0  0  0  0  0  0
   -0.9095  -21.0596   25.7275 C   0  0  0  0  0  0  0  0  0  0  0  0
   -0.2422  -21.4422   24.6315 N   0  0  0  0  0  0  0  0  0  0  0  0
  1  2  1  0  0  0  0
  1  7  1  0  0  0  0
  2  3  1  0  0  0  0
  2  4  2  0  0  0  0
  4  5  1  0  0  0  0
  5  6  2  0  0  0  0
  5 11  1  0  0  0  0
  6  7  1  0  0  0  0
  6  9  1  0  0  0  0
  7  8  2  0  0  0  0
  9 10  2  0  0  0  0
 10 11  1  0  0  0  0
M  END
>  <CHROM.1>
1.80697149,-20.34731222,25.18055779,-0.25476952,0.31760662,1.04288706

>  <Name>
ligand

>  <RI>
0

>  <Rbt.Current_Directory>
/home/itssahil/PROJECTS/Mol_Feturizer/New_Systems/rnas/4LVW

>  <Rbt.Executable>
rbdock ($Id: //depot/dev/client3/rdock/2013.1/src/exe/rbdock.cxx#4 $)

>  <Rbt.Library>
libRbt.so (2013.1, Build901 2013/11/27)

>  <Rbt.Parameter_File>
/export/apps/rDock/src/rDock_2013.1_src/data/scripts/dock_solv.prm

>  <Rbt.Receptor>
prm/pocket_docking_6.prm

>  <SCORE>
-13.9484

>  <SCORE.INTER>
-13.9484

>  <SCORE.INTER.CONST>
1

>  <SCORE.INTER.POLAR>
0

>  <SCORE.INTER.ROT>
0

>  <SCORE.INTER.SOLV>
5.48364

>  <SCORE.INTER.VDW>
-14.7268

>  <SCORE.INTER.norm>
-1.26803

>  <SCORE.INTRA>
0

>  <SCORE.INTRA.DIHEDRAL>
0

>  <SCORE.INTRA.DIHEDRAL.0>
0

>  <SCORE.INTRA.POLAR>
0

>  <SCORE.INTRA.POLAR.0>
0

>  <SCORE.INTRA.REPUL>
0

>  <SCORE.INTRA.REPUL.0>
0

>  <SCORE.INTRA.SOLV>
0

>  <SCORE.INTRA.SOLV.lig_0>
-29.307

>  <SCORE.INTRA.VDW>
0

>  <SCORE.INTRA.VDW.0>
0

>  <SCORE.INTRA.norm>
0

>  <SCORE.RESTR>
0

>  <SCORE.RESTR.CAVITY>
0

>  <SCORE.RESTR.norm>
0

>  <SCORE.SYSTEM>
0

>  <SCORE.SYSTEM.CONST>
0

>  <SCORE.SYSTEM.DIHEDRAL>
0

>  <SCORE.SYSTEM.SOLV>
0

>  <SCORE.SYSTEM.norm>
0

>  <SCORE.heavy>
11

>  <SCORE.norm>
-1.26803

>  <RMSD>
3.444

$$$$
ligand
 OpenBabel11021811503D
libRbt.so/2013.1/901 2013/11/27
 11 12  0  0  0  0  0  0  0  0999 V2000
    3.4493  -19.6906   25.2377 N   0  0  0  0  0  0  0  0  0  0  0  0
    3.2727  -20.4015   24.1101 C   0  0  0  0  0  0  0  0  0  0  0  0
    4.3363  -20.5343   23.1674 N   0  0  0  0  0  0  0  0  0  0  0  0
    2.1174  -21.0116   23.8291 N   0  0  0  0  0  0  0  0  0  0  0  0
    1.0427  -20.9213   24.6807 C   0  0  0  0  0  0  0  0  0  0  0  0
    1.1846  -20.2022   25.8476 C   0  0  0  0  0  0  0  0  0  0  0  0
    2.4341  -19.5778   26.1278 C   0  0  0  0  0  0  0  0  0  0  0  0
    2.5877  -18.8526   27.2883 O   0  0  0  0  0  0  0  0  0  0  0  0
   -0.0699  -20.2905   26.5307 C   0  0  0  0  0  0  0  0  0  0  0  0
   -0.9109  -21.0651   25.7196 C   0  0  0  0  0  0  0  0  0  0  0  0
   -0.2350  -21.4313   24.6232 N   0  0  0  0  0  0  0  0  0  0  0  0
  1  2  1  0  0  0  0
  1  7  1  0  0  0  0
  2  3  1  0  0  0  0
  2  4  2  0  0  0  0
  4  5  1  0  0  0  0
  5  6  2  0  0  0  0
  5 11  1  0  0  0  0
  6  7  1  0  0  0  0
  6  9  1  0  0  0  0
  7  8  2  0  0  0  0
  9 10  2  0  0  0  0
 10 11  1  0  0  0  0
M  END
>  <CHROM.1>
1.80673291,-20.33685093,25.20004216,-0.24694817,0.31719052,1.05335633

>  <Name>
ligand

>  <RI>
0

>  <Rbt.Current_Directory>
/home/itssahil/PROJECTS/Mol_Feturizer/New_Systems/rnas/4LVW

>  <Rbt.Executable>
rbdock ($Id: //depot/dev/client3/rdock/2013.1/src/exe/rbdock.cxx#4 $)

>  <Rbt.Library>
libRbt.so (2013.1, Build901 2013/11/27)

>  <Rbt.Parameter_File>
/export/apps/rDock/src/rDock_2013.1_src/data/scripts/dock_solv.prm

>  <Rbt.Receptor>
prm/pocket_docking_6.prm

>  <SCORE>
-13.9576

>  <SCORE.INTER>
-13.9576

>  <SCORE.INTER.CONST>
1

>  <SCORE.INTER.POLAR>
0

>  <SCORE.INTER.ROT>
0

>  <SCORE.INTER.SOLV>
5.33983

>  <SCORE.INTER.VDW>
-14.685

>  <SCORE.INTER.norm>
-1.26887

>  <SCORE.INTRA>
0

>  <SCORE.INTRA.DIHEDRAL>
0

>  <SCORE.INTRA.DIHEDRAL.0>
0

>  <SCORE.INTRA.POLAR>
0

>  <SCORE.INTRA.POLAR.0>
0

>  <SCORE.INTRA.REPUL>
0

>  <SCORE.INTRA.REPUL.0>
0

>  <SCORE.INTRA.SOLV>
0

>  <SCORE.INTRA.SOLV.lig_0>
-29.307

>  <SCORE.INTRA.VDW>
0

>  <SCORE.INTRA.VDW.0>
0

>  <SCORE.INTRA.norm>
0

>  <SCORE.RESTR>
0

>  <SCORE.RESTR.CAVITY>
0

>  <SCORE.RESTR.norm>
0

>  <SCORE.SYSTEM>
0

>  <SCORE.SYSTEM.CONST>
0

>  <SCORE.SYSTEM.DIHEDRAL>
0

>  <SCORE.SYSTEM.SOLV>
0

>  <SCORE.SYSTEM.norm>
0

>  <SCORE.heavy>
11

>  <SCORE.norm>
-1.26887

>  <RMSD>
3.444

$$$$
ligand
 OpenBabel11021811503D
libRbt.so/2013.1/901 2013/11/27
 11 12  0  0  0  0  0  0  0  0999 V2000
    3.4481  -19.6852   25.2137 N   0  0  0  0  0  0  0  0  0  0  0  0
    3.2697  -20.4092   24.0947 C   0  0  0  0  0  0  0  0  0  0  0  0
    4.3298  -20.5477   23.1489 N   0  0  0  0  0  0  0  0  0  0  0  0
    2.1159  -21.0273   23.8255 N   0  0  0  0  0  0  0  0  0  0  0  0
    1.0444  -20.9322   24.6807 C   0  0  0  0  0  0  0  0  0  0  0  0
    1.1883  -20.1999   25.8390 C   0  0  0  0  0  0  0  0  0  0  0  0
    2.4363  -19.5671   26.1069 C   0  0  0  0  0  0  0  0  0  0  0  0
    2.5919  -18.8287   27.2588 O   0  0  0  0  0  0  0  0  0  0  0  0
   -0.0628  -20.2860   26.5286 C   0  0  0  0  0  0  0  0  0  0  0  0
   -0.9040  -21.0730   25.7297 C   0  0  0  0  0  0  0  0  0  0  0  0
   -0.2313  -21.4483   24.6344 N   0  0  0  0  0  0  0  0  0  0  0  0
  1  2  1  0  0  0  0
  1  7  1  0  0  0  0
  2  3  1  0  0  0  0
  2  4  2  0  0  0  0
  4  5  1  0  0  0  0
  5  6  2  0  0  0  0
  5 11  1  0  0  0  0
  6  7  1  0  0  0  0
  6  9  1  0  0  0  0
  7  8  2  0  0  0  0
  9 10  2  0  0  0  0
 10 11  1  0  0  0  0
M  END
>  <CHROM.1>
1.80820078,-20.33889178,25.19030469,-0.24867821,0.32308209,1.04300358

>  <Name>
ligand

>  <RI>
0

>  <Rbt.Current_Directory>
/home/itssahil/PROJECTS/Mol_Feturizer/New_Systems/rnas/4LVW

>  <Rbt.Executable>
rbdock ($Id: //depot/dev/client3/rdock/2013.1/src/exe/rbdock.cxx#4 $)

>  <Rbt.Library>
libRbt.so (2013.1, Build901 2013/11/27)

>  <Rbt.Parameter_File>
/export/apps/rDock/src/rDock_2013.1_src/data/scripts/dock_solv.prm

>  <Rbt.Receptor>
prm/pocket_docking_6.prm

>  <SCORE>
-13.9454

>  <SCORE.INTER>
-13.9454

>  <SCORE.INTER.CONST>
1

>  <SCORE.INTER.POLAR>
0

>  <SCORE.INTER.ROT>
0

>  <SCORE.INTER.SOLV>
5.41344

>  <SCORE.INTER.VDW>
-14.7014

>  <SCORE.INTER.norm>
-1.26777

>  <SCORE.INTRA>
0

>  <SCORE.INTRA.DIHEDRAL>
0

>  <SCORE.INTRA.DIHEDRAL.0>
0

>  <SCORE.INTRA.POLAR>
0

>  <SCORE.INTRA.POLAR.0>
0

>  <SCORE.INTRA.REPUL>
0

>  <SCORE.INTRA.REPUL.0>
0

>  <SCORE.INTRA.SOLV>
0

>  <SCORE.INTRA.SOLV.lig_0>
-29.307

>  <SCORE.INTRA.VDW>
0

>  <SCORE.INTRA.VDW.0>
0

>  <SCORE.INTRA.norm>
0

>  <SCORE.RESTR>
0

>  <SCORE.RESTR.CAVITY>
0

>  <SCORE.RESTR.norm>
0

>  <SCORE.SYSTEM>
0

>  <SCORE.SYSTEM.CONST>
0

>  <SCORE.SYSTEM.DIHEDRAL>
0

>  <SCORE.SYSTEM.SOLV>
0

>  <SCORE.SYSTEM.norm>
0

>  <SCORE.heavy>
11

>  <SCORE.norm>
-1.26777

>  <RMSD>
3.444

$$$$
ligand
 OpenBabel11021811503D
libRbt.so/2013.1/901 2013/11/27
 11 12  0  0  0  0  0  0  0  0999 V2000
    3.4480  -19.6883   25.2259 N   0  0  0  0  0  0  0  0  0  0  0  0
    3.2709  -20.4069   24.1032 C   0  0  0  0  0  0  0  0  0  0  0  0
    4.3330  -20.5436   23.1594 N   0  0  0  0  0  0  0  0  0  0  0  0
    2.1163  -21.0212   23.8284 N   0  0  0  0  0  0  0  0  0  0  0  0
    1.0430  -20.9275   24.6813 C   0  0  0  0  0  0  0  0  0  0  0  0
    1.1855  -20.2006   25.8433 C   0  0  0  0  0  0  0  0  0  0  0  0
    2.4342  -19.5718   26.1171 C   0  0  0  0  0  0  0  0  0  0  0  0
    2.5886  -18.8388   27.2726 O   0  0  0  0  0  0  0  0  0  0  0  0
   -0.0675  -20.2870   26.5293 C   0  0  0  0  0  0  0  0  0  0  0  0
   -0.9083  -21.0687   25.7248 C   0  0  0  0  0  0  0  0  0  0  0  0
   -0.2338  -21.4406   24.6296 N   0  0  0  0  0  0  0  0  0  0  0  0
  1  2  1  0  0  0  0
  1  7  1  0  0  0  0
  2  3  1  0  0  0  0
  2  4  2  0  0  0  0
  4  5  1  0  0  0  0
  5  6  2  0  0  0  0
  5 11  1  0  0  0  0
  6  7  1  0  0  0  0
  6  9  1  0  0  0  0
  7  8  2  0  0  0  0
  9 10  2  0  0  0  0
 10 11  1  0  0  0  0
M  END
>  <CHROM.1>
1.80676991,-20.33817853,25.19547827,-0.24756144,0.31993112,1.04704290

>  <Name>
ligand

>  <RI>
0

>  <Rbt.Current_Directory>
/home/itssahil/PROJECTS/Mol_Feturizer/New_Systems/rnas/4LVW

>  <Rbt.Executable>
rbdock ($Id: //depot/dev/client3/rdock/2013.1/src/exe/rbdock.cxx#4 $)

>  <Rbt.Library>
libRbt.so (2013.1, Build901 2013/11/27)

>  <Rbt.Parameter_File>
/export/apps/rDock/src/rDock_2013.1_src/data/scripts/dock_solv.prm

>  <Rbt.Receptor>
prm/pocket_docking_6.prm

>  <SCORE>
-13.9605

>  <SCORE.INTER>
-13.9605

>  <SCORE.INTER.CONST>
1

>  <SCORE.INTER.POLAR>
0

>  <SCORE.INTER.ROT>
0

>  <SCORE.INTER.SOLV>
5.37605

>  <SCORE.INTER.VDW>
-14.699

>  <SCORE.INTER.norm>
-1.26914

>  <SCORE.INTRA>
0

>  <SCORE.INTRA.DIHEDRAL>
0

>  <SCORE.INTRA.DIHEDRAL.0>
0

>  <SCORE.INTRA.POLAR>
0

>  <SCORE.INTRA.POLAR.0>
0

>  <SCORE.INTRA.REPUL>
0

>  <SCORE.INTRA.REPUL.0>
0

>  <SCORE.INTRA.SOLV>
0

>  <SCORE.INTRA.SOLV.lig_0>
-29.307

>  <SCORE.INTRA.VDW>
0

>  <SCORE.INTRA.VDW.0>
0

>  <SCORE.INTRA.norm>
0

>  <SCORE.RESTR>
0

>  <SCORE.RESTR.CAVITY>
0

>  <SCORE.RESTR.norm>
0

>  <SCORE.SYSTEM>
0

>  <SCORE.SYSTEM.CONST>
0

>  <SCORE.SYSTEM.DIHEDRAL>
0

>  <SCORE.SYSTEM.SOLV>
0

>  <SCORE.SYSTEM.norm>
0

>  <SCORE.heavy>
11

>  <SCORE.norm>
-1.26914

>  <RMSD>
3.444

$$$$
ligand
 OpenBabel11021811503D
libRbt.so/2013.1/901 2013/11/27
 11 12  0  0  0  0  0  0  0  0999 V2000
    3.4512  -19.6930   25.1860 N   0  0  0  0  0  0  0  0  0  0  0  0
    3.2615  -20.4117   24.0655 C   0  0  0  0  0  0  0  0  0  0  0  0
    4.3143  -20.5521   23.1120 N   0  0  0  0  0  0  0  0  0  0  0  0
    2.1026  -21.0228   23.8018 N   0  0  0  0  0  0  0  0  0  0  0  0
    1.0375  -20.9255   24.6647 C   0  0  0  0  0  0  0  0  0  0  0  0
    1.1931  -20.1984   25.8248 C   0  0  0  0  0  0  0  0  0  0  0  0
    2.4461  -19.5730   26.0866 C   0  0  0  0  0  0  0  0  0  0  0  0
    2.6133  -18.8398   27.2402 O   0  0  0  0  0  0  0  0  0  0  0  0
   -0.0538  -20.2807   26.5225 C   0  0  0  0  0  0  0  0  0  0  0  0
   -0.9044  -21.0603   25.7264 C   0  0  0  0  0  0  0  0  0  0  0  0
   -0.2411  -21.4349   24.6252 N   0  0  0  0  0  0  0  0  0  0  0  0
  1  2  1  0  0  0  0
  1  7  1  0  0  0  0
  2  3  1  0  0  0  0
  2  4  2  0  0  0  0
  4  5  1  0  0  0  0
  5  6  2  0  0  0  0
  5 11  1  0  0  0  0
  6  7  1  0  0  0  0
  6  9  1  0  0  0  0
  7  8  2  0  0  0  0
  9 10  2  0  0  0  0
 10 11  1  0  0  0  0
M  END
>  <CHROM.1>
1.80781688,-20.33809894,25.17133198,-0.25761407,0.32204186,1.04963103

>  <Name>
ligand

>  <RI>
0

>  <Rbt.Current_Directory>
/home/itssahil/PROJECTS/Mol_Feturizer/New_Systems/rnas/4LVW

>  <Rbt.Executable>
rbdock ($Id: //depot/dev/client3/rdock/2013.1/src/exe/rbdock.cxx#4 $)

>  <Rbt.Library>
libRbt.so (2013.1, Build901 2013/11/27)

>  <Rbt.Parameter_File>
/export/apps/rDock/src/rDock_2013.1_src/data/scripts/dock_solv.prm

>  <Rbt.Receptor>
prm/pocket_docking_6.prm

>  <SCORE>
-13.9359

>  <SCORE.INTER>
-13.9359

>  <SCORE.INTER.CONST>
1

>  <SCORE.INTER.POLAR>
0

>  <SCORE.INTER.ROT>
0

>  <SCORE.INTER.SOLV>
5.53509

>  <SCORE.INTER.VDW>
-14.7356

>  <SCORE.INTER.norm>
-1.2669

>  <SCORE.INTRA>
0

>  <SCORE.INTRA.DIHEDRAL>
0

>  <SCORE.INTRA.DIHEDRAL.0>
0

>  <SCORE.INTRA.POLAR>
0

>  <SCORE.INTRA.POLAR.0>
0

>  <SCORE.INTRA.REPUL>
0

>  <SCORE.INTRA.REPUL.0>
0

>  <SCORE.INTRA.SOLV>
0

>  <SCORE.INTRA.SOLV.lig_0>
-29.307

>  <SCORE.INTRA.VDW>
0

>  <SCORE.INTRA.VDW.0>
0

>  <SCORE.INTRA.norm>
0

>  <SCORE.RESTR>
0

>  <SCORE.RESTR.CAVITY>
0

>  <SCORE.RESTR.norm>
0

>  <SCORE.SYSTEM>
0

>  <SCORE.SYSTEM.CONST>
0

>  <SCORE.SYSTEM.DIHEDRAL>
0

>  <SCORE.SYSTEM.SOLV>
0

>  <SCORE.SYSTEM.norm>
0

>  <SCORE.heavy>
11

>  <SCORE.norm>
-1.2669

>  <RMSD>
3.444

$$$$
ligand
 OpenBabel11021811503D
libRbt.so/2013.1/901 2013/11/27
 11 12  0  0  0  0  0  0  0  0999 V2000
    3.4473  -19.6905   25.2347 N   0  0  0  0  0  0  0  0  0  0  0  0
    3.2699  -20.4003   24.1064 C   0  0  0  0  0  0  0  0  0  0  0  0
    4.3330  -20.5326   23.1632 N   0  0  0  0  0  0  0  0  0  0  0  0
    2.1142  -21.0096   23.8254 N   0  0  0  0  0  0  0  0  0  0  0  0
    1.0399  -20.9196   24.6775 C   0  0  0  0  0  0  0  0  0  0  0  0
    1.1826  -20.2018   25.8450 C   0  0  0  0  0  0  0  0  0  0  0  0
    2.4325  -19.5781   26.1253 C   0  0  0  0  0  0  0  0  0  0  0  0
    2.5870  -18.8542   27.2865 O   0  0  0  0  0  0  0  0  0  0  0  0
   -0.0716  -20.2902   26.5286 C   0  0  0  0  0  0  0  0  0  0  0  0
   -0.9133  -21.0636   25.7171 C   0  0  0  0  0  0  0  0  0  0  0  0
   -0.2381  -21.4290   24.6201 N   0  0  0  0  0  0  0  0  0  0  0  0
  1  2  1  0  0  0  0
  1  7  1  0  0  0  0
  2  3  1  0  0  0  0
  2  4  2  0  0  0  0
  4  5  1  0  0  0  0
  5  6  2  0  0  0  0
  5 11  1  0  0  0  0
  6  7  1  0  0  0  0
  6  9  1  0  0  0  0
  7  8  2  0  0  0  0
  9 10  2  0  0  0  0
 10 11  1  0  0  0  0
M  END
>  <CHROM.1>
1.80442237,-20.33603265,25.19712034,-0.24757402,0.31703711,1.05453646

>  <Name>
ligand

>  <RI>
0

>  <Rbt.Current_Directory>
/home/itssahil/PROJECTS/Mol_Feturizer/New_Systems/rnas/4LVW

>  <Rbt.Executable>
rbdock ($Id: //depot/dev/client3/rdock/2013.1/src/exe/rbdock.cxx#4 $)

>  <Rbt.Library>
libRbt.so (2013.1, Build901 2013/11/27)

>  <Rbt.Parameter_File>
/export/apps/rDock/src/rDock_2013.1_src/data/scripts/dock_solv.prm

>  <Rbt.Receptor>
prm/pocket_docking_7.prm

>  <SCORE>
-13.9539

>  <SCORE.INTER>
-13.9539

>  <SCORE.INTER.CONST>
1

>  <SCORE.INTER.POLAR>
0

>  <SCORE.INTER.ROT>
0

>  <SCORE.INTER.SOLV>
5.35623

>  <SCORE.INTER.VDW>
-14.688

>  <SCORE.INTER.norm>
-1.26853

>  <SCORE.INTRA>
0

>  <SCORE.INTRA.DIHEDRAL>
0

>  <SCORE.INTRA.DIHEDRAL.0>
0

>  <SCORE.INTRA.POLAR>
0

>  <SCORE.INTRA.POLAR.0>
0

>  <SCORE.INTRA.REPUL>
0

>  <SCORE.INTRA.REPUL.0>
0

>  <SCORE.INTRA.SOLV>
0

>  <SCORE.INTRA.SOLV.lig_0>
-29.307

>  <SCORE.INTRA.VDW>
0

>  <SCORE.INTRA.VDW.0>
0

>  <SCORE.INTRA.norm>
0

>  <SCORE.RESTR>
0

>  <SCORE.RESTR.CAVITY>
0

>  <SCORE.RESTR.norm>
0

>  <SCORE.SYSTEM>
0

>  <SCORE.SYSTEM.CONST>
0

>  <SCORE.SYSTEM.DIHEDRAL>
0

>  <SCORE.SYSTEM.SOLV>
0

>  <SCORE.SYSTEM.norm>
0

>  <SCORE.heavy>
11

>  <SCORE.norm>
-1.26853

>  <RMSD>
3.444

$$$$
ligand
 OpenBabel11021811503D
libRbt.so/2013.1/901 2013/11/27
 11 12  0  0  0  0  0  0  0  0999 V2000
    3.4555  -19.7129   25.2228 N   0  0  0  0  0  0  0  0  0  0  0  0
    3.2777  -20.4442   24.1084 C   0  0  0  0  0  0  0  0  0  0  0  0
    4.3429  -20.6009   23.1712 N   0  0  0  0  0  0  0  0  0  0  0  0
    2.1197  -21.0529   23.8361 N   0  0  0  0  0  0  0  0  0  0  0  0
    1.0433  -20.9403   24.6830 C   0  0  0  0  0  0  0  0  0  0  0  0
    1.1864  -20.2000   25.8364 C   0  0  0  0  0  0  0  0  0  0  0  0
    2.4387  -19.5774   26.1079 C   0  0  0  0  0  0  0  0  0  0  0  0
    2.5937  -18.8312   27.2548 O   0  0  0  0  0  0  0  0  0  0  0  0
   -0.0703  -20.2681   26.5178 C   0  0  0  0  0  0  0  0  0  0  0  0
   -0.9136  -21.0533   25.7194 C   0  0  0  0  0  0  0  0  0  0  0  0
   -0.2371  -21.4441   24.6319 N   0  0  0  0  0  0  0  0  0  0  0  0
  1  2  1  0  0  0  0
  1  7  1  0  0  0  0
  2  3  1  0  0  0  0
  2  4  2  0  0  0  0
  4  5  1  0  0  0  0
  5  6  2  0  0  0  0
  5 11  1  0  0  0  0
  6  7  1  0  0  0  0
  6  9  1  0  0  0  0
  7  8  2  0  0  0  0
  9 10  2  0  0  0  0
 10 11  1  0  0  0  0
M  END
>  <CHROM.1>
1.80939564,-20.35044359,25.19314105,-0.24763391,0.31099552,1.03454634

>  <Name>
ligand

>  <RI>
0

>  <Rbt.Current_Directory>
/home/itssahil/PROJECTS/Mol_Feturizer/New_Systems/rnas/4LVW

>  <Rbt.Executable>
rbdock ($Id: //depot/dev/client3/rdock/2013.1/src/exe/rbdock.cxx#4 $)

>  <Rbt.Library>
libRbt.so (2013.1, Build901 2013/11/27)

>  <Rbt.Parameter_File>
/export/apps/rDock/src/rDock_2013.1_src/data/scripts/dock_solv.prm

>  <Rbt.Receptor>
prm/pocket_docking_7.prm

>  <SCORE>
-13.9456

>  <SCORE.INTER>
-13.9456

>  <SCORE.INTER.CONST>
1

>  <SCORE.INTER.POLAR>
0

>  <SCORE.INTER.ROT>
0

>  <SCORE.INTER.SOLV>
5.39238

>  <SCORE.INTER.VDW>
-14.6945

>  <SCORE.INTER.norm>
-1.26778

>  <SCORE.INTRA>
0

>  <SCORE.INTRA.DIHEDRAL>
0

>  <SCORE.INTRA.DIHEDRAL.0>
0

>  <SCORE.INTRA.POLAR>
0

>  <SCORE.INTRA.POLAR.0>
0

>  <SCORE.INTRA.REPUL>
0

>  <SCORE.INTRA.REPUL.0>
0

>  <SCORE.INTRA.SOLV>
0

>  <SCORE.INTRA.SOLV.lig_0>
-29.307

>  <SCORE.INTRA.VDW>
0

>  <SCORE.INTRA.VDW.0>
0

>  <SCORE.INTRA.norm>
0

>  <SCORE.RESTR>
0

>  <SCORE.RESTR.CAVITY>
0

>  <SCORE.RESTR.norm>
0

>  <SCORE.SYSTEM>
0

>  <SCORE.SYSTEM.CONST>
0

>  <SCORE.SYSTEM.DIHEDRAL>
0

>  <SCORE.SYSTEM.SOLV>
0

>  <SCORE.SYSTEM.norm>
0

>  <SCORE.heavy>
11

>  <SCORE.norm>
-1.26778

>  <RMSD>
3.444

$$$$
ligand
 OpenBabel11021811503D
libRbt.so/2013.1/901 2013/11/27
 11 12  0  0  0  0  0  0  0  0999 V2000
    3.4502  -19.6893   25.2301 N   0  0  0  0  0  0  0  0  0  0  0  0
    3.2737  -20.4075   24.1070 C   0  0  0  0  0  0  0  0  0  0  0  0
    4.3366  -20.5444   23.1642 N   0  0  0  0  0  0  0  0  0  0  0  0
    2.1191  -21.0211   23.8310 N   0  0  0  0  0  0  0  0  0  0  0  0
    1.0450  -20.9271   24.6830 C   0  0  0  0  0  0  0  0  0  0  0  0
    1.1869  -20.2007   25.8453 C   0  0  0  0  0  0  0  0  0  0  0  0
    2.4357  -19.5725   26.1204 C   0  0  0  0  0  0  0  0  0  0  0  0
    2.5893  -18.8400   27.2763 O   0  0  0  0  0  0  0  0  0  0  0  0
   -0.0668  -20.2866   26.5302 C   0  0  0  0  0  0  0  0  0  0  0  0
   -0.9073  -21.0676   25.7247 C   0  0  0  0  0  0  0  0  0  0  0  0
   -0.2320  -21.4395   24.6300 N   0  0  0  0  0  0  0  0  0  0  0  0
  1  2  1  0  0  0  0
  1  7  1  0  0  0  0
  2  3  1  0  0  0  0
  2  4  2  0  0  0  0
  4  5  1  0  0  0  0
  5  6  2  0  0  0  0
  5 11  1  0  0  0  0
  6  7  1  0  0  0  0
  6  9  1  0  0  0  0
  7  8  2  0  0  0  0
  9 10  2  0  0  0  0
 10 11  1  0  0  0  0
M  END
>  <CHROM.1>
1.80863824,-20.33832065,25.19801449,-0.24701178,0.31902573,1.04719019

>  <Name>
ligand

>  <RI>
0

>  <Rbt.Current_Directory>
/home/itssahil/PROJECTS/Mol_Feturizer/New_Systems/rnas/4LVW

>  <Rbt.Executable>
rbdock ($Id: //depot/dev/client3/rdock/2013.1/src/exe/rbdock.cxx#4 $)

>  <Rbt.Library>
libRbt.so (2013.1, Build901 2013/11/27)

>  <Rbt.Parameter_File>
/export/apps/rDock/src/rDock_2013.1_src/data/scripts/dock_solv.prm

>  <Rbt.Receptor>
prm/pocket_docking_7.prm

>  <SCORE>
-13.9628

>  <SCORE.INTER>
-13.9628

>  <SCORE.INTER.CONST>
1

>  <SCORE.INTER.POLAR>
0

>  <SCORE.INTER.ROT>
0

>  <SCORE.INTER.SOLV>
5.35758

>  <SCORE.INTER.VDW>
-14.6944

>  <SCORE.INTER.norm>
-1.26934

>  <SCORE.INTRA>
0

>  <SCORE.INTRA.DIHEDRAL>
0

>  <SCORE.INTRA.DIHEDRAL.0>
0

>  <SCORE.INTRA.POLAR>
0

>  <SCORE.INTRA.POLAR.0>
0

>  <SCORE.INTRA.REPUL>
0

>  <SCORE.INTRA.REPUL.0>
0

>  <SCORE.INTRA.SOLV>
0

>  <SCORE.INTRA.SOLV.lig_0>
-29.307

>  <SCORE.INTRA.VDW>
0

>  <SCORE.INTRA.VDW.0>
0

>  <SCORE.INTRA.norm>
0

>  <SCORE.RESTR>
0

>  <SCORE.RESTR.CAVITY>
0

>  <SCORE.RESTR.norm>
0

>  <SCORE.SYSTEM>
0

>  <SCORE.SYSTEM.CONST>
0

>  <SCORE.SYSTEM.DIHEDRAL>
0

>  <SCORE.SYSTEM.SOLV>
0

>  <SCORE.SYSTEM.norm>
0

>  <SCORE.heavy>
11

>  <SCORE.norm>
-1.26934

>  <RMSD>
3.444

$$$$
ligand
 OpenBabel11021811503D
libRbt.so/2013.1/901 2013/11/27
 11 12  0  0  0  0  0  0  0  0999 V2000
    3.4495  -19.6882   25.2319 N   0  0  0  0  0  0  0  0  0  0  0  0
    3.2725  -20.4017   24.1058 C   0  0  0  0  0  0  0  0  0  0  0  0
    4.3351  -20.5346   23.1620 N   0  0  0  0  0  0  0  0  0  0  0  0
    2.1179  -21.0142   23.8276 N   0  0  0  0  0  0  0  0  0  0  0  0
    1.0441  -20.9239   24.6804 C   0  0  0  0  0  0  0  0  0  0  0  0
    1.1864  -20.2024   25.8457 C   0  0  0  0  0  0  0  0  0  0  0  0
    2.4353  -19.5753   26.1230 C   0  0  0  0  0  0  0  0  0  0  0  0
    2.5893  -18.8477   27.2820 O   0  0  0  0  0  0  0  0  0  0  0  0
   -0.0670  -20.2913   26.5307 C   0  0  0  0  0  0  0  0  0  0  0  0
   -0.9078  -21.0689   25.7223 C   0  0  0  0  0  0  0  0  0  0  0  0
   -0.2328  -21.4362   24.6257 N   0  0  0  0  0  0  0  0  0  0  0  0
  1  2  1  0  0  0  0
  1  7  1  0  0  0  0
  2  3  1  0  0  0  0
  2  4  2  0  0  0  0
  4  5  1  0  0  0  0
  5  6  2  0  0  0  0
  5 11  1  0  0  0  0
  6  7  1  0  0  0  0
  6  9  1  0  0  0  0
  7  8  2  0  0  0  0
  9 10  2  0  0  0  0
 10 11  1  0  0  0  0
M  END
>  <CHROM.1>
1.80791073,-20.33725972,25.19764926,-0.24732119,0.31927345,1.05151662

>  <Name>
ligand

>  <RI>
0

>  <Rbt.Current_Directory>
/home/itssahil/PROJECTS/Mol_Feturizer/New_Systems/rnas/4LVW

>  <Rbt.Executable>
rbdock ($Id: //depot/dev/client3/rdock/2013.1/src/exe/rbdock.cxx#4 $)

>  <Rbt.Library>
libRbt.so (2013.1, Build901 2013/11/27)

>  <Rbt.Parameter_File>
/export/apps/rDock/src/rDock_2013.1_src/data/scripts/dock_solv.prm

>  <Rbt.Receptor>
prm/pocket_docking_7.prm

>  <SCORE>
-13.9627

>  <SCORE.INTER>
-13.9627

>  <SCORE.INTER.CONST>
1

>  <SCORE.INTER.POLAR>
0

>  <SCORE.INTER.ROT>
0

>  <SCORE.INTER.SOLV>
5.35057

>  <SCORE.INTER.VDW>
-14.692

>  <SCORE.INTER.norm>
-1.26934

>  <SCORE.INTRA>
0

>  <SCORE.INTRA.DIHEDRAL>
0

>  <SCORE.INTRA.DIHEDRAL.0>
0

>  <SCORE.INTRA.POLAR>
0

>  <SCORE.INTRA.POLAR.0>
0

>  <SCORE.INTRA.REPUL>
0

>  <SCORE.INTRA.REPUL.0>
0

>  <SCORE.INTRA.SOLV>
0

>  <SCORE.INTRA.SOLV.lig_0>
-29.307

>  <SCORE.INTRA.VDW>
0

>  <SCORE.INTRA.VDW.0>
0

>  <SCORE.INTRA.norm>
0

>  <SCORE.RESTR>
0

>  <SCORE.RESTR.CAVITY>
0

>  <SCORE.RESTR.norm>
0

>  <SCORE.SYSTEM>
0

>  <SCORE.SYSTEM.CONST>
0

>  <SCORE.SYSTEM.DIHEDRAL>
0

>  <SCORE.SYSTEM.SOLV>
0

>  <SCORE.SYSTEM.norm>
0

>  <SCORE.heavy>
11

>  <SCORE.norm>
-1.26934

>  <RMSD>
3.444

$$$$
ligand
 OpenBabel11021811503D
libRbt.so/2013.1/901 2013/11/27
 11 12  0  0  0  0  0  0  0  0999 V2000
    3.4488  -19.6858   25.2077 N   0  0  0  0  0  0  0  0  0  0  0  0
    3.2699  -20.4112   24.0896 C   0  0  0  0  0  0  0  0  0  0  0  0
    4.3295  -20.5509   23.1435 N   0  0  0  0  0  0  0  0  0  0  0  0
    2.1159  -21.0296   23.8218 N   0  0  0  0  0  0  0  0  0  0  0  0
    1.0449  -20.9335   24.6774 C   0  0  0  0  0  0  0  0  0  0  0  0
    1.1893  -20.1998   25.8348 C   0  0  0  0  0  0  0  0  0  0  0  0
    2.4374  -19.5666   26.1013 C   0  0  0  0  0  0  0  0  0  0  0  0
    2.5935  -18.8267   27.2522 O   0  0  0  0  0  0  0  0  0  0  0  0
   -0.0615  -20.2851   26.5250 C   0  0  0  0  0  0  0  0  0  0  0  0
   -0.9030  -21.0731   25.7275 C   0  0  0  0  0  0  0  0  0  0  0  0
   -0.2308  -21.4497   24.6324 N   0  0  0  0  0  0  0  0  0  0  0  0
  1  2  1  0  0  0  0
  1  7  1  0  0  0  0
  2  3  1  0  0  0  0
  2  4  2  0  0  0  0
  4  5  1  0  0  0  0
  5  6  2  0  0  0  0
  5 11  1  0  0  0  0
  6  7  1  0  0  0  0
  6  9  1  0  0  0  0
  7  8  2  0  0  0  0
  9 10  2  0  0  0  0
 10 11  1  0  0  0  0
M  END
>  <CHROM.1>
1.80889865,-20.33956938,25.18590763,-0.24910951,0.32335905,1.04188770

>  <Name>
ligand

>  <RI>
0

>  <Rbt.Current_Directory>
/home/itssahil/PROJECTS/Mol_Feturizer/New_Systems/rnas/4LVW

>  <Rbt.Executable>
rbdock ($Id: //depot/dev/client3/rdock/2013.1/src/exe/rbdock.cxx#4 $)

>  <Rbt.Library>
libRbt.so (2013.1, Build901 2013/11/27)

>  <Rbt.Parameter_File>
/export/apps/rDock/src/rDock_2013.1_src/data/scripts/dock_solv.prm

>  <Rbt.Receptor>
prm/pocket_docking_7.prm

>  <SCORE>
-13.9448

>  <SCORE.INTER>
-13.9448

>  <SCORE.INTER.CONST>
1

>  <SCORE.INTER.POLAR>
0

>  <SCORE.INTER.ROT>
0

>  <SCORE.INTER.SOLV>
5.4269

>  <SCORE.INTER.VDW>
-14.7055

>  <SCORE.INTER.norm>
-1.26771

>  <SCORE.INTRA>
0

>  <SCORE.INTRA.DIHEDRAL>
0

>  <SCORE.INTRA.DIHEDRAL.0>
0

>  <SCORE.INTRA.POLAR>
0

>  <SCORE.INTRA.POLAR.0>
0

>  <SCORE.INTRA.REPUL>
0

>  <SCORE.INTRA.REPUL.0>
0

>  <SCORE.INTRA.SOLV>
0

>  <SCORE.INTRA.SOLV.lig_0>
-29.307

>  <SCORE.INTRA.VDW>
0

>  <SCORE.INTRA.VDW.0>
0

>  <SCORE.INTRA.norm>
0

>  <SCORE.RESTR>
0

>  <SCORE.RESTR.CAVITY>
0

>  <SCORE.RESTR.norm>
0

>  <SCORE.SYSTEM>
0

>  <SCORE.SYSTEM.CONST>
0

>  <SCORE.SYSTEM.DIHEDRAL>
0

>  <SCORE.SYSTEM.SOLV>
0

>  <SCORE.SYSTEM.norm>
0

>  <SCORE.heavy>
11

>  <SCORE.norm>
-1.26771

>  <RMSD>
3.444

$$$$
ligand
 OpenBabel11021811503D
libRbt.so/2013.1/901 2013/11/27
 11 12  0  0  0  0  0  0  0  0999 V2000
    3.4499  -19.6878   25.2306 N   0  0  0  0  0  0  0  0  0  0  0  0
    3.2732  -20.4031   24.1058 C   0  0  0  0  0  0  0  0  0  0  0  0
    4.3358  -20.5374   23.1623 N   0  0  0  0  0  0  0  0  0  0  0  0
    2.1187  -21.0164   23.8285 N   0  0  0  0  0  0  0  0  0  0  0  0
    1.0448  -20.9249   24.6811 C   0  0  0  0  0  0  0  0  0  0  0  0
    1.1869  -20.2014   25.8452 C   0  0  0  0  0  0  0  0  0  0  0  0
    2.4356  -19.5736   26.1215 C   0  0  0  0  0  0  0  0  0  0  0  0
    2.5894  -18.8440   27.2792 O   0  0  0  0  0  0  0  0  0  0  0  0
   -0.0666  -20.2894   26.5302 C   0  0  0  0  0  0  0  0  0  0  0  0
   -0.9072  -21.0685   25.7230 C   0  0  0  0  0  0  0  0  0  0  0  0
   -0.2320  -21.4375   24.6271 N   0  0  0  0  0  0  0  0  0  0  0  0
  1  2  1  0  0  0  0
  1  7  1  0  0  0  0
  2  3  1  0  0  0  0
  2  4  2  0  0  0  0
  4  5  1  0  0  0  0
  5  6  2  0  0  0  0
  5 11  1  0  0  0  0
  6  7  1  0  0  0  0
  6  9  1  0  0  0  0
  7  8  2  0  0  0  0
  9 10  2  0  0  0  0
 10 11  1  0  0  0  0
M  END
>  <CHROM.1>
1.80845656,-20.33718971,25.19735065,-0.24714747,0.31940841,1.04979927

>  <Name>
ligand

>  <RI>
0

>  <Rbt.Current_Directory>
/home/itssahil/PROJECTS/Mol_Feturizer/New_Systems/rnas/4LVW

>  <Rbt.Executable>
rbdock ($Id: //depot/dev/client3/rdock/2013.1/src/exe/rbdock.cxx#4 $)

>  <Rbt.Library>
libRbt.so (2013.1, Build901 2013/11/27)

>  <Rbt.Parameter_File>
/export/apps/rDock/src/rDock_2013.1_src/data/scripts/dock_solv.prm

>  <Rbt.Receptor>
prm/pocket_docking_7.prm

>  <SCORE>
-13.9633

>  <SCORE.INTER>
-13.9633

>  <SCORE.INTER.CONST>
1

>  <SCORE.INTER.POLAR>
0

>  <SCORE.INTER.ROT>
0

>  <SCORE.INTER.SOLV>
5.35273

>  <SCORE.INTER.VDW>
-14.6931

>  <SCORE.INTER.norm>
-1.2694

>  <SCORE.INTRA>
0

>  <SCORE.INTRA.DIHEDRAL>
0

>  <SCORE.INTRA.DIHEDRAL.0>
0

>  <SCORE.INTRA.POLAR>
0

>  <SCORE.INTRA.POLAR.0>
0

>  <SCORE.INTRA.REPUL>
0

>  <SCORE.INTRA.REPUL.0>
0

>  <SCORE.INTRA.SOLV>
0

>  <SCORE.INTRA.SOLV.lig_0>
-29.307

>  <SCORE.INTRA.VDW>
0

>  <SCORE.INTRA.VDW.0>
0

>  <SCORE.INTRA.norm>
0

>  <SCORE.RESTR>
0

>  <SCORE.RESTR.CAVITY>
0

>  <SCORE.RESTR.norm>
0

>  <SCORE.SYSTEM>
0

>  <SCORE.SYSTEM.CONST>
0

>  <SCORE.SYSTEM.DIHEDRAL>
0

>  <SCORE.SYSTEM.SOLV>
0

>  <SCORE.SYSTEM.norm>
0

>  <SCORE.heavy>
11

>  <SCORE.norm>
-1.2694

>  <RMSD>
3.444

$$$$
ligand
 OpenBabel11021811503D
libRbt.so/2013.1/901 2013/11/27
 11 12  0  0  0  0  0  0  0  0999 V2000
    3.4489  -19.6873   25.2210 N   0  0  0  0  0  0  0  0  0  0  0  0
    3.2685  -20.4008   24.0955 C   0  0  0  0  0  0  0  0  0  0  0  0
    4.3281  -20.5337   23.1484 N   0  0  0  0  0  0  0  0  0  0  0  0
    2.1130  -21.0134   23.8210 N   0  0  0  0  0  0  0  0  0  0  0  0
    1.0419  -20.9231   24.6771 C   0  0  0  0  0  0  0  0  0  0  0  0
    1.1879  -20.2015   25.8420 C   0  0  0  0  0  0  0  0  0  0  0  0
    2.4376  -19.5745   26.1154 C   0  0  0  0  0  0  0  0  0  0  0  0
    2.5953  -18.8468   27.2738 O   0  0  0  0  0  0  0  0  0  0  0  0
   -0.0634  -20.2905   26.5309 C   0  0  0  0  0  0  0  0  0  0  0  0
   -0.9067  -21.0681   25.7251 C   0  0  0  0  0  0  0  0  0  0  0  0
   -0.2352  -21.4354   24.6265 N   0  0  0  0  0  0  0  0  0  0  0  0
  1  2  1  0  0  0  0
  1  7  1  0  0  0  0
  2  3  1  0  0  0  0
  2  4  2  0  0  0  0
  4  5  1  0  0  0  0
  5  6  2  0  0  0  0
  5 11  1  0  0  0  0
  6  7  1  0  0  0  0
  6  9  1  0  0  0  0
  7  8  2  0  0  0  0
  9 10  2  0  0  0  0
 10 11  1  0  0  0  0
M  END
>  <CHROM.1>
1.80732219,-20.33640319,25.19194799,-0.25020011,0.32086135,1.05242547

>  <Name>
ligand

>  <RI>
0

>  <Rbt.Current_Directory>
/home/itssahil/PROJECTS/Mol_Feturizer/New_Systems/rnas/4LVW

>  <Rbt.Executable>
rbdock ($Id: //depot/dev/client3/rdock/2013.1/src/exe/rbdock.cxx#4 $)

>  <Rbt.Library>
libRbt.so (2013.1, Build901 2013/11/27)

>  <Rbt.Parameter_File>
/export/apps/rDock/src/rDock_2013.1_src/data/scripts/dock_solv.prm

>  <Rbt.Receptor>
prm/pocket_docking_7.prm

>  <SCORE>
-13.9593

>  <SCORE.INTER>
-13.9593

>  <SCORE.INTER.CONST>
1

>  <SCORE.INTER.POLAR>
0

>  <SCORE.INTER.ROT>
0

>  <SCORE.INTER.SOLV>
5.4024

>  <SCORE.INTER.VDW>
-14.707

>  <SCORE.INTER.norm>
-1.26903

>  <SCORE.INTRA>
0

>  <SCORE.INTRA.DIHEDRAL>
0

>  <SCORE.INTRA.DIHEDRAL.0>
0

>  <SCORE.INTRA.POLAR>
0

>  <SCORE.INTRA.POLAR.0>
0

>  <SCORE.INTRA.REPUL>
0

>  <SCORE.INTRA.REPUL.0>
0

>  <SCORE.INTRA.SOLV>
0

>  <SCORE.INTRA.SOLV.lig_0>
-29.307

>  <SCORE.INTRA.VDW>
0

>  <SCORE.INTRA.VDW.0>
0

>  <SCORE.INTRA.norm>
0

>  <SCORE.RESTR>
0

>  <SCORE.RESTR.CAVITY>
0

>  <SCORE.RESTR.norm>
0

>  <SCORE.SYSTEM>
0

>  <SCORE.SYSTEM.CONST>
0

>  <SCORE.SYSTEM.DIHEDRAL>
0

>  <SCORE.SYSTEM.SOLV>
0

>  <SCORE.SYSTEM.norm>
0

>  <SCORE.heavy>
11

>  <SCORE.norm>
-1.26903

>  <RMSD>
3.444

$$$$
ligand
 OpenBabel11021811503D
libRbt.so/2013.1/901 2013/11/27
 11 12  0  0  0  0  0  0  0  0999 V2000
    3.4610  -19.6814   25.2109 N   0  0  0  0  0  0  0  0  0  0  0  0
    3.2837  -20.3997   24.0880 C   0  0  0  0  0  0  0  0  0  0  0  0
    4.3469  -20.5393   23.1459 N   0  0  0  0  0  0  0  0  0  0  0  0
    2.1280  -21.0109   23.8115 N   0  0  0  0  0  0  0  0  0  0  0  0
    1.0535  -20.9143   24.6628 C   0  0  0  0  0  0  0  0  0  0  0  0
    1.1962  -20.1877   25.8249 C   0  0  0  0  0  0  0  0  0  0  0  0
    2.4462  -19.5622   26.1005 C   0  0  0  0  0  0  0  0  0  0  0  0
    2.6007  -18.8295   27.2562 O   0  0  0  0  0  0  0  0  0  0  0  0
   -0.0581  -20.2707   26.5089 C   0  0  0  0  0  0  0  0  0  0  0  0
   -0.8997  -21.0502   25.7032 C   0  0  0  0  0  0  0  0  0  0  0  0
   -0.2244  -21.4240   24.6091 N   0  0  0  0  0  0  0  0  0  0  0  0
  1  2  1  0  0  0  0
  1  7  1  0  0  0  0
  2  3  1  0  0  0  0
  2  4  2  0  0  0  0
  4  5  1  0  0  0  0
  5  6  2  0  0  0  0
  5 11  1  0  0  0  0
  6  7  1  0  0  0  0
  6  9  1  0  0  0  0
  7  8  2  0  0  0  0
  9 10  2  0  0  0  0
 10 11  1  0  0  0  0
M  END
>  <CHROM.1>
1.81811568,-20.32696340,25.17803433,-0.24754618,0.31685993,1.04696049

>  <Name>
ligand

>  <RI>
0

>  <Rbt.Current_Directory>
/home/itssahil/PROJECTS/Mol_Feturizer/New_Systems/rnas/4LVW

>  <Rbt.Executable>
rbdock ($Id: //depot/dev/client3/rdock/2013.1/src/exe/rbdock.cxx#4 $)

>  <Rbt.Library>
libRbt.so (2013.1, Build901 2013/11/27)

>  <Rbt.Parameter_File>
/export/apps/rDock/src/rDock_2013.1_src/data/scripts/dock_solv.prm

>  <Rbt.Receptor>
prm/pocket_docking_7.prm

>  <SCORE>
-13.9496

>  <SCORE.INTER>
-13.9496

>  <SCORE.INTER.CONST>
1

>  <SCORE.INTER.POLAR>
0

>  <SCORE.INTER.ROT>
0

>  <SCORE.INTER.SOLV>
5.34765

>  <SCORE.INTER.VDW>
-14.6823

>  <SCORE.INTER.norm>
-1.26814

>  <SCORE.INTRA>
0

>  <SCORE.INTRA.DIHEDRAL>
0

>  <SCORE.INTRA.DIHEDRAL.0>
0

>  <SCORE.INTRA.POLAR>
0

>  <SCORE.INTRA.POLAR.0>
0

>  <SCORE.INTRA.REPUL>
0

>  <SCORE.INTRA.REPUL.0>
0

>  <SCORE.INTRA.SOLV>
0

>  <SCORE.INTRA.SOLV.lig_0>
-29.307

>  <SCORE.INTRA.VDW>
0

>  <SCORE.INTRA.VDW.0>
0

>  <SCORE.INTRA.norm>
0

>  <SCORE.RESTR>
0

>  <SCORE.RESTR.CAVITY>
0

>  <SCORE.RESTR.norm>
0

>  <SCORE.SYSTEM>
0

>  <SCORE.SYSTEM.CONST>
0

>  <SCORE.SYSTEM.DIHEDRAL>
0

>  <SCORE.SYSTEM.SOLV>
0

>  <SCORE.SYSTEM.norm>
0

>  <SCORE.heavy>
11

>  <SCORE.norm>
-1.26814

>  <RMSD>
3.444

$$$$
ligand
 OpenBabel11021811503D
libRbt.so/2013.1/901 2013/11/27
 11 12  0  0  0  0  0  0  0  0999 V2000
    3.4500  -19.6898   25.2333 N   0  0  0  0  0  0  0  0  0  0  0  0
    3.2734  -20.4057   24.1087 C   0  0  0  0  0  0  0  0  0  0  0  0
    4.3364  -20.5413   23.1659 N   0  0  0  0  0  0  0  0  0  0  0  0
    2.1185  -21.0181   23.8311 N   0  0  0  0  0  0  0  0  0  0  0  0
    1.0442  -20.9253   24.6830 C   0  0  0  0  0  0  0  0  0  0  0  0
    1.1862  -20.2013   25.8468 C   0  0  0  0  0  0  0  0  0  0  0  0
    2.4353  -19.5744   26.1236 C   0  0  0  0  0  0  0  0  0  0  0  0
    2.5890  -18.8443   27.2810 O   0  0  0  0  0  0  0  0  0  0  0  0
   -0.0677  -20.2880   26.5312 C   0  0  0  0  0  0  0  0  0  0  0  0
   -0.9084  -21.0668   25.7239 C   0  0  0  0  0  0  0  0  0  0  0  0
   -0.2330  -21.4369   24.6286 N   0  0  0  0  0  0  0  0  0  0  0  0
  1  2  1  0  0  0  0
  1  7  1  0  0  0  0
  2  3  1  0  0  0  0
  2  4  2  0  0  0  0
  4  5  1  0  0  0  0
  5  6  2  0  0  0  0
  5 11  1  0  0  0  0
  6  7  1  0  0  0  0
  6  9  1  0  0  0  0
  7  8  2  0  0  0  0
  9 10  2  0  0  0  0
 10 11  1  0  0  0  0
M  END
>  <CHROM.1>
1.80806479,-20.33796044,25.19944959,-0.24704650,0.31842950,1.04922021

>  <Name>
ligand

>  <RI>
0

>  <Rbt.Current_Directory>
/home/itssahil/PROJECTS/Mol_Feturizer/New_Systems/rnas/4LVW

>  <Rbt.Executable>
rbdock ($Id: //depot/dev/client3/rdock/2013.1/src/exe/rbdock.cxx#4 $)

>  <Rbt.Library>
libRbt.so (2013.1, Build901 2013/11/27)

>  <Rbt.Parameter_File>
/export/apps/rDock/src/rDock_2013.1_src/data/scripts/dock_solv.prm

>  <Rbt.Receptor>
prm/pocket_docking_8.prm

>  <SCORE>
-13.9616

>  <SCORE.INTER>
-13.9616

>  <SCORE.INTER.CONST>
1

>  <SCORE.INTER.POLAR>
0

>  <SCORE.INTER.ROT>
0

>  <SCORE.INTER.SOLV>
5.35113

>  <SCORE.INTER.VDW>
-14.6914

>  <SCORE.INTER.norm>
-1.26923

>  <SCORE.INTRA>
0

>  <SCORE.INTRA.DIHEDRAL>
0

>  <SCORE.INTRA.DIHEDRAL.0>
0

>  <SCORE.INTRA.POLAR>
0

>  <SCORE.INTRA.POLAR.0>
0

>  <SCORE.INTRA.REPUL>
0

>  <SCORE.INTRA.REPUL.0>
0

>  <SCORE.INTRA.SOLV>
0

>  <SCORE.INTRA.SOLV.lig_0>
-29.307

>  <SCORE.INTRA.VDW>
0

>  <SCORE.INTRA.VDW.0>
0

>  <SCORE.INTRA.norm>
0

>  <SCORE.RESTR>
0

>  <SCORE.RESTR.CAVITY>
0

>  <SCORE.RESTR.norm>
0

>  <SCORE.SYSTEM>
0

>  <SCORE.SYSTEM.CONST>
0

>  <SCORE.SYSTEM.DIHEDRAL>
0

>  <SCORE.SYSTEM.SOLV>
0

>  <SCORE.SYSTEM.norm>
0

>  <SCORE.heavy>
11

>  <SCORE.norm>
-1.26923

>  <RMSD>
3.444

$$$$
ligand
 OpenBabel11021811503D
libRbt.so/2013.1/901 2013/11/27
 11 12  0  0  0  0  0  0  0  0999 V2000
    3.4495  -19.6868   25.2172 N   0  0  0  0  0  0  0  0  0  0  0  0
    3.2718  -20.4107   24.0979 C   0  0  0  0  0  0  0  0  0  0  0  0
    4.3338  -20.5527   23.1549 N   0  0  0  0  0  0  0  0  0  0  0  0
    2.1169  -21.0256   23.8261 N   0  0  0  0  0  0  0  0  0  0  0  0
    1.0435  -20.9271   24.6786 C   0  0  0  0  0  0  0  0  0  0  0  0
    1.1866  -20.1947   25.8370 C   0  0  0  0  0  0  0  0  0  0  0  0
    2.4358  -19.5654   26.1078 C   0  0  0  0  0  0  0  0  0  0  0  0
    2.5906  -18.8269   27.2597 O   0  0  0  0  0  0  0  0  0  0  0  0
   -0.0665  -20.2769   26.5234 C   0  0  0  0  0  0  0  0  0  0  0  0
   -0.9079  -21.0618   25.7227 C   0  0  0  0  0  0  0  0  0  0  0  0
   -0.2335  -21.4395   24.6293 N   0  0  0  0  0  0  0  0  0  0  0  0
  1  2  1  0  0  0  0
  1  7  1  0  0  0  0
  2  3  1  0  0  0  0
  2  4  2  0  0  0  0
  4  5  1  0  0  0  0
  5  6  2  0  0  0  0
  5 11  1  0  0  0  0
  6  7  1  0  0  0  0
  6  9  1  0  0  0  0
  7  8  2  0  0  0  0
  9 10  2  0  0  0  0
 10 11  1  0  0  0  0
M  END
>  <CHROM.1>
1.80775983,-20.33574644,25.18987176,-0.24792151,0.31933482,1.04235341

>  <Name>
ligand

>  <RI>
0

>  <Rbt.Current_Directory>
/home/itssahil/PROJECTS/Mol_Feturizer/New_Systems/rnas/4LVW

>  <Rbt.Executable>
rbdock ($Id: //depot/dev/client3/rdock/2013.1/src/exe/rbdock.cxx#4 $)

>  <Rbt.Library>
libRbt.so (2013.1, Build901 2013/11/27)

>  <Rbt.Parameter_File>
/export/apps/rDock/src/rDock_2013.1_src/data/scripts/dock_solv.prm

>  <Rbt.Receptor>
prm/pocket_docking_8.prm

>  <SCORE>
-13.9772

>  <SCORE.INTER>
-13.9772

>  <SCORE.INTER.CONST>
1

>  <SCORE.INTER.POLAR>
0

>  <SCORE.INTER.ROT>
0

>  <SCORE.INTER.SOLV>
5.39617

>  <SCORE.INTER.VDW>
-14.7169

>  <SCORE.INTER.norm>
-1.27066

>  <SCORE.INTRA>
0

>  <SCORE.INTRA.DIHEDRAL>
0

>  <SCORE.INTRA.DIHEDRAL.0>
0

>  <SCORE.INTRA.POLAR>
0

>  <SCORE.INTRA.POLAR.0>
0

>  <SCORE.INTRA.REPUL>
0

>  <SCORE.INTRA.REPUL.0>
0

>  <SCORE.INTRA.SOLV>
0

>  <SCORE.INTRA.SOLV.lig_0>
-29.307

>  <SCORE.INTRA.VDW>
0

>  <SCORE.INTRA.VDW.0>
0

>  <SCORE.INTRA.norm>
0

>  <SCORE.RESTR>
0

>  <SCORE.RESTR.CAVITY>
0

>  <SCORE.RESTR.norm>
0

>  <SCORE.SYSTEM>
0

>  <SCORE.SYSTEM.CONST>
0

>  <SCORE.SYSTEM.DIHEDRAL>
0

>  <SCORE.SYSTEM.SOLV>
0

>  <SCORE.SYSTEM.norm>
0

>  <SCORE.heavy>
11

>  <SCORE.norm>
-1.27066

>  <RMSD>
3.444

$$$$
ligand
 OpenBabel11021811503D
libRbt.so/2013.1/901 2013/11/27
 11 12  0  0  0  0  0  0  0  0999 V2000
    3.4497  -19.6868   25.2128 N   0  0  0  0  0  0  0  0  0  0  0  0
    3.2705  -20.4097   24.0932 C   0  0  0  0  0  0  0  0  0  0  0  0
    4.3310  -20.5506   23.1483 N   0  0  0  0  0  0  0  0  0  0  0  0
    2.1153  -21.0246   23.8227 N   0  0  0  0  0  0  0  0  0  0  0  0
    1.0433  -20.9272   24.6769 C   0  0  0  0  0  0  0  0  0  0  0  0
    1.1880  -20.1958   25.8358 C   0  0  0  0  0  0  0  0  0  0  0  0
    2.4374  -19.5664   26.1051 C   0  0  0  0  0  0  0  0  0  0  0  0
    2.5938  -18.8289   27.2575 O   0  0  0  0  0  0  0  0  0  0  0  0
   -0.0640  -20.2790   26.5241 C   0  0  0  0  0  0  0  0  0  0  0  0
   -0.9064  -21.0634   25.7241 C   0  0  0  0  0  0  0  0  0  0  0  0
   -0.2337  -21.4399   24.6293 N   0  0  0  0  0  0  0  0  0  0  0  0
  1  2  1  0  0  0  0
  1  7  1  0  0  0  0
  2  3  1  0  0  0  0
  2  4  2  0  0  0  0
  4  5  1  0  0  0  0
  5  6  2  0  0  0  0
  5 11  1  0  0  0  0
  6  7  1  0  0  0  0
  6  9  1  0  0  0  0
  7  8  2  0  0  0  0
  9 10  2  0  0  0  0
 10 11  1  0  0  0  0
M  END
>  <CHROM.1>
1.80814718,-20.33611143,25.18754003,-0.24922370,0.32037156,1.04364413

>  <Name>
ligand

>  <RI>
0

>  <Rbt.Current_Directory>
/home/itssahil/PROJECTS/Mol_Feturizer/New_Systems/rnas/4LVW

>  <Rbt.Executable>
rbdock ($Id: //depot/dev/client3/rdock/2013.1/src/exe/rbdock.cxx#4 $)

>  <Rbt.Library>
libRbt.so (2013.1, Build901 2013/11/27)

>  <Rbt.Parameter_File>
/export/apps/rDock/src/rDock_2013.1_src/data/scripts/dock_solv.prm

>  <Rbt.Receptor>
prm/pocket_docking_8.prm

>  <SCORE>
-13.9776

>  <SCORE.INTER>
-13.9776

>  <SCORE.INTER.CONST>
1

>  <SCORE.INTER.POLAR>
0

>  <SCORE.INTER.ROT>
0

>  <SCORE.INTER.SOLV>
5.4146

>  <SCORE.INTER.VDW>
-14.7233

>  <SCORE.INTER.norm>
-1.27069

>  <SCORE.INTRA>
0

>  <SCORE.INTRA.DIHEDRAL>
0

>  <SCORE.INTRA.DIHEDRAL.0>
0

>  <SCORE.INTRA.POLAR>
0

>  <SCORE.INTRA.POLAR.0>
0

>  <SCORE.INTRA.REPUL>
0

>  <SCORE.INTRA.REPUL.0>
0

>  <SCORE.INTRA.SOLV>
0

>  <SCORE.INTRA.SOLV.lig_0>
-29.307

>  <SCORE.INTRA.VDW>
0

>  <SCORE.INTRA.VDW.0>
0

>  <SCORE.INTRA.norm>
0

>  <SCORE.RESTR>
0

>  <SCORE.RESTR.CAVITY>
0

>  <SCORE.RESTR.norm>
0

>  <SCORE.SYSTEM>
0

>  <SCORE.SYSTEM.CONST>
0

>  <SCORE.SYSTEM.DIHEDRAL>
0

>  <SCORE.SYSTEM.SOLV>
0

>  <SCORE.SYSTEM.norm>
0

>  <SCORE.heavy>
11

>  <SCORE.norm>
-1.27069

>  <RMSD>
3.444

$$$$
ligand
 OpenBabel11021811503D
libRbt.so/2013.1/901 2013/11/27
 11 12  0  0  0  0  0  0  0  0999 V2000
    3.4464  -19.6857   25.2113 N   0  0  0  0  0  0  0  0  0  0  0  0
    3.2744  -20.4199   24.0979 C   0  0  0  0  0  0  0  0  0  0  0  0
    4.3370  -20.5598   23.1552 N   0  0  0  0  0  0  0  0  0  0  0  0
    2.1247  -21.0469   23.8316 N   0  0  0  0  0  0  0  0  0  0  0  0
    1.0511  -20.9512   24.6840 C   0  0  0  0  0  0  0  0  0  0  0  0
    1.1885  -20.2086   25.8366 C   0  0  0  0  0  0  0  0  0  0  0  0
    2.4322  -19.5662   26.1016 C   0  0  0  0  0  0  0  0  0  0  0  0
    2.5812  -18.8175   27.2477 O   0  0  0  0  0  0  0  0  0  0  0  0
   -0.0634  -20.2965   26.5245 C   0  0  0  0  0  0  0  0  0  0  0  0
   -0.8984  -21.0950   25.7306 C   0  0  0  0  0  0  0  0  0  0  0  0
   -0.2214  -21.4752   24.6397 N   0  0  0  0  0  0  0  0  0  0  0  0
  1  2  1  0  0  0  0
  1  7  1  0  0  0  0
  2  3  1  0  0  0  0
  2  4  2  0  0  0  0
  4  5  1  0  0  0  0
  5  6  2  0  0  0  0
  5 11  1  0  0  0  0
  6  7  1  0  0  0  0
  6  9  1  0  0  0  0
  7  8  2  0  0  0  0
  9 10  2  0  0  0  0
 10 11  1  0  0  0  0
M  END
>  <CHROM.1>
1.81039945,-20.34925168,25.19019465,-0.24381280,0.32724508,1.03325481

>  <Name>
ligand

>  <RI>
0

>  <Rbt.Current_Directory>
/home/itssahil/PROJECTS/Mol_Feturizer/New_Systems/rnas/4LVW

>  <Rbt.Executable>
rbdock ($Id: //depot/dev/client3/rdock/2013.1/src/exe/rbdock.cxx#4 $)

>  <Rbt.Library>
libRbt.so (2013.1, Build901 2013/11/27)

>  <Rbt.Parameter_File>
/export/apps/rDock/src/rDock_2013.1_src/data/scripts/dock_solv.prm

>  <Rbt.Receptor>
prm/pocket_docking_8.prm

>  <SCORE>
-13.9169

>  <SCORE.INTER>
-13.9169

>  <SCORE.INTER.CONST>
1

>  <SCORE.INTER.POLAR>
0

>  <SCORE.INTER.ROT>
0

>  <SCORE.INTER.SOLV>
5.38535

>  <SCORE.INTER.VDW>
-14.6731

>  <SCORE.INTER.norm>
-1.26517

>  <SCORE.INTRA>
0

>  <SCORE.INTRA.DIHEDRAL>
0

>  <SCORE.INTRA.DIHEDRAL.0>
0

>  <SCORE.INTRA.POLAR>
0

>  <SCORE.INTRA.POLAR.0>
0

>  <SCORE.INTRA.REPUL>
0

>  <SCORE.INTRA.REPUL.0>
0

>  <SCORE.INTRA.SOLV>
0

>  <SCORE.INTRA.SOLV.lig_0>
-29.307

>  <SCORE.INTRA.VDW>
0

>  <SCORE.INTRA.VDW.0>
0

>  <SCORE.INTRA.norm>
0

>  <SCORE.RESTR>
0

>  <SCORE.RESTR.CAVITY>
0

>  <SCORE.RESTR.norm>
0

>  <SCORE.SYSTEM>
0

>  <SCORE.SYSTEM.CONST>
0

>  <SCORE.SYSTEM.DIHEDRAL>
0

>  <SCORE.SYSTEM.SOLV>
0

>  <SCORE.SYSTEM.norm>
0

>  <SCORE.heavy>
11

>  <SCORE.norm>
-1.26517

>  <RMSD>
3.444

$$$$
ligand
 OpenBabel11021811503D
libRbt.so/2013.1/901 2013/11/27
 11 12  0  0  0  0  0  0  0  0999 V2000
    3.4483  -19.6972   25.2065 N   0  0  0  0  0  0  0  0  0  0  0  0
    3.2667  -20.4210   24.0878 C   0  0  0  0  0  0  0  0  0  0  0  0
    4.3264  -20.5655   23.1425 N   0  0  0  0  0  0  0  0  0  0  0  0
    2.1098  -21.0333   23.8186 N   0  0  0  0  0  0  0  0  0  0  0  0
    1.0385  -20.9322   24.6733 C   0  0  0  0  0  0  0  0  0  0  0  0
    1.1856  -20.1999   25.8312 C   0  0  0  0  0  0  0  0  0  0  0  0
    2.4367  -19.5732   26.0992 C   0  0  0  0  0  0  0  0  0  0  0  0
    2.5956  -18.8349   27.2507 O   0  0  0  0  0  0  0  0  0  0  0  0
   -0.0662  -20.2792   26.5203 C   0  0  0  0  0  0  0  0  0  0  0  0
   -0.9110  -21.0624   25.7216 C   0  0  0  0  0  0  0  0  0  0  0  0
   -0.2398  -21.4418   24.6269 N   0  0  0  0  0  0  0  0  0  0  0  0
  1  2  1  0  0  0  0
  1  7  1  0  0  0  0
  2  3  1  0  0  0  0
  2  4  2  0  0  0  0
  4  5  1  0  0  0  0
  5  6  2  0  0  0  0
  5 11  1  0  0  0  0
  6  7  1  0  0  0  0
  6  9  1  0  0  0  0
  7  8  2  0  0  0  0
  9 10  2  0  0  0  0
 10 11  1  0  0  0  0
M  END
>  <CHROM.1>
1.80509150,-20.34247519,25.18282897,-0.25101654,0.31849134,1.04306641

>  <Name>
ligand

>  <RI>
0

>  <Rbt.Current_Directory>
/home/itssahil/PROJECTS/Mol_Feturizer/New_Systems/rnas/4LVW

>  <Rbt.Executable>
rbdock ($Id: //depot/dev/client3/rdock/2013.1/src/exe/rbdock.cxx#4 $)

>  <Rbt.Library>
libRbt.so (2013.1, Build901 2013/11/27)

>  <Rbt.Parameter_File>
/export/apps/rDock/src/rDock_2013.1_src/data/scripts/dock_solv.prm

>  <Rbt.Receptor>
prm/pocket_docking_8.prm

>  <SCORE>
-13.941

>  <SCORE.INTER>
-13.941

>  <SCORE.INTER.CONST>
1

>  <SCORE.INTER.POLAR>
0

>  <SCORE.INTER.ROT>
0

>  <SCORE.INTER.SOLV>
5.45067

>  <SCORE.INTER.VDW>
-14.7109

>  <SCORE.INTER.norm>
-1.26737

>  <SCORE.INTRA>
0

>  <SCORE.INTRA.DIHEDRAL>
0

>  <SCORE.INTRA.DIHEDRAL.0>
0

>  <SCORE.INTRA.POLAR>
0

>  <SCORE.INTRA.POLAR.0>
0

>  <SCORE.INTRA.REPUL>
0

>  <SCORE.INTRA.REPUL.0>
0

>  <SCORE.INTRA.SOLV>
0

>  <SCORE.INTRA.SOLV.lig_0>
-29.307

>  <SCORE.INTRA.VDW>
0

>  <SCORE.INTRA.VDW.0>
0

>  <SCORE.INTRA.norm>
0

>  <SCORE.RESTR>
0

>  <SCORE.RESTR.CAVITY>
0

>  <SCORE.RESTR.norm>
0

>  <SCORE.SYSTEM>
0

>  <SCORE.SYSTEM.CONST>
0

>  <SCORE.SYSTEM.DIHEDRAL>
0

>  <SCORE.SYSTEM.SOLV>
0

>  <SCORE.SYSTEM.norm>
0

>  <SCORE.heavy>
11

>  <SCORE.norm>
-1.26737

>  <RMSD>
3.444

$$$$
ligand
 OpenBabel11021811503D
libRbt.so/2013.1/901 2013/11/27
 11 12  0  0  0  0  0  0  0  0999 V2000
    3.4455  -19.6868   25.2094 N   0  0  0  0  0  0  0  0  0  0  0  0
    3.2671  -20.4139   24.0923 C   0  0  0  0  0  0  0  0  0  0  0  0
    4.3268  -20.5540   23.1463 N   0  0  0  0  0  0  0  0  0  0  0  0
    2.1137  -21.0337   23.8254 N   0  0  0  0  0  0  0  0  0  0  0  0
    1.0426  -20.9373   24.6809 C   0  0  0  0  0  0  0  0  0  0  0  0
    1.1865  -20.2018   25.8373 C   0  0  0  0  0  0  0  0  0  0  0  0
    2.4341  -19.5672   26.1028 C   0  0  0  0  0  0  0  0  0  0  0  0
    2.5896  -18.8256   27.2527 O   0  0  0  0  0  0  0  0  0  0  0  0
   -0.0642  -20.2872   26.5277 C   0  0  0  0  0  0  0  0  0  0  0  0
   -0.9051  -21.0770   25.7314 C   0  0  0  0  0  0  0  0  0  0  0  0
   -0.2327  -21.4546   24.6367 N   0  0  0  0  0  0  0  0  0  0  0  0
  1  2  1  0  0  0  0
  1  7  1  0  0  0  0
  2  3  1  0  0  0  0
  2  4  2  0  0  0  0
  4  5  1  0  0  0  0
  5  6  2  0  0  0  0
  5 11  1  0  0  0  0
  6  7  1  0  0  0  0
  6  9  1  0  0  0  0
  7  8  2  0  0  0  0
  9 10  2  0  0  0  0
 10 11  1  0  0  0  0
M  END
>  <CHROM.1>
1.80616921,-20.34197130,25.18857009,-0.24870680,0.32411961,1.04037228

>  <Name>
ligand

>  <RI>
0

>  <Rbt.Current_Directory>
/home/itssahil/PROJECTS/Mol_Feturizer/New_Systems/rnas/4LVW

>  <Rbt.Executable>
rbdock ($Id: //depot/dev/client3/rdock/2013.1/src/exe/rbdock.cxx#4 $)

>  <Rbt.Library>
libRbt.so (2013.1, Build901 2013/11/27)

>  <Rbt.Parameter_File>
/export/apps/rDock/src/rDock_2013.1_src/data/scripts/dock_solv.prm

>  <Rbt.Receptor>
prm/pocket_docking_8.prm

>  <SCORE>
-13.9399

>  <SCORE.INTER>
-13.9399

>  <SCORE.INTER.CONST>
1

>  <SCORE.INTER.POLAR>
0

>  <SCORE.INTER.ROT>
0

>  <SCORE.INTER.SOLV>
5.43578

>  <SCORE.INTER.VDW>
-14.7052

>  <SCORE.INTER.norm>
-1.26727

>  <SCORE.INTRA>
0

>  <SCORE.INTRA.DIHEDRAL>
0

>  <SCORE.INTRA.DIHEDRAL.0>
0

>  <SCORE.INTRA.POLAR>
0

>  <SCORE.INTRA.POLAR.0>
0

>  <SCORE.INTRA.REPUL>
0

>  <SCORE.INTRA.REPUL.0>
0

>  <SCORE.INTRA.SOLV>
0

>  <SCORE.INTRA.SOLV.lig_0>
-29.307

>  <SCORE.INTRA.VDW>
0

>  <SCORE.INTRA.VDW.0>
0

>  <SCORE.INTRA.norm>
0

>  <SCORE.RESTR>
0

>  <SCORE.RESTR.CAVITY>
0

>  <SCORE.RESTR.norm>
0

>  <SCORE.SYSTEM>
0

>  <SCORE.SYSTEM.CONST>
0

>  <SCORE.SYSTEM.DIHEDRAL>
0

>  <SCORE.SYSTEM.SOLV>
0

>  <SCORE.SYSTEM.norm>
0

>  <SCORE.heavy>
11

>  <SCORE.norm>
-1.26727

>  <RMSD>
3.444

$$$$
ligand
 OpenBabel11021811503D
libRbt.so/2013.1/901 2013/11/27
 11 12  0  0  0  0  0  0  0  0999 V2000
    3.4468  -19.6825   25.1984 N   0  0  0  0  0  0  0  0  0  0  0  0
    3.2610  -20.3952   24.0732 C   0  0  0  0  0  0  0  0  0  0  0  0
    4.3150  -20.5244   23.1194 N   0  0  0  0  0  0  0  0  0  0  0  0
    2.1053  -21.0102   23.8052 N   0  0  0  0  0  0  0  0  0  0  0  0
    1.0394  -20.9235   24.6681 C   0  0  0  0  0  0  0  0  0  0  0  0
    1.1908  -20.2029   25.8328 C   0  0  0  0  0  0  0  0  0  0  0  0
    2.4407  -19.5731   26.0991 C   0  0  0  0  0  0  0  0  0  0  0  0
    2.6038  -18.8464   27.2574 O   0  0  0  0  0  0  0  0  0  0  0  0
   -0.0559  -20.2957   26.5294 C   0  0  0  0  0  0  0  0  0  0  0  0
   -0.9023  -21.0744   25.7280 C   0  0  0  0  0  0  0  0  0  0  0  0
   -0.2368  -21.4388   24.6248 N   0  0  0  0  0  0  0  0  0  0  0  0
  1  2  1  0  0  0  0
  1  7  1  0  0  0  0
  2  3  1  0  0  0  0
  2  4  2  0  0  0  0
  4  5  1  0  0  0  0
  5  6  2  0  0  0  0
  5 11  1  0  0  0  0
  6  7  1  0  0  0  0
  6  9  1  0  0  0  0
  7  8  2  0  0  0  0
  9 10  2  0  0  0  0
 10 11  1  0  0  0  0
M  END
>  <CHROM.1>
1.80655425,-20.33552911,25.17880916,-0.25464515,0.32602534,1.05496130

>  <Name>
ligand

>  <RI>
0

>  <Rbt.Current_Directory>
/home/itssahil/PROJECTS/Mol_Feturizer/New_Systems/rnas/4LVW

>  <Rbt.Executable>
rbdock ($Id: //depot/dev/client3/rdock/2013.1/src/exe/rbdock.cxx#4 $)

>  <Rbt.Library>
libRbt.so (2013.1, Build901 2013/11/27)

>  <Rbt.Parameter_File>
/export/apps/rDock/src/rDock_2013.1_src/data/scripts/dock_solv.prm

>  <Rbt.Receptor>
prm/pocket_docking_8.prm

>  <SCORE>
-13.9493

>  <SCORE.INTER>
-13.9493

>  <SCORE.INTER.CONST>
1

>  <SCORE.INTER.POLAR>
0

>  <SCORE.INTER.ROT>
0

>  <SCORE.INTER.SOLV>
5.49637

>  <SCORE.INTER.VDW>
-14.7317

>  <SCORE.INTER.norm>
-1.26812

>  <SCORE.INTRA>
0

>  <SCORE.INTRA.DIHEDRAL>
0

>  <SCORE.INTRA.DIHEDRAL.0>
0

>  <SCORE.INTRA.POLAR>
0

>  <SCORE.INTRA.POLAR.0>
0

>  <SCORE.INTRA.REPUL>
0

>  <SCORE.INTRA.REPUL.0>
0

>  <SCORE.INTRA.SOLV>
0

>  <SCORE.INTRA.SOLV.lig_0>
-29.307

>  <SCORE.INTRA.VDW>
0

>  <SCORE.INTRA.VDW.0>
0

>  <SCORE.INTRA.norm>
0

>  <SCORE.RESTR>
0

>  <SCORE.RESTR.CAVITY>
0

>  <SCORE.RESTR.norm>
0

>  <SCORE.SYSTEM>
0

>  <SCORE.SYSTEM.CONST>
0

>  <SCORE.SYSTEM.DIHEDRAL>
0

>  <SCORE.SYSTEM.SOLV>
0

>  <SCORE.SYSTEM.norm>
0

>  <SCORE.heavy>
11

>  <SCORE.norm>
-1.26812

>  <RMSD>
3.444

$$$$
ligand
 OpenBabel11021811503D
libRbt.so/2013.1/901 2013/11/27
 11 12  0  0  0  0  0  0  0  0999 V2000
    3.4502  -19.6896   25.2371 N   0  0  0  0  0  0  0  0  0  0  0  0
    3.2757  -20.4076   24.1136 C   0  0  0  0  0  0  0  0  0  0  0  0
    4.3404  -20.5449   23.1729 N   0  0  0  0  0  0  0  0  0  0  0  0
    2.1214  -21.0207   23.8352 N   0  0  0  0  0  0  0  0  0  0  0  0
    1.0456  -20.9264   24.6850 C   0  0  0  0  0  0  0  0  0  0  0  0
    1.1854  -20.2002   25.8477 C   0  0  0  0  0  0  0  0  0  0  0  0
    2.4339  -19.5726   26.1254 C   0  0  0  0  0  0  0  0  0  0  0  0
    2.5855  -18.8403   27.2817 O   0  0  0  0  0  0  0  0  0  0  0  0
   -0.0697  -20.2857   26.5300 C   0  0  0  0  0  0  0  0  0  0  0  0
   -0.9089  -21.0662   25.7227 C   0  0  0  0  0  0  0  0  0  0  0  0
   -0.2314  -21.4383   24.6293 N   0  0  0  0  0  0  0  0  0  0  0  0
  1  2  1  0  0  0  0
  1  7  1  0  0  0  0
  2  3  1  0  0  0  0
  2  4  2  0  0  0  0
  4  5  1  0  0  0  0
  5  6  2  0  0  0  0
  5 11  1  0  0  0  0
  6  7  1  0  0  0  0
  6  9  1  0  0  0  0
  7  8  2  0  0  0  0
  9 10  2  0  0  0  0
 10 11  1  0  0  0  0
M  END
>  <CHROM.1>
1.80843890,-20.33801384,25.20162695,-0.24537584,0.31766677,1.04680757

>  <Name>
ligand

>  <RI>
0

>  <Rbt.Current_Directory>
/home/itssahil/PROJECTS/Mol_Feturizer/New_Systems/rnas/4LVW

>  <Rbt.Executable>
rbdock ($Id: //depot/dev/client3/rdock/2013.1/src/exe/rbdock.cxx#4 $)

>  <Rbt.Library>
libRbt.so (2013.1, Build901 2013/11/27)

>  <Rbt.Parameter_File>
/export/apps/rDock/src/rDock_2013.1_src/data/scripts/dock_solv.prm

>  <Rbt.Receptor>
prm/pocket_docking_8.prm

>  <SCORE>
-13.9581

>  <SCORE.INTER>
-13.9581

>  <SCORE.INTER.CONST>
1

>  <SCORE.INTER.POLAR>
0

>  <SCORE.INTER.ROT>
0

>  <SCORE.INTER.SOLV>
5.33801

>  <SCORE.INTER.VDW>
-14.6848

>  <SCORE.INTER.norm>
-1.26892

>  <SCORE.INTRA>
0

>  <SCORE.INTRA.DIHEDRAL>
0

>  <SCORE.INTRA.DIHEDRAL.0>
0

>  <SCORE.INTRA.POLAR>
0

>  <SCORE.INTRA.POLAR.0>
0

>  <SCORE.INTRA.REPUL>
0

>  <SCORE.INTRA.REPUL.0>
0

>  <SCORE.INTRA.SOLV>
0

>  <SCORE.INTRA.SOLV.lig_0>
-29.307

>  <SCORE.INTRA.VDW>
0

>  <SCORE.INTRA.VDW.0>
0

>  <SCORE.INTRA.norm>
0

>  <SCORE.RESTR>
0

>  <SCORE.RESTR.CAVITY>
0

>  <SCORE.RESTR.norm>
0

>  <SCORE.SYSTEM>
0

>  <SCORE.SYSTEM.CONST>
0

>  <SCORE.SYSTEM.DIHEDRAL>
0

>  <SCORE.SYSTEM.SOLV>
0

>  <SCORE.SYSTEM.norm>
0

>  <SCORE.heavy>
11

>  <SCORE.norm>
-1.26892

>  <RMSD>
3.444

$$$$
ligand
 OpenBabel11021811503D
libRbt.so/2013.1/901 2013/11/27
 11 12  0  0  0  0  0  0  0  0999 V2000
    3.4395  -19.6855   25.1972 N   0  0  0  0  0  0  0  0  0  0  0  0
    3.2532  -20.3918   24.0681 C   0  0  0  0  0  0  0  0  0  0  0  0
    4.3070  -20.5165   23.1135 N   0  0  0  0  0  0  0  0  0  0  0  0
    2.0971  -21.0046   23.7968 N   0  0  0  0  0  0  0  0  0  0  0  0
    1.0312  -20.9219   24.6603 C   0  0  0  0  0  0  0  0  0  0  0  0
    1.1832  -20.2078   25.8289 C   0  0  0  0  0  0  0  0  0  0  0  0
    2.4335  -19.5803   26.0986 C   0  0  0  0  0  0  0  0  0  0  0  0
    2.5972  -18.8601   27.2608 O   0  0  0  0  0  0  0  0  0  0  0  0
   -0.0635  -20.3036   26.5251 C   0  0  0  0  0  0  0  0  0  0  0  0
   -0.9105  -21.0773   25.7195 C   0  0  0  0  0  0  0  0  0  0  0  0
   -0.2453  -21.4361   24.6142 N   0  0  0  0  0  0  0  0  0  0  0  0
  1  2  1  0  0  0  0
  1  7  1  0  0  0  0
  2  3  1  0  0  0  0
  2  4  2  0  0  0  0
  4  5  1  0  0  0  0
  5  6  2  0  0  0  0
  5 11  1  0  0  0  0
  6  7  1  0  0  0  0
  6  9  1  0  0  0  0
  7  8  2  0  0  0  0
  9 10  2  0  0  0  0
 10 11  1  0  0  0  0
M  END
>  <CHROM.1>
1.79884118,-20.33725729,25.17412291,-0.25504464,0.32548563,1.06057106

>  <Name>
ligand

>  <RI>
0

>  <Rbt.Current_Directory>
/home/itssahil/PROJECTS/Mol_Feturizer/New_Systems/rnas/4LVW

>  <Rbt.Executable>
rbdock ($Id: //depot/dev/client3/rdock/2013.1/src/exe/rbdock.cxx#4 $)

>  <Rbt.Library>
libRbt.so (2013.1, Build901 2013/11/27)

>  <Rbt.Parameter_File>
/export/apps/rDock/src/rDock_2013.1_src/data/scripts/dock_solv.prm

>  <Rbt.Receptor>
prm/pocket_docking_8.prm

>  <SCORE>
-13.9299

>  <SCORE.INTER>
-13.9299

>  <SCORE.INTER.CONST>
1

>  <SCORE.INTER.POLAR>
0

>  <SCORE.INTER.ROT>
0

>  <SCORE.INTER.SOLV>
5.53037

>  <SCORE.INTER.VDW>
-14.73

>  <SCORE.INTER.norm>
-1.26635

>  <SCORE.INTRA>
0

>  <SCORE.INTRA.DIHEDRAL>
0

>  <SCORE.INTRA.DIHEDRAL.0>
0

>  <SCORE.INTRA.POLAR>
0

>  <SCORE.INTRA.POLAR.0>
0

>  <SCORE.INTRA.REPUL>
0

>  <SCORE.INTRA.REPUL.0>
0

>  <SCORE.INTRA.SOLV>
0

>  <SCORE.INTRA.SOLV.lig_0>
-29.307

>  <SCORE.INTRA.VDW>
0

>  <SCORE.INTRA.VDW.0>
0

>  <SCORE.INTRA.norm>
0

>  <SCORE.RESTR>
0

>  <SCORE.RESTR.CAVITY>
0

>  <SCORE.RESTR.norm>
0

>  <SCORE.SYSTEM>
0

>  <SCORE.SYSTEM.CONST>
0

>  <SCORE.SYSTEM.DIHEDRAL>
0

>  <SCORE.SYSTEM.SOLV>
0

>  <SCORE.SYSTEM.norm>
0

>  <SCORE.heavy>
11

>  <SCORE.norm>
-1.26635

>  <RMSD>
3.444

$$$$
ligand
 OpenBabel11021811503D
libRbt.so/2013.1/901 2013/11/27
 11 12  0  0  0  0  0  0  0  0999 V2000
    3.4377  -19.6889   25.2088 N   0  0  0  0  0  0  0  0  0  0  0  0
    3.2645  -20.4199   24.0935 C   0  0  0  0  0  0  0  0  0  0  0  0
    4.3277  -20.5609   23.1516 N   0  0  0  0  0  0  0  0  0  0  0  0
    2.1132  -21.0428   23.8247 N   0  0  0  0  0  0  0  0  0  0  0  0
    1.0391  -20.9457   24.6763 C   0  0  0  0  0  0  0  0  0  0  0  0
    1.1776  -20.2062   25.8308 C   0  0  0  0  0  0  0  0  0  0  0  0
    2.4230  -19.5684   26.0985 C   0  0  0  0  0  0  0  0  0  0  0  0
    2.5732  -18.8228   27.2464 O   0  0  0  0  0  0  0  0  0  0  0  0
   -0.0753  -20.2919   26.5172 C   0  0  0  0  0  0  0  0  0  0  0  0
   -0.9119  -21.0859   25.7206 C   0  0  0  0  0  0  0  0  0  0  0  0
   -0.2351  -21.4657   24.6295 N   0  0  0  0  0  0  0  0  0  0  0  0
  1  2  1  0  0  0  0
  1  7  1  0  0  0  0
  2  3  1  0  0  0  0
  2  4  2  0  0  0  0
  4  5  1  0  0  0  0
  5  6  2  0  0  0  0
  5 11  1  0  0  0  0
  6  7  1  0  0  0  0
  6  9  1  0  0  0  0
  7  8  2  0  0  0  0
  9 10  2  0  0  0  0
 10 11  1  0  0  0  0
M  END
>  <CHROM.1>
1.79972449,-20.34730082,25.18460145,-0.24458671,0.32408397,1.03584438

>  <Name>
ligand

>  <RI>
0

>  <Rbt.Current_Directory>
/home/itssahil/PROJECTS/Mol_Feturizer/New_Systems/rnas/4LVW

>  <Rbt.Executable>
rbdock ($Id: //depot/dev/client3/rdock/2013.1/src/exe/rbdock.cxx#4 $)

>  <Rbt.Library>
libRbt.so (2013.1, Build901 2013/11/27)

>  <Rbt.Parameter_File>
/export/apps/rDock/src/rDock_2013.1_src/data/scripts/dock_solv.prm

>  <Rbt.Receptor>
prm/pocket_docking_8.prm

>  <SCORE>
-13.9214

>  <SCORE.INTER>
-13.9214

>  <SCORE.INTER.CONST>
1

>  <SCORE.INTER.POLAR>
0

>  <SCORE.INTER.ROT>
0

>  <SCORE.INTER.SOLV>
5.43497

>  <SCORE.INTER.VDW>
-14.6926

>  <SCORE.INTER.norm>
-1.26559

>  <SCORE.INTRA>
0

>  <SCORE.INTRA.DIHEDRAL>
0

>  <SCORE.INTRA.DIHEDRAL.0>
0

>  <SCORE.INTRA.POLAR>
0

>  <SCORE.INTRA.POLAR.0>
0

>  <SCORE.INTRA.REPUL>
0

>  <SCORE.INTRA.REPUL.0>
0

>  <SCORE.INTRA.SOLV>
0

>  <SCORE.INTRA.SOLV.lig_0>
-29.307

>  <SCORE.INTRA.VDW>
0

>  <SCORE.INTRA.VDW.0>
0

>  <SCORE.INTRA.norm>
0

>  <SCORE.RESTR>
0

>  <SCORE.RESTR.CAVITY>
0

>  <SCORE.RESTR.norm>
0

>  <SCORE.SYSTEM>
0

>  <SCORE.SYSTEM.CONST>
0

>  <SCORE.SYSTEM.DIHEDRAL>
0

>  <SCORE.SYSTEM.SOLV>
0

>  <SCORE.SYSTEM.norm>
0

>  <SCORE.heavy>
11

>  <SCORE.norm>
-1.26559

>  <RMSD>
3.444

$$$$
ligand
 OpenBabel11021811503D
libRbt.so/2013.1/901 2013/11/27
 11 12  0  0  0  0  0  0  0  0999 V2000
    3.4483  -19.6867   25.2201 N   0  0  0  0  0  0  0  0  0  0  0  0
    3.2669  -20.3967   24.0926 C   0  0  0  0  0  0  0  0  0  0  0  0
    4.3257  -20.5265   23.1441 N   0  0  0  0  0  0  0  0  0  0  0  0
    2.1112  -21.0085   23.8171 N   0  0  0  0  0  0  0  0  0  0  0  0
    1.0409  -20.9209   24.6745 C   0  0  0  0  0  0  0  0  0  0  0  0
    1.1877  -20.2030   25.8414 C   0  0  0  0  0  0  0  0  0  0  0  0
    2.4376  -19.5767   26.1157 C   0  0  0  0  0  0  0  0  0  0  0  0
    2.5962  -18.8526   27.2762 O   0  0  0  0  0  0  0  0  0  0  0  0
   -0.0629  -20.2942   26.5311 C   0  0  0  0  0  0  0  0  0  0  0  0
   -0.9069  -21.0694   25.7236 C   0  0  0  0  0  0  0  0  0  0  0  0
   -0.2362  -21.4331   24.6233 N   0  0  0  0  0  0  0  0  0  0  0  0
  1  2  1  0  0  0  0
  1  7  1  0  0  0  0
  2  3  1  0  0  0  0
  2  4  2  0  0  0  0
  4  5  1  0  0  0  0
  5  6  2  0  0  0  0
  5 11  1  0  0  0  0
  6  7  1  0  0  0  0
  6  9  1  0  0  0  0
  7  8  2  0  0  0  0
  9 10  2  0  0  0  0
 10 11  1  0  0  0  0
M  END
>  <CHROM.1>
1.80666786,-20.33579386,25.19044578,-0.25092614,0.32133898,1.05576681

>  <Name>
ligand

>  <RI>
0

>  <Rbt.Current_Directory>
/home/itssahil/PROJECTS/Mol_Feturizer/New_Systems/rnas/4LVW

>  <Rbt.Executable>
rbdock ($Id: //depot/dev/client3/rdock/2013.1/src/exe/rbdock.cxx#4 $)

>  <Rbt.Library>
libRbt.so (2013.1, Build901 2013/11/27)

>  <Rbt.Parameter_File>
/export/apps/rDock/src/rDock_2013.1_src/data/scripts/dock_solv.prm

>  <Rbt.Receptor>
prm/pocket_docking_8.prm

>  <SCORE>
-13.9561

>  <SCORE.INTER>
-13.9561

>  <SCORE.INTER.CONST>
1

>  <SCORE.INTER.POLAR>
0

>  <SCORE.INTER.ROT>
0

>  <SCORE.INTER.SOLV>
5.41081

>  <SCORE.INTER.VDW>
-14.7077

>  <SCORE.INTER.norm>
-1.26874

>  <SCORE.INTRA>
0

>  <SCORE.INTRA.DIHEDRAL>
0

>  <SCORE.INTRA.DIHEDRAL.0>
0

>  <SCORE.INTRA.POLAR>
0

>  <SCORE.INTRA.POLAR.0>
0

>  <SCORE.INTRA.REPUL>
0

>  <SCORE.INTRA.REPUL.0>
0

>  <SCORE.INTRA.SOLV>
0

>  <SCORE.INTRA.SOLV.lig_0>
-29.307

>  <SCORE.INTRA.VDW>
0

>  <SCORE.INTRA.VDW.0>
0

>  <SCORE.INTRA.norm>
0

>  <SCORE.RESTR>
0

>  <SCORE.RESTR.CAVITY>
0

>  <SCORE.RESTR.norm>
0

>  <SCORE.SYSTEM>
0

>  <SCORE.SYSTEM.CONST>
0

>  <SCORE.SYSTEM.DIHEDRAL>
0

>  <SCORE.SYSTEM.SOLV>
0

>  <SCORE.SYSTEM.norm>
0

>  <SCORE.heavy>
11

>  <SCORE.norm>
-1.26874

>  <RMSD>
3.444

$$$$
ligand
 OpenBabel11021811503D
libRbt.so/2013.1/901 2013/11/27
 11 12  0  0  0  0  0  0  0  0999 V2000
    3.4466  -19.6890   25.2274 N   0  0  0  0  0  0  0  0  0  0  0  0
    3.2665  -20.3972   24.0986 C   0  0  0  0  0  0  0  0  0  0  0  0
    4.3273  -20.5281   23.1525 N   0  0  0  0  0  0  0  0  0  0  0  0
    2.1102  -21.0063   23.8197 N   0  0  0  0  0  0  0  0  0  0  0  0
    1.0379  -20.9176   24.6746 C   0  0  0  0  0  0  0  0  0  0  0  0
    1.1835  -20.2013   25.8427 C   0  0  0  0  0  0  0  0  0  0  0  0
    2.4340  -19.5779   26.1207 C   0  0  0  0  0  0  0  0  0  0  0  0
    2.5914  -18.8556   27.2825 O   0  0  0  0  0  0  0  0  0  0  0  0
   -0.0690  -20.2908   26.5293 C   0  0  0  0  0  0  0  0  0  0  0  0
   -0.9126  -21.0633   25.7189 C   0  0  0  0  0  0  0  0  0  0  0  0
   -0.2401  -21.4271   24.6197 N   0  0  0  0  0  0  0  0  0  0  0  0
  1  2  1  0  0  0  0
  1  7  1  0  0  0  0
  2  3  1  0  0  0  0
  2  4  2  0  0  0  0
  4  5  1  0  0  0  0
  5  6  2  0  0  0  0
  5 11  1  0  0  0  0
  6  7  1  0  0  0  0
  6  9  1  0  0  0  0
  7  8  2  0  0  0  0
  9 10  2  0  0  0  0
 10 11  1  0  0  0  0
M  END
>  <CHROM.1>
1.80373200,-20.33464280,25.19305341,-0.24980929,0.31837854,1.05658370

>  <Name>
ligand

>  <RI>
0

>  <Rbt.Current_Directory>
/home/itssahil/PROJECTS/Mol_Feturizer/New_Systems/rnas/4LVW

>  <Rbt.Executable>
rbdock ($Id: //depot/dev/client3/rdock/2013.1/src/exe/rbdock.cxx#4 $)

>  <Rbt.Library>
libRbt.so (2013.1, Build901 2013/11/27)

>  <Rbt.Parameter_File>
/export/apps/rDock/src/rDock_2013.1_src/data/scripts/dock_solv.prm

>  <Rbt.Receptor>
prm/pocket_docking_8.prm

>  <SCORE>
-13.9499

>  <SCORE.INTER>
-13.9499

>  <SCORE.INTER.CONST>
1

>  <SCORE.INTER.POLAR>
0

>  <SCORE.INTER.ROT>
0

>  <SCORE.INTER.SOLV>
5.3943

>  <SCORE.INTER.VDW>
-14.698

>  <SCORE.INTER.norm>
-1.26817

>  <SCORE.INTRA>
0

>  <SCORE.INTRA.DIHEDRAL>
0

>  <SCORE.INTRA.DIHEDRAL.0>
0

>  <SCORE.INTRA.POLAR>
0

>  <SCORE.INTRA.POLAR.0>
0

>  <SCORE.INTRA.REPUL>
0

>  <SCORE.INTRA.REPUL.0>
0

>  <SCORE.INTRA.SOLV>
0

>  <SCORE.INTRA.SOLV.lig_0>
-29.307

>  <SCORE.INTRA.VDW>
0

>  <SCORE.INTRA.VDW.0>
0

>  <SCORE.INTRA.norm>
0

>  <SCORE.RESTR>
0

>  <SCORE.RESTR.CAVITY>
0

>  <SCORE.RESTR.norm>
0

>  <SCORE.SYSTEM>
0

>  <SCORE.SYSTEM.CONST>
0

>  <SCORE.SYSTEM.DIHEDRAL>
0

>  <SCORE.SYSTEM.SOLV>
0

>  <SCORE.SYSTEM.norm>
0

>  <SCORE.heavy>
11

>  <SCORE.norm>
-1.26817

>  <RMSD>
3.444

$$$$
ligand
 OpenBabel11021811503D
libRbt.so/2013.1/901 2013/11/27
 11 12  0  0  0  0  0  0  0  0999 V2000
    3.4485  -19.6827   25.2066 N   0  0  0  0  0  0  0  0  0  0  0  0
    3.2672  -20.4033   24.0858 C   0  0  0  0  0  0  0  0  0  0  0  0
    4.3252  -20.5401   23.1375 N   0  0  0  0  0  0  0  0  0  0  0  0
    2.1122  -21.0194   23.8172 N   0  0  0  0  0  0  0  0  0  0  0  0
    1.0425  -20.9257   24.6748 C   0  0  0  0  0  0  0  0  0  0  0  0
    1.1895  -20.1969   25.8349 C   0  0  0  0  0  0  0  0  0  0  0  0
    2.4386  -19.5661   26.1022 C   0  0  0  0  0  0  0  0  0  0  0  0
    2.5973  -18.8312   27.2559 O   0  0  0  0  0  0  0  0  0  0  0  0
   -0.0604  -20.2837   26.5267 C   0  0  0  0  0  0  0  0  0  0  0  0
   -0.9039  -21.0676   25.7272 C   0  0  0  0  0  0  0  0  0  0  0  0
   -0.2338  -21.4404   24.6296 N   0  0  0  0  0  0  0  0  0  0  0  0
  1  2  1  0  0  0  0
  1  7  1  0  0  0  0
  2  3  1  0  0  0  0
  2  4  2  0  0  0  0
  4  5  1  0  0  0  0
  5  6  2  0  0  0  0
  5 11  1  0  0  0  0
  6  7  1  0  0  0  0
  6  9  1  0  0  0  0
  7  8  2  0  0  0  0
  9 10  2  0  0  0  0
 10 11  1  0  0  0  0
M  END
>  <CHROM.1>
1.80795291,-20.33463344,25.18457033,-0.25103080,0.32322029,1.04661974

>  <Name>
ligand

>  <RI>
0

>  <Rbt.Current_Directory>
/home/itssahil/PROJECTS/Mol_Feturizer/New_Systems/rnas/4LVW

>  <Rbt.Executable>
rbdock ($Id: //depot/dev/client3/rdock/2013.1/src/exe/rbdock.cxx#4 $)

>  <Rbt.Library>
libRbt.so (2013.1, Build901 2013/11/27)

>  <Rbt.Parameter_File>
/export/apps/rDock/src/rDock_2013.1_src/data/scripts/dock_solv.prm

>  <Rbt.Receptor>
prm/pocket_docking_3.prm

>  <SCORE>
-13.9738

>  <SCORE.INTER>
-13.9738

>  <SCORE.INTER.CONST>
1

>  <SCORE.INTER.POLAR>
0

>  <SCORE.INTER.ROT>
0

>  <SCORE.INTER.SOLV>
5.4468

>  <SCORE.INTER.VDW>
-14.7315

>  <SCORE.INTER.norm>
-1.27035

>  <SCORE.INTRA>
0

>  <SCORE.INTRA.DIHEDRAL>
0

>  <SCORE.INTRA.DIHEDRAL.0>
0

>  <SCORE.INTRA.POLAR>
0

>  <SCORE.INTRA.POLAR.0>
0

>  <SCORE.INTRA.REPUL>
0

>  <SCORE.INTRA.REPUL.0>
0

>  <SCORE.INTRA.SOLV>
0

>  <SCORE.INTRA.SOLV.lig_0>
-29.307

>  <SCORE.INTRA.VDW>
0

>  <SCORE.INTRA.VDW.0>
0

>  <SCORE.INTRA.norm>
0

>  <SCORE.RESTR>
0

>  <SCORE.RESTR.CAVITY>
0

>  <SCORE.RESTR.norm>
0

>  <SCORE.SYSTEM>
0

>  <SCORE.SYSTEM.CONST>
0

>  <SCORE.SYSTEM.DIHEDRAL>
0

>  <SCORE.SYSTEM.SOLV>
0

>  <SCORE.SYSTEM.norm>
0

>  <SCORE.heavy>
11

>  <SCORE.norm>
-1.27035

>  <RMSD>
3.445

$$$$
ligand
 OpenBabel11021811503D
libRbt.so/2013.1/901 2013/11/27
 11 12  0  0  0  0  0  0  0  0999 V2000
    3.4451  -19.6906   25.2300 N   0  0  0  0  0  0  0  0  0  0  0  0
    3.2733  -20.4208   24.1140 C   0  0  0  0  0  0  0  0  0  0  0  0
    4.3414  -20.5711   23.1790 N   0  0  0  0  0  0  0  0  0  0  0  0
    2.1187  -21.0345   23.8379 N   0  0  0  0  0  0  0  0  0  0  0  0
    1.0398  -20.9282   24.6824 C   0  0  0  0  0  0  0  0  0  0  0  0
    1.1768  -20.1892   25.8374 C   0  0  0  0  0  0  0  0  0  0  0  0
    2.4257  -19.5613   26.1129 C   0  0  0  0  0  0  0  0  0  0  0  0
    2.5745  -18.8164   27.2615 O   0  0  0  0  0  0  0  0  0  0  0  0
   -0.0811  -20.2642   26.5157 C   0  0  0  0  0  0  0  0  0  0  0  0
   -0.9190  -21.0519   25.7140 C   0  0  0  0  0  0  0  0  0  0  0  0
   -0.2381  -21.4378   24.6275 N   0  0  0  0  0  0  0  0  0  0  0  0
  1  2  1  0  0  0  0
  1  7  1  0  0  0  0
  2  3  1  0  0  0  0
  2  4  2  0  0  0  0
  4  5  1  0  0  0  0
  5  6  2  0  0  0  0
  5 11  1  0  0  0  0
  6  7  1  0  0  0  0
  6  9  1  0  0  0  0
  7  8  2  0  0  0  0
  9 10  2  0  0  0  0
 10 11  1  0  0  0  0
M  END
>  <CHROM.1>
1.80202662,-20.33569469,25.19540461,-0.24304996,0.31374134,1.03482178

>  <Name>
ligand

>  <RI>
0

>  <Rbt.Current_Directory>
/home/itssahil/PROJECTS/Mol_Feturizer/New_Systems/rnas/4LVW

>  <Rbt.Executable>
rbdock ($Id: //depot/dev/client3/rdock/2013.1/src/exe/rbdock.cxx#4 $)

>  <Rbt.Library>
libRbt.so (2013.1, Build901 2013/11/27)

>  <Rbt.Parameter_File>
/export/apps/rDock/src/rDock_2013.1_src/data/scripts/dock_solv.prm

>  <Rbt.Receptor>
prm/pocket_docking_3.prm

>  <SCORE>
-13.9475

>  <SCORE.INTER>
-13.9475

>  <SCORE.INTER.CONST>
1

>  <SCORE.INTER.POLAR>
0

>  <SCORE.INTER.ROT>
0

>  <SCORE.INTER.SOLV>
5.38297

>  <SCORE.INTER.VDW>
-14.6927

>  <SCORE.INTER.norm>
-1.26796

>  <SCORE.INTRA>
0

>  <SCORE.INTRA.DIHEDRAL>
0

>  <SCORE.INTRA.DIHEDRAL.0>
0

>  <SCORE.INTRA.POLAR>
0

>  <SCORE.INTRA.POLAR.0>
0

>  <SCORE.INTRA.REPUL>
0

>  <SCORE.INTRA.REPUL.0>
0

>  <SCORE.INTRA.SOLV>
0

>  <SCORE.INTRA.SOLV.lig_0>
-29.307

>  <SCORE.INTRA.VDW>
0

>  <SCORE.INTRA.VDW.0>
0

>  <SCORE.INTRA.norm>
0

>  <SCORE.RESTR>
0

>  <SCORE.RESTR.CAVITY>
0

>  <SCORE.RESTR.norm>
0

>  <SCORE.SYSTEM>
0

>  <SCORE.SYSTEM.CONST>
0

>  <SCORE.SYSTEM.DIHEDRAL>
0

>  <SCORE.SYSTEM.SOLV>
0

>  <SCORE.SYSTEM.norm>
0

>  <SCORE.heavy>
11

>  <SCORE.norm>
-1.26796

>  <RMSD>
3.445

$$$$
ligand
 OpenBabel11021811503D
libRbt.so/2013.1/901 2013/11/27
 11 12  0  0  0  0  0  0  0  0999 V2000
    3.4490  -19.6866   25.2130 N   0  0  0  0  0  0  0  0  0  0  0  0
    3.2709  -20.4122   24.0949 C   0  0  0  0  0  0  0  0  0  0  0  0
    4.3325  -20.5552   23.1515 N   0  0  0  0  0  0  0  0  0  0  0  0
    2.1160  -21.0277   23.8246 N   0  0  0  0  0  0  0  0  0  0  0  0
    1.0431  -20.9282   24.6775 C   0  0  0  0  0  0  0  0  0  0  0  0
    1.1866  -20.1941   25.8348 C   0  0  0  0  0  0  0  0  0  0  0  0
    2.4357  -19.5641   26.1039 C   0  0  0  0  0  0  0  0  0  0  0  0
    2.5910  -18.8239   27.2548 O   0  0  0  0  0  0  0  0  0  0  0  0
   -0.0661  -20.2756   26.5220 C   0  0  0  0  0  0  0  0  0  0  0  0
   -0.9077  -21.0619   25.7229 C   0  0  0  0  0  0  0  0  0  0  0  0
   -0.2338  -21.4410   24.6296 N   0  0  0  0  0  0  0  0  0  0  0  0
  1  2  1  0  0  0  0
  1  7  1  0  0  0  0
  2  3  1  0  0  0  0
  2  4  2  0  0  0  0
  4  5  1  0  0  0  0
  5  6  2  0  0  0  0
  5 11  1  0  0  0  0
  6  7  1  0  0  0  0
  6  9  1  0  0  0  0
  7  8  2  0  0  0  0
  9 10  2  0  0  0  0
 10 11  1  0  0  0  0
M  END
>  <CHROM.1>
1.80744605,-20.33594835,25.18750999,-0.24826220,0.31982262,1.04099232

>  <Name>
ligand

>  <RI>
0

>  <Rbt.Current_Directory>
/home/itssahil/PROJECTS/Mol_Feturizer/New_Systems/rnas/4LVW

>  <Rbt.Executable>
rbdock ($Id: //depot/dev/client3/rdock/2013.1/src/exe/rbdock.cxx#4 $)

>  <Rbt.Library>
libRbt.so (2013.1, Build901 2013/11/27)

>  <Rbt.Parameter_File>
/export/apps/rDock/src/rDock_2013.1_src/data/scripts/dock_solv.prm

>  <Rbt.Receptor>
prm/pocket_docking_3.prm

>  <SCORE>
-13.9741

>  <SCORE.INTER>
-13.9741

>  <SCORE.INTER.CONST>
1

>  <SCORE.INTER.POLAR>
0

>  <SCORE.INTER.ROT>
0

>  <SCORE.INTER.SOLV>
5.41119

>  <SCORE.INTER.VDW>
-14.7198

>  <SCORE.INTER.norm>
-1.27037

>  <SCORE.INTRA>
0

>  <SCORE.INTRA.DIHEDRAL>
0

>  <SCORE.INTRA.DIHEDRAL.0>
0

>  <SCORE.INTRA.POLAR>
0

>  <SCORE.INTRA.POLAR.0>
0

>  <SCORE.INTRA.REPUL>
0

>  <SCORE.INTRA.REPUL.0>
0

>  <SCORE.INTRA.SOLV>
0

>  <SCORE.INTRA.SOLV.lig_0>
-29.307

>  <SCORE.INTRA.VDW>
0

>  <SCORE.INTRA.VDW.0>
0

>  <SCORE.INTRA.norm>
0

>  <SCORE.RESTR>
0

>  <SCORE.RESTR.CAVITY>
0

>  <SCORE.RESTR.norm>
0

>  <SCORE.SYSTEM>
0

>  <SCORE.SYSTEM.CONST>
0

>  <SCORE.SYSTEM.DIHEDRAL>
0

>  <SCORE.SYSTEM.SOLV>
0

>  <SCORE.SYSTEM.norm>
0

>  <SCORE.heavy>
11

>  <SCORE.norm>
-1.27037

>  <RMSD>
3.445

$$$$
ligand
 OpenBabel11021811503D
libRbt.so/2013.1/901 2013/11/27
 11 12  0  0  0  0  0  0  0  0999 V2000
    3.4461  -19.6758   25.2082 N   0  0  0  0  0  0  0  0  0  0  0  0
    3.2659  -20.3954   24.0866 C   0  0  0  0  0  0  0  0  0  0  0  0
    4.3239  -20.5288   23.1378 N   0  0  0  0  0  0  0  0  0  0  0  0
    2.1121  -21.0137   23.8176 N   0  0  0  0  0  0  0  0  0  0  0  0
    1.0426  -20.9233   24.6757 C   0  0  0  0  0  0  0  0  0  0  0  0
    1.1884  -20.1956   25.8367 C   0  0  0  0  0  0  0  0  0  0  0  0
    2.4363  -19.5625   26.1043 C   0  0  0  0  0  0  0  0  0  0  0  0
    2.5937  -18.8286   27.2588 O   0  0  0  0  0  0  0  0  0  0  0  0
   -0.0610  -20.2860   26.5289 C   0  0  0  0  0  0  0  0  0  0  0  0
   -0.9031  -21.0707   25.7287 C   0  0  0  0  0  0  0  0  0  0  0  0
   -0.2326  -21.4407   24.6304 N   0  0  0  0  0  0  0  0  0  0  0  0
  1  2  1  0  0  0  0
  1  7  1  0  0  0  0
  2  3  1  0  0  0  0
  2  4  2  0  0  0  0
  4  5  1  0  0  0  0
  5  6  2  0  0  0  0
  5 11  1  0  0  0  0
  6  7  1  0  0  0  0
  6  9  1  0  0  0  0
  7  8  2  0  0  0  0
  9 10  2  0  0  0  0
 10 11  1  0  0  0  0
M  END
>  <CHROM.1>
1.80689490,-20.33124006,25.18597257,-0.25022438,0.32526501,1.04758341

>  <Name>
ligand

>  <RI>
0

>  <Rbt.Current_Directory>
/home/itssahil/PROJECTS/Mol_Feturizer/New_Systems/rnas/4LVW

>  <Rbt.Executable>
rbdock ($Id: //depot/dev/client3/rdock/2013.1/src/exe/rbdock.cxx#4 $)

>  <Rbt.Library>
libRbt.so (2013.1, Build901 2013/11/27)

>  <Rbt.Parameter_File>
/export/apps/rDock/src/rDock_2013.1_src/data/scripts/dock_solv.prm

>  <Rbt.Receptor>
prm/pocket_docking_3.prm

>  <SCORE>
-13.9678

>  <SCORE.INTER>
-13.9678

>  <SCORE.INTER.CONST>
1

>  <SCORE.INTER.POLAR>
0

>  <SCORE.INTER.ROT>
0

>  <SCORE.INTER.SOLV>
5.4468

>  <SCORE.INTER.VDW>
-14.7275

>  <SCORE.INTER.norm>
-1.2698

>  <SCORE.INTRA>
0

>  <SCORE.INTRA.DIHEDRAL>
0

>  <SCORE.INTRA.DIHEDRAL.0>
0

>  <SCORE.INTRA.POLAR>
0

>  <SCORE.INTRA.POLAR.0>
0

>  <SCORE.INTRA.REPUL>
0

>  <SCORE.INTRA.REPUL.0>
0

>  <SCORE.INTRA.SOLV>
0

>  <SCORE.INTRA.SOLV.lig_0>
-29.307

>  <SCORE.INTRA.VDW>
0

>  <SCORE.INTRA.VDW.0>
0

>  <SCORE.INTRA.norm>
0

>  <SCORE.RESTR>
0

>  <SCORE.RESTR.CAVITY>
0

>  <SCORE.RESTR.norm>
0

>  <SCORE.SYSTEM>
0

>  <SCORE.SYSTEM.CONST>
0

>  <SCORE.SYSTEM.DIHEDRAL>
0

>  <SCORE.SYSTEM.SOLV>
0

>  <SCORE.SYSTEM.norm>
0

>  <SCORE.heavy>
11

>  <SCORE.norm>
-1.2698

>  <RMSD>
3.445

$$$$
ligand
 OpenBabel11021811503D
libRbt.so/2013.1/901 2013/11/27
 11 12  0  0  0  0  0  0  0  0999 V2000
    3.4473  -19.6883   25.2190 N   0  0  0  0  0  0  0  0  0  0  0  0
    3.2704  -20.4138   24.1007 C   0  0  0  0  0  0  0  0  0  0  0  0
    4.3332  -20.5574   23.1588 N   0  0  0  0  0  0  0  0  0  0  0  0
    2.1156  -21.0289   23.8288 N   0  0  0  0  0  0  0  0  0  0  0  0
    1.0416  -20.9289   24.6803 C   0  0  0  0  0  0  0  0  0  0  0  0
    1.1838  -20.1948   25.8377 C   0  0  0  0  0  0  0  0  0  0  0  0
    2.4329  -19.5653   26.1086 C   0  0  0  0  0  0  0  0  0  0  0  0
    2.5869  -18.8252   27.2596 O   0  0  0  0  0  0  0  0  0  0  0  0
   -0.0698  -20.2757   26.5232 C   0  0  0  0  0  0  0  0  0  0  0  0
   -0.9107  -21.0617   25.7230 C   0  0  0  0  0  0  0  0  0  0  0  0
   -0.2355  -21.4411   24.6307 N   0  0  0  0  0  0  0  0  0  0  0  0
  1  2  1  0  0  0  0
  1  7  1  0  0  0  0
  2  3  1  0  0  0  0
  2  4  2  0  0  0  0
  4  5  1  0  0  0  0
  5  6  2  0  0  0  0
  5 11  1  0  0  0  0
  6  7  1  0  0  0  0
  6  9  1  0  0  0  0
  7  8  2  0  0  0  0
  9 10  2  0  0  0  0
 10 11  1  0  0  0  0
M  END
>  <CHROM.1>
1.80549112,-20.33692746,25.19132453,-0.24725625,0.31875055,1.04064430

>  <Name>
ligand

>  <RI>
0

>  <Rbt.Current_Directory>
/home/itssahil/PROJECTS/Mol_Feturizer/New_Systems/rnas/4LVW

>  <Rbt.Executable>
rbdock ($Id: //depot/dev/client3/rdock/2013.1/src/exe/rbdock.cxx#4 $)

>  <Rbt.Library>
libRbt.so (2013.1, Build901 2013/11/27)

>  <Rbt.Parameter_File>
/export/apps/rDock/src/rDock_2013.1_src/data/scripts/dock_solv.prm

>  <Rbt.Receptor>
prm/pocket_docking_3.prm

>  <SCORE>
-13.9715

>  <SCORE.INTER>
-13.9715

>  <SCORE.INTER.CONST>
1

>  <SCORE.INTER.POLAR>
0

>  <SCORE.INTER.ROT>
0

>  <SCORE.INTER.SOLV>
5.40109

>  <SCORE.INTER.VDW>
-14.7147

>  <SCORE.INTER.norm>
-1.27013

>  <SCORE.INTRA>
0

>  <SCORE.INTRA.DIHEDRAL>
0

>  <SCORE.INTRA.DIHEDRAL.0>
0

>  <SCORE.INTRA.POLAR>
0

>  <SCORE.INTRA.POLAR.0>
0

>  <SCORE.INTRA.REPUL>
0

>  <SCORE.INTRA.REPUL.0>
0

>  <SCORE.INTRA.SOLV>
0

>  <SCORE.INTRA.SOLV.lig_0>
-29.307

>  <SCORE.INTRA.VDW>
0

>  <SCORE.INTRA.VDW.0>
0

>  <SCORE.INTRA.norm>
0

>  <SCORE.RESTR>
0

>  <SCORE.RESTR.CAVITY>
0

>  <SCORE.RESTR.norm>
0

>  <SCORE.SYSTEM>
0

>  <SCORE.SYSTEM.CONST>
0

>  <SCORE.SYSTEM.DIHEDRAL>
0

>  <SCORE.SYSTEM.SOLV>
0

>  <SCORE.SYSTEM.norm>
0

>  <SCORE.heavy>
11

>  <SCORE.norm>
-1.27013

>  <RMSD>
3.445

$$$$
ligand
 OpenBabel11021811503D
libRbt.so/2013.1/901 2013/11/27
 11 12  0  0  0  0  0  0  0  0999 V2000
    3.4446  -19.6843   25.1908 N   0  0  0  0  0  0  0  0  0  0  0  0
    3.2583  -20.4052   24.0710 C   0  0  0  0  0  0  0  0  0  0  0  0
    4.3128  -20.5439   23.1190 N   0  0  0  0  0  0  0  0  0  0  0  0
    2.1015  -21.0198   23.8067 N   0  0  0  0  0  0  0  0  0  0  0  0
    1.0350  -20.9243   24.6680 C   0  0  0  0  0  0  0  0  0  0  0  0
    1.1870  -20.1951   25.8273 C   0  0  0  0  0  0  0  0  0  0  0  0
    2.4380  -19.5659   26.0898 C   0  0  0  0  0  0  0  0  0  0  0  0
    2.6017  -18.8307   27.2426 O   0  0  0  0  0  0  0  0  0  0  0  0
   -0.0605  -20.2800   26.5235 C   0  0  0  0  0  0  0  0  0  0  0  0
   -0.9079  -21.0630   25.7274 C   0  0  0  0  0  0  0  0  0  0  0  0
   -0.2421  -21.4373   24.6275 N   0  0  0  0  0  0  0  0  0  0  0  0
  1  2  1  0  0  0  0
  1  7  1  0  0  0  0
  2  3  1  0  0  0  0
  2  4  2  0  0  0  0
  4  5  1  0  0  0  0
  5  6  2  0  0  0  0
  5 11  1  0  0  0  0
  6  7  1  0  0  0  0
  6  9  1  0  0  0  0
  7  8  2  0  0  0  0
  9 10  2  0  0  0  0
 10 11  1  0  0  0  0
M  END
>  <CHROM.1>
1.80301661,-20.33403364,25.17481878,-0.25496551,0.32381055,1.04740952

>  <Name>
ligand

>  <RI>
0

>  <Rbt.Current_Directory>
/home/itssahil/PROJECTS/Mol_Feturizer/New_Systems/rnas/4LVW

>  <Rbt.Executable>
rbdock ($Id: //depot/dev/client3/rdock/2013.1/src/exe/rbdock.cxx#4 $)

>  <Rbt.Library>
libRbt.so (2013.1, Build901 2013/11/27)

>  <Rbt.Parameter_File>
/export/apps/rDock/src/rDock_2013.1_src/data/scripts/dock_solv.prm

>  <Rbt.Receptor>
prm/pocket_docking_3.prm

>  <SCORE>
-13.9562

>  <SCORE.INTER>
-13.9562

>  <SCORE.INTER.CONST>
1

>  <SCORE.INTER.POLAR>
0

>  <SCORE.INTER.ROT>
0

>  <SCORE.INTER.SOLV>
5.53516

>  <SCORE.INTER.VDW>
-14.7492

>  <SCORE.INTER.norm>
-1.26874

>  <SCORE.INTRA>
0

>  <SCORE.INTRA.DIHEDRAL>
0

>  <SCORE.INTRA.DIHEDRAL.0>
0

>  <SCORE.INTRA.POLAR>
0

>  <SCORE.INTRA.POLAR.0>
0

>  <SCORE.INTRA.REPUL>
0

>  <SCORE.INTRA.REPUL.0>
0

>  <SCORE.INTRA.SOLV>
0

>  <SCORE.INTRA.SOLV.lig_0>
-29.307

>  <SCORE.INTRA.VDW>
0

>  <SCORE.INTRA.VDW.0>
0

>  <SCORE.INTRA.norm>
0

>  <SCORE.RESTR>
0

>  <SCORE.RESTR.CAVITY>
0

>  <SCORE.RESTR.norm>
0

>  <SCORE.SYSTEM>
0

>  <SCORE.SYSTEM.CONST>
0

>  <SCORE.SYSTEM.DIHEDRAL>
0

>  <SCORE.SYSTEM.SOLV>
0

>  <SCORE.SYSTEM.norm>
0

>  <SCORE.heavy>
11

>  <SCORE.norm>
-1.26874

>  <RMSD>
3.445

$$$$
ligand
 OpenBabel11021811503D
libRbt.so/2013.1/901 2013/11/27
 11 12  0  0  0  0  0  0  0  0999 V2000
    3.4491  -19.6858   25.2163 N   0  0  0  0  0  0  0  0  0  0  0  0
    3.2715  -20.4102   24.0974 C   0  0  0  0  0  0  0  0  0  0  0  0
    4.3335  -20.5520   23.1542 N   0  0  0  0  0  0  0  0  0  0  0  0
    2.1168  -21.0256   23.8259 N   0  0  0  0  0  0  0  0  0  0  0  0
    1.0436  -20.9272   24.6785 C   0  0  0  0  0  0  0  0  0  0  0  0
    1.1865  -20.1944   25.8367 C   0  0  0  0  0  0  0  0  0  0  0  0
    2.4354  -19.5645   26.1071 C   0  0  0  0  0  0  0  0  0  0  0  0
    2.5901  -18.8256   27.2588 O   0  0  0  0  0  0  0  0  0  0  0  0
   -0.0664  -20.2770   26.5233 C   0  0  0  0  0  0  0  0  0  0  0  0
   -0.9076  -21.0625   25.7230 C   0  0  0  0  0  0  0  0  0  0  0  0
   -0.2333  -21.4402   24.6296 N   0  0  0  0  0  0  0  0  0  0  0  0
  1  2  1  0  0  0  0
  1  7  1  0  0  0  0
  2  3  1  0  0  0  0
  2  4  2  0  0  0  0
  4  5  1  0  0  0  0
  5  6  2  0  0  0  0
  5 11  1  0  0  0  0
  6  7  1  0  0  0  0
  6  9  1  0  0  0  0
  7  8  2  0  0  0  0
  9 10  2  0  0  0  0
 10 11  1  0  0  0  0
M  END
>  <CHROM.1>
1.80762502,-20.33544362,25.18951140,-0.24782922,0.31977076,1.04198826

>  <Name>
ligand

>  <RI>
0

>  <Rbt.Current_Directory>
/home/itssahil/PROJECTS/Mol_Feturizer/New_Systems/rnas/4LVW

>  <Rbt.Executable>
rbdock ($Id: //depot/dev/client3/rdock/2013.1/src/exe/rbdock.cxx#4 $)

>  <Rbt.Library>
libRbt.so (2013.1, Build901 2013/11/27)

>  <Rbt.Parameter_File>
/export/apps/rDock/src/rDock_2013.1_src/data/scripts/dock_solv.prm

>  <Rbt.Receptor>
prm/pocket_docking_3.prm

>  <SCORE>
-13.9758

>  <SCORE.INTER>
-13.9758

>  <SCORE.INTER.CONST>
1

>  <SCORE.INTER.POLAR>
0

>  <SCORE.INTER.ROT>
0

>  <SCORE.INTER.SOLV>
5.3991

>  <SCORE.INTER.VDW>
-14.7169

>  <SCORE.INTER.norm>
-1.27053

>  <SCORE.INTRA>
0

>  <SCORE.INTRA.DIHEDRAL>
0

>  <SCORE.INTRA.DIHEDRAL.0>
0

>  <SCORE.INTRA.POLAR>
0

>  <SCORE.INTRA.POLAR.0>
0

>  <SCORE.INTRA.REPUL>
0

>  <SCORE.INTRA.REPUL.0>
0

>  <SCORE.INTRA.SOLV>
0

>  <SCORE.INTRA.SOLV.lig_0>
-29.307

>  <SCORE.INTRA.VDW>
0

>  <SCORE.INTRA.VDW.0>
0

>  <SCORE.INTRA.norm>
0

>  <SCORE.RESTR>
0

>  <SCORE.RESTR.CAVITY>
0

>  <SCORE.RESTR.norm>
0

>  <SCORE.SYSTEM>
0

>  <SCORE.SYSTEM.CONST>
0

>  <SCORE.SYSTEM.DIHEDRAL>
0

>  <SCORE.SYSTEM.SOLV>
0

>  <SCORE.SYSTEM.norm>
0

>  <SCORE.heavy>
11

>  <SCORE.norm>
-1.27053

>  <RMSD>
3.445

$$$$
ligand
 OpenBabel11021811503D
libRbt.so/2013.1/901 2013/11/27
 11 12  0  0  0  0  0  0  0  0999 V2000
    3.4491  -19.6868   25.2195 N   0  0  0  0  0  0  0  0  0  0  0  0
    3.2720  -20.4104   24.1000 C   0  0  0  0  0  0  0  0  0  0  0  0
    4.3346  -20.5526   23.1577 N   0  0  0  0  0  0  0  0  0  0  0  0
    2.1170  -21.0249   23.8273 N   0  0  0  0  0  0  0  0  0  0  0  0
    1.0432  -20.9262   24.6790 C   0  0  0  0  0  0  0  0  0  0  0  0
    1.1857  -20.1941   25.8377 C   0  0  0  0  0  0  0  0  0  0  0  0
    2.4348  -19.5652   26.1095 C   0  0  0  0  0  0  0  0  0  0  0  0
    2.5891  -18.8271   27.2617 O   0  0  0  0  0  0  0  0  0  0  0  0
   -0.0679  -20.2760   26.5233 C   0  0  0  0  0  0  0  0  0  0  0  0
   -0.9090  -21.0605   25.7218 C   0  0  0  0  0  0  0  0  0  0  0  0
   -0.2340  -21.4382   24.6288 N   0  0  0  0  0  0  0  0  0  0  0  0
  1  2  1  0  0  0  0
  1  7  1  0  0  0  0
  2  3  1  0  0  0  0
  2  4  2  0  0  0  0
  4  5  1  0  0  0  0
  5  6  2  0  0  0  0
  5 11  1  0  0  0  0
  6  7  1  0  0  0  0
  6  9  1  0  0  0  0
  7  8  2  0  0  0  0
  9 10  2  0  0  0  0
 10 11  1  0  0  0  0
M  END
>  <CHROM.1>
1.80721445,-20.33520915,25.19097576,-0.24747004,0.31871533,1.04240647

>  <Name>
ligand

>  <RI>
0

>  <Rbt.Current_Directory>
/home/itssahil/PROJECTS/Mol_Feturizer/New_Systems/rnas/4LVW

>  <Rbt.Executable>
rbdock ($Id: //depot/dev/client3/rdock/2013.1/src/exe/rbdock.cxx#4 $)

>  <Rbt.Library>
libRbt.so (2013.1, Build901 2013/11/27)

>  <Rbt.Parameter_File>
/export/apps/rDock/src/rDock_2013.1_src/data/scripts/dock_solv.prm

>  <Rbt.Receptor>
prm/pocket_docking_3.prm

>  <SCORE>
-13.9754

>  <SCORE.INTER>
-13.9754

>  <SCORE.INTER.CONST>
1

>  <SCORE.INTER.POLAR>
0

>  <SCORE.INTER.ROT>
0

>  <SCORE.INTER.SOLV>
5.3912

>  <SCORE.INTER.VDW>
-14.714

>  <SCORE.INTER.norm>
-1.27049

>  <SCORE.INTRA>
0

>  <SCORE.INTRA.DIHEDRAL>
0

>  <SCORE.INTRA.DIHEDRAL.0>
0

>  <SCORE.INTRA.POLAR>
0

>  <SCORE.INTRA.POLAR.0>
0

>  <SCORE.INTRA.REPUL>
0

>  <SCORE.INTRA.REPUL.0>
0

>  <SCORE.INTRA.SOLV>
0

>  <SCORE.INTRA.SOLV.lig_0>
-29.307

>  <SCORE.INTRA.VDW>
0

>  <SCORE.INTRA.VDW.0>
0

>  <SCORE.INTRA.norm>
0

>  <SCORE.RESTR>
0

>  <SCORE.RESTR.CAVITY>
0

>  <SCORE.RESTR.norm>
0

>  <SCORE.SYSTEM>
0

>  <SCORE.SYSTEM.CONST>
0

>  <SCORE.SYSTEM.DIHEDRAL>
0

>  <SCORE.SYSTEM.SOLV>
0

>  <SCORE.SYSTEM.norm>
0

>  <SCORE.heavy>
11

>  <SCORE.norm>
-1.27049

>  <RMSD>
3.445

$$$$
ligand
 OpenBabel11021811503D
libRbt.so/2013.1/901 2013/11/27
 11 12  0  0  0  0  0  0  0  0999 V2000
    3.4484  -19.6849   25.2081 N   0  0  0  0  0  0  0  0  0  0  0  0
    3.2692  -20.4110   24.0905 C   0  0  0  0  0  0  0  0  0  0  0  0
    4.3299  -20.5545   23.1461 N   0  0  0  0  0  0  0  0  0  0  0  0
    2.1141  -21.0267   23.8216 N   0  0  0  0  0  0  0  0  0  0  0  0
    1.0420  -20.9269   24.6755 C   0  0  0  0  0  0  0  0  0  0  0  0
    1.1867  -20.1923   25.8323 C   0  0  0  0  0  0  0  0  0  0  0  0
    2.4360  -19.5621   26.1000 C   0  0  0  0  0  0  0  0  0  0  0  0
    2.5924  -18.8215   27.2503 O   0  0  0  0  0  0  0  0  0  0  0  0
   -0.0654  -20.2736   26.5208 C   0  0  0  0  0  0  0  0  0  0  0  0
   -0.9077  -21.0602   25.7229 C   0  0  0  0  0  0  0  0  0  0  0  0
   -0.2350  -21.4398   24.6292 N   0  0  0  0  0  0  0  0  0  0  0  0
  1  2  1  0  0  0  0
  1  7  1  0  0  0  0
  2  3  1  0  0  0  0
  2  4  2  0  0  0  0
  4  5  1  0  0  0  0
  5  6  2  0  0  0  0
  5 11  1  0  0  0  0
  6  7  1  0  0  0  0
  6  9  1  0  0  0  0
  7  8  2  0  0  0  0
  9 10  2  0  0  0  0
 10 11  1  0  0  0  0
M  END
>  <CHROM.1>
1.80684815,-20.33439139,25.18452140,-0.24916515,0.32035319,1.04085759

>  <Name>
ligand

>  <RI>
0

>  <Rbt.Current_Directory>
/home/itssahil/PROJECTS/Mol_Feturizer/New_Systems/rnas/4LVW

>  <Rbt.Executable>
rbdock ($Id: //depot/dev/client3/rdock/2013.1/src/exe/rbdock.cxx#4 $)

>  <Rbt.Library>
libRbt.so (2013.1, Build901 2013/11/27)

>  <Rbt.Parameter_File>
/export/apps/rDock/src/rDock_2013.1_src/data/scripts/dock_solv.prm

>  <Rbt.Receptor>
prm/pocket_docking_4.prm

>  <SCORE>
-13.9686

>  <SCORE.INTER>
-13.9686

>  <SCORE.INTER.CONST>
1

>  <SCORE.INTER.POLAR>
0

>  <SCORE.INTER.ROT>
0

>  <SCORE.INTER.SOLV>
5.43343

>  <SCORE.INTER.VDW>
-14.7235

>  <SCORE.INTER.norm>
-1.26987

>  <SCORE.INTRA>
0

>  <SCORE.INTRA.DIHEDRAL>
0

>  <SCORE.INTRA.DIHEDRAL.0>
0

>  <SCORE.INTRA.POLAR>
0

>  <SCORE.INTRA.POLAR.0>
0

>  <SCORE.INTRA.REPUL>
0

>  <SCORE.INTRA.REPUL.0>
0

>  <SCORE.INTRA.SOLV>
0

>  <SCORE.INTRA.SOLV.lig_0>
-29.307

>  <SCORE.INTRA.VDW>
0

>  <SCORE.INTRA.VDW.0>
0

>  <SCORE.INTRA.norm>
0

>  <SCORE.RESTR>
0

>  <SCORE.RESTR.CAVITY>
0

>  <SCORE.RESTR.norm>
0

>  <SCORE.SYSTEM>
0

>  <SCORE.SYSTEM.CONST>
0

>  <SCORE.SYSTEM.DIHEDRAL>
0

>  <SCORE.SYSTEM.SOLV>
0

>  <SCORE.SYSTEM.norm>
0

>  <SCORE.heavy>
11

>  <SCORE.norm>
-1.26987

>  <RMSD>
3.445

$$$$
ligand
 OpenBabel11021811503D
libRbt.so/2013.1/901 2013/11/27
 11 12  0  0  0  0  0  0  0  0999 V2000
    3.4382  -19.6916   25.2254 N   0  0  0  0  0  0  0  0  0  0  0  0
    3.2613  -20.4084   24.1015 C   0  0  0  0  0  0  0  0  0  0  0  0
    4.3240  -20.5446   23.1584 N   0  0  0  0  0  0  0  0  0  0  0  0
    2.1064  -21.0213   23.8249 N   0  0  0  0  0  0  0  0  0  0  0  0
    1.0325  -20.9280   24.6772 C   0  0  0  0  0  0  0  0  0  0  0  0
    1.1748  -20.2030   25.8403 C   0  0  0  0  0  0  0  0  0  0  0  0
    2.4238  -19.5756   26.1160 C   0  0  0  0  0  0  0  0  0  0  0  0
    2.5778  -18.8444   27.2727 O   0  0  0  0  0  0  0  0  0  0  0  0
   -0.0789  -20.2893   26.5252 C   0  0  0  0  0  0  0  0  0  0  0  0
   -0.9198  -21.0690   25.7189 C   0  0  0  0  0  0  0  0  0  0  0  0
   -0.2446  -21.4399   24.6237 N   0  0  0  0  0  0  0  0  0  0  0  0
  1  2  1  0  0  0  0
  1  7  1  0  0  0  0
  2  3  1  0  0  0  0
  2  4  2  0  0  0  0
  4  5  1  0  0  0  0
  5  6  2  0  0  0  0
  5 11  1  0  0  0  0
  6  7  1  0  0  0  0
  6  9  1  0  0  0  0
  7  8  2  0  0  0  0
  9 10  2  0  0  0  0
 10 11  1  0  0  0  0
M  END
>  <CHROM.1>
1.79637904,-20.34006069,25.19276790,-0.24730334,0.31880168,1.04844490

>  <Name>
ligand

>  <RI>
0

>  <Rbt.Current_Directory>
/home/itssahil/PROJECTS/Mol_Feturizer/New_Systems/rnas/4LVW

>  <Rbt.Executable>
rbdock ($Id: //depot/dev/client3/rdock/2013.1/src/exe/rbdock.cxx#4 $)

>  <Rbt.Library>
libRbt.so (2013.1, Build901 2013/11/27)

>  <Rbt.Parameter_File>
/export/apps/rDock/src/rDock_2013.1_src/data/scripts/dock_solv.prm

>  <Rbt.Receptor>
prm/pocket_docking_4.prm

>  <SCORE>
-13.9381

>  <SCORE.INTER>
-13.9381

>  <SCORE.INTER.CONST>
1

>  <SCORE.INTER.POLAR>
0

>  <SCORE.INTER.ROT>
0

>  <SCORE.INTER.SOLV>
5.42041

>  <SCORE.INTER.VDW>
-14.6989

>  <SCORE.INTER.norm>
-1.2671

>  <SCORE.INTRA>
0

>  <SCORE.INTRA.DIHEDRAL>
0

>  <SCORE.INTRA.DIHEDRAL.0>
0

>  <SCORE.INTRA.POLAR>
0

>  <SCORE.INTRA.POLAR.0>
0

>  <SCORE.INTRA.REPUL>
0

>  <SCORE.INTRA.REPUL.0>
0

>  <SCORE.INTRA.SOLV>
0

>  <SCORE.INTRA.SOLV.lig_0>
-29.307

>  <SCORE.INTRA.VDW>
0

>  <SCORE.INTRA.VDW.0>
0

>  <SCORE.INTRA.norm>
0

>  <SCORE.RESTR>
0

>  <SCORE.RESTR.CAVITY>
0

>  <SCORE.RESTR.norm>
0

>  <SCORE.SYSTEM>
0

>  <SCORE.SYSTEM.CONST>
0

>  <SCORE.SYSTEM.DIHEDRAL>
0

>  <SCORE.SYSTEM.SOLV>
0

>  <SCORE.SYSTEM.norm>
0

>  <SCORE.heavy>
11

>  <SCORE.norm>
-1.2671

>  <RMSD>
3.445

$$$$
ligand
 OpenBabel11021811503D
libRbt.so/2013.1/901 2013/11/27
 11 12  0  0  0  0  0  0  0  0999 V2000
    3.4489  -19.6819   25.2088 N   0  0  0  0  0  0  0  0  0  0  0  0
    3.2686  -20.4030   24.0882 C   0  0  0  0  0  0  0  0  0  0  0  0
    4.3274  -20.5402   23.1408 N   0  0  0  0  0  0  0  0  0  0  0  0
    2.1138  -21.0194   23.8189 N   0  0  0  0  0  0  0  0  0  0  0  0
    1.0435  -20.9254   24.6756 C   0  0  0  0  0  0  0  0  0  0  0  0
    1.1894  -20.1960   25.8356 C   0  0  0  0  0  0  0  0  0  0  0  0
    2.4383  -19.5650   26.1035 C   0  0  0  0  0  0  0  0  0  0  0  0
    2.5959  -18.8295   27.2570 O   0  0  0  0  0  0  0  0  0  0  0  0
   -0.0610  -20.2827   26.5264 C   0  0  0  0  0  0  0  0  0  0  0  0
   -0.9037  -21.0671   25.7266 C   0  0  0  0  0  0  0  0  0  0  0  0
   -0.2327  -21.4403   24.6297 N   0  0  0  0  0  0  0  0  0  0  0  0
  1  2  1  0  0  0  0
  1  7  1  0  0  0  0
  2  3  1  0  0  0  0
  2  4  2  0  0  0  0
  4  5  1  0  0  0  0
  5  6  2  0  0  0  0
  5 11  1  0  0  0  0
  6  7  1  0  0  0  0
  6  9  1  0  0  0  0
  7  8  2  0  0  0  0
  9 10  2  0  0  0  0
 10 11  1  0  0  0  0
M  END
>  <CHROM.1>
1.80842455,-20.33403824,25.18577785,-0.25023626,0.32292858,1.04591173

>  <Name>
ligand

>  <RI>
0

>  <Rbt.Current_Directory>
/home/itssahil/PROJECTS/Mol_Feturizer/New_Systems/rnas/4LVW

>  <Rbt.Executable>
rbdock ($Id: //depot/dev/client3/rdock/2013.1/src/exe/rbdock.cxx#4 $)

>  <Rbt.Library>
libRbt.so (2013.1, Build901 2013/11/27)

>  <Rbt.Parameter_File>
/export/apps/rDock/src/rDock_2013.1_src/data/scripts/dock_solv.prm

>  <Rbt.Receptor>
prm/pocket_docking_4.prm

>  <SCORE>
-13.9747

>  <SCORE.INTER>
-13.9747

>  <SCORE.INTER.CONST>
1

>  <SCORE.INTER.POLAR>
0

>  <SCORE.INTER.ROT>
0

>  <SCORE.INTER.SOLV>
5.43378

>  <SCORE.INTER.VDW>
-14.7277

>  <SCORE.INTER.norm>
-1.27043

>  <SCORE.INTRA>
0

>  <SCORE.INTRA.DIHEDRAL>
0

>  <SCORE.INTRA.DIHEDRAL.0>
0

>  <SCORE.INTRA.POLAR>
0

>  <SCORE.INTRA.POLAR.0>
0

>  <SCORE.INTRA.REPUL>
0

>  <SCORE.INTRA.REPUL.0>
0

>  <SCORE.INTRA.SOLV>
0

>  <SCORE.INTRA.SOLV.lig_0>
-29.307

>  <SCORE.INTRA.VDW>
0

>  <SCORE.INTRA.VDW.0>
0

>  <SCORE.INTRA.norm>
0

>  <SCORE.RESTR>
0

>  <SCORE.RESTR.CAVITY>
0

>  <SCORE.RESTR.norm>
0

>  <SCORE.SYSTEM>
0

>  <SCORE.SYSTEM.CONST>
0

>  <SCORE.SYSTEM.DIHEDRAL>
0

>  <SCORE.SYSTEM.SOLV>
0

>  <SCORE.SYSTEM.norm>
0

>  <SCORE.heavy>
11

>  <SCORE.norm>
-1.27043

>  <RMSD>
3.445

$$$$
ligand
 OpenBabel11021811503D
libRbt.so/2013.1/901 2013/11/27
 11 12  0  0  0  0  0  0  0  0999 V2000
    3.4485  -19.6825   25.1911 N   0  0  0  0  0  0  0  0  0  0  0  0
    3.2616  -20.3998   24.0691 C   0  0  0  0  0  0  0  0  0  0  0  0
    4.3149  -20.5342   23.1153 N   0  0  0  0  0  0  0  0  0  0  0  0
    2.1051  -21.0148   23.8042 N   0  0  0  0  0  0  0  0  0  0  0  0
    1.0396  -20.9233   24.6673 C   0  0  0  0  0  0  0  0  0  0  0  0
    1.1924  -20.1979   25.8288 C   0  0  0  0  0  0  0  0  0  0  0  0
    2.4430  -19.5683   26.0919 C   0  0  0  0  0  0  0  0  0  0  0  0
    2.6075  -18.8368   27.2469 O   0  0  0  0  0  0  0  0  0  0  0  0
   -0.0541  -20.2864   26.5264 C   0  0  0  0  0  0  0  0  0  0  0  0
   -0.9017  -21.0677   25.7287 C   0  0  0  0  0  0  0  0  0  0  0  0
   -0.2371  -21.4374   24.6267 N   0  0  0  0  0  0  0  0  0  0  0  0
  1  2  1  0  0  0  0
  1  7  1  0  0  0  0
  2  3  1  0  0  0  0
  2  4  2  0  0  0  0
  4  5  1  0  0  0  0
  5  6  2  0  0  0  0
  5 11  1  0  0  0  0
  6  7  1  0  0  0  0
  6  9  1  0  0  0  0
  7  8  2  0  0  0  0
  9 10  2  0  0  0  0
 10 11  1  0  0  0  0
M  END
>  <CHROM.1>
1.80766545,-20.33392881,25.17507851,-0.25561523,0.32537620,1.05101580

>  <Name>
ligand

>  <RI>
0

>  <Rbt.Current_Directory>
/home/itssahil/PROJECTS/Mol_Feturizer/New_Systems/rnas/4LVW

>  <Rbt.Executable>
rbdock ($Id: //depot/dev/client3/rdock/2013.1/src/exe/rbdock.cxx#4 $)

>  <Rbt.Library>
libRbt.so (2013.1, Build901 2013/11/27)

>  <Rbt.Parameter_File>
/export/apps/rDock/src/rDock_2013.1_src/data/scripts/dock_solv.prm

>  <Rbt.Receptor>
prm/pocket_docking_4.prm

>  <SCORE>
-13.9676

>  <SCORE.INTER>
-13.9676

>  <SCORE.INTER.CONST>
1

>  <SCORE.INTER.POLAR>
0

>  <SCORE.INTER.ROT>
0

>  <SCORE.INTER.SOLV>
5.51699

>  <SCORE.INTER.VDW>
-14.7507

>  <SCORE.INTER.norm>
-1.26978

>  <SCORE.INTRA>
0

>  <SCORE.INTRA.DIHEDRAL>
0

>  <SCORE.INTRA.DIHEDRAL.0>
0

>  <SCORE.INTRA.POLAR>
0

>  <SCORE.INTRA.POLAR.0>
0

>  <SCORE.INTRA.REPUL>
0

>  <SCORE.INTRA.REPUL.0>
0

>  <SCORE.INTRA.SOLV>
0

>  <SCORE.INTRA.SOLV.lig_0>
-29.307

>  <SCORE.INTRA.VDW>
0

>  <SCORE.INTRA.VDW.0>
0

>  <SCORE.INTRA.norm>
0

>  <SCORE.RESTR>
0

>  <SCORE.RESTR.CAVITY>
0

>  <SCORE.RESTR.norm>
0

>  <SCORE.SYSTEM>
0

>  <SCORE.SYSTEM.CONST>
0

>  <SCORE.SYSTEM.DIHEDRAL>
0

>  <SCORE.SYSTEM.SOLV>
0

>  <SCORE.SYSTEM.norm>
0

>  <SCORE.heavy>
11

>  <SCORE.norm>
-1.26978

>  <RMSD>
3.445

$$$$
ligand
 OpenBabel11021811503D
libRbt.so/2013.1/901 2013/11/27
 11 12  0  0  0  0  0  0  0  0999 V2000
    3.4454  -19.6864   25.2048 N   0  0  0  0  0  0  0  0  0  0  0  0
    3.2626  -20.4031   24.0818 C   0  0  0  0  0  0  0  0  0  0  0  0
    4.3199  -20.5382   23.1325 N   0  0  0  0  0  0  0  0  0  0  0  0
    2.1066  -21.0170   23.8118 N   0  0  0  0  0  0  0  0  0  0  0  0
    1.0376  -20.9247   24.6703 C   0  0  0  0  0  0  0  0  0  0  0  0
    1.1861  -20.1998   25.8328 C   0  0  0  0  0  0  0  0  0  0  0  0
    2.4362  -19.5715   26.1013 C   0  0  0  0  0  0  0  0  0  0  0  0
    2.5963  -18.8405   27.2573 O   0  0  0  0  0  0  0  0  0  0  0  0
   -0.0635  -20.2874   26.5250 C   0  0  0  0  0  0  0  0  0  0  0  0
   -0.9084  -21.0676   25.7234 C   0  0  0  0  0  0  0  0  0  0  0  0
   -0.2394  -21.4377   24.6242 N   0  0  0  0  0  0  0  0  0  0  0  0
  1  2  1  0  0  0  0
  1  7  1  0  0  0  0
  2  3  1  0  0  0  0
  2  4  2  0  0  0  0
  4  5  1  0  0  0  0
  5  6  2  0  0  0  0
  5 11  1  0  0  0  0
  6  7  1  0  0  0  0
  6  9  1  0  0  0  0
  7  8  2  0  0  0  0
  9 10  2  0  0  0  0
 10 11  1  0  0  0  0
M  END
>  <CHROM.1>
1.80401055,-20.33626438,25.18159226,-0.25219213,0.32243417,1.05022246

>  <Name>
ligand

>  <RI>
0

>  <Rbt.Current_Directory>
/home/itssahil/PROJECTS/Mol_Feturizer/New_Systems/rnas/4LVW

>  <Rbt.Executable>
rbdock ($Id: //depot/dev/client3/rdock/2013.1/src/exe/rbdock.cxx#4 $)

>  <Rbt.Library>
libRbt.so (2013.1, Build901 2013/11/27)

>  <Rbt.Parameter_File>
/export/apps/rDock/src/rDock_2013.1_src/data/scripts/dock_solv.prm

>  <Rbt.Receptor>
prm/pocket_docking_4.prm

>  <SCORE>
-13.9472

>  <SCORE.INTER>
-13.9472

>  <SCORE.INTER.CONST>
1

>  <SCORE.INTER.POLAR>
0

>  <SCORE.INTER.ROT>
0

>  <SCORE.INTER.SOLV>
5.47289

>  <SCORE.INTER.VDW>
-14.7224

>  <SCORE.INTER.norm>
-1.26793

>  <SCORE.INTRA>
0

>  <SCORE.INTRA.DIHEDRAL>
0

>  <SCORE.INTRA.DIHEDRAL.0>
0

>  <SCORE.INTRA.POLAR>
0

>  <SCORE.INTRA.POLAR.0>
0

>  <SCORE.INTRA.REPUL>
0

>  <SCORE.INTRA.REPUL.0>
0

>  <SCORE.INTRA.SOLV>
0

>  <SCORE.INTRA.SOLV.lig_0>
-29.307

>  <SCORE.INTRA.VDW>
0

>  <SCORE.INTRA.VDW.0>
0

>  <SCORE.INTRA.norm>
0

>  <SCORE.RESTR>
0

>  <SCORE.RESTR.CAVITY>
0

>  <SCORE.RESTR.norm>
0

>  <SCORE.SYSTEM>
0

>  <SCORE.SYSTEM.CONST>
0

>  <SCORE.SYSTEM.DIHEDRAL>
0

>  <SCORE.SYSTEM.SOLV>
0

>  <SCORE.SYSTEM.norm>
0

>  <SCORE.heavy>
11

>  <SCORE.norm>
-1.26793

>  <RMSD>
3.445

$$$$
ligand
 OpenBabel11021811503D
libRbt.so/2013.1/901 2013/11/27
 11 12  0  0  0  0  0  0  0  0999 V2000
    3.4475  -19.6872   25.2126 N   0  0  0  0  0  0  0  0  0  0  0  0
    3.2699  -20.4140   24.0952 C   0  0  0  0  0  0  0  0  0  0  0  0
    4.3322  -20.5587   23.1528 N   0  0  0  0  0  0  0  0  0  0  0  0
    2.1149  -21.0293   23.8247 N   0  0  0  0  0  0  0  0  0  0  0  0
    1.0414  -20.9282   24.6767 C   0  0  0  0  0  0  0  0  0  0  0  0
    1.1844  -20.1928   25.8332 C   0  0  0  0  0  0  0  0  0  0  0  0
    2.4336  -19.5631   26.1026 C   0  0  0  0  0  0  0  0  0  0  0  0
    2.5883  -18.8217   27.2527 O   0  0  0  0  0  0  0  0  0  0  0  0
   -0.0689  -20.2730   26.5195 C   0  0  0  0  0  0  0  0  0  0  0  0
   -0.9103  -21.0598   25.7207 C   0  0  0  0  0  0  0  0  0  0  0  0
   -0.2358  -21.4405   24.6284 N   0  0  0  0  0  0  0  0  0  0  0  0
  1  2  1  0  0  0  0
  1  7  1  0  0  0  0
  2  3  1  0  0  0  0
  2  4  2  0  0  0  0
  4  5  1  0  0  0  0
  5  6  2  0  0  0  0
  5 11  1  0  0  0  0
  6  7  1  0  0  0  0
  6  9  1  0  0  0  0
  7  8  2  0  0  0  0
  9 10  2  0  0  0  0
 10 11  1  0  0  0  0
M  END
>  <CHROM.1>
1.80562233,-20.33576649,25.18658674,-0.24782051,0.31900243,1.03968464

>  <Name>
ligand

>  <RI>
0

>  <Rbt.Current_Directory>
/home/itssahil/PROJECTS/Mol_Feturizer/New_Systems/rnas/4LVW

>  <Rbt.Executable>
rbdock ($Id: //depot/dev/client3/rdock/2013.1/src/exe/rbdock.cxx#4 $)

>  <Rbt.Library>
libRbt.so (2013.1, Build901 2013/11/27)

>  <Rbt.Parameter_File>
/export/apps/rDock/src/rDock_2013.1_src/data/scripts/dock_solv.prm

>  <Rbt.Receptor>
prm/pocket_docking_4.prm

>  <SCORE>
-13.9686

>  <SCORE.INTER>
-13.9686

>  <SCORE.INTER.CONST>
1

>  <SCORE.INTER.POLAR>
0

>  <SCORE.INTER.ROT>
0

>  <SCORE.INTER.SOLV>
5.41684

>  <SCORE.INTER.VDW>
-14.718

>  <SCORE.INTER.norm>
-1.26987

>  <SCORE.INTRA>
0

>  <SCORE.INTRA.DIHEDRAL>
0

>  <SCORE.INTRA.DIHEDRAL.0>
0

>  <SCORE.INTRA.POLAR>
0

>  <SCORE.INTRA.POLAR.0>
0

>  <SCORE.INTRA.REPUL>
0

>  <SCORE.INTRA.REPUL.0>
0

>  <SCORE.INTRA.SOLV>
0

>  <SCORE.INTRA.SOLV.lig_0>
-29.307

>  <SCORE.INTRA.VDW>
0

>  <SCORE.INTRA.VDW.0>
0

>  <SCORE.INTRA.norm>
0

>  <SCORE.RESTR>
0

>  <SCORE.RESTR.CAVITY>
0

>  <SCORE.RESTR.norm>
0

>  <SCORE.SYSTEM>
0

>  <SCORE.SYSTEM.CONST>
0

>  <SCORE.SYSTEM.DIHEDRAL>
0

>  <SCORE.SYSTEM.SOLV>
0

>  <SCORE.SYSTEM.norm>
0

>  <SCORE.heavy>
11

>  <SCORE.norm>
-1.26987

>  <RMSD>
3.445

$$$$
ligand
 OpenBabel11021811503D
libRbt.so/2013.1/901 2013/11/27
 11 12  0  0  0  0  0  0  0  0999 V2000
    3.4492  -19.6813   25.2008 N   0  0  0  0  0  0  0  0  0  0  0  0
    3.2658  -20.4008   24.0797 C   0  0  0  0  0  0  0  0  0  0  0  0
    4.3221  -20.5366   23.1292 N   0  0  0  0  0  0  0  0  0  0  0  0
    2.1104  -21.0168   23.8125 N   0  0  0  0  0  0  0  0  0  0  0  0
    1.0423  -20.9241   24.6722 C   0  0  0  0  0  0  0  0  0  0  0  0
    1.1914  -20.1964   25.8328 C   0  0  0  0  0  0  0  0  0  0  0  0
    2.4410  -19.5657   26.0984 C   0  0  0  0  0  0  0  0  0  0  0  0
    2.6017  -18.8319   27.2525 O   0  0  0  0  0  0  0  0  0  0  0  0
   -0.0572  -20.2840   26.5269 C   0  0  0  0  0  0  0  0  0  0  0  0
   -0.9021  -21.0672   25.7282 C   0  0  0  0  0  0  0  0  0  0  0  0
   -0.2340  -21.4388   24.6289 N   0  0  0  0  0  0  0  0  0  0  0  0
  1  2  1  0  0  0  0
  1  7  1  0  0  0  0
  2  3  1  0  0  0  0
  2  4  2  0  0  0  0
  4  5  1  0  0  0  0
  5  6  2  0  0  0  0
  5 11  1  0  0  0  0
  6  7  1  0  0  0  0
  6  9  1  0  0  0  0
  7  8  2  0  0  0  0
  9 10  2  0  0  0  0
 10 11  1  0  0  0  0
M  END
>  <CHROM.1>
1.80863636,-20.33341747,25.18118646,-0.25267782,0.32424255,1.04814300

>  <Name>
ligand

>  <RI>
0

>  <Rbt.Current_Directory>
/home/itssahil/PROJECTS/Mol_Feturizer/New_Systems/rnas/4LVW

>  <Rbt.Executable>
rbdock ($Id: //depot/dev/client3/rdock/2013.1/src/exe/rbdock.cxx#4 $)

>  <Rbt.Library>
libRbt.so (2013.1, Build901 2013/11/27)

>  <Rbt.Parameter_File>
/export/apps/rDock/src/rDock_2013.1_src/data/scripts/dock_solv.prm

>  <Rbt.Receptor>
prm/pocket_docking_4.prm

>  <SCORE>
-13.9723

>  <SCORE.INTER>
-13.9723

>  <SCORE.INTER.CONST>
1

>  <SCORE.INTER.POLAR>
0

>  <SCORE.INTER.ROT>
0

>  <SCORE.INTER.SOLV>
5.46975

>  <SCORE.INTER.VDW>
-14.7381

>  <SCORE.INTER.norm>
-1.27021

>  <SCORE.INTRA>
0

>  <SCORE.INTRA.DIHEDRAL>
0

>  <SCORE.INTRA.DIHEDRAL.0>
0

>  <SCORE.INTRA.POLAR>
0

>  <SCORE.INTRA.POLAR.0>
0

>  <SCORE.INTRA.REPUL>
0

>  <SCORE.INTRA.REPUL.0>
0

>  <SCORE.INTRA.SOLV>
0

>  <SCORE.INTRA.SOLV.lig_0>
-29.307

>  <SCORE.INTRA.VDW>
0

>  <SCORE.INTRA.VDW.0>
0

>  <SCORE.INTRA.norm>
0

>  <SCORE.RESTR>
0

>  <SCORE.RESTR.CAVITY>
0

>  <SCORE.RESTR.norm>
0

>  <SCORE.SYSTEM>
0

>  <SCORE.SYSTEM.CONST>
0

>  <SCORE.SYSTEM.DIHEDRAL>
0

>  <SCORE.SYSTEM.SOLV>
0

>  <SCORE.SYSTEM.norm>
0

>  <SCORE.heavy>
11

>  <SCORE.norm>
-1.27021

>  <RMSD>
3.445

$$$$
ligand
 OpenBabel11021811503D
libRbt.so/2013.1/901 2013/11/27
 11 12  0  0  0  0  0  0  0  0999 V2000
    3.4485  -19.6864   25.2106 N   0  0  0  0  0  0  0  0  0  0  0  0
    3.2687  -20.4086   24.0906 C   0  0  0  0  0  0  0  0  0  0  0  0
    4.3288  -20.5486   23.1450 N   0  0  0  0  0  0  0  0  0  0  0  0
    2.1134  -21.0234   23.8203 N   0  0  0  0  0  0  0  0  0  0  0  0
    1.0419  -20.9267   24.6752 C   0  0  0  0  0  0  0  0  0  0  0  0
    1.1872  -20.1961   25.8345 C   0  0  0  0  0  0  0  0  0  0  0  0
    2.4367  -19.5667   26.1036 C   0  0  0  0  0  0  0  0  0  0  0  0
    2.5937  -18.8301   27.2564 O   0  0  0  0  0  0  0  0  0  0  0  0
   -0.0644  -20.2799   26.5235 C   0  0  0  0  0  0  0  0  0  0  0  0
   -0.9072  -21.0639   25.7233 C   0  0  0  0  0  0  0  0  0  0  0  0
   -0.2351  -21.4395   24.6279 N   0  0  0  0  0  0  0  0  0  0  0  0
  1  2  1  0  0  0  0
  1  7  1  0  0  0  0
  2  3  1  0  0  0  0
  2  4  2  0  0  0  0
  4  5  1  0  0  0  0
  5  6  2  0  0  0  0
  5 11  1  0  0  0  0
  6  7  1  0  0  0  0
  6  9  1  0  0  0  0
  7  8  2  0  0  0  0
  9 10  2  0  0  0  0
 10 11  1  0  0  0  0
M  END
>  <CHROM.1>
1.80700276,-20.33588947,25.18580656,-0.24967325,0.32074886,1.04449129

>  <Name>
ligand

>  <RI>
0

>  <Rbt.Current_Directory>
/home/itssahil/PROJECTS/Mol_Feturizer/New_Systems/rnas/4LVW

>  <Rbt.Executable>
rbdock ($Id: //depot/dev/client3/rdock/2013.1/src/exe/rbdock.cxx#4 $)

>  <Rbt.Library>
libRbt.so (2013.1, Build901 2013/11/27)

>  <Rbt.Parameter_File>
/export/apps/rDock/src/rDock_2013.1_src/data/scripts/dock_solv.prm

>  <Rbt.Receptor>
prm/pocket_docking_4.prm

>  <SCORE>
-13.9743

>  <SCORE.INTER>
-13.9743

>  <SCORE.INTER.CONST>
1

>  <SCORE.INTER.POLAR>
0

>  <SCORE.INTER.ROT>
0

>  <SCORE.INTER.SOLV>
5.42832

>  <SCORE.INTER.VDW>
-14.7257

>  <SCORE.INTER.norm>
-1.27039

>  <SCORE.INTRA>
0

>  <SCORE.INTRA.DIHEDRAL>
0

>  <SCORE.INTRA.DIHEDRAL.0>
0

>  <SCORE.INTRA.POLAR>
0

>  <SCORE.INTRA.POLAR.0>
0

>  <SCORE.INTRA.REPUL>
0

>  <SCORE.INTRA.REPUL.0>
0

>  <SCORE.INTRA.SOLV>
0

>  <SCORE.INTRA.SOLV.lig_0>
-29.307

>  <SCORE.INTRA.VDW>
0

>  <SCORE.INTRA.VDW.0>
0

>  <SCORE.INTRA.norm>
0

>  <SCORE.RESTR>
0

>  <SCORE.RESTR.CAVITY>
0

>  <SCORE.RESTR.norm>
0

>  <SCORE.SYSTEM>
0

>  <SCORE.SYSTEM.CONST>
0

>  <SCORE.SYSTEM.DIHEDRAL>
0

>  <SCORE.SYSTEM.SOLV>
0

>  <SCORE.SYSTEM.norm>
0

>  <SCORE.heavy>
11

>  <SCORE.norm>
-1.27039

>  <RMSD>
3.445

$$$$
ligand
 OpenBabel11021811503D
libRbt.so/2013.1/901 2013/11/27
 11 12  0  0  0  0  0  0  0  0999 V2000
    3.4486  -19.6823   25.2115 N   0  0  0  0  0  0  0  0  0  0  0  0
    3.2693  -20.4041   24.0912 C   0  0  0  0  0  0  0  0  0  0  0  0
    4.3292  -20.5424   23.1452 N   0  0  0  0  0  0  0  0  0  0  0  0
    2.1147  -21.0202   23.8210 N   0  0  0  0  0  0  0  0  0  0  0  0
    1.0433  -20.9252   24.6764 C   0  0  0  0  0  0  0  0  0  0  0  0
    1.1882  -20.1950   25.8360 C   0  0  0  0  0  0  0  0  0  0  0  0
    2.4370  -19.5643   26.1050 C   0  0  0  0  0  0  0  0  0  0  0  0
    2.5935  -18.8281   27.2581 O   0  0  0  0  0  0  0  0  0  0  0  0
   -0.0631  -20.2807   26.5254 C   0  0  0  0  0  0  0  0  0  0  0  0
   -0.9052  -21.0653   25.7251 C   0  0  0  0  0  0  0  0  0  0  0  0
   -0.2330  -21.4395   24.6292 N   0  0  0  0  0  0  0  0  0  0  0  0
  1  2  1  0  0  0  0
  1  7  1  0  0  0  0
  2  3  1  0  0  0  0
  2  4  2  0  0  0  0
  4  5  1  0  0  0  0
  5  6  2  0  0  0  0
  5 11  1  0  0  0  0
  6  7  1  0  0  0  0
  6  9  1  0  0  0  0
  7  8  2  0  0  0  0
  9 10  2  0  0  0  0
 10 11  1  0  0  0  0
M  END
>  <CHROM.1>
1.80789291,-20.33374094,25.18699952,-0.24936791,0.32197274,1.04492891

>  <Name>
ligand

>  <RI>
0

>  <Rbt.Current_Directory>
/home/itssahil/PROJECTS/Mol_Feturizer/New_Systems/rnas/4LVW

>  <Rbt.Executable>
rbdock ($Id: //depot/dev/client3/rdock/2013.1/src/exe/rbdock.cxx#4 $)

>  <Rbt.Library>
libRbt.so (2013.1, Build901 2013/11/27)

>  <Rbt.Parameter_File>
/export/apps/rDock/src/rDock_2013.1_src/data/scripts/dock_solv.prm

>  <Rbt.Receptor>
prm/pocket_docking_4.prm

>  <SCORE>
-13.974

>  <SCORE.INTER>
-13.974

>  <SCORE.INTER.CONST>
1

>  <SCORE.INTER.POLAR>
0

>  <SCORE.INTER.ROT>
0

>  <SCORE.INTER.SOLV>
5.42271

>  <SCORE.INTER.VDW>
-14.7235

>  <SCORE.INTER.norm>
-1.27036

>  <SCORE.INTRA>
0

>  <SCORE.INTRA.DIHEDRAL>
0

>  <SCORE.INTRA.DIHEDRAL.0>
0

>  <SCORE.INTRA.POLAR>
0

>  <SCORE.INTRA.POLAR.0>
0

>  <SCORE.INTRA.REPUL>
0

>  <SCORE.INTRA.REPUL.0>
0

>  <SCORE.INTRA.SOLV>
0

>  <SCORE.INTRA.SOLV.lig_0>
-29.307

>  <SCORE.INTRA.VDW>
0

>  <SCORE.INTRA.VDW.0>
0

>  <SCORE.INTRA.norm>
0

>  <SCORE.RESTR>
0

>  <SCORE.RESTR.CAVITY>
0

>  <SCORE.RESTR.norm>
0

>  <SCORE.SYSTEM>
0

>  <SCORE.SYSTEM.CONST>
0

>  <SCORE.SYSTEM.DIHEDRAL>
0

>  <SCORE.SYSTEM.SOLV>
0

>  <SCORE.SYSTEM.norm>
0

>  <SCORE.heavy>
11

>  <SCORE.norm>
-1.27036

>  <RMSD>
3.445

$$$$
ligand
 OpenBabel11021811503D
libRbt.so/2013.1/901 2013/11/27
 11 12  0  0  0  0  0  0  0  0999 V2000
    3.4419  -19.6892   25.2163 N   0  0  0  0  0  0  0  0  0  0  0  0
    3.2642  -20.4138   24.0975 C   0  0  0  0  0  0  0  0  0  0  0  0
    4.3260  -20.5560   23.1542 N   0  0  0  0  0  0  0  0  0  0  0  0
    2.1093  -21.0291   23.8263 N   0  0  0  0  0  0  0  0  0  0  0  0
    1.0362  -20.9304   24.6790 C   0  0  0  0  0  0  0  0  0  0  0  0
    1.1794  -20.1973   25.8370 C   0  0  0  0  0  0  0  0  0  0  0  0
    2.4284  -19.5675   26.1071 C   0  0  0  0  0  0  0  0  0  0  0  0
    2.5833  -18.8284   27.2586 O   0  0  0  0  0  0  0  0  0  0  0  0
   -0.0735  -20.2795   26.5238 C   0  0  0  0  0  0  0  0  0  0  0  0
   -0.9149  -21.0651   25.7238 C   0  0  0  0  0  0  0  0  0  0  0  0
   -0.2407  -21.4432   24.6304 N   0  0  0  0  0  0  0  0  0  0  0  0
  1  2  1  0  0  0  0
  1  7  1  0  0  0  0
  2  3  1  0  0  0  0
  2  4  2  0  0  0  0
  4  5  1  0  0  0  0
  5  6  2  0  0  0  0
  5 11  1  0  0  0  0
  6  7  1  0  0  0  0
  6  9  1  0  0  0  0
  7  8  2  0  0  0  0
  9 10  2  0  0  0  0
 10 11  1  0  0  0  0
M  END
>  <CHROM.1>
1.80038092,-20.33859190,25.18978211,-0.24800442,0.31971474,1.04180498

>  <Name>
ligand

>  <RI>
0

>  <Rbt.Current_Directory>
/home/itssahil/PROJECTS/Mol_Feturizer/New_Systems/rnas/4LVW

>  <Rbt.Executable>
rbdock ($Id: //depot/dev/client3/rdock/2013.1/src/exe/rbdock.cxx#4 $)

>  <Rbt.Library>
libRbt.so (2013.1, Build901 2013/11/27)

>  <Rbt.Parameter_File>
/export/apps/rDock/src/rDock_2013.1_src/data/scripts/dock_solv.prm

>  <Rbt.Receptor>
prm/pocket_docking_4.prm

>  <SCORE>
-13.9625

>  <SCORE.INTER>
-13.9625

>  <SCORE.INTER.CONST>
1

>  <SCORE.INTER.POLAR>
0

>  <SCORE.INTER.ROT>
0

>  <SCORE.INTER.SOLV>
5.43477

>  <SCORE.INTER.VDW>
-14.7199

>  <SCORE.INTER.norm>
-1.26932

>  <SCORE.INTRA>
0

>  <SCORE.INTRA.DIHEDRAL>
0

>  <SCORE.INTRA.DIHEDRAL.0>
0

>  <SCORE.INTRA.POLAR>
0

>  <SCORE.INTRA.POLAR.0>
0

>  <SCORE.INTRA.REPUL>
0

>  <SCORE.INTRA.REPUL.0>
0

>  <SCORE.INTRA.SOLV>
0

>  <SCORE.INTRA.SOLV.lig_0>
-29.307

>  <SCORE.INTRA.VDW>
0

>  <SCORE.INTRA.VDW.0>
0

>  <SCORE.INTRA.norm>
0

>  <SCORE.RESTR>
0

>  <SCORE.RESTR.CAVITY>
0

>  <SCORE.RESTR.norm>
0

>  <SCORE.SYSTEM>
0

>  <SCORE.SYSTEM.CONST>
0

>  <SCORE.SYSTEM.DIHEDRAL>
0

>  <SCORE.SYSTEM.SOLV>
0

>  <SCORE.SYSTEM.norm>
0

>  <SCORE.heavy>
11

>  <SCORE.norm>
-1.26932

>  <RMSD>
3.445

$$$$
ligand
 OpenBabel11021811503D
libRbt.so/2013.1/901 2013/11/27
 11 12  0  0  0  0  0  0  0  0999 V2000
    3.4484  -19.6870   25.2154 N   0  0  0  0  0  0  0  0  0  0  0  0
    3.2704  -20.4113   24.0964 C   0  0  0  0  0  0  0  0  0  0  0  0
    4.3320  -20.5533   23.1529 N   0  0  0  0  0  0  0  0  0  0  0  0
    2.1154  -21.0264   23.8252 N   0  0  0  0  0  0  0  0  0  0  0  0
    1.0425  -20.9278   24.6782 C   0  0  0  0  0  0  0  0  0  0  0  0
    1.1859  -20.1952   25.8364 C   0  0  0  0  0  0  0  0  0  0  0  0
    2.4351  -19.5656   26.1064 C   0  0  0  0  0  0  0  0  0  0  0  0
    2.5903  -18.8268   27.2581 O   0  0  0  0  0  0  0  0  0  0  0  0
   -0.0668  -20.2775   26.5234 C   0  0  0  0  0  0  0  0  0  0  0  0
   -0.9084  -21.0627   25.7233 C   0  0  0  0  0  0  0  0  0  0  0  0
   -0.2345  -21.4405   24.6296 N   0  0  0  0  0  0  0  0  0  0  0  0
  1  2  1  0  0  0  0
  1  7  1  0  0  0  0
  2  3  1  0  0  0  0
  2  4  2  0  0  0  0
  4  5  1  0  0  0  0
  5  6  2  0  0  0  0
  5 11  1  0  0  0  0
  6  7  1  0  0  0  0
  6  9  1  0  0  0  0
  7  8  2  0  0  0  0
  9 10  2  0  0  0  0
 10 11  1  0  0  0  0
M  END
>  <CHROM.1>
1.80679933,-20.33627857,25.18899570,-0.24823936,0.31971772,1.04221058

>  <Name>
ligand

>  <RI>
0

>  <Rbt.Current_Directory>
/home/itssahil/PROJECTS/Mol_Feturizer/New_Systems/rnas/4LVW

>  <Rbt.Executable>
rbdock ($Id: //depot/dev/client3/rdock/2013.1/src/exe/rbdock.cxx#4 $)

>  <Rbt.Library>
libRbt.so (2013.1, Build901 2013/11/27)

>  <Rbt.Parameter_File>
/export/apps/rDock/src/rDock_2013.1_src/data/scripts/dock_solv.prm

>  <Rbt.Receptor>
prm/pocket_docking_4.prm

>  <SCORE>
-13.9749

>  <SCORE.INTER>
-13.9749

>  <SCORE.INTER.CONST>
1

>  <SCORE.INTER.POLAR>
0

>  <SCORE.INTER.ROT>
0

>  <SCORE.INTER.SOLV>
5.4078

>  <SCORE.INTER.VDW>
-14.7192

>  <SCORE.INTER.norm>
-1.27044

>  <SCORE.INTRA>
0

>  <SCORE.INTRA.DIHEDRAL>
0

>  <SCORE.INTRA.DIHEDRAL.0>
0

>  <SCORE.INTRA.POLAR>
0

>  <SCORE.INTRA.POLAR.0>
0

>  <SCORE.INTRA.REPUL>
0

>  <SCORE.INTRA.REPUL.0>
0

>  <SCORE.INTRA.SOLV>
0

>  <SCORE.INTRA.SOLV.lig_0>
-29.307

>  <SCORE.INTRA.VDW>
0

>  <SCORE.INTRA.VDW.0>
0

>  <SCORE.INTRA.norm>
0

>  <SCORE.RESTR>
0

>  <SCORE.RESTR.CAVITY>
0

>  <SCORE.RESTR.norm>
0

>  <SCORE.SYSTEM>
0

>  <SCORE.SYSTEM.CONST>
0

>  <SCORE.SYSTEM.DIHEDRAL>
0

>  <SCORE.SYSTEM.SOLV>
0

>  <SCORE.SYSTEM.norm>
0

>  <SCORE.heavy>
11

>  <SCORE.norm>
-1.27044

>  <RMSD>
3.445

$$$$
ligand
 OpenBabel11021811503D
libRbt.so/2013.1/901 2013/11/27
 11 12  0  0  0  0  0  0  0  0999 V2000
    3.4484  -19.6871   25.2183 N   0  0  0  0  0  0  0  0  0  0  0  0
    3.2713  -20.4110   24.0990 C   0  0  0  0  0  0  0  0  0  0  0  0
    4.3338  -20.5530   23.1565 N   0  0  0  0  0  0  0  0  0  0  0  0
    2.1165  -21.0257   23.8265 N   0  0  0  0  0  0  0  0  0  0  0  0
    1.0427  -20.9271   24.6784 C   0  0  0  0  0  0  0  0  0  0  0  0
    1.1852  -20.1947   25.8369 C   0  0  0  0  0  0  0  0  0  0  0  0
    2.4342  -19.5655   26.1084 C   0  0  0  0  0  0  0  0  0  0  0  0
    2.5884  -18.8271   27.2604 O   0  0  0  0  0  0  0  0  0  0  0  0
   -0.0683  -20.2769   26.5226 C   0  0  0  0  0  0  0  0  0  0  0  0
   -0.9093  -21.0617   25.7215 C   0  0  0  0  0  0  0  0  0  0  0  0
   -0.2344  -21.4394   24.6284 N   0  0  0  0  0  0  0  0  0  0  0  0
  1  2  1  0  0  0  0
  1  7  1  0  0  0  0
  2  3  1  0  0  0  0
  2  4  2  0  0  0  0
  4  5  1  0  0  0  0
  5  6  2  0  0  0  0
  5 11  1  0  0  0  0
  6  7  1  0  0  0  0
  6  9  1  0  0  0  0
  7  8  2  0  0  0  0
  9 10  2  0  0  0  0
 10 11  1  0  0  0  0
M  END
>  <CHROM.1>
1.80664871,-20.33585740,25.19011852,-0.24745574,0.31898493,1.04218817

>  <Name>
ligand

>  <RI>
0

>  <Rbt.Current_Directory>
/home/itssahil/PROJECTS/Mol_Feturizer/New_Systems/rnas/4LVW

>  <Rbt.Executable>
rbdock ($Id: //depot/dev/client3/rdock/2013.1/src/exe/rbdock.cxx#4 $)

>  <Rbt.Library>
libRbt.so (2013.1, Build901 2013/11/27)

>  <Rbt.Parameter_File>
/export/apps/rDock/src/rDock_2013.1_src/data/scripts/dock_solv.prm

>  <Rbt.Receptor>
prm/pocket_docking_5.prm

>  <SCORE>
-13.9748

>  <SCORE.INTER>
-13.9748

>  <SCORE.INTER.CONST>
1

>  <SCORE.INTER.POLAR>
0

>  <SCORE.INTER.ROT>
0

>  <SCORE.INTER.SOLV>
5.39535

>  <SCORE.INTER.VDW>
-14.715

>  <SCORE.INTER.norm>
-1.27044

>  <SCORE.INTRA>
0

>  <SCORE.INTRA.DIHEDRAL>
0

>  <SCORE.INTRA.DIHEDRAL.0>
0

>  <SCORE.INTRA.POLAR>
0

>  <SCORE.INTRA.POLAR.0>
0

>  <SCORE.INTRA.REPUL>
0

>  <SCORE.INTRA.REPUL.0>
0

>  <SCORE.INTRA.SOLV>
0

>  <SCORE.INTRA.SOLV.lig_0>
-29.307

>  <SCORE.INTRA.VDW>
0

>  <SCORE.INTRA.VDW.0>
0

>  <SCORE.INTRA.norm>
0

>  <SCORE.RESTR>
0

>  <SCORE.RESTR.CAVITY>
0

>  <SCORE.RESTR.norm>
0

>  <SCORE.SYSTEM>
0

>  <SCORE.SYSTEM.CONST>
0

>  <SCORE.SYSTEM.DIHEDRAL>
0

>  <SCORE.SYSTEM.SOLV>
0

>  <SCORE.SYSTEM.norm>
0

>  <SCORE.heavy>
11

>  <SCORE.norm>
-1.27044

>  <RMSD>
3.445

$$$$
ligand
 OpenBabel11021811503D
libRbt.so/2013.1/901 2013/11/27
 11 12  0  0  0  0  0  0  0  0999 V2000
    3.4463  -19.6875   25.2122 N   0  0  0  0  0  0  0  0  0  0  0  0
    3.2688  -20.4155   24.0956 C   0  0  0  0  0  0  0  0  0  0  0  0
    4.3315  -20.5619   23.1539 N   0  0  0  0  0  0  0  0  0  0  0  0
    2.1136  -21.0303   23.8252 N   0  0  0  0  0  0  0  0  0  0  0  0
    1.0397  -20.9277   24.6765 C   0  0  0  0  0  0  0  0  0  0  0  0
    1.1825  -20.1910   25.8322 C   0  0  0  0  0  0  0  0  0  0  0  0
    2.4320  -19.5618   26.1016 C   0  0  0  0  0  0  0  0  0  0  0  0
    2.5866  -18.8191   27.2509 O   0  0  0  0  0  0  0  0  0  0  0  0
   -0.0712  -20.2696   26.5180 C   0  0  0  0  0  0  0  0  0  0  0  0
   -0.9126  -21.0568   25.7196 C   0  0  0  0  0  0  0  0  0  0  0  0
   -0.2378  -21.4392   24.6282 N   0  0  0  0  0  0  0  0  0  0  0  0
  1  2  1  0  0  0  0
  1  7  1  0  0  0  0
  2  3  1  0  0  0  0
  2  4  2  0  0  0  0
  4  5  1  0  0  0  0
  5  6  2  0  0  0  0
  5 11  1  0  0  0  0
  6  7  1  0  0  0  0
  6  9  1  0  0  0  0
  7  8  2  0  0  0  0
  9 10  2  0  0  0  0
 10 11  1  0  0  0  0
M  END
>  <CHROM.1>
1.80401607,-20.33507497,25.18613562,-0.24768332,0.31819449,1.03848139

>  <Name>
ligand

>  <RI>
0

>  <Rbt.Current_Directory>
/home/itssahil/PROJECTS/Mol_Feturizer/New_Systems/rnas/4LVW

>  <Rbt.Executable>
rbdock ($Id: //depot/dev/client3/rdock/2013.1/src/exe/rbdock.cxx#4 $)

>  <Rbt.Library>
libRbt.so (2013.1, Build901 2013/11/27)

>  <Rbt.Parameter_File>
/export/apps/rDock/src/rDock_2013.1_src/data/scripts/dock_solv.prm

>  <Rbt.Receptor>
prm/pocket_docking_5.prm

>  <SCORE>
-13.9629

>  <SCORE.INTER>
-13.9629

>  <SCORE.INTER.CONST>
1

>  <SCORE.INTER.POLAR>
0

>  <SCORE.INTER.ROT>
0

>  <SCORE.INTER.SOLV>
5.42404

>  <SCORE.INTER.VDW>
-14.7166

>  <SCORE.INTER.norm>
-1.26936

>  <SCORE.INTRA>
0

>  <SCORE.INTRA.DIHEDRAL>
0

>  <SCORE.INTRA.DIHEDRAL.0>
0

>  <SCORE.INTRA.POLAR>
0

>  <SCORE.INTRA.POLAR.0>
0

>  <SCORE.INTRA.REPUL>
0

>  <SCORE.INTRA.REPUL.0>
0

>  <SCORE.INTRA.SOLV>
0

>  <SCORE.INTRA.SOLV.lig_0>
-29.307

>  <SCORE.INTRA.VDW>
0

>  <SCORE.INTRA.VDW.0>
0

>  <SCORE.INTRA.norm>
0

>  <SCORE.RESTR>
0

>  <SCORE.RESTR.CAVITY>
0

>  <SCORE.RESTR.norm>
0

>  <SCORE.SYSTEM>
0

>  <SCORE.SYSTEM.CONST>
0

>  <SCORE.SYSTEM.DIHEDRAL>
0

>  <SCORE.SYSTEM.SOLV>
0

>  <SCORE.SYSTEM.norm>
0

>  <SCORE.heavy>
11

>  <SCORE.norm>
-1.26936

>  <RMSD>
3.445

$$$$
ligand
 OpenBabel11021811503D
libRbt.so/2013.1/901 2013/11/27
 11 12  0  0  0  0  0  0  0  0999 V2000
    3.4481  -19.6882   25.2228 N   0  0  0  0  0  0  0  0  0  0  0  0
    3.2718  -20.4119   24.1033 C   0  0  0  0  0  0  0  0  0  0  0  0
    4.3350  -20.5539   23.1616 N   0  0  0  0  0  0  0  0  0  0  0  0
    2.1171  -21.0265   23.8298 N   0  0  0  0  0  0  0  0  0  0  0  0
    1.0427  -20.9280   24.6809 C   0  0  0  0  0  0  0  0  0  0  0  0
    1.1844  -20.1958   25.8397 C   0  0  0  0  0  0  0  0  0  0  0  0
    2.4333  -19.5667   26.1122 C   0  0  0  0  0  0  0  0  0  0  0  0
    2.5867  -18.8285   27.2645 O   0  0  0  0  0  0  0  0  0  0  0  0
   -0.0696  -20.2779   26.5245 C   0  0  0  0  0  0  0  0  0  0  0  0
   -0.9101  -21.0626   25.7226 C   0  0  0  0  0  0  0  0  0  0  0  0
   -0.2344  -21.4402   24.6300 N   0  0  0  0  0  0  0  0  0  0  0  0
  1  2  1  0  0  0  0
  1  7  1  0  0  0  0
  2  3  1  0  0  0  0
  2  4  2  0  0  0  0
  4  5  1  0  0  0  0
  5  6  2  0  0  0  0
  5 11  1  0  0  0  0
  6  7  1  0  0  0  0
  6  9  1  0  0  0  0
  7  8  2  0  0  0  0
  9 10  2  0  0  0  0
 10 11  1  0  0  0  0
M  END
>  <CHROM.1>
1.80633051,-20.33685808,25.19333281,-0.24683478,0.31854131,1.04217195

>  <Name>
ligand

>  <RI>
0

>  <Rbt.Current_Directory>
/home/itssahil/PROJECTS/Mol_Feturizer/New_Systems/rnas/4LVW

>  <Rbt.Executable>
rbdock ($Id: //depot/dev/client3/rdock/2013.1/src/exe/rbdock.cxx#4 $)

>  <Rbt.Library>
libRbt.so (2013.1, Build901 2013/11/27)

>  <Rbt.Parameter_File>
/export/apps/rDock/src/rDock_2013.1_src/data/scripts/dock_solv.prm

>  <Rbt.Receptor>
prm/pocket_docking_5.prm

>  <SCORE>
-13.9538

>  <SCORE.INTER>
-13.9538

>  <SCORE.INTER.CONST>
1

>  <SCORE.INTER.POLAR>
0

>  <SCORE.INTER.ROT>
0

>  <SCORE.INTER.SOLV>
5.38627

>  <SCORE.INTER.VDW>
-14.6979

>  <SCORE.INTER.norm>
-1.26853

>  <SCORE.INTRA>
0

>  <SCORE.INTRA.DIHEDRAL>
0

>  <SCORE.INTRA.DIHEDRAL.0>
0

>  <SCORE.INTRA.POLAR>
0

>  <SCORE.INTRA.POLAR.0>
0

>  <SCORE.INTRA.REPUL>
0

>  <SCORE.INTRA.REPUL.0>
0

>  <SCORE.INTRA.SOLV>
0

>  <SCORE.INTRA.SOLV.lig_0>
-29.307

>  <SCORE.INTRA.VDW>
0

>  <SCORE.INTRA.VDW.0>
0

>  <SCORE.INTRA.norm>
0

>  <SCORE.RESTR>
0

>  <SCORE.RESTR.CAVITY>
0

>  <SCORE.RESTR.norm>
0

>  <SCORE.SYSTEM>
0

>  <SCORE.SYSTEM.CONST>
0

>  <SCORE.SYSTEM.DIHEDRAL>
0

>  <SCORE.SYSTEM.SOLV>
0

>  <SCORE.SYSTEM.norm>
0

>  <SCORE.heavy>
11

>  <SCORE.norm>
-1.26853

>  <RMSD>
3.445

$$$$
ligand
 OpenBabel11021811503D
libRbt.so/2013.1/901 2013/11/27
 11 12  0  0  0  0  0  0  0  0999 V2000
    3.4490  -19.6859   25.2141 N   0  0  0  0  0  0  0  0  0  0  0  0
    3.2704  -20.4096   24.0949 C   0  0  0  0  0  0  0  0  0  0  0  0
    4.3314  -20.5508   23.1505 N   0  0  0  0  0  0  0  0  0  0  0  0
    2.1155  -21.0249   23.8242 N   0  0  0  0  0  0  0  0  0  0  0  0
    1.0431  -20.9272   24.6779 C   0  0  0  0  0  0  0  0  0  0  0  0
    1.1871  -20.1950   25.8364 C   0  0  0  0  0  0  0  0  0  0  0  0
    2.4363  -19.5652   26.1059 C   0  0  0  0  0  0  0  0  0  0  0  0
    2.5921  -18.8270   27.2579 O   0  0  0  0  0  0  0  0  0  0  0  0
   -0.0651  -20.2781   26.5242 C   0  0  0  0  0  0  0  0  0  0  0  0
   -0.9070  -21.0632   25.7243 C   0  0  0  0  0  0  0  0  0  0  0  0
   -0.2338  -21.4402   24.6300 N   0  0  0  0  0  0  0  0  0  0  0  0
  1  2  1  0  0  0  0
  1  7  1  0  0  0  0
  2  3  1  0  0  0  0
  2  4  2  0  0  0  0
  4  5  1  0  0  0  0
  5  6  2  0  0  0  0
  5 11  1  0  0  0  0
  6  7  1  0  0  0  0
  6  9  1  0  0  0  0
  7  8  2  0  0  0  0
  9 10  2  0  0  0  0
 10 11  1  0  0  0  0
M  END
>  <CHROM.1>
1.80760459,-20.33562726,25.18850216,-0.24871896,0.32033197,1.04288610

>  <Name>
ligand

>  <RI>
0

>  <Rbt.Current_Directory>
/home/itssahil/PROJECTS/Mol_Feturizer/New_Systems/rnas/4LVW

>  <Rbt.Executable>
rbdock ($Id: //depot/dev/client3/rdock/2013.1/src/exe/rbdock.cxx#4 $)

>  <Rbt.Library>
libRbt.so (2013.1, Build901 2013/11/27)

>  <Rbt.Parameter_File>
/export/apps/rDock/src/rDock_2013.1_src/data/scripts/dock_solv.prm

>  <Rbt.Receptor>
prm/pocket_docking_5.prm

>  <SCORE>
-13.9758

>  <SCORE.INTER>
-13.9758

>  <SCORE.INTER.CONST>
1

>  <SCORE.INTER.POLAR>
0

>  <SCORE.INTER.ROT>
0

>  <SCORE.INTER.SOLV>
5.4114

>  <SCORE.INTER.VDW>
-14.721

>  <SCORE.INTER.norm>
-1.27052

>  <SCORE.INTRA>
0

>  <SCORE.INTRA.DIHEDRAL>
0

>  <SCORE.INTRA.DIHEDRAL.0>
0

>  <SCORE.INTRA.POLAR>
0

>  <SCORE.INTRA.POLAR.0>
0

>  <SCORE.INTRA.REPUL>
0

>  <SCORE.INTRA.REPUL.0>
0

>  <SCORE.INTRA.SOLV>
0

>  <SCORE.INTRA.SOLV.lig_0>
-29.307

>  <SCORE.INTRA.VDW>
0

>  <SCORE.INTRA.VDW.0>
0

>  <SCORE.INTRA.norm>
0

>  <SCORE.RESTR>
0

>  <SCORE.RESTR.CAVITY>
0

>  <SCORE.RESTR.norm>
0

>  <SCORE.SYSTEM>
0

>  <SCORE.SYSTEM.CONST>
0

>  <SCORE.SYSTEM.DIHEDRAL>
0

>  <SCORE.SYSTEM.SOLV>
0

>  <SCORE.SYSTEM.norm>
0

>  <SCORE.heavy>
11

>  <SCORE.norm>
-1.27052

>  <RMSD>
3.445

$$$$
ligand
 OpenBabel11021811503D
libRbt.so/2013.1/901 2013/11/27
 11 12  0  0  0  0  0  0  0  0999 V2000
    3.4460  -19.6836   25.2113 N   0  0  0  0  0  0  0  0  0  0  0  0
    3.2674  -20.4067   24.0917 C   0  0  0  0  0  0  0  0  0  0  0  0
    4.3279  -20.5463   23.1466 N   0  0  0  0  0  0  0  0  0  0  0  0
    2.1128  -21.0229   23.8213 N   0  0  0  0  0  0  0  0  0  0  0  0
    1.0408  -20.9266   24.6757 C   0  0  0  0  0  0  0  0  0  0  0  0
    1.1849  -20.1951   25.8346 C   0  0  0  0  0  0  0  0  0  0  0  0
    2.4337  -19.5644   26.1038 C   0  0  0  0  0  0  0  0  0  0  0  0
    2.5895  -18.8268   27.2562 O   0  0  0  0  0  0  0  0  0  0  0  0
   -0.0669  -20.2797   26.5231 C   0  0  0  0  0  0  0  0  0  0  0  0
   -0.9086  -21.0650   25.7231 C   0  0  0  0  0  0  0  0  0  0  0  0
   -0.2356  -21.4407   24.6282 N   0  0  0  0  0  0  0  0  0  0  0  0
  1  2  1  0  0  0  0
  1  7  1  0  0  0  0
  2  3  1  0  0  0  0
  2  4  2  0  0  0  0
  4  5  1  0  0  0  0
  5  6  2  0  0  0  0
  5 11  1  0  0  0  0
  6  7  1  0  0  0  0
  6  9  1  0  0  0  0
  7  8  2  0  0  0  0
  9 10  2  0  0  0  0
 10 11  1  0  0  0  0
M  END
>  <CHROM.1>
1.80511966,-20.33475059,25.18624661,-0.24878577,0.32138228,1.04357563

>  <Name>
ligand

>  <RI>
0

>  <Rbt.Current_Directory>
/home/itssahil/PROJECTS/Mol_Feturizer/New_Systems/rnas/4LVW

>  <Rbt.Executable>
rbdock ($Id: //depot/dev/client3/rdock/2013.1/src/exe/rbdock.cxx#4 $)

>  <Rbt.Library>
libRbt.so (2013.1, Build901 2013/11/27)

>  <Rbt.Parameter_File>
/export/apps/rDock/src/rDock_2013.1_src/data/scripts/dock_solv.prm

>  <Rbt.Receptor>
prm/pocket_docking_5.prm

>  <SCORE>
-13.9681

>  <SCORE.INTER>
-13.9681

>  <SCORE.INTER.CONST>
1

>  <SCORE.INTER.POLAR>
0

>  <SCORE.INTER.ROT>
0

>  <SCORE.INTER.SOLV>
5.43143

>  <SCORE.INTER.VDW>
-14.7225

>  <SCORE.INTER.norm>
-1.26982

>  <SCORE.INTRA>
0

>  <SCORE.INTRA.DIHEDRAL>
0

>  <SCORE.INTRA.DIHEDRAL.0>
0

>  <SCORE.INTRA.POLAR>
0

>  <SCORE.INTRA.POLAR.0>
0

>  <SCORE.INTRA.REPUL>
0

>  <SCORE.INTRA.REPUL.0>
0

>  <SCORE.INTRA.SOLV>
0

>  <SCORE.INTRA.SOLV.lig_0>
-29.307

>  <SCORE.INTRA.VDW>
0

>  <SCORE.INTRA.VDW.0>
0

>  <SCORE.INTRA.norm>
0

>  <SCORE.RESTR>
0

>  <SCORE.RESTR.CAVITY>
0

>  <SCORE.RESTR.norm>
0

>  <SCORE.SYSTEM>
0

>  <SCORE.SYSTEM.CONST>
0

>  <SCORE.SYSTEM.DIHEDRAL>
0

>  <SCORE.SYSTEM.SOLV>
0

>  <SCORE.SYSTEM.norm>
0

>  <SCORE.heavy>
11

>  <SCORE.norm>
-1.26982

>  <RMSD>
3.445

$$$$
ligand
 OpenBabel11021811503D
libRbt.so/2013.1/901 2013/11/27
 11 12  0  0  0  0  0  0  0  0999 V2000
    3.4343  -19.6782   25.2109 N   0  0  0  0  0  0  0  0  0  0  0  0
    3.2587  -20.3984   24.0889 C   0  0  0  0  0  0  0  0  0  0  0  0
    4.3213  -20.5344   23.1456 N   0  0  0  0  0  0  0  0  0  0  0  0
    2.1052  -21.0150   23.8145 N   0  0  0  0  0  0  0  0  0  0  0  0
    1.0315  -20.9222   24.6670 C   0  0  0  0  0  0  0  0  0  0  0  0
    1.1725  -20.1938   25.8282 C   0  0  0  0  0  0  0  0  0  0  0  0
    2.4200  -19.5625   26.1016 C   0  0  0  0  0  0  0  0  0  0  0  0
    2.5728  -18.8280   27.2564 O   0  0  0  0  0  0  0  0  0  0  0  0
   -0.0806  -20.2815   26.5139 C   0  0  0  0  0  0  0  0  0  0  0  0
   -0.9199  -21.0654   25.7101 C   0  0  0  0  0  0  0  0  0  0  0  0
   -0.2444  -21.4374   24.6155 N   0  0  0  0  0  0  0  0  0  0  0  0
  1  2  1  0  0  0  0
  1  7  1  0  0  0  0
  2  3  1  0  0  0  0
  2  4  2  0  0  0  0
  4  5  1  0  0  0  0
  5  6  2  0  0  0  0
  5 11  1  0  0  0  0
  6  7  1  0  0  0  0
  6  9  1  0  0  0  0
  7  8  2  0  0  0  0
  9 10  2  0  0  0  0
 10 11  1  0  0  0  0
M  END
>  <CHROM.1>
1.79412927,-20.33095744,25.18071803,-0.24640939,0.32124234,1.04557976

>  <Name>
ligand

>  <RI>
0

>  <Rbt.Current_Directory>
/home/itssahil/PROJECTS/Mol_Feturizer/New_Systems/rnas/4LVW

>  <Rbt.Executable>
rbdock ($Id: //depot/dev/client3/rdock/2013.1/src/exe/rbdock.cxx#4 $)

>  <Rbt.Library>
libRbt.so (2013.1, Build901 2013/11/27)

>  <Rbt.Parameter_File>
/export/apps/rDock/src/rDock_2013.1_src/data/scripts/dock_solv.prm

>  <Rbt.Receptor>
prm/pocket_docking_5.prm

>  <SCORE>
-13.9351

>  <SCORE.INTER>
-13.9351

>  <SCORE.INTER.CONST>
1

>  <SCORE.INTER.POLAR>
0

>  <SCORE.INTER.ROT>
0

>  <SCORE.INTER.SOLV>
5.46454

>  <SCORE.INTER.VDW>
-14.7116

>  <SCORE.INTER.norm>
-1.26682

>  <SCORE.INTRA>
0

>  <SCORE.INTRA.DIHEDRAL>
0

>  <SCORE.INTRA.DIHEDRAL.0>
0

>  <SCORE.INTRA.POLAR>
0

>  <SCORE.INTRA.POLAR.0>
0

>  <SCORE.INTRA.REPUL>
0

>  <SCORE.INTRA.REPUL.0>
0

>  <SCORE.INTRA.SOLV>
0

>  <SCORE.INTRA.SOLV.lig_0>
-29.307

>  <SCORE.INTRA.VDW>
0

>  <SCORE.INTRA.VDW.0>
0

>  <SCORE.INTRA.norm>
0

>  <SCORE.RESTR>
0

>  <SCORE.RESTR.CAVITY>
0

>  <SCORE.RESTR.norm>
0

>  <SCORE.SYSTEM>
0

>  <SCORE.SYSTEM.CONST>
0

>  <SCORE.SYSTEM.DIHEDRAL>
0

>  <SCORE.SYSTEM.SOLV>
0

>  <SCORE.SYSTEM.norm>
0

>  <SCORE.heavy>
11

>  <SCORE.norm>
-1.26682

>  <RMSD>
3.445

$$$$
ligand
 OpenBabel11021811503D
libRbt.so/2013.1/901 2013/11/27
 11 12  0  0  0  0  0  0  0  0999 V2000
    3.4477  -19.6827   25.1940 N   0  0  0  0  0  0  0  0  0  0  0  0
    3.2620  -20.4023   24.0733 C   0  0  0  0  0  0  0  0  0  0  0  0
    4.3170  -20.5400   23.1217 N   0  0  0  0  0  0  0  0  0  0  0  0
    2.1054  -21.0168   23.8078 N   0  0  0  0  0  0  0  0  0  0  0  0
    1.0385  -20.9223   24.6687 C   0  0  0  0  0  0  0  0  0  0  0  0
    1.1899  -20.1944   25.8289 C   0  0  0  0  0  0  0  0  0  0  0  0
    2.4407  -19.5654   26.0927 C   0  0  0  0  0  0  0  0  0  0  0  0
    2.6038  -18.8314   27.2464 O   0  0  0  0  0  0  0  0  0  0  0  0
   -0.0579  -20.2800   26.5245 C   0  0  0  0  0  0  0  0  0  0  0  0
   -0.9049  -21.0623   25.7270 C   0  0  0  0  0  0  0  0  0  0  0  0
   -0.2386  -21.4352   24.6271 N   0  0  0  0  0  0  0  0  0  0  0  0
  1  2  1  0  0  0  0
  1  7  1  0  0  0  0
  2  3  1  0  0  0  0
  2  4  2  0  0  0  0
  4  5  1  0  0  0  0
  5  6  2  0  0  0  0
  5 11  1  0  0  0  0
  6  7  1  0  0  0  0
  6  9  1  0  0  0  0
  7  8  2  0  0  0  0
  9 10  2  0  0  0  0
 10 11  1  0  0  0  0
M  END
>  <CHROM.1>
1.80622297,-20.33252665,25.17656423,-0.25451152,0.32361665,1.04837967

>  <Name>
ligand

>  <RI>
0

>  <Rbt.Current_Directory>
/home/itssahil/PROJECTS/Mol_Feturizer/New_Systems/rnas/4LVW

>  <Rbt.Executable>
rbdock ($Id: //depot/dev/client3/rdock/2013.1/src/exe/rbdock.cxx#4 $)

>  <Rbt.Library>
libRbt.so (2013.1, Build901 2013/11/27)

>  <Rbt.Parameter_File>
/export/apps/rDock/src/rDock_2013.1_src/data/scripts/dock_solv.prm

>  <Rbt.Receptor>
prm/pocket_docking_5.prm

>  <SCORE>
-13.9636

>  <SCORE.INTER>
-13.9636

>  <SCORE.INTER.CONST>
1

>  <SCORE.INTER.POLAR>
0

>  <SCORE.INTER.ROT>
0

>  <SCORE.INTER.SOLV>
5.50874

>  <SCORE.INTER.VDW>
-14.7453

>  <SCORE.INTER.norm>
-1.26942

>  <SCORE.INTRA>
0

>  <SCORE.INTRA.DIHEDRAL>
0

>  <SCORE.INTRA.DIHEDRAL.0>
0

>  <SCORE.INTRA.POLAR>
0

>  <SCORE.INTRA.POLAR.0>
0

>  <SCORE.INTRA.REPUL>
0

>  <SCORE.INTRA.REPUL.0>
0

>  <SCORE.INTRA.SOLV>
0

>  <SCORE.INTRA.SOLV.lig_0>
-29.307

>  <SCORE.INTRA.VDW>
0

>  <SCORE.INTRA.VDW.0>
0

>  <SCORE.INTRA.norm>
0

>  <SCORE.RESTR>
0

>  <SCORE.RESTR.CAVITY>
0

>  <SCORE.RESTR.norm>
0

>  <SCORE.SYSTEM>
0

>  <SCORE.SYSTEM.CONST>
0

>  <SCORE.SYSTEM.DIHEDRAL>
0

>  <SCORE.SYSTEM.SOLV>
0

>  <SCORE.SYSTEM.norm>
0

>  <SCORE.heavy>
11

>  <SCORE.norm>
-1.26942

>  <RMSD>
3.445

$$$$
ligand
 OpenBabel11021811503D
libRbt.so/2013.1/901 2013/11/27
 11 12  0  0  0  0  0  0  0  0999 V2000
    3.4456  -19.6878   25.2145 N   0  0  0  0  0  0  0  0  0  0  0  0
    3.2678  -20.4118   24.0954 C   0  0  0  0  0  0  0  0  0  0  0  0
    4.3303  -20.5554   23.1531 N   0  0  0  0  0  0  0  0  0  0  0  0
    2.1123  -21.0253   23.8229 N   0  0  0  0  0  0  0  0  0  0  0  0
    1.0385  -20.9252   24.6746 C   0  0  0  0  0  0  0  0  0  0  0  0
    1.1817  -20.1927   25.8329 C   0  0  0  0  0  0  0  0  0  0  0  0
    2.4314  -19.5649   26.1044 C   0  0  0  0  0  0  0  0  0  0  0  0
    2.5863  -18.8263   27.2563 O   0  0  0  0  0  0  0  0  0  0  0  0
   -0.0720  -20.2732   26.5185 C   0  0  0  0  0  0  0  0  0  0  0  0
   -0.9138  -21.0573   25.7175 C   0  0  0  0  0  0  0  0  0  0  0  0
   -0.2392  -21.4361   24.6246 N   0  0  0  0  0  0  0  0  0  0  0  0
  1  2  1  0  0  0  0
  1  7  1  0  0  0  0
  2  3  1  0  0  0  0
  2  4  2  0  0  0  0
  4  5  1  0  0  0  0
  5  6  2  0  0  0  0
  5 11  1  0  0  0  0
  6  7  1  0  0  0  0
  6  9  1  0  0  0  0
  7  8  2  0  0  0  0
  9 10  2  0  0  0  0
 10 11  1  0  0  0  0
M  END
>  <CHROM.1>
1.80307351,-20.33474501,25.18627687,-0.24795718,0.31792357,1.04209031

>  <Name>
ligand

>  <RI>
0

>  <Rbt.Current_Directory>
/home/itssahil/PROJECTS/Mol_Feturizer/New_Systems/rnas/4LVW

>  <Rbt.Executable>
rbdock ($Id: //depot/dev/client3/rdock/2013.1/src/exe/rbdock.cxx#4 $)

>  <Rbt.Library>
libRbt.so (2013.1, Build901 2013/11/27)

>  <Rbt.Parameter_File>
/export/apps/rDock/src/rDock_2013.1_src/data/scripts/dock_solv.prm

>  <Rbt.Receptor>
prm/pocket_docking_5.prm

>  <SCORE>
-13.9644

>  <SCORE.INTER>
-13.9644

>  <SCORE.INTER.CONST>
1

>  <SCORE.INTER.POLAR>
0

>  <SCORE.INTER.ROT>
0

>  <SCORE.INTER.SOLV>
5.42235

>  <SCORE.INTER.VDW>
-14.717

>  <SCORE.INTER.norm>
-1.26949

>  <SCORE.INTRA>
0

>  <SCORE.INTRA.DIHEDRAL>
0

>  <SCORE.INTRA.DIHEDRAL.0>
0

>  <SCORE.INTRA.POLAR>
0

>  <SCORE.INTRA.POLAR.0>
0

>  <SCORE.INTRA.REPUL>
0

>  <SCORE.INTRA.REPUL.0>
0

>  <SCORE.INTRA.SOLV>
0

>  <SCORE.INTRA.SOLV.lig_0>
-29.307

>  <SCORE.INTRA.VDW>
0

>  <SCORE.INTRA.VDW.0>
0

>  <SCORE.INTRA.norm>
0

>  <SCORE.RESTR>
0

>  <SCORE.RESTR.CAVITY>
0

>  <SCORE.RESTR.norm>
0

>  <SCORE.SYSTEM>
0

>  <SCORE.SYSTEM.CONST>
0

>  <SCORE.SYSTEM.DIHEDRAL>
0

>  <SCORE.SYSTEM.SOLV>
0

>  <SCORE.SYSTEM.norm>
0

>  <SCORE.heavy>
11

>  <SCORE.norm>
-1.26949

>  <RMSD>
3.445

$$$$
ligand
 OpenBabel11021811503D
libRbt.so/2013.1/901 2013/11/27
 11 12  0  0  0  0  0  0  0  0999 V2000
    3.4487  -19.6814   25.1826 N   0  0  0  0  0  0  0  0  0  0  0  0
    3.2608  -20.4027   24.0633 C   0  0  0  0  0  0  0  0  0  0  0  0
    4.3130  -20.5394   23.1086 N   0  0  0  0  0  0  0  0  0  0  0  0
    2.1045  -21.0195   23.8021 N   0  0  0  0  0  0  0  0  0  0  0  0
    1.0401  -20.9260   24.6663 C   0  0  0  0  0  0  0  0  0  0  0  0
    1.1938  -20.1965   25.8252 C   0  0  0  0  0  0  0  0  0  0  0  0
    2.4443  -19.5649   26.0843 C   0  0  0  0  0  0  0  0  0  0  0  0
    2.6096  -18.8293   27.2367 O   0  0  0  0  0  0  0  0  0  0  0  0
   -0.0516  -20.2837   26.5247 C   0  0  0  0  0  0  0  0  0  0  0  0
   -0.8997  -21.0684   25.7308 C   0  0  0  0  0  0  0  0  0  0  0  0
   -0.2362  -21.4414   24.6292 N   0  0  0  0  0  0  0  0  0  0  0  0
  1  2  1  0  0  0  0
  1  7  1  0  0  0  0
  2  3  1  0  0  0  0
  2  4  2  0  0  0  0
  4  5  1  0  0  0  0
  5  6  2  0  0  0  0
  5 11  1  0  0  0  0
  6  7  1  0  0  0  0
  6  9  1  0  0  0  0
  7  8  2  0  0  0  0
  9 10  2  0  0  0  0
 10 11  1  0  0  0  0
M  END
>  <CHROM.1>
1.80835223,-20.33426604,25.17103968,-0.25639808,0.32678229,1.04783588

>  <Name>
ligand

>  <RI>
0

>  <Rbt.Current_Directory>
/home/itssahil/PROJECTS/Mol_Feturizer/New_Systems/rnas/4LVW

>  <Rbt.Executable>
rbdock ($Id: //depot/dev/client3/rdock/2013.1/src/exe/rbdock.cxx#4 $)

>  <Rbt.Library>
libRbt.so (2013.1, Build901 2013/11/27)

>  <Rbt.Parameter_File>
/export/apps/rDock/src/rDock_2013.1_src/data/scripts/dock_solv.prm

>  <Rbt.Receptor>
prm/pocket_docking_6.prm

>  <SCORE>
-13.963

>  <SCORE.INTER>
-13.963

>  <SCORE.INTER.CONST>
1

>  <SCORE.INTER.POLAR>
0

>  <SCORE.INTER.ROT>
0

>  <SCORE.INTER.SOLV>
5.54289

>  <SCORE.INTER.VDW>
-14.7563

>  <SCORE.INTER.norm>
-1.26936

>  <SCORE.INTRA>
0

>  <SCORE.INTRA.DIHEDRAL>
0

>  <SCORE.INTRA.DIHEDRAL.0>
0

>  <SCORE.INTRA.POLAR>
0

>  <SCORE.INTRA.POLAR.0>
0

>  <SCORE.INTRA.REPUL>
0

>  <SCORE.INTRA.REPUL.0>
0

>  <SCORE.INTRA.SOLV>
0

>  <SCORE.INTRA.SOLV.lig_0>
-29.307

>  <SCORE.INTRA.VDW>
0

>  <SCORE.INTRA.VDW.0>
0

>  <SCORE.INTRA.norm>
0

>  <SCORE.RESTR>
0

>  <SCORE.RESTR.CAVITY>
0

>  <SCORE.RESTR.norm>
0

>  <SCORE.SYSTEM>
0

>  <SCORE.SYSTEM.CONST>
0

>  <SCORE.SYSTEM.DIHEDRAL>
0

>  <SCORE.SYSTEM.SOLV>
0

>  <SCORE.SYSTEM.norm>
0

>  <SCORE.heavy>
11

>  <SCORE.norm>
-1.26936

>  <RMSD>
3.445

$$$$
ligand
 OpenBabel11021811503D
libRbt.so/2013.1/901 2013/11/27
 11 12  0  0  0  0  0  0  0  0999 V2000
    3.4493  -19.6856   25.2174 N   0  0  0  0  0  0  0  0  0  0  0  0
    3.2718  -20.4092   24.0980 C   0  0  0  0  0  0  0  0  0  0  0  0
    4.3337  -20.5502   23.1546 N   0  0  0  0  0  0  0  0  0  0  0  0
    2.1172  -21.0246   23.8262 N   0  0  0  0  0  0  0  0  0  0  0  0
    1.0440  -20.9271   24.6790 C   0  0  0  0  0  0  0  0  0  0  0  0
    1.1869  -20.1950   25.8376 C   0  0  0  0  0  0  0  0  0  0  0  0
    2.4357  -19.5650   26.1083 C   0  0  0  0  0  0  0  0  0  0  0  0
    2.5904  -18.8269   27.2605 O   0  0  0  0  0  0  0  0  0  0  0  0
   -0.0660  -20.2782   26.5243 C   0  0  0  0  0  0  0  0  0  0  0  0
   -0.9071  -21.0634   25.7236 C   0  0  0  0  0  0  0  0  0  0  0  0
   -0.2328  -21.4402   24.6299 N   0  0  0  0  0  0  0  0  0  0  0  0
  1  2  1  0  0  0  0
  1  7  1  0  0  0  0
  2  3  1  0  0  0  0
  2  4  2  0  0  0  0
  4  5  1  0  0  0  0
  5  6  2  0  0  0  0
  5 11  1  0  0  0  0
  6  7  1  0  0  0  0
  6  9  1  0  0  0  0
  7  8  2  0  0  0  0
  9 10  2  0  0  0  0
 10 11  1  0  0  0  0
M  END
>  <CHROM.1>
1.80798539,-20.33548010,25.19031728,-0.24782311,0.31997429,1.04267160

>  <Name>
ligand

>  <RI>
0

>  <Rbt.Current_Directory>
/home/itssahil/PROJECTS/Mol_Feturizer/New_Systems/rnas/4LVW

>  <Rbt.Executable>
rbdock ($Id: //depot/dev/client3/rdock/2013.1/src/exe/rbdock.cxx#4 $)

>  <Rbt.Library>
libRbt.so (2013.1, Build901 2013/11/27)

>  <Rbt.Parameter_File>
/export/apps/rDock/src/rDock_2013.1_src/data/scripts/dock_solv.prm

>  <Rbt.Receptor>
prm/pocket_docking_6.prm

>  <SCORE>
-13.9774

>  <SCORE.INTER>
-13.9774

>  <SCORE.INTER.CONST>
1

>  <SCORE.INTER.POLAR>
0

>  <SCORE.INTER.ROT>
0

>  <SCORE.INTER.SOLV>
5.39482

>  <SCORE.INTER.VDW>
-14.7165

>  <SCORE.INTER.norm>
-1.27067

>  <SCORE.INTRA>
0

>  <SCORE.INTRA.DIHEDRAL>
0

>  <SCORE.INTRA.DIHEDRAL.0>
0

>  <SCORE.INTRA.POLAR>
0

>  <SCORE.INTRA.POLAR.0>
0

>  <SCORE.INTRA.REPUL>
0

>  <SCORE.INTRA.REPUL.0>
0

>  <SCORE.INTRA.SOLV>
0

>  <SCORE.INTRA.SOLV.lig_0>
-29.307

>  <SCORE.INTRA.VDW>
0

>  <SCORE.INTRA.VDW.0>
0

>  <SCORE.INTRA.norm>
0

>  <SCORE.RESTR>
0

>  <SCORE.RESTR.CAVITY>
0

>  <SCORE.RESTR.norm>
0

>  <SCORE.SYSTEM>
0

>  <SCORE.SYSTEM.CONST>
0

>  <SCORE.SYSTEM.DIHEDRAL>
0

>  <SCORE.SYSTEM.SOLV>
0

>  <SCORE.SYSTEM.norm>
0

>  <SCORE.heavy>
11

>  <SCORE.norm>
-1.27067

>  <RMSD>
3.445

$$$$
ligand
 OpenBabel11021811503D
libRbt.so/2013.1/901 2013/11/27
 11 12  0  0  0  0  0  0  0  0999 V2000
    3.4492  -19.6832   25.1920 N   0  0  0  0  0  0  0  0  0  0  0  0
    3.2645  -20.4070   24.0738 C   0  0  0  0  0  0  0  0  0  0  0  0
    4.3197  -20.5466   23.1227 N   0  0  0  0  0  0  0  0  0  0  0  0
    2.1087  -21.0238   23.8103 N   0  0  0  0  0  0  0  0  0  0  0  0
    1.0416  -20.9276   24.6708 C   0  0  0  0  0  0  0  0  0  0  0  0
    1.1920  -20.1955   25.8285 C   0  0  0  0  0  0  0  0  0  0  0  0
    2.4420  -19.5641   26.0902 C   0  0  0  0  0  0  0  0  0  0  0  0
    2.6041  -18.8259   27.2414 O   0  0  0  0  0  0  0  0  0  0  0  0
   -0.0557  -20.2804   26.5243 C   0  0  0  0  0  0  0  0  0  0  0  0
   -0.9017  -21.0665   25.7295 C   0  0  0  0  0  0  0  0  0  0  0  0
   -0.2349  -21.4424   24.6309 N   0  0  0  0  0  0  0  0  0  0  0  0
  1  2  1  0  0  0  0
  1  7  1  0  0  0  0
  2  3  1  0  0  0  0
  2  4  2  0  0  0  0
  4  5  1  0  0  0  0
  5  6  2  0  0  0  0
  5 11  1  0  0  0  0
  6  7  1  0  0  0  0
  6  9  1  0  0  0  0
  7  8  2  0  0  0  0
  9 10  2  0  0  0  0
 10 11  1  0  0  0  0
M  END
>  <CHROM.1>
1.80854925,-20.33517629,25.17669484,-0.25377072,0.32468180,1.04466552

>  <Name>
ligand

>  <RI>
0

>  <Rbt.Current_Directory>
/home/itssahil/PROJECTS/Mol_Feturizer/New_Systems/rnas/4LVW

>  <Rbt.Executable>
rbdock ($Id: //depot/dev/client3/rdock/2013.1/src/exe/rbdock.cxx#4 $)

>  <Rbt.Library>
libRbt.so (2013.1, Build901 2013/11/27)

>  <Rbt.Parameter_File>
/export/apps/rDock/src/rDock_2013.1_src/data/scripts/dock_solv.prm

>  <Rbt.Receptor>
prm/pocket_docking_6.prm

>  <SCORE>
-13.9678

>  <SCORE.INTER>
-13.9678

>  <SCORE.INTER.CONST>
1

>  <SCORE.INTER.POLAR>
0

>  <SCORE.INTER.ROT>
0

>  <SCORE.INTER.SOLV>
5.50033

>  <SCORE.INTER.VDW>
-14.7453

>  <SCORE.INTER.norm>
-1.2698

>  <SCORE.INTRA>
0

>  <SCORE.INTRA.DIHEDRAL>
0

>  <SCORE.INTRA.DIHEDRAL.0>
0

>  <SCORE.INTRA.POLAR>
0

>  <SCORE.INTRA.POLAR.0>
0

>  <SCORE.INTRA.REPUL>
0

>  <SCORE.INTRA.REPUL.0>
0

>  <SCORE.INTRA.SOLV>
0

>  <SCORE.INTRA.SOLV.lig_0>
-29.307

>  <SCORE.INTRA.VDW>
0

>  <SCORE.INTRA.VDW.0>
0

>  <SCORE.INTRA.norm>
0

>  <SCORE.RESTR>
0

>  <SCORE.RESTR.CAVITY>
0

>  <SCORE.RESTR.norm>
0

>  <SCORE.SYSTEM>
0

>  <SCORE.SYSTEM.CONST>
0

>  <SCORE.SYSTEM.DIHEDRAL>
0

>  <SCORE.SYSTEM.SOLV>
0

>  <SCORE.SYSTEM.norm>
0

>  <SCORE.heavy>
11

>  <SCORE.norm>
-1.2698

>  <RMSD>
3.445

$$$$
ligand
 OpenBabel11021811503D
libRbt.so/2013.1/901 2013/11/27
 11 12  0  0  0  0  0  0  0  0999 V2000
    3.4468  -19.6848   25.2133 N   0  0  0  0  0  0  0  0  0  0  0  0
    3.2678  -20.4073   24.0934 C   0  0  0  0  0  0  0  0  0  0  0  0
    4.3281  -20.5465   23.1479 N   0  0  0  0  0  0  0  0  0  0  0  0
    2.1132  -21.0233   23.8230 N   0  0  0  0  0  0  0  0  0  0  0  0
    1.0415  -20.9275   24.6779 C   0  0  0  0  0  0  0  0  0  0  0  0
    1.1860  -20.1966   25.8371 C   0  0  0  0  0  0  0  0  0  0  0  0
    2.4348  -19.5660   26.1061 C   0  0  0  0  0  0  0  0  0  0  0  0
    2.5910  -18.8290   27.2589 O   0  0  0  0  0  0  0  0  0  0  0  0
   -0.0656  -20.2815   26.5260 C   0  0  0  0  0  0  0  0  0  0  0  0
   -0.9075  -21.0664   25.7259 C   0  0  0  0  0  0  0  0  0  0  0  0
   -0.2350  -21.4416   24.6305 N   0  0  0  0  0  0  0  0  0  0  0  0
  1  2  1  0  0  0  0
  1  7  1  0  0  0  0
  2  3  1  0  0  0  0
  2  4  2  0  0  0  0
  4  5  1  0  0  0  0
  5  6  2  0  0  0  0
  5 11  1  0  0  0  0
  6  7  1  0  0  0  0
  6  9  1  0  0  0  0
  7  8  2  0  0  0  0
  9 10  2  0  0  0  0
 10 11  1  0  0  0  0
M  END
>  <CHROM.1>
1.80596857,-20.33589803,25.18844634,-0.24909361,0.32155759,1.04415650

>  <Name>
ligand

>  <RI>
0

>  <Rbt.Current_Directory>
/home/itssahil/PROJECTS/Mol_Feturizer/New_Systems/rnas/4LVW

>  <Rbt.Executable>
rbdock ($Id: //depot/dev/client3/rdock/2013.1/src/exe/rbdock.cxx#4 $)

>  <Rbt.Library>
libRbt.so (2013.1, Build901 2013/11/27)

>  <Rbt.Parameter_File>
/export/apps/rDock/src/rDock_2013.1_src/data/scripts/dock_solv.prm

>  <Rbt.Receptor>
prm/pocket_docking_6.prm

>  <SCORE>
-13.9723

>  <SCORE.INTER>
-13.9723

>  <SCORE.INTER.CONST>
1

>  <SCORE.INTER.POLAR>
0

>  <SCORE.INTER.ROT>
0

>  <SCORE.INTER.SOLV>
5.42541

>  <SCORE.INTER.VDW>
-14.7234

>  <SCORE.INTER.norm>
-1.27021

>  <SCORE.INTRA>
0

>  <SCORE.INTRA.DIHEDRAL>
0

>  <SCORE.INTRA.DIHEDRAL.0>
0

>  <SCORE.INTRA.POLAR>
0

>  <SCORE.INTRA.POLAR.0>
0

>  <SCORE.INTRA.REPUL>
0

>  <SCORE.INTRA.REPUL.0>
0

>  <SCORE.INTRA.SOLV>
0

>  <SCORE.INTRA.SOLV.lig_0>
-29.307

>  <SCORE.INTRA.VDW>
0

>  <SCORE.INTRA.VDW.0>
0

>  <SCORE.INTRA.norm>
0

>  <SCORE.RESTR>
0

>  <SCORE.RESTR.CAVITY>
0

>  <SCORE.RESTR.norm>
0

>  <SCORE.SYSTEM>
0

>  <SCORE.SYSTEM.CONST>
0

>  <SCORE.SYSTEM.DIHEDRAL>
0

>  <SCORE.SYSTEM.SOLV>
0

>  <SCORE.SYSTEM.norm>
0

>  <SCORE.heavy>
11

>  <SCORE.norm>
-1.27021

>  <RMSD>
3.445

$$$$
ligand
 OpenBabel11021811503D
libRbt.so/2013.1/901 2013/11/27
 11 12  0  0  0  0  0  0  0  0999 V2000
    3.4363  -19.6880   25.2148 N   0  0  0  0  0  0  0  0  0  0  0  0
    3.2584  -20.4133   24.0966 C   0  0  0  0  0  0  0  0  0  0  0  0
    4.3193  -20.5539   23.1520 N   0  0  0  0  0  0  0  0  0  0  0  0
    2.1043  -21.0308   23.8271 N   0  0  0  0  0  0  0  0  0  0  0  0
    1.0321  -20.9337   24.6811 C   0  0  0  0  0  0  0  0  0  0  0  0
    1.1755  -20.2000   25.8387 C   0  0  0  0  0  0  0  0  0  0  0  0
    2.4238  -19.5678   26.1069 C   0  0  0  0  0  0  0  0  0  0  0  0
    2.5788  -18.8280   27.2580 O   0  0  0  0  0  0  0  0  0  0  0  0
   -0.0763  -20.2842   26.5271 C   0  0  0  0  0  0  0  0  0  0  0  0
   -0.9173  -21.0715   25.7284 C   0  0  0  0  0  0  0  0  0  0  0  0
   -0.2439  -21.4488   24.6343 N   0  0  0  0  0  0  0  0  0  0  0  0
  1  2  1  0  0  0  0
  1  7  1  0  0  0  0
  2  3  1  0  0  0  0
  2  4  2  0  0  0  0
  4  5  1  0  0  0  0
  5  6  2  0  0  0  0
  5 11  1  0  0  0  0
  6  7  1  0  0  0  0
  6  9  1  0  0  0  0
  7  8  2  0  0  0  0
  9 10  2  0  0  0  0
 10 11  1  0  0  0  0
M  END
>  <CHROM.1>
1.79592760,-20.34034184,25.19070423,-0.24823975,0.32190420,1.04153617

>  <Name>
ligand

>  <RI>
0

>  <Rbt.Current_Directory>
/home/itssahil/PROJECTS/Mol_Feturizer/New_Systems/rnas/4LVW

>  <Rbt.Executable>
rbdock ($Id: //depot/dev/client3/rdock/2013.1/src/exe/rbdock.cxx#4 $)

>  <Rbt.Library>
libRbt.so (2013.1, Build901 2013/11/27)

>  <Rbt.Parameter_File>
/export/apps/rDock/src/rDock_2013.1_src/data/scripts/dock_solv.prm

>  <Rbt.Receptor>
prm/pocket_docking_6.prm

>  <SCORE>
-13.9519

>  <SCORE.INTER>
-13.9519

>  <SCORE.INTER.CONST>
1

>  <SCORE.INTER.POLAR>
0

>  <SCORE.INTER.ROT>
0

>  <SCORE.INTER.SOLV>
5.46543

>  <SCORE.INTER.VDW>
-14.7231

>  <SCORE.INTER.norm>
-1.26835

>  <SCORE.INTRA>
0

>  <SCORE.INTRA.DIHEDRAL>
0

>  <SCORE.INTRA.DIHEDRAL.0>
0

>  <SCORE.INTRA.POLAR>
0

>  <SCORE.INTRA.POLAR.0>
0

>  <SCORE.INTRA.REPUL>
0

>  <SCORE.INTRA.REPUL.0>
0

>  <SCORE.INTRA.SOLV>
0

>  <SCORE.INTRA.SOLV.lig_0>
-29.307

>  <SCORE.INTRA.VDW>
0

>  <SCORE.INTRA.VDW.0>
0

>  <SCORE.INTRA.norm>
0

>  <SCORE.RESTR>
0

>  <SCORE.RESTR.CAVITY>
0

>  <SCORE.RESTR.norm>
0

>  <SCORE.SYSTEM>
0

>  <SCORE.SYSTEM.CONST>
0

>  <SCORE.SYSTEM.DIHEDRAL>
0

>  <SCORE.SYSTEM.SOLV>
0

>  <SCORE.SYSTEM.norm>
0

>  <SCORE.heavy>
11

>  <SCORE.norm>
-1.26835

>  <RMSD>
3.445

$$$$
ligand
 OpenBabel11021811503D
libRbt.so/2013.1/901 2013/11/27
 11 12  0  0  0  0  0  0  0  0999 V2000
    3.4482  -19.6874   25.2156 N   0  0  0  0  0  0  0  0  0  0  0  0
    3.2703  -20.4110   24.0962 C   0  0  0  0  0  0  0  0  0  0  0  0
    4.3321  -20.5527   23.1529 N   0  0  0  0  0  0  0  0  0  0  0  0
    2.1153  -21.0257   23.8243 N   0  0  0  0  0  0  0  0  0  0  0  0
    1.0421  -20.9274   24.6771 C   0  0  0  0  0  0  0  0  0  0  0  0
    1.1854  -20.1954   25.8357 C   0  0  0  0  0  0  0  0  0  0  0  0
    2.4346  -19.5662   26.1064 C   0  0  0  0  0  0  0  0  0  0  0  0
    2.5897  -18.8281   27.2586 O   0  0  0  0  0  0  0  0  0  0  0  0
   -0.0675  -20.2778   26.5223 C   0  0  0  0  0  0  0  0  0  0  0  0
   -0.9091  -21.0624   25.7215 C   0  0  0  0  0  0  0  0  0  0  0  0
   -0.2350  -21.4398   24.6279 N   0  0  0  0  0  0  0  0  0  0  0  0
  1  2  1  0  0  0  0
  1  7  1  0  0  0  0
  2  3  1  0  0  0  0
  2  4  2  0  0  0  0
  4  5  1  0  0  0  0
  5  6  2  0  0  0  0
  5 11  1  0  0  0  0
  6  7  1  0  0  0  0
  6  9  1  0  0  0  0
  7  8  2  0  0  0  0
  9 10  2  0  0  0  0
 10 11  1  0  0  0  0
M  END
>  <CHROM.1>
1.80643501,-20.33626297,25.18838999,-0.24810119,0.31940539,1.04270421

>  <Name>
ligand

>  <RI>
0

>  <Rbt.Current_Directory>
/home/itssahil/PROJECTS/Mol_Feturizer/New_Systems/rnas/4LVW

>  <Rbt.Executable>
rbdock ($Id: //depot/dev/client3/rdock/2013.1/src/exe/rbdock.cxx#4 $)

>  <Rbt.Library>
libRbt.so (2013.1, Build901 2013/11/27)

>  <Rbt.Parameter_File>
/export/apps/rDock/src/rDock_2013.1_src/data/scripts/dock_solv.prm

>  <Rbt.Receptor>
prm/pocket_docking_6.prm

>  <SCORE>
-13.9744

>  <SCORE.INTER>
-13.9744

>  <SCORE.INTER.CONST>
1

>  <SCORE.INTER.POLAR>
0

>  <SCORE.INTER.ROT>
0

>  <SCORE.INTER.SOLV>
5.40683

>  <SCORE.INTER.VDW>
-14.7186

>  <SCORE.INTER.norm>
-1.2704

>  <SCORE.INTRA>
0

>  <SCORE.INTRA.DIHEDRAL>
0

>  <SCORE.INTRA.DIHEDRAL.0>
0

>  <SCORE.INTRA.POLAR>
0

>  <SCORE.INTRA.POLAR.0>
0

>  <SCORE.INTRA.REPUL>
0

>  <SCORE.INTRA.REPUL.0>
0

>  <SCORE.INTRA.SOLV>
0

>  <SCORE.INTRA.SOLV.lig_0>
-29.307

>  <SCORE.INTRA.VDW>
0

>  <SCORE.INTRA.VDW.0>
0

>  <SCORE.INTRA.norm>
0

>  <SCORE.RESTR>
0

>  <SCORE.RESTR.CAVITY>
0

>  <SCORE.RESTR.norm>
0

>  <SCORE.SYSTEM>
0

>  <SCORE.SYSTEM.CONST>
0

>  <SCORE.SYSTEM.DIHEDRAL>
0

>  <SCORE.SYSTEM.SOLV>
0

>  <SCORE.SYSTEM.norm>
0

>  <SCORE.heavy>
11

>  <SCORE.norm>
-1.2704

>  <RMSD>
3.445

$$$$
ligand
 OpenBabel11021811503D
libRbt.so/2013.1/901 2013/11/27
 11 12  0  0  0  0  0  0  0  0999 V2000
    3.4452  -19.6834   25.1883 N   0  0  0  0  0  0  0  0  0  0  0  0
    3.2601  -20.4056   24.0692 C   0  0  0  0  0  0  0  0  0  0  0  0
    4.3151  -20.5443   23.1178 N   0  0  0  0  0  0  0  0  0  0  0  0
    2.1040  -21.0216   23.8050 N   0  0  0  0  0  0  0  0  0  0  0  0
    1.0370  -20.9262   24.6658 C   0  0  0  0  0  0  0  0  0  0  0  0
    1.1879  -20.1957   25.8244 C   0  0  0  0  0  0  0  0  0  0  0  0
    2.4381  -19.5650   26.0868 C   0  0  0  0  0  0  0  0  0  0  0  0
    2.6007  -18.8285   27.2389 O   0  0  0  0  0  0  0  0  0  0  0  0
   -0.0598  -20.2809   26.5202 C   0  0  0  0  0  0  0  0  0  0  0  0
   -0.9062  -21.0656   25.7245 C   0  0  0  0  0  0  0  0  0  0  0  0
   -0.2396  -21.4404   24.6253 N   0  0  0  0  0  0  0  0  0  0  0  0
  1  2  1  0  0  0  0
  1  7  1  0  0  0  0
  2  3  1  0  0  0  0
  2  4  2  0  0  0  0
  4  5  1  0  0  0  0
  5  6  2  0  0  0  0
  5 11  1  0  0  0  0
  6  7  1  0  0  0  0
  6  9  1  0  0  0  0
  7  8  2  0  0  0  0
  9 10  2  0  0  0  0
 10 11  1  0  0  0  0
M  END
>  <CHROM.1>
1.80427157,-20.33468678,25.17231912,-0.25409351,0.32439930,1.04610359

>  <Name>
ligand

>  <RI>
0

>  <Rbt.Current_Directory>
/home/itssahil/PROJECTS/Mol_Feturizer/New_Systems/rnas/4LVW

>  <Rbt.Executable>
rbdock ($Id: //depot/dev/client3/rdock/2013.1/src/exe/rbdock.cxx#4 $)

>  <Rbt.Library>
libRbt.so (2013.1, Build901 2013/11/27)

>  <Rbt.Parameter_File>
/export/apps/rDock/src/rDock_2013.1_src/data/scripts/dock_solv.prm

>  <Rbt.Receptor>
prm/pocket_docking_6.prm

>  <SCORE>
-13.9565

>  <SCORE.INTER>
-13.9565

>  <SCORE.INTER.CONST>
1

>  <SCORE.INTER.POLAR>
0

>  <SCORE.INTER.ROT>
0

>  <SCORE.INTER.SOLV>
5.52883

>  <SCORE.INTER.VDW>
-14.7473

>  <SCORE.INTER.norm>
-1.26877

>  <SCORE.INTRA>
0

>  <SCORE.INTRA.DIHEDRAL>
0

>  <SCORE.INTRA.DIHEDRAL.0>
0

>  <SCORE.INTRA.POLAR>
0

>  <SCORE.INTRA.POLAR.0>
0

>  <SCORE.INTRA.REPUL>
0

>  <SCORE.INTRA.REPUL.0>
0

>  <SCORE.INTRA.SOLV>
0

>  <SCORE.INTRA.SOLV.lig_0>
-29.307

>  <SCORE.INTRA.VDW>
0

>  <SCORE.INTRA.VDW.0>
0

>  <SCORE.INTRA.norm>
0

>  <SCORE.RESTR>
0

>  <SCORE.RESTR.CAVITY>
0

>  <SCORE.RESTR.norm>
0

>  <SCORE.SYSTEM>
0

>  <SCORE.SYSTEM.CONST>
0

>  <SCORE.SYSTEM.DIHEDRAL>
0

>  <SCORE.SYSTEM.SOLV>
0

>  <SCORE.SYSTEM.norm>
0

>  <SCORE.heavy>
11

>  <SCORE.norm>
-1.26877

>  <RMSD>
3.445

$$$$
ligand
 OpenBabel11021811503D
libRbt.so/2013.1/901 2013/11/27
 11 12  0  0  0  0  0  0  0  0999 V2000
    3.4485  -19.6789   25.1986 N   0  0  0  0  0  0  0  0  0  0  0  0
    3.2644  -20.3969   24.0766 C   0  0  0  0  0  0  0  0  0  0  0  0
    4.3196  -20.5303   23.1247 N   0  0  0  0  0  0  0  0  0  0  0  0
    2.1092  -21.0135   23.8100 N   0  0  0  0  0  0  0  0  0  0  0  0
    1.0422  -20.9231   24.6712 C   0  0  0  0  0  0  0  0  0  0  0  0
    1.1919  -20.1970   25.8327 C   0  0  0  0  0  0  0  0  0  0  0  0
    2.4413  -19.5655   26.0976 C   0  0  0  0  0  0  0  0  0  0  0  0
    2.6027  -18.8333   27.2526 O   0  0  0  0  0  0  0  0  0  0  0  0
   -0.0556  -20.2869   26.5282 C   0  0  0  0  0  0  0  0  0  0  0  0
   -0.9008  -21.0696   25.7294 C   0  0  0  0  0  0  0  0  0  0  0  0
   -0.2337  -21.4390   24.6287 N   0  0  0  0  0  0  0  0  0  0  0  0
  1  2  1  0  0  0  0
  1  7  1  0  0  0  0
  2  3  1  0  0  0  0
  2  4  2  0  0  0  0
  4  5  1  0  0  0  0
  5  6  2  0  0  0  0
  5 11  1  0  0  0  0
  6  7  1  0  0  0  0
  6  9  1  0  0  0  0
  7  8  2  0  0  0  0
  9 10  2  0  0  0  0
 10 11  1  0  0  0  0
M  END
>  <CHROM.1>
1.80853180,-20.33248571,25.18005979,-0.25332977,0.32569163,1.04982843

>  <Name>
ligand

>  <RI>
0

>  <Rbt.Current_Directory>
/home/itssahil/PROJECTS/Mol_Feturizer/New_Systems/rnas/4LVW

>  <Rbt.Executable>
rbdock ($Id: //depot/dev/client3/rdock/2013.1/src/exe/rbdock.cxx#4 $)

>  <Rbt.Library>
libRbt.so (2013.1, Build901 2013/11/27)

>  <Rbt.Parameter_File>
/export/apps/rDock/src/rDock_2013.1_src/data/scripts/dock_solv.prm

>  <Rbt.Receptor>
prm/pocket_docking_6.prm

>  <SCORE>
-13.9704

>  <SCORE.INTER>
-13.9704

>  <SCORE.INTER.CONST>
1

>  <SCORE.INTER.POLAR>
0

>  <SCORE.INTER.ROT>
0

>  <SCORE.INTER.SOLV>
5.48175

>  <SCORE.INTER.VDW>
-14.7408

>  <SCORE.INTER.norm>
-1.27003

>  <SCORE.INTRA>
0

>  <SCORE.INTRA.DIHEDRAL>
0

>  <SCORE.INTRA.DIHEDRAL.0>
0

>  <SCORE.INTRA.POLAR>
0

>  <SCORE.INTRA.POLAR.0>
0

>  <SCORE.INTRA.REPUL>
0

>  <SCORE.INTRA.REPUL.0>
0

>  <SCORE.INTRA.SOLV>
0

>  <SCORE.INTRA.SOLV.lig_0>
-29.307

>  <SCORE.INTRA.VDW>
0

>  <SCORE.INTRA.VDW.0>
0

>  <SCORE.INTRA.norm>
0

>  <SCORE.RESTR>
0

>  <SCORE.RESTR.CAVITY>
0

>  <SCORE.RESTR.norm>
0

>  <SCORE.SYSTEM>
0

>  <SCORE.SYSTEM.CONST>
0

>  <SCORE.SYSTEM.DIHEDRAL>
0

>  <SCORE.SYSTEM.SOLV>
0

>  <SCORE.SYSTEM.norm>
0

>  <SCORE.heavy>
11

>  <SCORE.norm>
-1.27003

>  <RMSD>
3.445

$$$$
ligand
 OpenBabel11021811503D
libRbt.so/2013.1/901 2013/11/27
 11 12  0  0  0  0  0  0  0  0999 V2000
    3.4463  -19.6868   25.2114 N   0  0  0  0  0  0  0  0  0  0  0  0
    3.2662  -20.4089   24.0913 C   0  0  0  0  0  0  0  0  0  0  0  0
    4.3275  -20.5528   23.1478 N   0  0  0  0  0  0  0  0  0  0  0  0
    2.1093  -21.0199   23.8190 N   0  0  0  0  0  0  0  0  0  0  0  0
    1.0365  -20.9193   24.6719 C   0  0  0  0  0  0  0  0  0  0  0  0
    1.1821  -20.1887   25.8312 C   0  0  0  0  0  0  0  0  0  0  0  0
    2.4331  -19.5634   26.1024 C   0  0  0  0  0  0  0  0  0  0  0  0
    2.5904  -18.8269   27.2552 O   0  0  0  0  0  0  0  0  0  0  0  0
   -0.0711  -20.2681   26.5178 C   0  0  0  0  0  0  0  0  0  0  0  0
   -0.9150  -21.0495   25.7163 C   0  0  0  0  0  0  0  0  0  0  0  0
   -0.2421  -21.4278   24.6223 N   0  0  0  0  0  0  0  0  0  0  0  0
  1  2  1  0  0  0  0
  1  7  1  0  0  0  0
  2  3  1  0  0  0  0
  2  4  2  0  0  0  0
  4  5  1  0  0  0  0
  5  6  2  0  0  0  0
  5 11  1  0  0  0  0
  6  7  1  0  0  0  0
  6  9  1  0  0  0  0
  7  8  2  0  0  0  0
  9 10  2  0  0  0  0
 10 11  1  0  0  0  0
M  END
>  <CHROM.1>
1.80262086,-20.33085965,25.18370738,-0.24971670,0.31689386,1.04412276

>  <Name>
ligand

>  <RI>
0

>  <Rbt.Current_Directory>
/home/itssahil/PROJECTS/Mol_Feturizer/New_Systems/rnas/4LVW

>  <Rbt.Executable>
rbdock ($Id: //depot/dev/client3/rdock/2013.1/src/exe/rbdock.cxx#4 $)

>  <Rbt.Library>
libRbt.so (2013.1, Build901 2013/11/27)

>  <Rbt.Parameter_File>
/export/apps/rDock/src/rDock_2013.1_src/data/scripts/dock_solv.prm

>  <Rbt.Receptor>
prm/pocket_docking_6.prm

>  <SCORE>
-13.9586

>  <SCORE.INTER>
-13.9586

>  <SCORE.INTER.CONST>
1

>  <SCORE.INTER.POLAR>
0

>  <SCORE.INTER.ROT>
0

>  <SCORE.INTER.SOLV>
5.44365

>  <SCORE.INTER.VDW>
-14.7203

>  <SCORE.INTER.norm>
-1.26896

>  <SCORE.INTRA>
0

>  <SCORE.INTRA.DIHEDRAL>
0

>  <SCORE.INTRA.DIHEDRAL.0>
0

>  <SCORE.INTRA.POLAR>
0

>  <SCORE.INTRA.POLAR.0>
0

>  <SCORE.INTRA.REPUL>
0

>  <SCORE.INTRA.REPUL.0>
0

>  <SCORE.INTRA.SOLV>
0

>  <SCORE.INTRA.SOLV.lig_0>
-29.307

>  <SCORE.INTRA.VDW>
0

>  <SCORE.INTRA.VDW.0>
0

>  <SCORE.INTRA.norm>
0

>  <SCORE.RESTR>
0

>  <SCORE.RESTR.CAVITY>
0

>  <SCORE.RESTR.norm>
0

>  <SCORE.SYSTEM>
0

>  <SCORE.SYSTEM.CONST>
0

>  <SCORE.SYSTEM.DIHEDRAL>
0

>  <SCORE.SYSTEM.SOLV>
0

>  <SCORE.SYSTEM.norm>
0

>  <SCORE.heavy>
11

>  <SCORE.norm>
-1.26896

>  <RMSD>
3.445

$$$$
ligand
 OpenBabel11021811503D
libRbt.so/2013.1/901 2013/11/27
 11 12  0  0  0  0  0  0  0  0999 V2000
    3.4424  -19.6831   25.2305 N   0  0  0  0  0  0  0  0  0  0  0  0
    3.2699  -20.4092   24.1119 C   0  0  0  0  0  0  0  0  0  0  0  0
    4.3355  -20.5508   23.1727 N   0  0  0  0  0  0  0  0  0  0  0  0
    2.1171  -21.0267   23.8371 N   0  0  0  0  0  0  0  0  0  0  0  0
    1.0407  -20.9288   24.6858 C   0  0  0  0  0  0  0  0  0  0  0  0
    1.1784  -20.1942   25.8435 C   0  0  0  0  0  0  0  0  0  0  0  0
    2.4254  -19.5621   26.1174 C   0  0  0  0  0  0  0  0  0  0  0  0
    2.5749  -18.8215   27.2687 O   0  0  0  0  0  0  0  0  0  0  0  0
   -0.0768  -20.2777   26.5257 C   0  0  0  0  0  0  0  0  0  0  0  0
   -0.9140  -21.0655   25.7235 C   0  0  0  0  0  0  0  0  0  0  0  0
   -0.2352  -21.4437   24.6330 N   0  0  0  0  0  0  0  0  0  0  0  0
  1  2  1  0  0  0  0
  1  7  1  0  0  0  0
  2  3  1  0  0  0  0
  2  4  2  0  0  0  0
  4  5  1  0  0  0  0
  5  6  2  0  0  0  0
  5 11  1  0  0  0  0
  6  7  1  0  0  0  0
  6  9  1  0  0  0  0
  7  8  2  0  0  0  0
  9 10  2  0  0  0  0
 10 11  1  0  0  0  0
M  END
>  <CHROM.1>
1.80204118,-20.33520712,25.19870183,-0.24381026,0.31924546,1.03938720

>  <Name>
ligand

>  <RI>
0

>  <Rbt.Current_Directory>
/home/itssahil/PROJECTS/Mol_Feturizer/New_Systems/rnas/4LVW

>  <Rbt.Executable>
rbdock ($Id: //depot/dev/client3/rdock/2013.1/src/exe/rbdock.cxx#4 $)

>  <Rbt.Library>
libRbt.so (2013.1, Build901 2013/11/27)

>  <Rbt.Parameter_File>
/export/apps/rDock/src/rDock_2013.1_src/data/scripts/dock_solv.prm

>  <Rbt.Receptor>
prm/pocket_docking_6.prm

>  <SCORE>
-13.9573

>  <SCORE.INTER>
-13.9573

>  <SCORE.INTER.CONST>
1

>  <SCORE.INTER.POLAR>
0

>  <SCORE.INTER.ROT>
0

>  <SCORE.INTER.SOLV>
5.3789

>  <SCORE.INTER.VDW>
-14.6979

>  <SCORE.INTER.norm>
-1.26885

>  <SCORE.INTRA>
0

>  <SCORE.INTRA.DIHEDRAL>
0

>  <SCORE.INTRA.DIHEDRAL.0>
0

>  <SCORE.INTRA.POLAR>
0

>  <SCORE.INTRA.POLAR.0>
0

>  <SCORE.INTRA.REPUL>
0

>  <SCORE.INTRA.REPUL.0>
0

>  <SCORE.INTRA.SOLV>
0

>  <SCORE.INTRA.SOLV.lig_0>
-29.307

>  <SCORE.INTRA.VDW>
0

>  <SCORE.INTRA.VDW.0>
0

>  <SCORE.INTRA.norm>
0

>  <SCORE.RESTR>
0

>  <SCORE.RESTR.CAVITY>
0

>  <SCORE.RESTR.norm>
0

>  <SCORE.SYSTEM>
0

>  <SCORE.SYSTEM.CONST>
0

>  <SCORE.SYSTEM.DIHEDRAL>
0

>  <SCORE.SYSTEM.SOLV>
0

>  <SCORE.SYSTEM.norm>
0

>  <SCORE.heavy>
11

>  <SCORE.norm>
-1.26885

>  <RMSD>
3.445

$$$$
ligand
 OpenBabel11021811503D
libRbt.so/2013.1/901 2013/11/27
 11 12  0  0  0  0  0  0  0  0999 V2000
    3.4381  -19.6878   25.2034 N   0  0  0  0  0  0  0  0  0  0  0  0
    3.2589  -20.4163   24.0875 C   0  0  0  0  0  0  0  0  0  0  0  0
    4.3191  -20.5609   23.1428 N   0  0  0  0  0  0  0  0  0  0  0  0
    2.1040  -21.0333   23.8204 N   0  0  0  0  0  0  0  0  0  0  0  0
    1.0323  -20.9325   24.6747 C   0  0  0  0  0  0  0  0  0  0  0  0
    1.1771  -20.1954   25.8299 C   0  0  0  0  0  0  0  0  0  0  0  0
    2.4261  -19.5638   26.0956 C   0  0  0  0  0  0  0  0  0  0  0  0
    2.5826  -18.8207   27.2443 O   0  0  0  0  0  0  0  0  0  0  0  0
   -0.0745  -20.2762   26.5192 C   0  0  0  0  0  0  0  0  0  0  0  0
   -0.9168  -21.0651   25.7234 C   0  0  0  0  0  0  0  0  0  0  0  0
   -0.2443  -21.4464   24.6301 N   0  0  0  0  0  0  0  0  0  0  0  0
  1  2  1  0  0  0  0
  1  7  1  0  0  0  0
  2  3  1  0  0  0  0
  2  4  2  0  0  0  0
  4  5  1  0  0  0  0
  5  6  2  0  0  0  0
  5 11  1  0  0  0  0
  6  7  1  0  0  0  0
  6  9  1  0  0  0  0
  7  8  2  0  0  0  0
  9 10  2  0  0  0  0
 10 11  1  0  0  0  0
M  END
>  <CHROM.1>
1.79701632,-20.33842424,25.18207713,-0.24925585,0.32122894,1.03881272

>  <Name>
ligand

>  <RI>
0

>  <Rbt.Current_Directory>
/home/itssahil/PROJECTS/Mol_Feturizer/New_Systems/rnas/4LVW

>  <Rbt.Executable>
rbdock ($Id: //depot/dev/client3/rdock/2013.1/src/exe/rbdock.cxx#4 $)

>  <Rbt.Library>
libRbt.so (2013.1, Build901 2013/11/27)

>  <Rbt.Parameter_File>
/export/apps/rDock/src/rDock_2013.1_src/data/scripts/dock_solv.prm

>  <Rbt.Receptor>
prm/pocket_docking_6.prm

>  <SCORE>
-13.9459

>  <SCORE.INTER>
-13.9459

>  <SCORE.INTER.CONST>
1

>  <SCORE.INTER.POLAR>
0

>  <SCORE.INTER.ROT>
0

>  <SCORE.INTER.SOLV>
5.4933

>  <SCORE.INTER.VDW>
-14.7284

>  <SCORE.INTER.norm>
-1.26781

>  <SCORE.INTRA>
0

>  <SCORE.INTRA.DIHEDRAL>
0

>  <SCORE.INTRA.DIHEDRAL.0>
0

>  <SCORE.INTRA.POLAR>
0

>  <SCORE.INTRA.POLAR.0>
0

>  <SCORE.INTRA.REPUL>
0

>  <SCORE.INTRA.REPUL.0>
0

>  <SCORE.INTRA.SOLV>
0

>  <SCORE.INTRA.SOLV.lig_0>
-29.307

>  <SCORE.INTRA.VDW>
0

>  <SCORE.INTRA.VDW.0>
0

>  <SCORE.INTRA.norm>
0

>  <SCORE.RESTR>
0

>  <SCORE.RESTR.CAVITY>
0

>  <SCORE.RESTR.norm>
0

>  <SCORE.SYSTEM>
0

>  <SCORE.SYSTEM.CONST>
0

>  <SCORE.SYSTEM.DIHEDRAL>
0

>  <SCORE.SYSTEM.SOLV>
0

>  <SCORE.SYSTEM.norm>
0

>  <SCORE.heavy>
11

>  <SCORE.norm>
-1.26781

>  <RMSD>
3.445

$$$$
ligand
 OpenBabel11021811503D
libRbt.so/2013.1/901 2013/11/27
 11 12  0  0  0  0  0  0  0  0999 V2000
    3.4474  -19.6864   25.2098 N   0  0  0  0  0  0  0  0  0  0  0  0
    3.2701  -20.4162   24.0944 C   0  0  0  0  0  0  0  0  0  0  0  0
    4.3325  -20.5633   23.1525 N   0  0  0  0  0  0  0  0  0  0  0  0
    2.1152  -21.0323   23.8253 N   0  0  0  0  0  0  0  0  0  0  0  0
    1.0416  -20.9292   24.6768 C   0  0  0  0  0  0  0  0  0  0  0  0
    1.1843  -20.1907   25.8314 C   0  0  0  0  0  0  0  0  0  0  0  0
    2.4334  -19.5601   26.0993 C   0  0  0  0  0  0  0  0  0  0  0  0
    2.5878  -18.8156   27.2475 O   0  0  0  0  0  0  0  0  0  0  0  0
   -0.0691  -20.2691   26.5177 C   0  0  0  0  0  0  0  0  0  0  0  0
   -0.9103  -21.0582   25.7208 C   0  0  0  0  0  0  0  0  0  0  0  0
   -0.2355  -21.4417   24.6297 N   0  0  0  0  0  0  0  0  0  0  0  0
  1  2  1  0  0  0  0
  1  7  1  0  0  0  0
  2  3  1  0  0  0  0
  2  4  2  0  0  0  0
  4  5  1  0  0  0  0
  5  6  2  0  0  0  0
  5 11  1  0  0  0  0
  6  7  1  0  0  0  0
  6  9  1  0  0  0  0
  7  8  2  0  0  0  0
  9 10  2  0  0  0  0
 10 11  1  0  0  0  0
M  END
>  <CHROM.1>
1.80564730,-20.33527098,25.18526353,-0.24761453,0.31901264,1.03696916

>  <Name>
ligand

>  <RI>
0

>  <Rbt.Current_Directory>
/home/itssahil/PROJECTS/Mol_Feturizer/New_Systems/rnas/4LVW

>  <Rbt.Executable>
rbdock ($Id: //depot/dev/client3/rdock/2013.1/src/exe/rbdock.cxx#4 $)

>  <Rbt.Library>
libRbt.so (2013.1, Build901 2013/11/27)

>  <Rbt.Parameter_File>
/export/apps/rDock/src/rDock_2013.1_src/data/scripts/dock_solv.prm

>  <Rbt.Receptor>
prm/pocket_docking_7.prm

>  <SCORE>
-13.9639

>  <SCORE.INTER>
-13.9639

>  <SCORE.INTER.CONST>
1

>  <SCORE.INTER.POLAR>
0

>  <SCORE.INTER.ROT>
0

>  <SCORE.INTER.SOLV>
5.42339

>  <SCORE.INTER.VDW>
-14.7171

>  <SCORE.INTER.norm>
-1.26944

>  <SCORE.INTRA>
0

>  <SCORE.INTRA.DIHEDRAL>
0

>  <SCORE.INTRA.DIHEDRAL.0>
0

>  <SCORE.INTRA.POLAR>
0

>  <SCORE.INTRA.POLAR.0>
0

>  <SCORE.INTRA.REPUL>
0

>  <SCORE.INTRA.REPUL.0>
0

>  <SCORE.INTRA.SOLV>
0

>  <SCORE.INTRA.SOLV.lig_0>
-29.307

>  <SCORE.INTRA.VDW>
0

>  <SCORE.INTRA.VDW.0>
0

>  <SCORE.INTRA.norm>
0

>  <SCORE.RESTR>
0

>  <SCORE.RESTR.CAVITY>
0

>  <SCORE.RESTR.norm>
0

>  <SCORE.SYSTEM>
0

>  <SCORE.SYSTEM.CONST>
0

>  <SCORE.SYSTEM.DIHEDRAL>
0

>  <SCORE.SYSTEM.SOLV>
0

>  <SCORE.SYSTEM.norm>
0

>  <SCORE.heavy>
11

>  <SCORE.norm>
-1.26944

>  <RMSD>
3.445

$$$$
ligand
 OpenBabel11021811503D
libRbt.so/2013.1/901 2013/11/27
 11 12  0  0  0  0  0  0  0  0999 V2000
    3.4478  -19.6844   25.2199 N   0  0  0  0  0  0  0  0  0  0  0  0
    3.2714  -20.4083   24.1005 C   0  0  0  0  0  0  0  0  0  0  0  0
    4.3339  -20.5489   23.1578 N   0  0  0  0  0  0  0  0  0  0  0  0
    2.1172  -21.0243   23.8281 N   0  0  0  0  0  0  0  0  0  0  0  0
    1.0435  -20.9271   24.6802 C   0  0  0  0  0  0  0  0  0  0  0  0
    1.1853  -20.1948   25.8388 C   0  0  0  0  0  0  0  0  0  0  0  0
    2.4337  -19.5642   26.1102 C   0  0  0  0  0  0  0  0  0  0  0  0
    2.5873  -18.8259   27.2624 O   0  0  0  0  0  0  0  0  0  0  0  0
   -0.0679  -20.2786   26.5248 C   0  0  0  0  0  0  0  0  0  0  0  0
   -0.9082  -21.0642   25.7236 C   0  0  0  0  0  0  0  0  0  0  0  0
   -0.2330  -21.4409   24.6303 N   0  0  0  0  0  0  0  0  0  0  0  0
  1  2  1  0  0  0  0
  1  7  1  0  0  0  0
  2  3  1  0  0  0  0
  2  4  2  0  0  0  0
  4  5  1  0  0  0  0
  5  6  2  0  0  0  0
  5 11  1  0  0  0  0
  6  7  1  0  0  0  0
  6  9  1  0  0  0  0
  7  8  2  0  0  0  0
  9 10  2  0  0  0  0
 10 11  1  0  0  0  0
M  END
>  <CHROM.1>
1.80685451,-20.33509985,25.19188799,-0.24701097,0.32009251,1.04228062

>  <Name>
ligand

>  <RI>
0

>  <Rbt.Current_Directory>
/home/itssahil/PROJECTS/Mol_Feturizer/New_Systems/rnas/4LVW

>  <Rbt.Executable>
rbdock ($Id: //depot/dev/client3/rdock/2013.1/src/exe/rbdock.cxx#4 $)

>  <Rbt.Library>
libRbt.so (2013.1, Build901 2013/11/27)

>  <Rbt.Parameter_File>
/export/apps/rDock/src/rDock_2013.1_src/data/scripts/dock_solv.prm

>  <Rbt.Receptor>
prm/pocket_docking_7.prm

>  <SCORE>
-13.9746

>  <SCORE.INTER>
-13.9746

>  <SCORE.INTER.CONST>
1

>  <SCORE.INTER.POLAR>
0

>  <SCORE.INTER.ROT>
0

>  <SCORE.INTER.SOLV>
5.3896

>  <SCORE.INTER.VDW>
-14.7129

>  <SCORE.INTER.norm>
-1.27042

>  <SCORE.INTRA>
0

>  <SCORE.INTRA.DIHEDRAL>
0

>  <SCORE.INTRA.DIHEDRAL.0>
0

>  <SCORE.INTRA.POLAR>
0

>  <SCORE.INTRA.POLAR.0>
0

>  <SCORE.INTRA.REPUL>
0

>  <SCORE.INTRA.REPUL.0>
0

>  <SCORE.INTRA.SOLV>
0

>  <SCORE.INTRA.SOLV.lig_0>
-29.307

>  <SCORE.INTRA.VDW>
0

>  <SCORE.INTRA.VDW.0>
0

>  <SCORE.INTRA.norm>
0

>  <SCORE.RESTR>
0

>  <SCORE.RESTR.CAVITY>
0

>  <SCORE.RESTR.norm>
0

>  <SCORE.SYSTEM>
0

>  <SCORE.SYSTEM.CONST>
0

>  <SCORE.SYSTEM.DIHEDRAL>
0

>  <SCORE.SYSTEM.SOLV>
0

>  <SCORE.SYSTEM.norm>
0

>  <SCORE.heavy>
11

>  <SCORE.norm>
-1.27042

>  <RMSD>
3.445

$$$$
ligand
 OpenBabel11021811503D
libRbt.so/2013.1/901 2013/11/27
 11 12  0  0  0  0  0  0  0  0999 V2000
    3.4489  -19.6885   25.2237 N   0  0  0  0  0  0  0  0  0  0  0  0
    3.2736  -20.4146   24.1055 C   0  0  0  0  0  0  0  0  0  0  0  0
    4.3377  -20.5586   23.1651 N   0  0  0  0  0  0  0  0  0  0  0  0
    2.1191  -21.0297   23.8322 N   0  0  0  0  0  0  0  0  0  0  0  0
    1.0439  -20.9293   24.6821 C   0  0  0  0  0  0  0  0  0  0  0  0
    1.1845  -20.1947   25.8394 C   0  0  0  0  0  0  0  0  0  0  0  0
    2.4332  -19.5651   26.1118 C   0  0  0  0  0  0  0  0  0  0  0  0
    2.5855  -18.8245   27.2627 O   0  0  0  0  0  0  0  0  0  0  0  0
   -0.0702  -20.2753   26.5231 C   0  0  0  0  0  0  0  0  0  0  0  0
   -0.9099  -21.0616   25.7221 C   0  0  0  0  0  0  0  0  0  0  0  0
   -0.2332  -21.4415   24.6309 N   0  0  0  0  0  0  0  0  0  0  0  0
  1  2  1  0  0  0  0
  1  7  1  0  0  0  0
  2  3  1  0  0  0  0
  2  4  2  0  0  0  0
  4  5  1  0  0  0  0
  5  6  2  0  0  0  0
  5 11  1  0  0  0  0
  6  7  1  0  0  0  0
  6  9  1  0  0  0  0
  7  8  2  0  0  0  0
  9 10  2  0  0  0  0
 10 11  1  0  0  0  0
M  END
>  <CHROM.1>
1.80707459,-20.33714781,25.19396930,-0.24597479,0.31799614,1.03979268

>  <Name>
ligand

>  <RI>
0

>  <Rbt.Current_Directory>
/home/itssahil/PROJECTS/Mol_Feturizer/New_Systems/rnas/4LVW

>  <Rbt.Executable>
rbdock ($Id: //depot/dev/client3/rdock/2013.1/src/exe/rbdock.cxx#4 $)

>  <Rbt.Library>
libRbt.so (2013.1, Build901 2013/11/27)

>  <Rbt.Parameter_File>
/export/apps/rDock/src/rDock_2013.1_src/data/scripts/dock_solv.prm

>  <Rbt.Receptor>
prm/pocket_docking_7.prm

>  <SCORE>
-13.9717

>  <SCORE.INTER>
-13.9717

>  <SCORE.INTER.CONST>
1

>  <SCORE.INTER.POLAR>
0

>  <SCORE.INTER.ROT>
0

>  <SCORE.INTER.SOLV>
5.38129

>  <SCORE.INTER.VDW>
-14.7082

>  <SCORE.INTER.norm>
-1.27016

>  <SCORE.INTRA>
0

>  <SCORE.INTRA.DIHEDRAL>
0

>  <SCORE.INTRA.DIHEDRAL.0>
0

>  <SCORE.INTRA.POLAR>
0

>  <SCORE.INTRA.POLAR.0>
0

>  <SCORE.INTRA.REPUL>
0

>  <SCORE.INTRA.REPUL.0>
0

>  <SCORE.INTRA.SOLV>
0

>  <SCORE.INTRA.SOLV.lig_0>
-29.307

>  <SCORE.INTRA.VDW>
0

>  <SCORE.INTRA.VDW.0>
0

>  <SCORE.INTRA.norm>
0

>  <SCORE.RESTR>
0

>  <SCORE.RESTR.CAVITY>
0

>  <SCORE.RESTR.norm>
0

>  <SCORE.SYSTEM>
0

>  <SCORE.SYSTEM.CONST>
0

>  <SCORE.SYSTEM.DIHEDRAL>
0

>  <SCORE.SYSTEM.SOLV>
0

>  <SCORE.SYSTEM.norm>
0

>  <SCORE.heavy>
11

>  <SCORE.norm>
-1.27016

>  <RMSD>
3.445

$$$$
ligand
 OpenBabel11021811503D
libRbt.so/2013.1/901 2013/11/27
 11 12  0  0  0  0  0  0  0  0999 V2000
    3.4477  -19.6850   25.1995 N   0  0  0  0  0  0  0  0  0  0  0  0
    3.2676  -20.4151   24.0847 C   0  0  0  0  0  0  0  0  0  0  0  0
    4.3274  -20.5617   23.1398 N   0  0  0  0  0  0  0  0  0  0  0  0
    2.1123  -21.0319   23.8190 N   0  0  0  0  0  0  0  0  0  0  0  0
    1.0410  -20.9291   24.6735 C   0  0  0  0  0  0  0  0  0  0  0  0
    1.1865  -20.1904   25.8275 C   0  0  0  0  0  0  0  0  0  0  0  0
    2.4360  -19.5591   26.0918 C   0  0  0  0  0  0  0  0  0  0  0  0
    2.5933  -18.8143   27.2394 O   0  0  0  0  0  0  0  0  0  0  0  0
   -0.0649  -20.2694   26.5174 C   0  0  0  0  0  0  0  0  0  0  0  0
   -0.9078  -21.0590   25.7230 C   0  0  0  0  0  0  0  0  0  0  0  0
   -0.2360  -21.4424   24.6301 N   0  0  0  0  0  0  0  0  0  0  0  0
  1  2  1  0  0  0  0
  1  7  1  0  0  0  0
  2  3  1  0  0  0  0
  2  4  2  0  0  0  0
  4  5  1  0  0  0  0
  5  6  2  0  0  0  0
  5 11  1  0  0  0  0
  6  7  1  0  0  0  0
  6  9  1  0  0  0  0
  7  8  2  0  0  0  0
  9 10  2  0  0  0  0
 10 11  1  0  0  0  0
M  END
>  <CHROM.1>
1.80616884,-20.33473330,25.17968461,-0.24988075,0.32092058,1.03750731

>  <Name>
ligand

>  <RI>
0

>  <Rbt.Current_Directory>
/home/itssahil/PROJECTS/Mol_Feturizer/New_Systems/rnas/4LVW

>  <Rbt.Executable>
rbdock ($Id: //depot/dev/client3/rdock/2013.1/src/exe/rbdock.cxx#4 $)

>  <Rbt.Library>
libRbt.so (2013.1, Build901 2013/11/27)

>  <Rbt.Parameter_File>
/export/apps/rDock/src/rDock_2013.1_src/data/scripts/dock_solv.prm

>  <Rbt.Receptor>
prm/pocket_docking_7.prm

>  <SCORE>
-13.9593

>  <SCORE.INTER>
-13.9593

>  <SCORE.INTER.CONST>
1

>  <SCORE.INTER.POLAR>
0

>  <SCORE.INTER.ROT>
0

>  <SCORE.INTER.SOLV>
5.46401

>  <SCORE.INTER.VDW>
-14.7275

>  <SCORE.INTER.norm>
-1.26903

>  <SCORE.INTRA>
0

>  <SCORE.INTRA.DIHEDRAL>
0

>  <SCORE.INTRA.DIHEDRAL.0>
0

>  <SCORE.INTRA.POLAR>
0

>  <SCORE.INTRA.POLAR.0>
0

>  <SCORE.INTRA.REPUL>
0

>  <SCORE.INTRA.REPUL.0>
0

>  <SCORE.INTRA.SOLV>
0

>  <SCORE.INTRA.SOLV.lig_0>
-29.307

>  <SCORE.INTRA.VDW>
0

>  <SCORE.INTRA.VDW.0>
0

>  <SCORE.INTRA.norm>
0

>  <SCORE.RESTR>
0

>  <SCORE.RESTR.CAVITY>
0

>  <SCORE.RESTR.norm>
0

>  <SCORE.SYSTEM>
0

>  <SCORE.SYSTEM.CONST>
0

>  <SCORE.SYSTEM.DIHEDRAL>
0

>  <SCORE.SYSTEM.SOLV>
0

>  <SCORE.SYSTEM.norm>
0

>  <SCORE.heavy>
11

>  <SCORE.norm>
-1.26903

>  <RMSD>
3.445

$$$$
ligand
 OpenBabel11021811503D
libRbt.so/2013.1/901 2013/11/27
 11 12  0  0  0  0  0  0  0  0999 V2000
    3.4484  -19.6809   25.2112 N   0  0  0  0  0  0  0  0  0  0  0  0
    3.2688  -20.4019   24.0904 C   0  0  0  0  0  0  0  0  0  0  0  0
    4.3282  -20.5388   23.1436 N   0  0  0  0  0  0  0  0  0  0  0  0
    2.1144  -21.0184   23.8203 N   0  0  0  0  0  0  0  0  0  0  0  0
    1.0435  -20.9248   24.6764 C   0  0  0  0  0  0  0  0  0  0  0  0
    1.1886  -20.1955   25.8365 C   0  0  0  0  0  0  0  0  0  0  0  0
    2.4373  -19.5643   26.1053 C   0  0  0  0  0  0  0  0  0  0  0  0
    2.5941  -18.8290   27.2590 O   0  0  0  0  0  0  0  0  0  0  0  0
   -0.0621  -20.2825   26.5266 C   0  0  0  0  0  0  0  0  0  0  0  0
   -0.9043  -21.0668   25.7262 C   0  0  0  0  0  0  0  0  0  0  0  0
   -0.2326  -21.4398   24.6296 N   0  0  0  0  0  0  0  0  0  0  0  0
  1  2  1  0  0  0  0
  1  7  1  0  0  0  0
  2  3  1  0  0  0  0
  2  4  2  0  0  0  0
  4  5  1  0  0  0  0
  5  6  2  0  0  0  0
  5 11  1  0  0  0  0
  6  7  1  0  0  0  0
  6  9  1  0  0  0  0
  7  8  2  0  0  0  0
  9 10  2  0  0  0  0
 10 11  1  0  0  0  0
M  END
>  <CHROM.1>
1.80804993,-20.33333866,25.18704956,-0.24961757,0.32275867,1.04586356

>  <Name>
ligand

>  <RI>
0

>  <Rbt.Current_Directory>
/home/itssahil/PROJECTS/Mol_Feturizer/New_Systems/rnas/4LVW

>  <Rbt.Executable>
rbdock ($Id: //depot/dev/client3/rdock/2013.1/src/exe/rbdock.cxx#4 $)

>  <Rbt.Library>
libRbt.so (2013.1, Build901 2013/11/27)

>  <Rbt.Parameter_File>
/export/apps/rDock/src/rDock_2013.1_src/data/scripts/dock_solv.prm

>  <Rbt.Receptor>
prm/pocket_docking_7.prm

>  <SCORE>
-13.9739

>  <SCORE.INTER>
-13.9739

>  <SCORE.INTER.CONST>
1

>  <SCORE.INTER.POLAR>
0

>  <SCORE.INTER.ROT>
0

>  <SCORE.INTER.SOLV>
5.42573

>  <SCORE.INTER.VDW>
-14.7245

>  <SCORE.INTER.norm>
-1.27035

>  <SCORE.INTRA>
0

>  <SCORE.INTRA.DIHEDRAL>
0

>  <SCORE.INTRA.DIHEDRAL.0>
0

>  <SCORE.INTRA.POLAR>
0

>  <SCORE.INTRA.POLAR.0>
0

>  <SCORE.INTRA.REPUL>
0

>  <SCORE.INTRA.REPUL.0>
0

>  <SCORE.INTRA.SOLV>
0

>  <SCORE.INTRA.SOLV.lig_0>
-29.307

>  <SCORE.INTRA.VDW>
0

>  <SCORE.INTRA.VDW.0>
0

>  <SCORE.INTRA.norm>
0

>  <SCORE.RESTR>
0

>  <SCORE.RESTR.CAVITY>
0

>  <SCORE.RESTR.norm>
0

>  <SCORE.SYSTEM>
0

>  <SCORE.SYSTEM.CONST>
0

>  <SCORE.SYSTEM.DIHEDRAL>
0

>  <SCORE.SYSTEM.SOLV>
0

>  <SCORE.SYSTEM.norm>
0

>  <SCORE.heavy>
11

>  <SCORE.norm>
-1.27035

>  <RMSD>
3.445

$$$$
ligand
 OpenBabel11021811503D
libRbt.so/2013.1/901 2013/11/27
 11 12  0  0  0  0  0  0  0  0999 V2000
    3.4464  -19.6845   25.1946 N   0  0  0  0  0  0  0  0  0  0  0  0
    3.2602  -20.4035   24.0736 C   0  0  0  0  0  0  0  0  0  0  0  0
    4.3145  -20.5399   23.1211 N   0  0  0  0  0  0  0  0  0  0  0  0
    2.1038  -21.0186   23.8087 N   0  0  0  0  0  0  0  0  0  0  0  0
    1.0376  -20.9253   24.6706 C   0  0  0  0  0  0  0  0  0  0  0  0
    1.1895  -20.1980   25.8311 C   0  0  0  0  0  0  0  0  0  0  0  0
    2.4401  -19.5684   26.0942 C   0  0  0  0  0  0  0  0  0  0  0  0
    2.6036  -18.8350   27.2482 O   0  0  0  0  0  0  0  0  0  0  0  0
   -0.0577  -20.2850   26.5276 C   0  0  0  0  0  0  0  0  0  0  0  0
   -0.9048  -21.0673   25.7304 C   0  0  0  0  0  0  0  0  0  0  0  0
   -0.2392  -21.4392   24.6297 N   0  0  0  0  0  0  0  0  0  0  0  0
  1  2  1  0  0  0  0
  1  7  1  0  0  0  0
  2  3  1  0  0  0  0
  2  4  2  0  0  0  0
  4  5  1  0  0  0  0
  5  6  2  0  0  0  0
  5 11  1  0  0  0  0
  6  7  1  0  0  0  0
  6  9  1  0  0  0  0
  7  8  2  0  0  0  0
  9 10  2  0  0  0  0
 10 11  1  0  0  0  0
M  END
>  <CHROM.1>
1.80532881,-20.33538709,25.17814629,-0.25491520,0.32462485,1.04911285

>  <Name>
ligand

>  <RI>
0

>  <Rbt.Current_Directory>
/home/itssahil/PROJECTS/Mol_Feturizer/New_Systems/rnas/4LVW

>  <Rbt.Executable>
rbdock ($Id: //depot/dev/client3/rdock/2013.1/src/exe/rbdock.cxx#4 $)

>  <Rbt.Library>
libRbt.so (2013.1, Build901 2013/11/27)

>  <Rbt.Parameter_File>
/export/apps/rDock/src/rDock_2013.1_src/data/scripts/dock_solv.prm

>  <Rbt.Receptor>
prm/pocket_docking_7.prm

>  <SCORE>
-13.9653

>  <SCORE.INTER>
-13.9653

>  <SCORE.INTER.CONST>
1

>  <SCORE.INTER.POLAR>
0

>  <SCORE.INTER.ROT>
0

>  <SCORE.INTER.SOLV>
5.51563

>  <SCORE.INTER.VDW>
-14.7487

>  <SCORE.INTER.norm>
-1.26957

>  <SCORE.INTRA>
0

>  <SCORE.INTRA.DIHEDRAL>
0

>  <SCORE.INTRA.DIHEDRAL.0>
0

>  <SCORE.INTRA.POLAR>
0

>  <SCORE.INTRA.POLAR.0>
0

>  <SCORE.INTRA.REPUL>
0

>  <SCORE.INTRA.REPUL.0>
0

>  <SCORE.INTRA.SOLV>
0

>  <SCORE.INTRA.SOLV.lig_0>
-29.307

>  <SCORE.INTRA.VDW>
0

>  <SCORE.INTRA.VDW.0>
0

>  <SCORE.INTRA.norm>
0

>  <SCORE.RESTR>
0

>  <SCORE.RESTR.CAVITY>
0

>  <SCORE.RESTR.norm>
0

>  <SCORE.SYSTEM>
0

>  <SCORE.SYSTEM.CONST>
0

>  <SCORE.SYSTEM.DIHEDRAL>
0

>  <SCORE.SYSTEM.SOLV>
0

>  <SCORE.SYSTEM.norm>
0

>  <SCORE.heavy>
11

>  <SCORE.norm>
-1.26957

>  <RMSD>
3.445

$$$$
ligand
 OpenBabel11021811503D
libRbt.so/2013.1/901 2013/11/27
 11 12  0  0  0  0  0  0  0  0999 V2000
    3.4457  -19.6869   25.2084 N   0  0  0  0  0  0  0  0  0  0  0  0
    3.2671  -20.4128   24.0907 C   0  0  0  0  0  0  0  0  0  0  0  0
    4.3286  -20.5570   23.1473 N   0  0  0  0  0  0  0  0  0  0  0  0
    2.1118  -21.0276   23.8206 N   0  0  0  0  0  0  0  0  0  0  0  0
    1.0389  -20.9271   24.6734 C   0  0  0  0  0  0  0  0  0  0  0  0
    1.1830  -20.1926   25.8304 C   0  0  0  0  0  0  0  0  0  0  0  0
    2.4325  -19.5633   26.0994 C   0  0  0  0  0  0  0  0  0  0  0  0
    2.5883  -18.8228   27.2499 O   0  0  0  0  0  0  0  0  0  0  0  0
   -0.0698  -20.2730   26.5177 C   0  0  0  0  0  0  0  0  0  0  0  0
   -0.9120  -21.0590   25.7189 C   0  0  0  0  0  0  0  0  0  0  0  0
   -0.2384  -21.4390   24.6258 N   0  0  0  0  0  0  0  0  0  0  0  0
  1  2  1  0  0  0  0
  1  7  1  0  0  0  0
  2  3  1  0  0  0  0
  2  4  2  0  0  0  0
  4  5  1  0  0  0  0
  5  6  2  0  0  0  0
  5 11  1  0  0  0  0
  6  7  1  0  0  0  0
  6  9  1  0  0  0  0
  7  8  2  0  0  0  0
  9 10  2  0  0  0  0
 10 11  1  0  0  0  0
M  END
>  <CHROM.1>
1.80370362,-20.33514878,25.18322463,-0.24864933,0.31921033,1.04071963

>  <Name>
ligand

>  <RI>
0

>  <Rbt.Current_Directory>
/home/itssahil/PROJECTS/Mol_Feturizer/New_Systems/rnas/4LVW

>  <Rbt.Executable>
rbdock ($Id: //depot/dev/client3/rdock/2013.1/src/exe/rbdock.cxx#4 $)

>  <Rbt.Library>
libRbt.so (2013.1, Build901 2013/11/27)

>  <Rbt.Parameter_File>
/export/apps/rDock/src/rDock_2013.1_src/data/scripts/dock_solv.prm

>  <Rbt.Receptor>
prm/pocket_docking_7.prm

>  <SCORE>
-13.9624

>  <SCORE.INTER>
-13.9624

>  <SCORE.INTER.CONST>
1

>  <SCORE.INTER.POLAR>
0

>  <SCORE.INTER.ROT>
0

>  <SCORE.INTER.SOLV>
5.44103

>  <SCORE.INTER.VDW>
-14.7219

>  <SCORE.INTER.norm>
-1.26931

>  <SCORE.INTRA>
0

>  <SCORE.INTRA.DIHEDRAL>
0

>  <SCORE.INTRA.DIHEDRAL.0>
0

>  <SCORE.INTRA.POLAR>
0

>  <SCORE.INTRA.POLAR.0>
0

>  <SCORE.INTRA.REPUL>
0

>  <SCORE.INTRA.REPUL.0>
0

>  <SCORE.INTRA.SOLV>
0

>  <SCORE.INTRA.SOLV.lig_0>
-29.307

>  <SCORE.INTRA.VDW>
0

>  <SCORE.INTRA.VDW.0>
0

>  <SCORE.INTRA.norm>
0

>  <SCORE.RESTR>
0

>  <SCORE.RESTR.CAVITY>
0

>  <SCORE.RESTR.norm>
0

>  <SCORE.SYSTEM>
0

>  <SCORE.SYSTEM.CONST>
0

>  <SCORE.SYSTEM.DIHEDRAL>
0

>  <SCORE.SYSTEM.SOLV>
0

>  <SCORE.SYSTEM.norm>
0

>  <SCORE.heavy>
11

>  <SCORE.norm>
-1.26931

>  <RMSD>
3.445

$$$$
ligand
 OpenBabel11021811503D
libRbt.so/2013.1/901 2013/11/27
 11 12  0  0  0  0  0  0  0  0999 V2000
    3.4487  -19.6856   25.2080 N   0  0  0  0  0  0  0  0  0  0  0  0
    3.2684  -20.4087   24.0886 C   0  0  0  0  0  0  0  0  0  0  0  0
    4.3279  -20.5491   23.1424 N   0  0  0  0  0  0  0  0  0  0  0  0
    2.1131  -21.0241   23.8194 N   0  0  0  0  0  0  0  0  0  0  0  0
    1.0421  -20.9270   24.6750 C   0  0  0  0  0  0  0  0  0  0  0  0
    1.1879  -20.1956   25.8337 C   0  0  0  0  0  0  0  0  0  0  0  0
    2.4374  -19.5656   26.1015 C   0  0  0  0  0  0  0  0  0  0  0  0
    2.5950  -18.8281   27.2537 O   0  0  0  0  0  0  0  0  0  0  0  0
   -0.0632  -20.2792   26.5235 C   0  0  0  0  0  0  0  0  0  0  0  0
   -0.9063  -21.0640   25.7245 C   0  0  0  0  0  0  0  0  0  0  0  0
   -0.2348  -21.4402   24.6289 N   0  0  0  0  0  0  0  0  0  0  0  0
  1  2  1  0  0  0  0
  1  7  1  0  0  0  0
  2  3  1  0  0  0  0
  2  4  2  0  0  0  0
  4  5  1  0  0  0  0
  5  6  2  0  0  0  0
  5 11  1  0  0  0  0
  6  7  1  0  0  0  0
  6  9  1  0  0  0  0
  7  8  2  0  0  0  0
  9 10  2  0  0  0  0
 10 11  1  0  0  0  0
M  END
>  <CHROM.1>
1.80735390,-20.33564409,25.18468225,-0.25011378,0.32131687,1.04391961

>  <Name>
ligand

>  <RI>
0

>  <Rbt.Current_Directory>
/home/itssahil/PROJECTS/Mol_Feturizer/New_Systems/rnas/4LVW

>  <Rbt.Executable>
rbdock ($Id: //depot/dev/client3/rdock/2013.1/src/exe/rbdock.cxx#4 $)

>  <Rbt.Library>
libRbt.so (2013.1, Build901 2013/11/27)

>  <Rbt.Parameter_File>
/export/apps/rDock/src/rDock_2013.1_src/data/scripts/dock_solv.prm

>  <Rbt.Receptor>
prm/pocket_docking_7.prm

>  <SCORE>
-13.9734

>  <SCORE.INTER>
-13.9734

>  <SCORE.INTER.CONST>
1

>  <SCORE.INTER.POLAR>
0

>  <SCORE.INTER.ROT>
0

>  <SCORE.INTER.SOLV>
5.43747

>  <SCORE.INTER.VDW>
-14.7281

>  <SCORE.INTER.norm>
-1.27031

>  <SCORE.INTRA>
0

>  <SCORE.INTRA.DIHEDRAL>
0

>  <SCORE.INTRA.DIHEDRAL.0>
0

>  <SCORE.INTRA.POLAR>
0

>  <SCORE.INTRA.POLAR.0>
0

>  <SCORE.INTRA.REPUL>
0

>  <SCORE.INTRA.REPUL.0>
0

>  <SCORE.INTRA.SOLV>
0

>  <SCORE.INTRA.SOLV.lig_0>
-29.307

>  <SCORE.INTRA.VDW>
0

>  <SCORE.INTRA.VDW.0>
0

>  <SCORE.INTRA.norm>
0

>  <SCORE.RESTR>
0

>  <SCORE.RESTR.CAVITY>
0

>  <SCORE.RESTR.norm>
0

>  <SCORE.SYSTEM>
0

>  <SCORE.SYSTEM.CONST>
0

>  <SCORE.SYSTEM.DIHEDRAL>
0

>  <SCORE.SYSTEM.SOLV>
0

>  <SCORE.SYSTEM.norm>
0

>  <SCORE.heavy>
11

>  <SCORE.norm>
-1.27031

>  <RMSD>
3.445

$$$$
ligand
 OpenBabel11021811503D
libRbt.so/2013.1/901 2013/11/27
 11 12  0  0  0  0  0  0  0  0999 V2000
    3.4375  -19.6739   25.2707 N   0  0  0  0  0  0  0  0  0  0  0  0
    3.2653  -20.3654   24.1303 C   0  0  0  0  0  0  0  0  0  0  0  0
    4.3316  -20.4792   23.1882 N   0  0  0  0  0  0  0  0  0  0  0  0
    2.1121  -20.9730   23.8358 N   0  0  0  0  0  0  0  0  0  0  0  0
    1.0351  -20.9000   24.6861 C   0  0  0  0  0  0  0  0  0  0  0  0
    1.1724  -20.2013   25.8658 C   0  0  0  0  0  0  0  0  0  0  0  0
    2.4198  -19.5790   26.1601 C   0  0  0  0  0  0  0  0  0  0  0  0
    2.5690  -18.8741   27.3335 O   0  0  0  0  0  0  0  0  0  0  0  0
   -0.0835  -20.3043   26.5441 C   0  0  0  0  0  0  0  0  0  0  0  0
   -0.9207  -21.0664   25.7175 C   0  0  0  0  0  0  0  0  0  0  0  0
   -0.2413  -21.4118   24.6165 N   0  0  0  0  0  0  0  0  0  0  0  0
  1  2  1  0  0  0  0
  1  7  1  0  0  0  0
  2  3  1  0  0  0  0
  2  4  2  0  0  0  0
  4  5  1  0  0  0  0
  5  6  2  0  0  0  0
  5 11  1  0  0  0  0
  6  7  1  0  0  0  0
  6  9  1  0  0  0  0
  7  8  2  0  0  0  0
  9 10  2  0  0  0  0
 10 11  1  0  0  0  0
M  END
>  <CHROM.1>
1.79650346,-20.32312069,25.21759841,-0.24349932,0.31794704,1.06983239

>  <Name>
ligand

>  <RI>
0

>  <Rbt.Current_Directory>
/home/itssahil/PROJECTS/Mol_Feturizer/New_Systems/rnas/4LVW

>  <Rbt.Executable>
rbdock ($Id: //depot/dev/client3/rdock/2013.1/src/exe/rbdock.cxx#4 $)

>  <Rbt.Library>
libRbt.so (2013.1, Build901 2013/11/27)

>  <Rbt.Parameter_File>
/export/apps/rDock/src/rDock_2013.1_src/data/scripts/dock_solv.prm

>  <Rbt.Receptor>
prm/pocket_docking_7.prm

>  <SCORE>
-13.929

>  <SCORE.INTER>
-13.929

>  <SCORE.INTER.CONST>
1

>  <SCORE.INTER.POLAR>
0

>  <SCORE.INTER.ROT>
0

>  <SCORE.INTER.SOLV>
5.27346

>  <SCORE.INTER.VDW>
-14.6438

>  <SCORE.INTER.norm>
-1.26628

>  <SCORE.INTRA>
0

>  <SCORE.INTRA.DIHEDRAL>
0

>  <SCORE.INTRA.DIHEDRAL.0>
0

>  <SCORE.INTRA.POLAR>
0

>  <SCORE.INTRA.POLAR.0>
0

>  <SCORE.INTRA.REPUL>
0

>  <SCORE.INTRA.REPUL.0>
0

>  <SCORE.INTRA.SOLV>
0

>  <SCORE.INTRA.SOLV.lig_0>
-29.307

>  <SCORE.INTRA.VDW>
0

>  <SCORE.INTRA.VDW.0>
0

>  <SCORE.INTRA.norm>
0

>  <SCORE.RESTR>
0

>  <SCORE.RESTR.CAVITY>
0

>  <SCORE.RESTR.norm>
0

>  <SCORE.SYSTEM>
0

>  <SCORE.SYSTEM.CONST>
0

>  <SCORE.SYSTEM.DIHEDRAL>
0

>  <SCORE.SYSTEM.SOLV>
0

>  <SCORE.SYSTEM.norm>
0

>  <SCORE.heavy>
11

>  <SCORE.norm>
-1.26628

>  <RMSD>
3.445

$$$$
ligand
 OpenBabel11021811503D
libRbt.so/2013.1/901 2013/11/27
 11 12  0  0  0  0  0  0  0  0999 V2000
    3.4483  -19.6850   25.2047 N   0  0  0  0  0  0  0  0  0  0  0  0
    3.2673  -20.4093   24.0862 C   0  0  0  0  0  0  0  0  0  0  0  0
    4.3266  -20.5519   23.1402 N   0  0  0  0  0  0  0  0  0  0  0  0
    2.1114  -21.0239   23.8178 N   0  0  0  0  0  0  0  0  0  0  0  0
    1.0405  -20.9248   24.6733 C   0  0  0  0  0  0  0  0  0  0  0  0
    1.1870  -20.1921   25.8311 C   0  0  0  0  0  0  0  0  0  0  0  0
    2.4371  -19.5630   26.0981 C   0  0  0  0  0  0  0  0  0  0  0  0
    2.5954  -18.8243   27.2494 O   0  0  0  0  0  0  0  0  0  0  0  0
   -0.0641  -20.2737   26.5210 C   0  0  0  0  0  0  0  0  0  0  0  0
   -0.9080  -21.0587   25.7230 C   0  0  0  0  0  0  0  0  0  0  0  0
   -0.2368  -21.4369   24.6278 N   0  0  0  0  0  0  0  0  0  0  0  0
  1  2  1  0  0  0  0
  1  7  1  0  0  0  0
  2  3  1  0  0  0  0
  2  4  2  0  0  0  0
  4  5  1  0  0  0  0
  5  6  2  0  0  0  0
  5 11  1  0  0  0  0
  6  7  1  0  0  0  0
  6  9  1  0  0  0  0
  7  8  2  0  0  0  0
  9 10  2  0  0  0  0
 10 11  1  0  0  0  0
M  END
>  <CHROM.1>
1.80632211,-20.33353203,25.18224927,-0.25063279,0.32051397,1.04287066

>  <Name>
ligand

>  <RI>
0

>  <Rbt.Current_Directory>
/home/itssahil/PROJECTS/Mol_Feturizer/New_Systems/rnas/4LVW

>  <Rbt.Executable>
rbdock ($Id: //depot/dev/client3/rdock/2013.1/src/exe/rbdock.cxx#4 $)

>  <Rbt.Library>
libRbt.so (2013.1, Build901 2013/11/27)

>  <Rbt.Parameter_File>
/export/apps/rDock/src/rDock_2013.1_src/data/scripts/dock_solv.prm

>  <Rbt.Receptor>
prm/pocket_docking_7.prm

>  <SCORE>
-13.9667

>  <SCORE.INTER>
-13.9667

>  <SCORE.INTER.CONST>
1

>  <SCORE.INTER.POLAR>
0

>  <SCORE.INTER.ROT>
0

>  <SCORE.INTER.SOLV>
5.45366

>  <SCORE.INTER.VDW>
-14.729

>  <SCORE.INTER.norm>
-1.2697

>  <SCORE.INTRA>
0

>  <SCORE.INTRA.DIHEDRAL>
0

>  <SCORE.INTRA.DIHEDRAL.0>
0

>  <SCORE.INTRA.POLAR>
0

>  <SCORE.INTRA.POLAR.0>
0

>  <SCORE.INTRA.REPUL>
0

>  <SCORE.INTRA.REPUL.0>
0

>  <SCORE.INTRA.SOLV>
0

>  <SCORE.INTRA.SOLV.lig_0>
-29.307

>  <SCORE.INTRA.VDW>
0

>  <SCORE.INTRA.VDW.0>
0

>  <SCORE.INTRA.norm>
0

>  <SCORE.RESTR>
0

>  <SCORE.RESTR.CAVITY>
0

>  <SCORE.RESTR.norm>
0

>  <SCORE.SYSTEM>
0

>  <SCORE.SYSTEM.CONST>
0

>  <SCORE.SYSTEM.DIHEDRAL>
0

>  <SCORE.SYSTEM.SOLV>
0

>  <SCORE.SYSTEM.norm>
0

>  <SCORE.heavy>
11

>  <SCORE.norm>
-1.2697

>  <RMSD>
3.445

$$$$
ligand
 OpenBabel11021811503D
libRbt.so/2013.1/901 2013/11/27
 11 12  0  0  0  0  0  0  0  0999 V2000
    3.4461  -19.6886   25.2223 N   0  0  0  0  0  0  0  0  0  0  0  0
    3.2725  -20.4184   24.1063 C   0  0  0  0  0  0  0  0  0  0  0  0
    4.3386  -20.5671   23.1689 N   0  0  0  0  0  0  0  0  0  0  0  0
    2.1179  -21.0330   23.8325 N   0  0  0  0  0  0  0  0  0  0  0  0
    1.0408  -20.9283   24.6794 C   0  0  0  0  0  0  0  0  0  0  0  0
    1.1796  -20.1898   25.8345 C   0  0  0  0  0  0  0  0  0  0  0  0
    2.4284  -19.5608   26.1076 C   0  0  0  0  0  0  0  0  0  0  0  0
    2.5791  -18.8163   27.2562 O   0  0  0  0  0  0  0  0  0  0  0  0
   -0.0767  -20.2664   26.5156 C   0  0  0  0  0  0  0  0  0  0  0  0
   -0.9156  -21.0545   25.7153 C   0  0  0  0  0  0  0  0  0  0  0  0
   -0.2368  -21.4391   24.6271 N   0  0  0  0  0  0  0  0  0  0  0  0
  1  2  1  0  0  0  0
  1  7  1  0  0  0  0
  2  3  1  0  0  0  0
  2  4  2  0  0  0  0
  4  5  1  0  0  0  0
  5  6  2  0  0  0  0
  5 11  1  0  0  0  0
  6  7  1  0  0  0  0
  6  9  1  0  0  0  0
  7  8  2  0  0  0  0
  9 10  2  0  0  0  0
 10 11  1  0  0  0  0
M  END
>  <CHROM.1>
1.80352424,-20.33529815,25.19102020,-0.24453158,0.31572811,1.03581873

>  <Name>
ligand

>  <RI>
0

>  <Rbt.Current_Directory>
/home/itssahil/PROJECTS/Mol_Feturizer/New_Systems/rnas/4LVW

>  <Rbt.Executable>
rbdock ($Id: //depot/dev/client3/rdock/2013.1/src/exe/rbdock.cxx#4 $)

>  <Rbt.Library>
libRbt.so (2013.1, Build901 2013/11/27)

>  <Rbt.Parameter_File>
/export/apps/rDock/src/rDock_2013.1_src/data/scripts/dock_solv.prm

>  <Rbt.Receptor>
prm/pocket_docking_8.prm

>  <SCORE>
-13.9542

>  <SCORE.INTER>
-13.9542

>  <SCORE.INTER.CONST>
1

>  <SCORE.INTER.POLAR>
0

>  <SCORE.INTER.ROT>
0

>  <SCORE.INTER.SOLV>
5.39559

>  <SCORE.INTER.VDW>
-14.7013

>  <SCORE.INTER.norm>
-1.26856

>  <SCORE.INTRA>
0

>  <SCORE.INTRA.DIHEDRAL>
0

>  <SCORE.INTRA.DIHEDRAL.0>
0

>  <SCORE.INTRA.POLAR>
0

>  <SCORE.INTRA.POLAR.0>
0

>  <SCORE.INTRA.REPUL>
0

>  <SCORE.INTRA.REPUL.0>
0

>  <SCORE.INTRA.SOLV>
0

>  <SCORE.INTRA.SOLV.lig_0>
-29.307

>  <SCORE.INTRA.VDW>
0

>  <SCORE.INTRA.VDW.0>
0

>  <SCORE.INTRA.norm>
0

>  <SCORE.RESTR>
0

>  <SCORE.RESTR.CAVITY>
0

>  <SCORE.RESTR.norm>
0

>  <SCORE.SYSTEM>
0

>  <SCORE.SYSTEM.CONST>
0

>  <SCORE.SYSTEM.DIHEDRAL>
0

>  <SCORE.SYSTEM.SOLV>
0

>  <SCORE.SYSTEM.norm>
0

>  <SCORE.heavy>
11

>  <SCORE.norm>
-1.26856

>  <RMSD>
3.445

$$$$
ligand
 OpenBabel11021811503D
libRbt.so/2013.1/901 2013/11/27
 11 12  0  0  0  0  0  0  0  0999 V2000
    3.4493  -19.6847   25.2089 N   0  0  0  0  0  0  0  0  0  0  0  0
    3.2688  -20.4066   24.0888 C   0  0  0  0  0  0  0  0  0  0  0  0
    4.3280  -20.5459   23.1422 N   0  0  0  0  0  0  0  0  0  0  0  0
    2.1135  -21.0218   23.8193 N   0  0  0  0  0  0  0  0  0  0  0  0
    1.0427  -20.9258   24.6753 C   0  0  0  0  0  0  0  0  0  0  0  0
    1.1888  -20.1955   25.8347 C   0  0  0  0  0  0  0  0  0  0  0  0
    2.4383  -19.5658   26.1028 C   0  0  0  0  0  0  0  0  0  0  0  0
    2.5960  -18.8295   27.2557 O   0  0  0  0  0  0  0  0  0  0  0  0
   -0.0621  -20.2801   26.5247 C   0  0  0  0  0  0  0  0  0  0  0  0
   -0.9054  -21.0641   25.7251 C   0  0  0  0  0  0  0  0  0  0  0  0
   -0.2341  -21.4391   24.6289 N   0  0  0  0  0  0  0  0  0  0  0  0
  1  2  1  0  0  0  0
  1  7  1  0  0  0  0
  2  3  1  0  0  0  0
  2  4  2  0  0  0  0
  4  5  1  0  0  0  0
  5  6  2  0  0  0  0
  5 11  1  0  0  0  0
  6  7  1  0  0  0  0
  6  9  1  0  0  0  0
  7  8  2  0  0  0  0
  9 10  2  0  0  0  0
 10 11  1  0  0  0  0
M  END
>  <CHROM.1>
1.80804428,-20.33488205,25.18535614,-0.25029755,0.32154987,1.04503201

>  <Name>
ligand

>  <RI>
0

>  <Rbt.Current_Directory>
/home/itssahil/PROJECTS/Mol_Feturizer/New_Systems/rnas/4LVW

>  <Rbt.Executable>
rbdock ($Id: //depot/dev/client3/rdock/2013.1/src/exe/rbdock.cxx#4 $)

>  <Rbt.Library>
libRbt.so (2013.1, Build901 2013/11/27)

>  <Rbt.Parameter_File>
/export/apps/rDock/src/rDock_2013.1_src/data/scripts/dock_solv.prm

>  <Rbt.Receptor>
prm/pocket_docking_8.prm

>  <SCORE>
-13.975

>  <SCORE.INTER>
-13.975

>  <SCORE.INTER.CONST>
1

>  <SCORE.INTER.POLAR>
0

>  <SCORE.INTER.ROT>
0

>  <SCORE.INTER.SOLV>
5.43357

>  <SCORE.INTER.VDW>
-14.7279

>  <SCORE.INTER.norm>
-1.27045

>  <SCORE.INTRA>
0

>  <SCORE.INTRA.DIHEDRAL>
0

>  <SCORE.INTRA.DIHEDRAL.0>
0

>  <SCORE.INTRA.POLAR>
0

>  <SCORE.INTRA.POLAR.0>
0

>  <SCORE.INTRA.REPUL>
0

>  <SCORE.INTRA.REPUL.0>
0

>  <SCORE.INTRA.SOLV>
0

>  <SCORE.INTRA.SOLV.lig_0>
-29.307

>  <SCORE.INTRA.VDW>
0

>  <SCORE.INTRA.VDW.0>
0

>  <SCORE.INTRA.norm>
0

>  <SCORE.RESTR>
0

>  <SCORE.RESTR.CAVITY>
0

>  <SCORE.RESTR.norm>
0

>  <SCORE.SYSTEM>
0

>  <SCORE.SYSTEM.CONST>
0

>  <SCORE.SYSTEM.DIHEDRAL>
0

>  <SCORE.SYSTEM.SOLV>
0

>  <SCORE.SYSTEM.norm>
0

>  <SCORE.heavy>
11

>  <SCORE.norm>
-1.27045

>  <RMSD>
3.445

$$$$
ligand
 OpenBabel11021811503D
libRbt.so/2013.1/901 2013/11/27
 11 12  0  0  0  0  0  0  0  0999 V2000
    3.4462  -19.6750   25.1981 N   0  0  0  0  0  0  0  0  0  0  0  0
    3.2623  -20.3925   24.0757 C   0  0  0  0  0  0  0  0  0  0  0  0
    4.3169  -20.5237   23.1229 N   0  0  0  0  0  0  0  0  0  0  0  0
    2.1078  -21.0108   23.8096 N   0  0  0  0  0  0  0  0  0  0  0  0
    1.0413  -20.9225   24.6717 C   0  0  0  0  0  0  0  0  0  0  0  0
    1.1909  -20.1970   25.8336 C   0  0  0  0  0  0  0  0  0  0  0  0
    2.4395  -19.5638   26.0980 C   0  0  0  0  0  0  0  0  0  0  0  0
    2.6008  -18.8322   27.2533 O   0  0  0  0  0  0  0  0  0  0  0  0
   -0.0560  -20.2892   26.5300 C   0  0  0  0  0  0  0  0  0  0  0  0
   -0.9006  -21.0727   25.7313 C   0  0  0  0  0  0  0  0  0  0  0  0
   -0.2339  -21.4403   24.6299 N   0  0  0  0  0  0  0  0  0  0  0  0
  1  2  1  0  0  0  0
  1  7  1  0  0  0  0
  2  3  1  0  0  0  0
  2  4  2  0  0  0  0
  4  5  1  0  0  0  0
  5  6  2  0  0  0  0
  5 11  1  0  0  0  0
  6  7  1  0  0  0  0
  6  9  1  0  0  0  0
  7  8  2  0  0  0  0
  9 10  2  0  0  0  0
 10 11  1  0  0  0  0
M  END
>  <CHROM.1>
1.80716956,-20.33110243,25.18039475,-0.25326613,0.32738066,1.05049936

>  <Name>
ligand

>  <RI>
0

>  <Rbt.Current_Directory>
/home/itssahil/PROJECTS/Mol_Feturizer/New_Systems/rnas/4LVW

>  <Rbt.Executable>
rbdock ($Id: //depot/dev/client3/rdock/2013.1/src/exe/rbdock.cxx#4 $)

>  <Rbt.Library>
libRbt.so (2013.1, Build901 2013/11/27)

>  <Rbt.Parameter_File>
/export/apps/rDock/src/rDock_2013.1_src/data/scripts/dock_solv.prm

>  <Rbt.Receptor>
prm/pocket_docking_8.prm

>  <SCORE>
-13.9653

>  <SCORE.INTER>
-13.9653

>  <SCORE.INTER.CONST>
1

>  <SCORE.INTER.POLAR>
0

>  <SCORE.INTER.ROT>
0

>  <SCORE.INTER.SOLV>
5.4923

>  <SCORE.INTER.VDW>
-14.741

>  <SCORE.INTER.norm>
-1.26958

>  <SCORE.INTRA>
0

>  <SCORE.INTRA.DIHEDRAL>
0

>  <SCORE.INTRA.DIHEDRAL.0>
0

>  <SCORE.INTRA.POLAR>
0

>  <SCORE.INTRA.POLAR.0>
0

>  <SCORE.INTRA.REPUL>
0

>  <SCORE.INTRA.REPUL.0>
0

>  <SCORE.INTRA.SOLV>
0

>  <SCORE.INTRA.SOLV.lig_0>
-29.307

>  <SCORE.INTRA.VDW>
0

>  <SCORE.INTRA.VDW.0>
0

>  <SCORE.INTRA.norm>
0

>  <SCORE.RESTR>
0

>  <SCORE.RESTR.CAVITY>
0

>  <SCORE.RESTR.norm>
0

>  <SCORE.SYSTEM>
0

>  <SCORE.SYSTEM.CONST>
0

>  <SCORE.SYSTEM.DIHEDRAL>
0

>  <SCORE.SYSTEM.SOLV>
0

>  <SCORE.SYSTEM.norm>
0

>  <SCORE.heavy>
11

>  <SCORE.norm>
-1.26958

>  <RMSD>
3.445

$$$$
ligand
 OpenBabel11021811503D
libRbt.so/2013.1/901 2013/11/27
 11 12  0  0  0  0  0  0  0  0999 V2000
    3.4419  -19.6838   25.2080 N   0  0  0  0  0  0  0  0  0  0  0  0
    3.2623  -20.4050   24.0873 C   0  0  0  0  0  0  0  0  0  0  0  0
    4.3220  -20.5424   23.1408 N   0  0  0  0  0  0  0  0  0  0  0  0
    2.1077  -21.0211   23.8170 N   0  0  0  0  0  0  0  0  0  0  0  0
    1.0367  -20.9269   24.6728 C   0  0  0  0  0  0  0  0  0  0  0  0
    1.1817  -20.1974   25.8328 C   0  0  0  0  0  0  0  0  0  0  0  0
    2.4305  -19.5666   26.1018 C   0  0  0  0  0  0  0  0  0  0  0  0
    2.5872  -18.8311   27.2553 O   0  0  0  0  0  0  0  0  0  0  0  0
   -0.0693  -20.2838   26.5225 C   0  0  0  0  0  0  0  0  0  0  0  0
   -0.9115  -21.0681   25.7221 C   0  0  0  0  0  0  0  0  0  0  0  0
   -0.2396  -21.4415   24.6257 N   0  0  0  0  0  0  0  0  0  0  0  0
  1  2  1  0  0  0  0
  1  7  1  0  0  0  0
  2  3  1  0  0  0  0
  2  4  2  0  0  0  0
  4  5  1  0  0  0  0
  5  6  2  0  0  0  0
  5 11  1  0  0  0  0
  6  7  1  0  0  0  0
  6  9  1  0  0  0  0
  7  8  2  0  0  0  0
  9 10  2  0  0  0  0
 10 11  1  0  0  0  0
M  END
>  <CHROM.1>
1.80126199,-20.33561245,25.18356044,-0.24953833,0.32231519,1.04560426

>  <Name>
ligand

>  <RI>
0

>  <Rbt.Current_Directory>
/home/itssahil/PROJECTS/Mol_Feturizer/New_Systems/rnas/4LVW

>  <Rbt.Executable>
rbdock ($Id: //depot/dev/client3/rdock/2013.1/src/exe/rbdock.cxx#4 $)

>  <Rbt.Library>
libRbt.so (2013.1, Build901 2013/11/27)

>  <Rbt.Parameter_File>
/export/apps/rDock/src/rDock_2013.1_src/data/scripts/dock_solv.prm

>  <Rbt.Receptor>
prm/pocket_docking_8.prm

>  <SCORE>
-13.9595

>  <SCORE.INTER>
-13.9595

>  <SCORE.INTER.CONST>
1

>  <SCORE.INTER.POLAR>
0

>  <SCORE.INTER.ROT>
0

>  <SCORE.INTER.SOLV>
5.46253

>  <SCORE.INTER.VDW>
-14.7272

>  <SCORE.INTER.norm>
-1.26905

>  <SCORE.INTRA>
0

>  <SCORE.INTRA.DIHEDRAL>
0

>  <SCORE.INTRA.DIHEDRAL.0>
0

>  <SCORE.INTRA.POLAR>
0

>  <SCORE.INTRA.POLAR.0>
0

>  <SCORE.INTRA.REPUL>
0

>  <SCORE.INTRA.REPUL.0>
0

>  <SCORE.INTRA.SOLV>
0

>  <SCORE.INTRA.SOLV.lig_0>
-29.307

>  <SCORE.INTRA.VDW>
0

>  <SCORE.INTRA.VDW.0>
0

>  <SCORE.INTRA.norm>
0

>  <SCORE.RESTR>
0

>  <SCORE.RESTR.CAVITY>
0

>  <SCORE.RESTR.norm>
0

>  <SCORE.SYSTEM>
0

>  <SCORE.SYSTEM.CONST>
0

>  <SCORE.SYSTEM.DIHEDRAL>
0

>  <SCORE.SYSTEM.SOLV>
0

>  <SCORE.SYSTEM.norm>
0

>  <SCORE.heavy>
11

>  <SCORE.norm>
-1.26905

>  <RMSD>
3.445

$$$$
ligand
 OpenBabel11021811503D
libRbt.so/2013.1/901 2013/11/27
 11 12  0  0  0  0  0  0  0  0999 V2000
    3.4497  -19.6838   25.1965 N   0  0  0  0  0  0  0  0  0  0  0  0
    3.2641  -20.4021   24.0749 C   0  0  0  0  0  0  0  0  0  0  0  0
    4.3191  -20.5384   23.1231 N   0  0  0  0  0  0  0  0  0  0  0  0
    2.1076  -21.0164   23.8087 N   0  0  0  0  0  0  0  0  0  0  0  0
    1.0407  -20.9231   24.6697 C   0  0  0  0  0  0  0  0  0  0  0  0
    1.1920  -20.1966   25.8308 C   0  0  0  0  0  0  0  0  0  0  0  0
    2.4427  -19.5677   26.0954 C   0  0  0  0  0  0  0  0  0  0  0  0
    2.6057  -18.8351   27.2499 O   0  0  0  0  0  0  0  0  0  0  0  0
   -0.0558  -20.2833   26.5262 C   0  0  0  0  0  0  0  0  0  0  0  0
   -0.9027  -21.0647   25.7279 C   0  0  0  0  0  0  0  0  0  0  0  0
   -0.2363  -21.4362   24.6275 N   0  0  0  0  0  0  0  0  0  0  0  0
  1  2  1  0  0  0  0
  1  7  1  0  0  0  0
  2  3  1  0  0  0  0
  2  4  2  0  0  0  0
  4  5  1  0  0  0  0
  5  6  2  0  0  0  0
  5 11  1  0  0  0  0
  6  7  1  0  0  0  0
  6  9  1  0  0  0  0
  7  8  2  0  0  0  0
  9 10  2  0  0  0  0
 10 11  1  0  0  0  0
M  END
>  <CHROM.1>
1.80832762,-20.33382040,25.17828286,-0.25443224,0.32376171,1.04956675

>  <Name>
ligand

>  <RI>
0

>  <Rbt.Current_Directory>
/home/itssahil/PROJECTS/Mol_Feturizer/New_Systems/rnas/4LVW

>  <Rbt.Executable>
rbdock ($Id: //depot/dev/client3/rdock/2013.1/src/exe/rbdock.cxx#4 $)

>  <Rbt.Library>
libRbt.so (2013.1, Build901 2013/11/27)

>  <Rbt.Parameter_File>
/export/apps/rDock/src/rDock_2013.1_src/data/scripts/dock_solv.prm

>  <Rbt.Receptor>
prm/pocket_docking_8.prm

>  <SCORE>
-13.9713

>  <SCORE.INTER>
-13.9713

>  <SCORE.INTER.CONST>
1

>  <SCORE.INTER.POLAR>
0

>  <SCORE.INTER.ROT>
0

>  <SCORE.INTER.SOLV>
5.49158

>  <SCORE.INTER.VDW>
-14.7447

>  <SCORE.INTER.norm>
-1.27012

>  <SCORE.INTRA>
0

>  <SCORE.INTRA.DIHEDRAL>
0

>  <SCORE.INTRA.DIHEDRAL.0>
0

>  <SCORE.INTRA.POLAR>
0

>  <SCORE.INTRA.POLAR.0>
0

>  <SCORE.INTRA.REPUL>
0

>  <SCORE.INTRA.REPUL.0>
0

>  <SCORE.INTRA.SOLV>
0

>  <SCORE.INTRA.SOLV.lig_0>
-29.307

>  <SCORE.INTRA.VDW>
0

>  <SCORE.INTRA.VDW.0>
0

>  <SCORE.INTRA.norm>
0

>  <SCORE.RESTR>
0

>  <SCORE.RESTR.CAVITY>
0

>  <SCORE.RESTR.norm>
0

>  <SCORE.SYSTEM>
0

>  <SCORE.SYSTEM.CONST>
0

>  <SCORE.SYSTEM.DIHEDRAL>
0

>  <SCORE.SYSTEM.SOLV>
0

>  <SCORE.SYSTEM.norm>
0

>  <SCORE.heavy>
11

>  <SCORE.norm>
-1.27012

>  <RMSD>
3.445

$$$$
ligand
 OpenBabel11021811503D
libRbt.so/2013.1/901 2013/11/27
 11 12  0  0  0  0  0  0  0  0999 V2000
    3.4385  -19.6741   25.2544 N   0  0  0  0  0  0  0  0  0  0  0  0
    3.2634  -20.3704   24.1174 C   0  0  0  0  0  0  0  0  0  0  0  0
    4.3291  -20.4933   23.1757 N   0  0  0  0  0  0  0  0  0  0  0  0
    2.1077  -20.9748   23.8259 N   0  0  0  0  0  0  0  0  0  0  0  0
    1.0310  -20.8932   24.6759 C   0  0  0  0  0  0  0  0  0  0  0  0
    1.1713  -20.1893   25.8521 C   0  0  0  0  0  0  0  0  0  0  0  0
    2.4213  -19.5707   26.1433 C   0  0  0  0  0  0  0  0  0  0  0  0
    2.5734  -18.8606   27.3132 O   0  0  0  0  0  0  0  0  0  0  0  0
   -0.0850  -20.2838   26.5310 C   0  0  0  0  0  0  0  0  0  0  0  0
   -0.9253  -21.0465   25.7081 C   0  0  0  0  0  0  0  0  0  0  0  0
   -0.2474  -21.4001   24.6089 N   0  0  0  0  0  0  0  0  0  0  0  0
  1  2  1  0  0  0  0
  1  7  1  0  0  0  0
  2  3  1  0  0  0  0
  2  4  2  0  0  0  0
  4  5  1  0  0  0  0
  5  6  2  0  0  0  0
  5 11  1  0  0  0  0
  6  7  1  0  0  0  0
  6  9  1  0  0  0  0
  7  8  2  0  0  0  0
  9 10  2  0  0  0  0
 10 11  1  0  0  0  0
M  END
>  <CHROM.1>
1.79486063,-20.31683221,25.20448240,-0.24563130,0.31438870,1.06558643

>  <Name>
ligand

>  <RI>
0

>  <Rbt.Current_Directory>
/home/itssahil/PROJECTS/Mol_Feturizer/New_Systems/rnas/4LVW

>  <Rbt.Executable>
rbdock ($Id: //depot/dev/client3/rdock/2013.1/src/exe/rbdock.cxx#4 $)

>  <Rbt.Library>
libRbt.so (2013.1, Build901 2013/11/27)

>  <Rbt.Parameter_File>
/export/apps/rDock/src/rDock_2013.1_src/data/scripts/dock_solv.prm

>  <Rbt.Receptor>
prm/pocket_docking_5.prm

>  <SCORE>
-13.9356

>  <SCORE.INTER>
-13.9356

>  <SCORE.INTER.CONST>
1

>  <SCORE.INTER.POLAR>
0

>  <SCORE.INTER.ROT>
0

>  <SCORE.INTER.SOLV>
5.3375

>  <SCORE.INTER.VDW>
-14.6696

>  <SCORE.INTER.norm>
-1.26687

>  <SCORE.INTRA>
0

>  <SCORE.INTRA.DIHEDRAL>
0

>  <SCORE.INTRA.DIHEDRAL.0>
0

>  <SCORE.INTRA.POLAR>
0

>  <SCORE.INTRA.POLAR.0>
0

>  <SCORE.INTRA.REPUL>
0

>  <SCORE.INTRA.REPUL.0>
0

>  <SCORE.INTRA.SOLV>
0

>  <SCORE.INTRA.SOLV.lig_0>
-29.307

>  <SCORE.INTRA.VDW>
0

>  <SCORE.INTRA.VDW.0>
0

>  <SCORE.INTRA.norm>
0

>  <SCORE.RESTR>
0

>  <SCORE.RESTR.CAVITY>
0

>  <SCORE.RESTR.norm>
0

>  <SCORE.SYSTEM>
0

>  <SCORE.SYSTEM.CONST>
0

>  <SCORE.SYSTEM.DIHEDRAL>
0

>  <SCORE.SYSTEM.SOLV>
0

>  <SCORE.SYSTEM.norm>
0

>  <SCORE.heavy>
11

>  <SCORE.norm>
-1.26687

>  <RMSD>
3.446

$$$$
ligand
 OpenBabel11021811503D
libRbt.so/2013.1/901 2013/11/27
 11 12  0  0  0  0  0  0  0  0999 V2000
    3.4288  -19.6733   25.2745 N   0  0  0  0  0  0  0  0  0  0  0  0
    3.2584  -20.3682   24.1359 C   0  0  0  0  0  0  0  0  0  0  0  0
    4.3244  -20.4804   23.1933 N   0  0  0  0  0  0  0  0  0  0  0  0
    2.1073  -20.9808   23.8438 N   0  0  0  0  0  0  0  0  0  0  0  0
    1.0305  -20.9097   24.6946 C   0  0  0  0  0  0  0  0  0  0  0  0
    1.1662  -20.2075   25.8725 C   0  0  0  0  0  0  0  0  0  0  0  0
    2.4114  -19.5799   26.1643 C   0  0  0  0  0  0  0  0  0  0  0  0
    2.5588  -18.8715   27.3359 O   0  0  0  0  0  0  0  0  0  0  0  0
   -0.0890  -20.3135   26.5519 C   0  0  0  0  0  0  0  0  0  0  0  0
   -0.9239  -21.0807   25.7278 C   0  0  0  0  0  0  0  0  0  0  0  0
   -0.2440  -21.4264   24.6272 N   0  0  0  0  0  0  0  0  0  0  0  0
  1  2  1  0  0  0  0
  1  7  1  0  0  0  0
  2  3  1  0  0  0  0
  2  4  2  0  0  0  0
  4  5  1  0  0  0  0
  5  6  2  0  0  0  0
  5 11  1  0  0  0  0
  6  7  1  0  0  0  0
  6  9  1  0  0  0  0
  7  8  2  0  0  0  0
  9 10  2  0  0  0  0
 10 11  1  0  0  0  0
M  END
>  <CHROM.1>
1.79020421,-20.32863735,25.22413236,-0.24227894,0.32152826,1.06698239

>  <Name>
ligand

>  <RI>
0

>  <Rbt.Current_Directory>
/home/itssahil/PROJECTS/Mol_Feturizer/New_Systems/rnas/4LVW

>  <Rbt.Executable>
rbdock ($Id: //depot/dev/client3/rdock/2013.1/src/exe/rbdock.cxx#4 $)

>  <Rbt.Library>
libRbt.so (2013.1, Build901 2013/11/27)

>  <Rbt.Parameter_File>
/export/apps/rDock/src/rDock_2013.1_src/data/scripts/dock_solv.prm

>  <Rbt.Receptor>
prm/pocket_docking_6.prm

>  <SCORE>
-13.9154

>  <SCORE.INTER>
-13.9154

>  <SCORE.INTER.CONST>
1

>  <SCORE.INTER.POLAR>
0

>  <SCORE.INTER.ROT>
0

>  <SCORE.INTER.SOLV>
5.29493

>  <SCORE.INTER.VDW>
-14.6419

>  <SCORE.INTER.norm>
-1.26503

>  <SCORE.INTRA>
0

>  <SCORE.INTRA.DIHEDRAL>
0

>  <SCORE.INTRA.DIHEDRAL.0>
0

>  <SCORE.INTRA.POLAR>
0

>  <SCORE.INTRA.POLAR.0>
0

>  <SCORE.INTRA.REPUL>
0

>  <SCORE.INTRA.REPUL.0>
0

>  <SCORE.INTRA.SOLV>
0

>  <SCORE.INTRA.SOLV.lig_0>
-29.307

>  <SCORE.INTRA.VDW>
0

>  <SCORE.INTRA.VDW.0>
0

>  <SCORE.INTRA.norm>
0

>  <SCORE.RESTR>
0

>  <SCORE.RESTR.CAVITY>
0

>  <SCORE.RESTR.norm>
0

>  <SCORE.SYSTEM>
0

>  <SCORE.SYSTEM.CONST>
0

>  <SCORE.SYSTEM.DIHEDRAL>
0

>  <SCORE.SYSTEM.SOLV>
0

>  <SCORE.SYSTEM.norm>
0

>  <SCORE.heavy>
11

>  <SCORE.norm>
-1.26503

>  <RMSD>
3.446

$$$$
ligand
 OpenBabel11021811503D
libRbt.so/2013.1/901 2013/11/27
 11 12  0  0  0  0  0  0  0  0999 V2000
    3.4309  -19.6702   25.2760 N   0  0  0  0  0  0  0  0  0  0  0  0
    3.2607  -20.3625   24.1358 C   0  0  0  0  0  0  0  0  0  0  0  0
    4.3263  -20.4714   23.1924 N   0  0  0  0  0  0  0  0  0  0  0  0
    2.1100  -20.9756   23.8427 N   0  0  0  0  0  0  0  0  0  0  0  0
    1.0336  -20.9076   24.6942 C   0  0  0  0  0  0  0  0  0  0  0  0
    1.1691  -20.2082   25.8737 C   0  0  0  0  0  0  0  0  0  0  0  0
    2.4138  -19.5800   26.1665 C   0  0  0  0  0  0  0  0  0  0  0  0
    2.5610  -18.8743   27.3397 O   0  0  0  0  0  0  0  0  0  0  0  0
   -0.0856  -20.3170   26.5535 C   0  0  0  0  0  0  0  0  0  0  0  0
   -0.9202  -21.0832   25.7279 C   0  0  0  0  0  0  0  0  0  0  0  0
   -0.2404  -21.4254   24.6262 N   0  0  0  0  0  0  0  0  0  0  0  0
  1  2  1  0  0  0  0
  1  7  1  0  0  0  0
  2  3  1  0  0  0  0
  2  4  2  0  0  0  0
  4  5  1  0  0  0  0
  5  6  2  0  0  0  0
  5 11  1  0  0  0  0
  6  7  1  0  0  0  0
  6  9  1  0  0  0  0
  7  8  2  0  0  0  0
  9 10  2  0  0  0  0
 10 11  1  0  0  0  0
M  END
>  <CHROM.1>
1.79293378,-20.32709092,25.22478887,-0.24219041,0.32264096,1.06935781

>  <Name>
ligand

>  <RI>
0

>  <Rbt.Current_Directory>
/home/itssahil/PROJECTS/Mol_Feturizer/New_Systems/rnas/4LVW

>  <Rbt.Executable>
rbdock ($Id: //depot/dev/client3/rdock/2013.1/src/exe/rbdock.cxx#4 $)

>  <Rbt.Library>
libRbt.so (2013.1, Build901 2013/11/27)

>  <Rbt.Parameter_File>
/export/apps/rDock/src/rDock_2013.1_src/data/scripts/dock_solv.prm

>  <Rbt.Receptor>
prm/pocket_docking_7.prm

>  <SCORE>
-13.915

>  <SCORE.INTER>
-13.915

>  <SCORE.INTER.CONST>
1

>  <SCORE.INTER.POLAR>
0

>  <SCORE.INTER.ROT>
0

>  <SCORE.INTER.SOLV>
5.27735

>  <SCORE.INTER.VDW>
-14.6358

>  <SCORE.INTER.norm>
-1.265

>  <SCORE.INTRA>
0

>  <SCORE.INTRA.DIHEDRAL>
0

>  <SCORE.INTRA.DIHEDRAL.0>
0

>  <SCORE.INTRA.POLAR>
0

>  <SCORE.INTRA.POLAR.0>
0

>  <SCORE.INTRA.REPUL>
0

>  <SCORE.INTRA.REPUL.0>
0

>  <SCORE.INTRA.SOLV>
0

>  <SCORE.INTRA.SOLV.lig_0>
-29.307

>  <SCORE.INTRA.VDW>
0

>  <SCORE.INTRA.VDW.0>
0

>  <SCORE.INTRA.norm>
0

>  <SCORE.RESTR>
0

>  <SCORE.RESTR.CAVITY>
0

>  <SCORE.RESTR.norm>
0

>  <SCORE.SYSTEM>
0

>  <SCORE.SYSTEM.CONST>
0

>  <SCORE.SYSTEM.DIHEDRAL>
0

>  <SCORE.SYSTEM.SOLV>
0

>  <SCORE.SYSTEM.norm>
0

>  <SCORE.heavy>
11

>  <SCORE.norm>
-1.265

>  <RMSD>
3.446

$$$$
ligand
 OpenBabel11021811503D
libRbt.so/2013.1/901 2013/11/27
 11 12  0  0  0  0  0  0  0  0999 V2000
    3.4398  -19.6733   25.1927 N   0  0  0  0  0  0  0  0  0  0  0  0
    3.2530  -20.3875   24.0687 C   0  0  0  0  0  0  0  0  0  0  0  0
    4.3060  -20.5180   23.1139 N   0  0  0  0  0  0  0  0  0  0  0  0
    2.0970  -21.0030   23.8026 N   0  0  0  0  0  0  0  0  0  0  0  0
    1.0319  -20.9151   24.6665 C   0  0  0  0  0  0  0  0  0  0  0  0
    1.1845  -20.1929   25.8301 C   0  0  0  0  0  0  0  0  0  0  0  0
    2.4346  -19.5627   26.0943 C   0  0  0  0  0  0  0  0  0  0  0  0
    2.5988  -18.8344   27.2514 O   0  0  0  0  0  0  0  0  0  0  0  0
   -0.0615  -20.2848   26.5281 C   0  0  0  0  0  0  0  0  0  0  0  0
   -0.9087  -21.0647   25.7286 C   0  0  0  0  0  0  0  0  0  0  0  0
   -0.2442  -21.4306   24.6252 N   0  0  0  0  0  0  0  0  0  0  0  0
  1  2  1  0  0  0  0
  1  7  1  0  0  0  0
  2  3  1  0  0  0  0
  2  4  2  0  0  0  0
  4  5  1  0  0  0  0
  5  6  2  0  0  0  0
  5 11  1  0  0  0  0
  6  7  1  0  0  0  0
  6  9  1  0  0  0  0
  7  8  2  0  0  0  0
  9 10  2  0  0  0  0
 10 11  1  0  0  0  0
M  END
>  <CHROM.1>
1.79957746,-20.32641208,25.17564662,-0.25552752,0.32658436,1.05387651

>  <Name>
ligand

>  <RI>
0

>  <Rbt.Current_Directory>
/home/itssahil/PROJECTS/Mol_Feturizer/New_Systems/rnas/4LVW

>  <Rbt.Executable>
rbdock ($Id: //depot/dev/client3/rdock/2013.1/src/exe/rbdock.cxx#4 $)

>  <Rbt.Library>
libRbt.so (2013.1, Build901 2013/11/27)

>  <Rbt.Parameter_File>
/export/apps/rDock/src/rDock_2013.1_src/data/scripts/dock_solv.prm

>  <Rbt.Receptor>
prm/pocket_docking_7.prm

>  <SCORE>
-13.9428

>  <SCORE.INTER>
-13.9428

>  <SCORE.INTER.CONST>
1

>  <SCORE.INTER.POLAR>
0

>  <SCORE.INTER.ROT>
0

>  <SCORE.INTER.SOLV>
5.55463

>  <SCORE.INTER.VDW>
-14.7467

>  <SCORE.INTER.norm>
-1.26753

>  <SCORE.INTRA>
0

>  <SCORE.INTRA.DIHEDRAL>
0

>  <SCORE.INTRA.DIHEDRAL.0>
0

>  <SCORE.INTRA.POLAR>
0

>  <SCORE.INTRA.POLAR.0>
0

>  <SCORE.INTRA.REPUL>
0

>  <SCORE.INTRA.REPUL.0>
0

>  <SCORE.INTRA.SOLV>
0

>  <SCORE.INTRA.SOLV.lig_0>
-29.307

>  <SCORE.INTRA.VDW>
0

>  <SCORE.INTRA.VDW.0>
0

>  <SCORE.INTRA.norm>
0

>  <SCORE.RESTR>
0

>  <SCORE.RESTR.CAVITY>
0

>  <SCORE.RESTR.norm>
0

>  <SCORE.SYSTEM>
0

>  <SCORE.SYSTEM.CONST>
0

>  <SCORE.SYSTEM.DIHEDRAL>
0

>  <SCORE.SYSTEM.SOLV>
0

>  <SCORE.SYSTEM.norm>
0

>  <SCORE.heavy>
11

>  <SCORE.norm>
-1.26753

>  <RMSD>
3.446

$$$$
ligand
 OpenBabel11021811503D
libRbt.so/2013.1/901 2013/11/27
 11 12  0  0  0  0  0  0  0  0999 V2000
    3.4315  -19.6606   25.2659 N   0  0  0  0  0  0  0  0  0  0  0  0
    3.2670  -20.3675   24.1338 C   0  0  0  0  0  0  0  0  0  0  0  0
    4.3391  -20.4929   23.1998 N   0  0  0  0  0  0  0  0  0  0  0  0
    2.1162  -20.9802   23.8404 N   0  0  0  0  0  0  0  0  0  0  0  0
    1.0338  -20.8969   24.6830 C   0  0  0  0  0  0  0  0  0  0  0  0
    1.1633  -20.1822   25.8540 C   0  0  0  0  0  0  0  0  0  0  0  0
    2.4083  -19.5549   26.1476 C   0  0  0  0  0  0  0  0  0  0  0  0
    2.5496  -18.8341   27.3124 O   0  0  0  0  0  0  0  0  0  0  0  0
   -0.0967  -20.2774   26.5259 C   0  0  0  0  0  0  0  0  0  0  0  0
   -0.9281  -21.0514   25.7044 C   0  0  0  0  0  0  0  0  0  0  0  0
   -0.2416  -21.4108   24.6124 N   0  0  0  0  0  0  0  0  0  0  0  0
  1  2  1  0  0  0  0
  1  7  1  0  0  0  0
  2  3  1  0  0  0  0
  2  4  2  0  0  0  0
  4  5  1  0  0  0  0
  5  6  2  0  0  0  0
  5 11  1  0  0  0  0
  6  7  1  0  0  0  0
  6  9  1  0  0  0  0
  7  8  2  0  0  0  0
  9 10  2  0  0  0  0
 10 11  1  0  0  0  0
M  END
>  <CHROM.1>
1.79147998,-20.31211871,25.21135346,-0.23736202,0.31579008,1.05452284

>  <Name>
ligand

>  <RI>
0

>  <Rbt.Current_Directory>
/home/itssahil/PROJECTS/Mol_Feturizer/New_Systems/rnas/4LVW

>  <Rbt.Executable>
rbdock ($Id: //depot/dev/client3/rdock/2013.1/src/exe/rbdock.cxx#4 $)

>  <Rbt.Library>
libRbt.so (2013.1, Build901 2013/11/27)

>  <Rbt.Parameter_File>
/export/apps/rDock/src/rDock_2013.1_src/data/scripts/dock_solv.prm

>  <Rbt.Receptor>
prm/pocket_docking_4.prm

>  <SCORE>
-13.9563

>  <SCORE.INTER>
-13.9563

>  <SCORE.INTER.CONST>
1

>  <SCORE.INTER.POLAR>
0

>  <SCORE.INTER.ROT>
0

>  <SCORE.INTER.SOLV>
5.29448

>  <SCORE.INTER.VDW>
-14.669

>  <SCORE.INTER.norm>
-1.26875

>  <SCORE.INTRA>
0

>  <SCORE.INTRA.DIHEDRAL>
0

>  <SCORE.INTRA.DIHEDRAL.0>
0

>  <SCORE.INTRA.POLAR>
0

>  <SCORE.INTRA.POLAR.0>
0

>  <SCORE.INTRA.REPUL>
0

>  <SCORE.INTRA.REPUL.0>
0

>  <SCORE.INTRA.SOLV>
0

>  <SCORE.INTRA.SOLV.lig_0>
-29.307

>  <SCORE.INTRA.VDW>
0

>  <SCORE.INTRA.VDW.0>
0

>  <SCORE.INTRA.norm>
0

>  <SCORE.RESTR>
0

>  <SCORE.RESTR.CAVITY>
0

>  <SCORE.RESTR.norm>
0

>  <SCORE.SYSTEM>
0

>  <SCORE.SYSTEM.CONST>
0

>  <SCORE.SYSTEM.DIHEDRAL>
0

>  <SCORE.SYSTEM.SOLV>
0

>  <SCORE.SYSTEM.norm>
0

>  <SCORE.heavy>
11

>  <SCORE.norm>
-1.26875

>  <RMSD>
3.447

$$$$
ligand
 OpenBabel11021811503D
libRbt.so/2013.1/901 2013/11/27
 11 12  0  0  0  0  0  0  0  0999 V2000
    3.4159  -19.6524   25.2611 N   0  0  0  0  0  0  0  0  0  0  0  0
    3.2482  -20.3559   24.1275 C   0  0  0  0  0  0  0  0  0  0  0  0
    4.3124  -20.4648   23.1824 N   0  0  0  0  0  0  0  0  0  0  0  0
    2.1017  -20.9804   23.8426 N   0  0  0  0  0  0  0  0  0  0  0  0
    1.0268  -20.9133   24.6962 C   0  0  0  0  0  0  0  0  0  0  0  0
    1.1597  -20.2026   25.8692 C   0  0  0  0  0  0  0  0  0  0  0  0
    2.4003  -19.5623   26.1533 C   0  0  0  0  0  0  0  0  0  0  0  0
    2.5449  -18.8452   27.3200 O   0  0  0  0  0  0  0  0  0  0  0  0
   -0.0924  -20.3152   26.5530 C   0  0  0  0  0  0  0  0  0  0  0  0
   -0.9230  -21.0949   25.7362 C   0  0  0  0  0  0  0  0  0  0  0  0
   -0.2433  -21.4415   24.6358 N   0  0  0  0  0  0  0  0  0  0  0  0
  1  2  1  0  0  0  0
  1  7  1  0  0  0  0
  2  3  1  0  0  0  0
  2  4  2  0  0  0  0
  4  5  1  0  0  0  0
  5  6  2  0  0  0  0
  5 11  1  0  0  0  0
  6  7  1  0  0  0  0
  6  9  1  0  0  0  0
  7  8  2  0  0  0  0
  9 10  2  0  0  0  0
 10 11  1  0  0  0  0
M  END
>  <CHROM.1>
1.78291919,-20.32234307,25.21973646,-0.24050977,0.33059744,1.06009181

>  <Name>
ligand

>  <RI>
0

>  <Rbt.Current_Directory>
/home/itssahil/PROJECTS/Mol_Feturizer/New_Systems/rnas/4LVW

>  <Rbt.Executable>
rbdock ($Id: //depot/dev/client3/rdock/2013.1/src/exe/rbdock.cxx#4 $)

>  <Rbt.Library>
libRbt.so (2013.1, Build901 2013/11/27)

>  <Rbt.Parameter_File>
/export/apps/rDock/src/rDock_2013.1_src/data/scripts/dock_solv.prm

>  <Rbt.Receptor>
prm/pocket_docking_7.prm

>  <SCORE>
-13.9053

>  <SCORE.INTER>
-13.9053

>  <SCORE.INTER.CONST>
1

>  <SCORE.INTER.POLAR>
0

>  <SCORE.INTER.ROT>
0

>  <SCORE.INTER.SOLV>
5.37263

>  <SCORE.INTER.VDW>
-14.6611

>  <SCORE.INTER.norm>
-1.26412

>  <SCORE.INTRA>
0

>  <SCORE.INTRA.DIHEDRAL>
0

>  <SCORE.INTRA.DIHEDRAL.0>
0

>  <SCORE.INTRA.POLAR>
0

>  <SCORE.INTRA.POLAR.0>
0

>  <SCORE.INTRA.REPUL>
0

>  <SCORE.INTRA.REPUL.0>
0

>  <SCORE.INTRA.SOLV>
0

>  <SCORE.INTRA.SOLV.lig_0>
-29.307

>  <SCORE.INTRA.VDW>
0

>  <SCORE.INTRA.VDW.0>
0

>  <SCORE.INTRA.norm>
0

>  <SCORE.RESTR>
0

>  <SCORE.RESTR.CAVITY>
0

>  <SCORE.RESTR.norm>
0

>  <SCORE.SYSTEM>
0

>  <SCORE.SYSTEM.CONST>
0

>  <SCORE.SYSTEM.DIHEDRAL>
0

>  <SCORE.SYSTEM.SOLV>
0

>  <SCORE.SYSTEM.norm>
0

>  <SCORE.heavy>
11

>  <SCORE.norm>
-1.26412

>  <RMSD>
3.447

$$$$
ligand
 OpenBabel11021811503D
libRbt.so/2013.1/901 2013/11/27
 11 12  0  0  0  0  0  0  0  0999 V2000
    3.4238  -19.6570   25.2577 N   0  0  0  0  0  0  0  0  0  0  0  0
    3.2592  -20.3623   24.1247 C   0  0  0  0  0  0  0  0  0  0  0  0
    4.3308  -20.4852   23.1897 N   0  0  0  0  0  0  0  0  0  0  0  0
    2.1088  -20.9758   23.8311 N   0  0  0  0  0  0  0  0  0  0  0  0
    1.0270  -20.8948   24.6746 C   0  0  0  0  0  0  0  0  0  0  0  0
    1.1566  -20.1818   25.8467 C   0  0  0  0  0  0  0  0  0  0  0  0
    2.4011  -19.5536   26.1403 C   0  0  0  0  0  0  0  0  0  0  0  0
    2.5425  -18.8344   27.3061 O   0  0  0  0  0  0  0  0  0  0  0  0
   -0.1029  -20.2792   26.5193 C   0  0  0  0  0  0  0  0  0  0  0  0
   -0.9341  -21.0528   25.6972 C   0  0  0  0  0  0  0  0  0  0  0  0
   -0.2480  -21.4099   24.6042 N   0  0  0  0  0  0  0  0  0  0  0  0
  1  2  1  0  0  0  0
  1  7  1  0  0  0  0
  2  3  1  0  0  0  0
  2  4  2  0  0  0  0
  4  5  1  0  0  0  0
  5  6  2  0  0  0  0
  5 11  1  0  0  0  0
  6  7  1  0  0  0  0
  6  9  1  0  0  0  0
  7  8  2  0  0  0  0
  9 10  2  0  0  0  0
 10 11  1  0  0  0  0
M  END
>  <CHROM.1>
1.78441470,-20.31007828,25.20333855,-0.23748599,0.31701628,1.05606146

>  <Name>
ligand

>  <RI>
0

>  <Rbt.Current_Directory>
/home/itssahil/PROJECTS/Mol_Feturizer/New_Systems/rnas/4LVW

>  <Rbt.Executable>
rbdock ($Id: //depot/dev/client3/rdock/2013.1/src/exe/rbdock.cxx#4 $)

>  <Rbt.Library>
libRbt.so (2013.1, Build901 2013/11/27)

>  <Rbt.Parameter_File>
/export/apps/rDock/src/rDock_2013.1_src/data/scripts/dock_solv.prm

>  <Rbt.Receptor>
prm/pocket_docking_8.prm

>  <SCORE>
-13.9425

>  <SCORE.INTER>
-13.9425

>  <SCORE.INTER.CONST>
1

>  <SCORE.INTER.POLAR>
0

>  <SCORE.INTER.ROT>
0

>  <SCORE.INTER.SOLV>
5.33134

>  <SCORE.INTER.VDW>
-14.6721

>  <SCORE.INTER.norm>
-1.2675

>  <SCORE.INTRA>
0

>  <SCORE.INTRA.DIHEDRAL>
0

>  <SCORE.INTRA.DIHEDRAL.0>
0

>  <SCORE.INTRA.POLAR>
0

>  <SCORE.INTRA.POLAR.0>
0

>  <SCORE.INTRA.REPUL>
0

>  <SCORE.INTRA.REPUL.0>
0

>  <SCORE.INTRA.SOLV>
0

>  <SCORE.INTRA.SOLV.lig_0>
-29.307

>  <SCORE.INTRA.VDW>
0

>  <SCORE.INTRA.VDW.0>
0

>  <SCORE.INTRA.norm>
0

>  <SCORE.RESTR>
0

>  <SCORE.RESTR.CAVITY>
0

>  <SCORE.RESTR.norm>
0

>  <SCORE.SYSTEM>
0

>  <SCORE.SYSTEM.CONST>
0

>  <SCORE.SYSTEM.DIHEDRAL>
0

>  <SCORE.SYSTEM.SOLV>
0

>  <SCORE.SYSTEM.norm>
0

>  <SCORE.heavy>
11

>  <SCORE.norm>
-1.2675

>  <RMSD>
3.447

$$$$
ligand
 OpenBabel11021811503D
libRbt.so/2013.1/901 2013/11/27
 11 12  0  0  0  0  0  0  0  0999 V2000
    3.4254  -19.6421   25.2327 N   0  0  0  0  0  0  0  0  0  0  0  0
    3.2526  -20.3478   24.1011 C   0  0  0  0  0  0  0  0  0  0  0  0
    4.3148  -20.4640   23.1546 N   0  0  0  0  0  0  0  0  0  0  0  0
    2.1027  -20.9676   23.8196 N   0  0  0  0  0  0  0  0  0  0  0  0
    1.0295  -20.8932   24.6747 C   0  0  0  0  0  0  0  0  0  0  0  0
    1.1677  -20.1802   25.8457 C   0  0  0  0  0  0  0  0  0  0  0  0
    2.4117  -19.5450   26.1263 C   0  0  0  0  0  0  0  0  0  0  0  0
    2.5615  -18.8257   27.2909 O   0  0  0  0  0  0  0  0  0  0  0  0
   -0.0839  -20.2852   26.5318 C   0  0  0  0  0  0  0  0  0  0  0  0
   -0.9195  -21.0630   25.7182 C   0  0  0  0  0  0  0  0  0  0  0  0
   -0.2432  -21.4156   24.6177 N   0  0  0  0  0  0  0  0  0  0  0  0
  1  2  1  0  0  0  0
  1  7  1  0  0  0  0
  2  3  1  0  0  0  0
  2  4  2  0  0  0  0
  4  5  1  0  0  0  0
  5  6  2  0  0  0  0
  5 11  1  0  0  0  0
  6  7  1  0  0  0  0
  6  9  1  0  0  0  0
  7  8  2  0  0  0  0
  9 10  2  0  0  0  0
 10 11  1  0  0  0  0
M  END
>  <CHROM.1>
1.78925595,-20.30450873,25.19558028,-0.24441404,0.32727069,1.05882513

>  <Name>
ligand

>  <RI>
0

>  <Rbt.Current_Directory>
/home/itssahil/PROJECTS/Mol_Feturizer/New_Systems/rnas/4LVW

>  <Rbt.Executable>
rbdock ($Id: //depot/dev/client3/rdock/2013.1/src/exe/rbdock.cxx#4 $)

>  <Rbt.Library>
libRbt.so (2013.1, Build901 2013/11/27)

>  <Rbt.Parameter_File>
/export/apps/rDock/src/rDock_2013.1_src/data/scripts/dock_solv.prm

>  <Rbt.Receptor>
prm/pocket_docking_5.prm

>  <SCORE>
-13.9124

>  <SCORE.INTER>
-13.9124

>  <SCORE.INTER.CONST>
1

>  <SCORE.INTER.POLAR>
0

>  <SCORE.INTER.ROT>
0

>  <SCORE.INTER.SOLV>
5.43407

>  <SCORE.INTER.VDW>
-14.6863

>  <SCORE.INTER.norm>
-1.26476

>  <SCORE.INTRA>
0

>  <SCORE.INTRA.DIHEDRAL>
0

>  <SCORE.INTRA.DIHEDRAL.0>
0

>  <SCORE.INTRA.POLAR>
0

>  <SCORE.INTRA.POLAR.0>
0

>  <SCORE.INTRA.REPUL>
0

>  <SCORE.INTRA.REPUL.0>
0

>  <SCORE.INTRA.SOLV>
0

>  <SCORE.INTRA.SOLV.lig_0>
-29.307

>  <SCORE.INTRA.VDW>
0

>  <SCORE.INTRA.VDW.0>
0

>  <SCORE.INTRA.norm>
0

>  <SCORE.RESTR>
0

>  <SCORE.RESTR.CAVITY>
0

>  <SCORE.RESTR.norm>
0

>  <SCORE.SYSTEM>
0

>  <SCORE.SYSTEM.CONST>
0

>  <SCORE.SYSTEM.DIHEDRAL>
0

>  <SCORE.SYSTEM.SOLV>
0

>  <SCORE.SYSTEM.norm>
0

>  <SCORE.heavy>
11

>  <SCORE.norm>
-1.26476

>  <RMSD>
3.448

$$$$
ligand
 OpenBabel11021811503D
libRbt.so/2013.1/901 2013/11/27
 11 12  0  0  0  0  0  0  0  0999 V2000
    3.6538  -20.8758   25.1652 N   0  0  0  0  0  0  0  0  0  0  0  0
    3.2452  -21.1554   23.9149 C   0  0  0  0  0  0  0  0  0  0  0  0
    4.1973  -21.3080   22.8624 N   0  0  0  0  0  0  0  0  0  0  0  0
    1.9537  -21.3081   23.6076 N   0  0  0  0  0  0  0  0  0  0  0  0
    0.9761  -21.1652   24.5628 C   0  0  0  0  0  0  0  0  0  0  0  0
    1.3550  -20.8797   25.8565 C   0  0  0  0  0  0  0  0  0  0  0  0
    2.7406  -20.7401   26.1568 C   0  0  0  0  0  0  0  0  0  0  0  0
    3.1324  -20.4505   27.4447 O   0  0  0  0  0  0  0  0  0  0  0  0
    0.1484  -20.8016   26.6221 C   0  0  0  0  0  0  0  0  0  0  0  0
   -0.9054  -21.0424   25.7296 C   0  0  0  0  0  0  0  0  0  0  0  0
   -0.3968  -21.2556   24.5094 N   0  0  0  0  0  0  0  0  0  0  0  0
  1  2  1  0  0  0  0
  1  7  1  0  0  0  0
  2  3  1  0  0  0  0
  2  4  2  0  0  0  0
  4  5  1  0  0  0  0
  5  6  2  0  0  0  0
  5 11  1  0  0  0  0
  6  7  1  0  0  0  0
  6  9  1  0  0  0  0
  7  8  2  0  0  0  0
  9 10  2  0  0  0  0
 10 11  1  0  0  0  0
M  END
>  <CHROM.1>
1.89248596,-20.99368914,25.13363331,-0.41719626,0.05993362,1.37152036

>  <Name>
ligand

>  <RI>
0

>  <Rbt.Current_Directory>
/home/itssahil/PROJECTS/Mol_Feturizer/New_Systems/rnas/4LVW

>  <Rbt.Executable>
rbdock ($Id: //depot/dev/client3/rdock/2013.1/src/exe/rbdock.cxx#4 $)

>  <Rbt.Library>
libRbt.so (2013.1, Build901 2013/11/27)

>  <Rbt.Parameter_File>
/export/apps/rDock/src/rDock_2013.1_src/data/scripts/dock_solv.prm

>  <Rbt.Receptor>
prm/pocket_docking_8.prm

>  <SCORE>
-12.6291

>  <SCORE.INTER>
-12.6291

>  <SCORE.INTER.CONST>
1

>  <SCORE.INTER.POLAR>
0

>  <SCORE.INTER.ROT>
0

>  <SCORE.INTER.SOLV>
7.12376

>  <SCORE.INTER.VDW>
-14.394

>  <SCORE.INTER.norm>
-1.1481

>  <SCORE.INTRA>
0

>  <SCORE.INTRA.DIHEDRAL>
0

>  <SCORE.INTRA.DIHEDRAL.0>
0

>  <SCORE.INTRA.POLAR>
0

>  <SCORE.INTRA.POLAR.0>
0

>  <SCORE.INTRA.REPUL>
0

>  <SCORE.INTRA.REPUL.0>
0

>  <SCORE.INTRA.SOLV>
0

>  <SCORE.INTRA.SOLV.lig_0>
-29.307

>  <SCORE.INTRA.VDW>
0

>  <SCORE.INTRA.VDW.0>
0

>  <SCORE.INTRA.norm>
0

>  <SCORE.RESTR>
0

>  <SCORE.RESTR.CAVITY>
0

>  <SCORE.RESTR.norm>
0

>  <SCORE.SYSTEM>
0

>  <SCORE.SYSTEM.CONST>
0

>  <SCORE.SYSTEM.DIHEDRAL>
0

>  <SCORE.SYSTEM.SOLV>
0

>  <SCORE.SYSTEM.norm>
0

>  <SCORE.heavy>
11

>  <SCORE.norm>
-1.1481

>  <RMSD>
3.472

$$$$
ligand
 OpenBabel11021811503D
libRbt.so/2013.1/901 2013/11/27
 11 12  0  0  0  0  0  0  0  0999 V2000
    3.5574  -20.2297   24.6593 N   0  0  0  0  0  0  0  0  0  0  0  0
    3.4742  -19.5132   25.7941 C   0  0  0  0  0  0  0  0  0  0  0  0
    4.6156  -18.8151   26.2915 N   0  0  0  0  0  0  0  0  0  0  0  0
    2.3381  -19.4171   26.4912 N   0  0  0  0  0  0  0  0  0  0  0  0
    1.1992  -20.0694   26.0840 C   0  0  0  0  0  0  0  0  0  0  0  0
    1.2441  -20.8132   24.9249 C   0  0  0  0  0  0  0  0  0  0  0  0
    2.4650  -20.8822   24.1940 C   0  0  0  0  0  0  0  0  0  0  0  0
    2.5245  -21.6256   23.0364 O   0  0  0  0  0  0  0  0  0  0  0  0
   -0.0668  -21.3585   24.7448 C   0  0  0  0  0  0  0  0  0  0  0  0
   -0.8366  -20.9095   25.8268 C   0  0  0  0  0  0  0  0  0  0  0  0
   -0.0692  -20.1453   26.6143 N   0  0  0  0  0  0  0  0  0  0  0  0
  1  2  1  0  0  0  0
  1  7  1  0  0  0  0
  2  3  1  0  0  0  0
  2  4  2  0  0  0  0
  4  5  1  0  0  0  0
  5  6  2  0  0  0  0
  5 11  1  0  0  0  0
  6  7  1  0  0  0  0
  6  9  1  0  0  0  0
  7  8  2  0  0  0  0
  9 10  2  0  0  0  0
 10 11  1  0  0  0  0
M  END
>  <CHROM.1>
1.91876059,-20.34067891,25.30702350,-0.17163790,-0.26854911,-2.14947368

>  <Name>
ligand

>  <RI>
0

>  <Rbt.Current_Directory>
/home/itssahil/PROJECTS/Mol_Feturizer/New_Systems/rnas/4LVW

>  <Rbt.Executable>
rbdock ($Id: //depot/dev/client3/rdock/2013.1/src/exe/rbdock.cxx#4 $)

>  <Rbt.Library>
libRbt.so (2013.1, Build901 2013/11/27)

>  <Rbt.Parameter_File>
/export/apps/rDock/src/rDock_2013.1_src/data/scripts/dock_solv.prm

>  <Rbt.Receptor>
prm/pocket_docking_5.prm

>  <SCORE>
-13.0936

>  <SCORE.INTER>
-13.0936

>  <SCORE.INTER.CONST>
1

>  <SCORE.INTER.POLAR>
0

>  <SCORE.INTER.ROT>
0

>  <SCORE.INTER.SOLV>
6.51373

>  <SCORE.INTER.VDW>
-14.5003

>  <SCORE.INTER.norm>
-1.19032

>  <SCORE.INTRA>
0

>  <SCORE.INTRA.DIHEDRAL>
0

>  <SCORE.INTRA.DIHEDRAL.0>
0

>  <SCORE.INTRA.POLAR>
0

>  <SCORE.INTRA.POLAR.0>
0

>  <SCORE.INTRA.REPUL>
0

>  <SCORE.INTRA.REPUL.0>
0

>  <SCORE.INTRA.SOLV>
0

>  <SCORE.INTRA.SOLV.lig_0>
-29.307

>  <SCORE.INTRA.VDW>
0

>  <SCORE.INTRA.VDW.0>
0

>  <SCORE.INTRA.norm>
0

>  <SCORE.RESTR>
0

>  <SCORE.RESTR.CAVITY>
0

>  <SCORE.RESTR.norm>
0

>  <SCORE.SYSTEM>
0

>  <SCORE.SYSTEM.CONST>
0

>  <SCORE.SYSTEM.DIHEDRAL>
0

>  <SCORE.SYSTEM.SOLV>
0

>  <SCORE.SYSTEM.norm>
0

>  <SCORE.heavy>
11

>  <SCORE.norm>
-1.19032

>  <RMSD>
4.060

$$$$
ligand
 OpenBabel11021811503D
libRbt.so/2013.1/901 2013/11/27
 11 12  0  0  0  0  0  0  0  0999 V2000
    3.5558  -20.2274   24.6548 N   0  0  0  0  0  0  0  0  0  0  0  0
    3.4741  -19.5133   25.7913 C   0  0  0  0  0  0  0  0  0  0  0  0
    4.6163  -18.8171   26.2891 N   0  0  0  0  0  0  0  0  0  0  0  0
    2.3387  -19.4181   26.4897 N   0  0  0  0  0  0  0  0  0  0  0  0
    1.1990  -20.0688   26.0821 C   0  0  0  0  0  0  0  0  0  0  0  0
    1.2423  -20.8101   24.9213 C   0  0  0  0  0  0  0  0  0  0  0  0
    2.4626  -20.8782   24.1891 C   0  0  0  0  0  0  0  0  0  0  0  0
    2.5205  -21.6191   23.0298 O   0  0  0  0  0  0  0  0  0  0  0  0
   -0.0690  -21.3542   24.7411 C   0  0  0  0  0  0  0  0  0  0  0  0
   -0.8375  -20.9070   25.8249 C   0  0  0  0  0  0  0  0  0  0  0  0
   -0.0690  -20.1451   26.6134 N   0  0  0  0  0  0  0  0  0  0  0  0
  1  2  1  0  0  0  0
  1  7  1  0  0  0  0
  2  3  1  0  0  0  0
  2  4  2  0  0  0  0
  4  5  1  0  0  0  0
  5  6  2  0  0  0  0
  5 11  1  0  0  0  0
  6  7  1  0  0  0  0
  6  9  1  0  0  0  0
  7  8  2  0  0  0  0
  9 10  2  0  0  0  0
 10 11  1  0  0  0  0
M  END
>  <CHROM.1>
1.91768432,-20.33882129,25.30381410,-0.17049875,-0.26853160,-2.14697522

>  <Name>
ligand

>  <RI>
0

>  <Rbt.Current_Directory>
/home/itssahil/PROJECTS/Mol_Feturizer/New_Systems/rnas/4LVW

>  <Rbt.Executable>
rbdock ($Id: //depot/dev/client3/rdock/2013.1/src/exe/rbdock.cxx#4 $)

>  <Rbt.Library>
libRbt.so (2013.1, Build901 2013/11/27)

>  <Rbt.Parameter_File>
/export/apps/rDock/src/rDock_2013.1_src/data/scripts/dock_solv.prm

>  <Rbt.Receptor>
prm/pocket_docking_8.prm

>  <SCORE>
-13.0944

>  <SCORE.INTER>
-13.0944

>  <SCORE.INTER.CONST>
1

>  <SCORE.INTER.POLAR>
0

>  <SCORE.INTER.ROT>
0

>  <SCORE.INTER.SOLV>
6.50708

>  <SCORE.INTER.VDW>
-14.4986

>  <SCORE.INTER.norm>
-1.1904

>  <SCORE.INTRA>
0

>  <SCORE.INTRA.DIHEDRAL>
0

>  <SCORE.INTRA.DIHEDRAL.0>
0

>  <SCORE.INTRA.POLAR>
0

>  <SCORE.INTRA.POLAR.0>
0

>  <SCORE.INTRA.REPUL>
0

>  <SCORE.INTRA.REPUL.0>
0

>  <SCORE.INTRA.SOLV>
0

>  <SCORE.INTRA.SOLV.lig_0>
-29.307

>  <SCORE.INTRA.VDW>
0

>  <SCORE.INTRA.VDW.0>
0

>  <SCORE.INTRA.norm>
0

>  <SCORE.RESTR>
0

>  <SCORE.RESTR.CAVITY>
0

>  <SCORE.RESTR.norm>
0

>  <SCORE.SYSTEM>
0

>  <SCORE.SYSTEM.CONST>
0

>  <SCORE.SYSTEM.DIHEDRAL>
0

>  <SCORE.SYSTEM.SOLV>
0

>  <SCORE.SYSTEM.norm>
0

>  <SCORE.heavy>
11

>  <SCORE.norm>
-1.1904

>  <RMSD>
4.060

$$$$
ligand
 OpenBabel11021811503D
libRbt.so/2013.1/901 2013/11/27
 11 12  0  0  0  0  0  0  0  0999 V2000
    3.5273  -20.2241   24.6425 N   0  0  0  0  0  0  0  0  0  0  0  0
    3.4483  -19.5169   25.7835 C   0  0  0  0  0  0  0  0  0  0  0  0
    4.5934  -18.8286   26.2860 N   0  0  0  0  0  0  0  0  0  0  0  0
    2.3132  -19.4214   26.4823 N   0  0  0  0  0  0  0  0  0  0  0  0
    1.1709  -20.0647   26.0703 C   0  0  0  0  0  0  0  0  0  0  0  0
    1.2114  -20.7988   24.9048 C   0  0  0  0  0  0  0  0  0  0  0  0
    2.4315  -20.8673   24.1724 C   0  0  0  0  0  0  0  0  0  0  0  0
    2.4866  -21.6010   23.0085 O   0  0  0  0  0  0  0  0  0  0  0  0
   -0.1021  -21.3363   24.7210 C   0  0  0  0  0  0  0  0  0  0  0  0
   -0.8690  -20.8928   25.8074 C   0  0  0  0  0  0  0  0  0  0  0  0
   -0.0975  -20.1392   26.6009 N   0  0  0  0  0  0  0  0  0  0  0  0
  1  2  1  0  0  0  0
  1  7  1  0  0  0  0
  2  3  1  0  0  0  0
  2  4  2  0  0  0  0
  4  5  1  0  0  0  0
  5  6  2  0  0  0  0
  5 11  1  0  0  0  0
  6  7  1  0  0  0  0
  6  9  1  0  0  0  0
  7  8  2  0  0  0  0
  9 10  2  0  0  0  0
 10 11  1  0  0  0  0
M  END
>  <CHROM.1>
1.88864003,-20.33277248,25.29047583,-0.16832557,-0.26493731,-2.14002675

>  <Name>
ligand

>  <RI>
0

>  <Rbt.Current_Directory>
/home/itssahil/PROJECTS/Mol_Feturizer/New_Systems/rnas/4LVW

>  <Rbt.Executable>
rbdock ($Id: //depot/dev/client3/rdock/2013.1/src/exe/rbdock.cxx#4 $)

>  <Rbt.Library>
libRbt.so (2013.1, Build901 2013/11/27)

>  <Rbt.Parameter_File>
/export/apps/rDock/src/rDock_2013.1_src/data/scripts/dock_solv.prm

>  <Rbt.Receptor>
prm/pocket_docking_3.prm

>  <SCORE>
-13.0849

>  <SCORE.INTER>
-13.0849

>  <SCORE.INTER.CONST>
1

>  <SCORE.INTER.POLAR>
0

>  <SCORE.INTER.ROT>
0

>  <SCORE.INTER.SOLV>
6.57738

>  <SCORE.INTER.VDW>
-14.5157

>  <SCORE.INTER.norm>
-1.18954

>  <SCORE.INTRA>
0

>  <SCORE.INTRA.DIHEDRAL>
0

>  <SCORE.INTRA.DIHEDRAL.0>
0

>  <SCORE.INTRA.POLAR>
0

>  <SCORE.INTRA.POLAR.0>
0

>  <SCORE.INTRA.REPUL>
0

>  <SCORE.INTRA.REPUL.0>
0

>  <SCORE.INTRA.SOLV>
0

>  <SCORE.INTRA.SOLV.lig_0>
-29.307

>  <SCORE.INTRA.VDW>
0

>  <SCORE.INTRA.VDW.0>
0

>  <SCORE.INTRA.norm>
0

>  <SCORE.RESTR>
0

>  <SCORE.RESTR.CAVITY>
0

>  <SCORE.RESTR.norm>
0

>  <SCORE.SYSTEM>
0

>  <SCORE.SYSTEM.CONST>
0

>  <SCORE.SYSTEM.DIHEDRAL>
0

>  <SCORE.SYSTEM.SOLV>
0

>  <SCORE.SYSTEM.norm>
0

>  <SCORE.heavy>
11

>  <SCORE.norm>
-1.18954

>  <RMSD>
4.061

$$$$
ligand
 OpenBabel11021811503D
libRbt.so/2013.1/901 2013/11/27
 11 12  0  0  0  0  0  0  0  0999 V2000
    3.5639  -20.2411   24.6799 N   0  0  0  0  0  0  0  0  0  0  0  0
    3.4811  -19.5189   25.8112 C   0  0  0  0  0  0  0  0  0  0  0  0
    4.6262  -18.8290   26.3116 N   0  0  0  0  0  0  0  0  0  0  0  0
    2.3423  -19.4094   26.5018 N   0  0  0  0  0  0  0  0  0  0  0  0
    1.1997  -20.0532   26.0913 C   0  0  0  0  0  0  0  0  0  0  0  0
    1.2440  -20.8024   24.9357 C   0  0  0  0  0  0  0  0  0  0  0  0
    2.4681  -20.8857   24.2116 C   0  0  0  0  0  0  0  0  0  0  0  0
    2.5269  -21.6347   23.0576 O   0  0  0  0  0  0  0  0  0  0  0  0
   -0.0708  -21.3367   24.7509 C   0  0  0  0  0  0  0  0  0  0  0  0
   -0.8422  -20.8759   25.8269 C   0  0  0  0  0  0  0  0  0  0  0  0
   -0.0722  -20.1153   26.6152 N   0  0  0  0  0  0  0  0  0  0  0  0
  1  2  1  0  0  0  0
  1  7  1  0  0  0  0
  2  3  1  0  0  0  0
  2  4  2  0  0  0  0
  4  5  1  0  0  0  0
  5  6  2  0  0  0  0
  5 11  1  0  0  0  0
  6  7  1  0  0  0  0
  6  9  1  0  0  0  0
  7  8  2  0  0  0  0
  9 10  2  0  0  0  0
 10 11  1  0  0  0  0
M  END
>  <CHROM.1>
1.92087632,-20.33438247,25.31934656,-0.17109581,-0.25805826,-2.15369092

>  <Name>
ligand

>  <RI>
0

>  <Rbt.Current_Directory>
/home/itssahil/PROJECTS/Mol_Feturizer/New_Systems/rnas/4LVW

>  <Rbt.Executable>
rbdock ($Id: //depot/dev/client3/rdock/2013.1/src/exe/rbdock.cxx#4 $)

>  <Rbt.Library>
libRbt.so (2013.1, Build901 2013/11/27)

>  <Rbt.Parameter_File>
/export/apps/rDock/src/rDock_2013.1_src/data/scripts/dock_solv.prm

>  <Rbt.Receptor>
prm/pocket_docking_4.prm

>  <SCORE>
-13.0835

>  <SCORE.INTER>
-13.0835

>  <SCORE.INTER.CONST>
1

>  <SCORE.INTER.POLAR>
0

>  <SCORE.INTER.ROT>
0

>  <SCORE.INTER.SOLV>
6.51449

>  <SCORE.INTER.VDW>
-14.4938

>  <SCORE.INTER.norm>
-1.18941

>  <SCORE.INTRA>
0

>  <SCORE.INTRA.DIHEDRAL>
0

>  <SCORE.INTRA.DIHEDRAL.0>
0

>  <SCORE.INTRA.POLAR>
0

>  <SCORE.INTRA.POLAR.0>
0

>  <SCORE.INTRA.REPUL>
0

>  <SCORE.INTRA.REPUL.0>
0

>  <SCORE.INTRA.SOLV>
0

>  <SCORE.INTRA.SOLV.lig_0>
-29.307

>  <SCORE.INTRA.VDW>
0

>  <SCORE.INTRA.VDW.0>
0

>  <SCORE.INTRA.norm>
0

>  <SCORE.RESTR>
0

>  <SCORE.RESTR.CAVITY>
0

>  <SCORE.RESTR.norm>
0

>  <SCORE.SYSTEM>
0

>  <SCORE.SYSTEM.CONST>
0

>  <SCORE.SYSTEM.DIHEDRAL>
0

>  <SCORE.SYSTEM.SOLV>
0

>  <SCORE.SYSTEM.norm>
0

>  <SCORE.heavy>
11

>  <SCORE.norm>
-1.18941

>  <RMSD>
4.061

$$$$
ligand
 OpenBabel11021811503D
libRbt.so/2013.1/901 2013/11/27
 11 12  0  0  0  0  0  0  0  0999 V2000
    3.6052  -20.7064   24.7347 N   0  0  0  0  0  0  0  0  0  0  0  0
    3.6581  -20.4429   26.0523 C   0  0  0  0  0  0  0  0  0  0  0  0
    4.9009  -20.1141   26.6725 N   0  0  0  0  0  0  0  0  0  0  0  0
    2.5685  -20.4684   26.8256 N   0  0  0  0  0  0  0  0  0  0  0  0
    1.3373  -20.7877   26.3054 C   0  0  0  0  0  0  0  0  0  0  0  0
    1.2418  -21.0631   24.9586 C   0  0  0  0  0  0  0  0  0  0  0  0
    2.4182  -21.0105   24.1566 C   0  0  0  0  0  0  0  0  0  0  0  0
    2.3373  -21.2878   22.8102 O   0  0  0  0  0  0  0  0  0  0  0  0
   -0.1376  -21.3445   24.7013 C   0  0  0  0  0  0  0  0  0  0  0  0
   -0.8033  -21.2265   25.9293 C   0  0  0  0  0  0  0  0  0  0  0  0
    0.0875  -20.8962   26.8728 N   0  0  0  0  0  0  0  0  0  0  0  0
  1  2  1  0  0  0  0
  1  7  1  0  0  0  0
  2  3  1  0  0  0  0
  2  4  2  0  0  0  0
  4  5  1  0  0  0  0
  5  6  2  0  0  0  0
  5 11  1  0  0  0  0
  6  7  1  0  0  0  0
  6  9  1  0  0  0  0
  7  8  2  0  0  0  0
  9 10  2  0  0  0  0
 10 11  1  0  0  0  0
M  END
>  <CHROM.1>
1.98760071,-20.84513193,25.42848554,-0.06766817,-0.16567525,-1.76011297

>  <Name>
ligand

>  <RI>
0

>  <Rbt.Current_Directory>
/home/itssahil/PROJECTS/Mol_Feturizer/New_Systems/rnas/4LVW

>  <Rbt.Executable>
rbdock ($Id: //depot/dev/client3/rdock/2013.1/src/exe/rbdock.cxx#4 $)

>  <Rbt.Library>
libRbt.so (2013.1, Build901 2013/11/27)

>  <Rbt.Parameter_File>
/export/apps/rDock/src/rDock_2013.1_src/data/scripts/dock_solv.prm

>  <Rbt.Receptor>
prm/pocket_docking_5.prm

>  <SCORE>
-12.404

>  <SCORE.INTER>
-12.404

>  <SCORE.INTER.CONST>
1

>  <SCORE.INTER.POLAR>
0

>  <SCORE.INTER.ROT>
0

>  <SCORE.INTER.SOLV>
4.54279

>  <SCORE.INTER.VDW>
-13.3836

>  <SCORE.INTER.norm>
-1.12763

>  <SCORE.INTRA>
0

>  <SCORE.INTRA.DIHEDRAL>
0

>  <SCORE.INTRA.DIHEDRAL.0>
0

>  <SCORE.INTRA.POLAR>
0

>  <SCORE.INTRA.POLAR.0>
0

>  <SCORE.INTRA.REPUL>
0

>  <SCORE.INTRA.REPUL.0>
0

>  <SCORE.INTRA.SOLV>
0

>  <SCORE.INTRA.SOLV.lig_0>
-29.307

>  <SCORE.INTRA.VDW>
0

>  <SCORE.INTRA.VDW.0>
0

>  <SCORE.INTRA.norm>
0

>  <SCORE.RESTR>
0

>  <SCORE.RESTR.CAVITY>
0

>  <SCORE.RESTR.norm>
0

>  <SCORE.SYSTEM>
0

>  <SCORE.SYSTEM.CONST>
0

>  <SCORE.SYSTEM.DIHEDRAL>
0

>  <SCORE.SYSTEM.SOLV>
0

>  <SCORE.SYSTEM.norm>
0

>  <SCORE.heavy>
11

>  <SCORE.norm>
-1.12763

>  <RMSD>
4.061

$$$$
ligand
 OpenBabel11021811503D
libRbt.so/2013.1/901 2013/11/27
 11 12  0  0  0  0  0  0  0  0999 V2000
    3.5604  -20.2319   24.6655 N   0  0  0  0  0  0  0  0  0  0  0  0
    3.4775  -19.5140   25.7995 C   0  0  0  0  0  0  0  0  0  0  0  0
    4.6202  -18.8189   26.2980 N   0  0  0  0  0  0  0  0  0  0  0  0
    2.3406  -19.4136   26.4947 N   0  0  0  0  0  0  0  0  0  0  0  0
    1.2004  -20.0629   26.0863 C   0  0  0  0  0  0  0  0  0  0  0  0
    1.2448  -20.8080   24.9280 C   0  0  0  0  0  0  0  0  0  0  0  0
    2.4667  -20.8815   24.1991 C   0  0  0  0  0  0  0  0  0  0  0  0
    2.5257  -21.6263   23.0424 O   0  0  0  0  0  0  0  0  0  0  0  0
   -0.0675  -21.3495   24.7463 C   0  0  0  0  0  0  0  0  0  0  0  0
   -0.8376  -20.8969   25.8266 C   0  0  0  0  0  0  0  0  0  0  0  0
   -0.0692  -20.1343   26.6146 N   0  0  0  0  0  0  0  0  0  0  0  0
  1  2  1  0  0  0  0
  1  7  1  0  0  0  0
  2  3  1  0  0  0  0
  2  4  2  0  0  0  0
  4  5  1  0  0  0  0
  5  6  2  0  0  0  0
  5 11  1  0  0  0  0
  6  7  1  0  0  0  0
  6  9  1  0  0  0  0
  7  8  2  0  0  0  0
  9 10  2  0  0  0  0
 10 11  1  0  0  0  0
M  END
>  <CHROM.1>
1.92031921,-20.33717197,25.31071177,-0.17130206,-0.26506801,-2.15042574

>  <Name>
ligand

>  <RI>
0

>  <Rbt.Current_Directory>
/home/itssahil/PROJECTS/Mol_Feturizer/New_Systems/rnas/4LVW

>  <Rbt.Executable>
rbdock ($Id: //depot/dev/client3/rdock/2013.1/src/exe/rbdock.cxx#4 $)

>  <Rbt.Library>
libRbt.so (2013.1, Build901 2013/11/27)

>  <Rbt.Parameter_File>
/export/apps/rDock/src/rDock_2013.1_src/data/scripts/dock_solv.prm

>  <Rbt.Receptor>
prm/pocket_docking_8.prm

>  <SCORE>
-13.0938

>  <SCORE.INTER>
-13.0938

>  <SCORE.INTER.CONST>
1

>  <SCORE.INTER.POLAR>
0

>  <SCORE.INTER.ROT>
0

>  <SCORE.INTER.SOLV>
6.51273

>  <SCORE.INTER.VDW>
-14.5001

>  <SCORE.INTER.norm>
-1.19035

>  <SCORE.INTRA>
0

>  <SCORE.INTRA.DIHEDRAL>
0

>  <SCORE.INTRA.DIHEDRAL.0>
0

>  <SCORE.INTRA.POLAR>
0

>  <SCORE.INTRA.POLAR.0>
0

>  <SCORE.INTRA.REPUL>
0

>  <SCORE.INTRA.REPUL.0>
0

>  <SCORE.INTRA.SOLV>
0

>  <SCORE.INTRA.SOLV.lig_0>
-29.307

>  <SCORE.INTRA.VDW>
0

>  <SCORE.INTRA.VDW.0>
0

>  <SCORE.INTRA.norm>
0

>  <SCORE.RESTR>
0

>  <SCORE.RESTR.CAVITY>
0

>  <SCORE.RESTR.norm>
0

>  <SCORE.SYSTEM>
0

>  <SCORE.SYSTEM.CONST>
0

>  <SCORE.SYSTEM.DIHEDRAL>
0

>  <SCORE.SYSTEM.SOLV>
0

>  <SCORE.SYSTEM.norm>
0

>  <SCORE.heavy>
11

>  <SCORE.norm>
-1.19035

>  <RMSD>
4.061

$$$$
ligand
 OpenBabel11021811503D
libRbt.so/2013.1/901 2013/11/27
 11 12  0  0  0  0  0  0  0  0999 V2000
    3.5514  -20.2362   24.6603 N   0  0  0  0  0  0  0  0  0  0  0  0
    3.4714  -19.5179   25.7943 C   0  0  0  0  0  0  0  0  0  0  0  0
    4.6160  -18.8247   26.2910 N   0  0  0  0  0  0  0  0  0  0  0  0
    2.3357  -19.4157   26.4912 N   0  0  0  0  0  0  0  0  0  0  0  0
    1.1938  -20.0631   26.0847 C   0  0  0  0  0  0  0  0  0  0  0  0
    1.2353  -20.8085   24.9264 C   0  0  0  0  0  0  0  0  0  0  0  0
    2.4560  -20.8841   24.1957 C   0  0  0  0  0  0  0  0  0  0  0  0
    2.5121  -21.6292   23.0390 O   0  0  0  0  0  0  0  0  0  0  0  0
   -0.0781  -21.3479   24.7468 C   0  0  0  0  0  0  0  0  0  0  0  0
   -0.8459  -20.8939   25.8282 C   0  0  0  0  0  0  0  0  0  0  0  0
   -0.0750  -20.1325   26.6149 N   0  0  0  0  0  0  0  0  0  0  0  0
  1  2  1  0  0  0  0
  1  7  1  0  0  0  0
  2  3  1  0  0  0  0
  2  4  2  0  0  0  0
  4  5  1  0  0  0  0
  5  6  2  0  0  0  0
  5 11  1  0  0  0  0
  6  7  1  0  0  0  0
  6  9  1  0  0  0  0
  7  8  2  0  0  0  0
  9 10  2  0  0  0  0
 10 11  1  0  0  0  0
M  END
>  <CHROM.1>
1.91215151,-20.33872618,25.30803703,-0.16907504,-0.26455782,-2.14998386

>  <Name>
ligand

>  <RI>
0

>  <Rbt.Current_Directory>
/home/itssahil/PROJECTS/Mol_Feturizer/New_Systems/rnas/4LVW

>  <Rbt.Executable>
rbdock ($Id: //depot/dev/client3/rdock/2013.1/src/exe/rbdock.cxx#4 $)

>  <Rbt.Library>
libRbt.so (2013.1, Build901 2013/11/27)

>  <Rbt.Parameter_File>
/export/apps/rDock/src/rDock_2013.1_src/data/scripts/dock_solv.prm

>  <Rbt.Receptor>
prm/pocket_docking_4.prm

>  <SCORE>
-13.0873

>  <SCORE.INTER>
-13.0873

>  <SCORE.INTER.CONST>
1

>  <SCORE.INTER.POLAR>
0

>  <SCORE.INTER.ROT>
0

>  <SCORE.INTER.SOLV>
6.504

>  <SCORE.INTER.VDW>
-14.4928

>  <SCORE.INTER.norm>
-1.18975

>  <SCORE.INTRA>
0

>  <SCORE.INTRA.DIHEDRAL>
0

>  <SCORE.INTRA.DIHEDRAL.0>
0

>  <SCORE.INTRA.POLAR>
0

>  <SCORE.INTRA.POLAR.0>
0

>  <SCORE.INTRA.REPUL>
0

>  <SCORE.INTRA.REPUL.0>
0

>  <SCORE.INTRA.SOLV>
0

>  <SCORE.INTRA.SOLV.lig_0>
-29.307

>  <SCORE.INTRA.VDW>
0

>  <SCORE.INTRA.VDW.0>
0

>  <SCORE.INTRA.norm>
0

>  <SCORE.RESTR>
0

>  <SCORE.RESTR.CAVITY>
0

>  <SCORE.RESTR.norm>
0

>  <SCORE.SYSTEM>
0

>  <SCORE.SYSTEM.CONST>
0

>  <SCORE.SYSTEM.DIHEDRAL>
0

>  <SCORE.SYSTEM.SOLV>
0

>  <SCORE.SYSTEM.norm>
0

>  <SCORE.heavy>
11

>  <SCORE.norm>
-1.18975

>  <RMSD>
4.062

$$$$
ligand
 OpenBabel11021811503D
libRbt.so/2013.1/901 2013/11/27
 11 12  0  0  0  0  0  0  0  0999 V2000
    3.5540  -20.2285   24.6556 N   0  0  0  0  0  0  0  0  0  0  0  0
    3.4743  -19.5142   25.7921 C   0  0  0  0  0  0  0  0  0  0  0  0
    4.6182  -18.8202   26.2893 N   0  0  0  0  0  0  0  0  0  0  0  0
    2.3394  -19.4165   26.4909 N   0  0  0  0  0  0  0  0  0  0  0  0
    1.1982  -20.0650   26.0839 C   0  0  0  0  0  0  0  0  0  0  0  0
    1.2395  -20.8064   24.9231 C   0  0  0  0  0  0  0  0  0  0  0  0
    2.4593  -20.8771   24.1904 C   0  0  0  0  0  0  0  0  0  0  0  0
    2.5152  -21.6182   23.0311 O   0  0  0  0  0  0  0  0  0  0  0  0
   -0.0730  -21.3479   24.7436 C   0  0  0  0  0  0  0  0  0  0  0  0
   -0.8402  -20.8991   25.8277 C   0  0  0  0  0  0  0  0  0  0  0  0
   -0.0697  -20.1387   26.6157 N   0  0  0  0  0  0  0  0  0  0  0  0
  1  2  1  0  0  0  0
  1  7  1  0  0  0  0
  2  3  1  0  0  0  0
  2  4  2  0  0  0  0
  4  5  1  0  0  0  0
  5  6  2  0  0  0  0
  5 11  1  0  0  0  0
  6  7  1  0  0  0  0
  6  9  1  0  0  0  0
  7  8  2  0  0  0  0
  9 10  2  0  0  0  0
 10 11  1  0  0  0  0
M  END
>  <CHROM.1>
1.91598623,-20.33651676,25.30532032,-0.16895608,-0.26705909,-2.14663442

>  <Name>
ligand

>  <RI>
0

>  <Rbt.Current_Directory>
/home/itssahil/PROJECTS/Mol_Feturizer/New_Systems/rnas/4LVW

>  <Rbt.Executable>
rbdock ($Id: //depot/dev/client3/rdock/2013.1/src/exe/rbdock.cxx#4 $)

>  <Rbt.Library>
libRbt.so (2013.1, Build901 2013/11/27)

>  <Rbt.Parameter_File>
/export/apps/rDock/src/rDock_2013.1_src/data/scripts/dock_solv.prm

>  <Rbt.Receptor>
prm/pocket_docking_4.prm

>  <SCORE>
-13.0941

>  <SCORE.INTER>
-13.0941

>  <SCORE.INTER.CONST>
1

>  <SCORE.INTER.POLAR>
0

>  <SCORE.INTER.ROT>
0

>  <SCORE.INTER.SOLV>
6.50319

>  <SCORE.INTER.VDW>
-14.4971

>  <SCORE.INTER.norm>
-1.19037

>  <SCORE.INTRA>
0

>  <SCORE.INTRA.DIHEDRAL>
0

>  <SCORE.INTRA.DIHEDRAL.0>
0

>  <SCORE.INTRA.POLAR>
0

>  <SCORE.INTRA.POLAR.0>
0

>  <SCORE.INTRA.REPUL>
0

>  <SCORE.INTRA.REPUL.0>
0

>  <SCORE.INTRA.SOLV>
0

>  <SCORE.INTRA.SOLV.lig_0>
-29.307

>  <SCORE.INTRA.VDW>
0

>  <SCORE.INTRA.VDW.0>
0

>  <SCORE.INTRA.norm>
0

>  <SCORE.RESTR>
0

>  <SCORE.RESTR.CAVITY>
0

>  <SCORE.RESTR.norm>
0

>  <SCORE.SYSTEM>
0

>  <SCORE.SYSTEM.CONST>
0

>  <SCORE.SYSTEM.DIHEDRAL>
0

>  <SCORE.SYSTEM.SOLV>
0

>  <SCORE.SYSTEM.norm>
0

>  <SCORE.heavy>
11

>  <SCORE.norm>
-1.19037

>  <RMSD>
4.062

$$$$
ligand
 OpenBabel11021811503D
libRbt.so/2013.1/901 2013/11/27
 11 12  0  0  0  0  0  0  0  0999 V2000
    3.4816  -20.2279   24.6344 N   0  0  0  0  0  0  0  0  0  0  0  0
    3.3913  -19.4853   25.7519 C   0  0  0  0  0  0  0  0  0  0  0  0
    4.5278  -18.7703   26.2363 N   0  0  0  0  0  0  0  0  0  0  0  0
    2.2526  -19.3782   26.4429 N   0  0  0  0  0  0  0  0  0  0  0  0
    1.1181  -20.0453   26.0476 C   0  0  0  0  0  0  0  0  0  0  0  0
    1.1702  -20.8159   24.9064 C   0  0  0  0  0  0  0  0  0  0  0  0
    2.3938  -20.8963   24.1812 C   0  0  0  0  0  0  0  0  0  0  0  0
    2.4605  -21.6664   23.0416 O   0  0  0  0  0  0  0  0  0  0  0  0
   -0.1376  -21.3715   24.7350 C   0  0  0  0  0  0  0  0  0  0  0  0
   -0.9130  -20.9008   25.8038 C   0  0  0  0  0  0  0  0  0  0  0  0
   -0.1518  -20.1147   26.5755 N   0  0  0  0  0  0  0  0  0  0  0  0
  1  2  1  0  0  0  0
  1  7  1  0  0  0  0
  2  3  1  0  0  0  0
  2  4  2  0  0  0  0
  4  5  1  0  0  0  0
  5  6  2  0  0  0  0
  5 11  1  0  0  0  0
  6  7  1  0  0  0  0
  6  9  1  0  0  0  0
  7  8  2  0  0  0  0
  9 10  2  0  0  0  0
 10 11  1  0  0  0  0
M  END
>  <CHROM.1>
1.84139221,-20.33134575,25.27943916,-0.17712608,-0.27064495,-2.17445523

>  <Name>
ligand

>  <RI>
0

>  <Rbt.Current_Directory>
/home/itssahil/PROJECTS/Mol_Feturizer/New_Systems/rnas/4LVW

>  <Rbt.Executable>
rbdock ($Id: //depot/dev/client3/rdock/2013.1/src/exe/rbdock.cxx#4 $)

>  <Rbt.Library>
libRbt.so (2013.1, Build901 2013/11/27)

>  <Rbt.Parameter_File>
/export/apps/rDock/src/rDock_2013.1_src/data/scripts/dock_solv.prm

>  <Rbt.Receptor>
prm/pocket_docking_7.prm

>  <SCORE>
-13.0609

>  <SCORE.INTER>
-13.0609

>  <SCORE.INTER.CONST>
1

>  <SCORE.INTER.POLAR>
0

>  <SCORE.INTER.ROT>
0

>  <SCORE.INTER.SOLV>
6.82586

>  <SCORE.INTER.VDW>
-14.5826

>  <SCORE.INTER.norm>
-1.18736

>  <SCORE.INTRA>
0

>  <SCORE.INTRA.DIHEDRAL>
0

>  <SCORE.INTRA.DIHEDRAL.0>
0

>  <SCORE.INTRA.POLAR>
0

>  <SCORE.INTRA.POLAR.0>
0

>  <SCORE.INTRA.REPUL>
0

>  <SCORE.INTRA.REPUL.0>
0

>  <SCORE.INTRA.SOLV>
0

>  <SCORE.INTRA.SOLV.lig_0>
-29.307

>  <SCORE.INTRA.VDW>
0

>  <SCORE.INTRA.VDW.0>
0

>  <SCORE.INTRA.norm>
0

>  <SCORE.RESTR>
0

>  <SCORE.RESTR.CAVITY>
0

>  <SCORE.RESTR.norm>
0

>  <SCORE.SYSTEM>
0

>  <SCORE.SYSTEM.CONST>
0

>  <SCORE.SYSTEM.DIHEDRAL>
0

>  <SCORE.SYSTEM.SOLV>
0

>  <SCORE.SYSTEM.norm>
0

>  <SCORE.heavy>
11

>  <SCORE.norm>
-1.18736

>  <RMSD>
4.063

$$$$
ligand
 OpenBabel11021811503D
libRbt.so/2013.1/901 2013/11/27
 11 12  0  0  0  0  0  0  0  0999 V2000
    3.5530  -20.2392   24.6642 N   0  0  0  0  0  0  0  0  0  0  0  0
    3.4741  -19.5192   25.7973 C   0  0  0  0  0  0  0  0  0  0  0  0
    4.6198  -18.8272   26.2932 N   0  0  0  0  0  0  0  0  0  0  0  0
    2.3385  -19.4141   26.4938 N   0  0  0  0  0  0  0  0  0  0  0  0
    1.1955  -20.0602   26.0879 C   0  0  0  0  0  0  0  0  0  0  0  0
    1.2359  -20.8071   24.9307 C   0  0  0  0  0  0  0  0  0  0  0  0
    2.4566  -20.8858   24.2003 C   0  0  0  0  0  0  0  0  0  0  0  0
    2.5116  -21.6325   23.0446 O   0  0  0  0  0  0  0  0  0  0  0  0
   -0.0784  -21.3445   24.7515 C   0  0  0  0  0  0  0  0  0  0  0  0
   -0.8456  -20.8878   25.8323 C   0  0  0  0  0  0  0  0  0  0  0  0
   -0.0735  -20.1266   26.6180 N   0  0  0  0  0  0  0  0  0  0  0  0
  1  2  1  0  0  0  0
  1  7  1  0  0  0  0
  2  3  1  0  0  0  0
  2  4  2  0  0  0  0
  4  5  1  0  0  0  0
  5  6  2  0  0  0  0
  5 11  1  0  0  0  0
  6  7  1  0  0  0  0
  6  9  1  0  0  0  0
  7  8  2  0  0  0  0
  9 10  2  0  0  0  0
 10 11  1  0  0  0  0
M  END
>  <CHROM.1>
1.91351186,-20.33800193,25.31179680,-0.16824392,-0.26303418,-2.15111194

>  <Name>
ligand

>  <RI>
0

>  <Rbt.Current_Directory>
/home/itssahil/PROJECTS/Mol_Feturizer/New_Systems/rnas/4LVW

>  <Rbt.Executable>
rbdock ($Id: //depot/dev/client3/rdock/2013.1/src/exe/rbdock.cxx#4 $)

>  <Rbt.Library>
libRbt.so (2013.1, Build901 2013/11/27)

>  <Rbt.Parameter_File>
/export/apps/rDock/src/rDock_2013.1_src/data/scripts/dock_solv.prm

>  <Rbt.Receptor>
prm/pocket_docking_8.prm

>  <SCORE>
-13.0874

>  <SCORE.INTER>
-13.0874

>  <SCORE.INTER.CONST>
1

>  <SCORE.INTER.POLAR>
0

>  <SCORE.INTER.ROT>
0

>  <SCORE.INTER.SOLV>
6.49457

>  <SCORE.INTER.VDW>
-14.4898

>  <SCORE.INTER.norm>
-1.18976

>  <SCORE.INTRA>
0

>  <SCORE.INTRA.DIHEDRAL>
0

>  <SCORE.INTRA.DIHEDRAL.0>
0

>  <SCORE.INTRA.POLAR>
0

>  <SCORE.INTRA.POLAR.0>
0

>  <SCORE.INTRA.REPUL>
0

>  <SCORE.INTRA.REPUL.0>
0

>  <SCORE.INTRA.SOLV>
0

>  <SCORE.INTRA.SOLV.lig_0>
-29.307

>  <SCORE.INTRA.VDW>
0

>  <SCORE.INTRA.VDW.0>
0

>  <SCORE.INTRA.norm>
0

>  <SCORE.RESTR>
0

>  <SCORE.RESTR.CAVITY>
0

>  <SCORE.RESTR.norm>
0

>  <SCORE.SYSTEM>
0

>  <SCORE.SYSTEM.CONST>
0

>  <SCORE.SYSTEM.DIHEDRAL>
0

>  <SCORE.SYSTEM.SOLV>
0

>  <SCORE.SYSTEM.norm>
0

>  <SCORE.heavy>
11

>  <SCORE.norm>
-1.18976

>  <RMSD>
4.063

$$$$
ligand
 OpenBabel11021811503D
libRbt.so/2013.1/901 2013/11/27
 11 12  0  0  0  0  0  0  0  0999 V2000
    3.5177  -20.2357   24.6361 N   0  0  0  0  0  0  0  0  0  0  0  0
    3.4425  -19.5243   25.7747 C   0  0  0  0  0  0  0  0  0  0  0  0
    4.5889  -18.8329   26.2699 N   0  0  0  0  0  0  0  0  0  0  0  0
    2.3101  -19.4272   26.4776 N   0  0  0  0  0  0  0  0  0  0  0  0
    1.1669  -20.0733   26.0728 C   0  0  0  0  0  0  0  0  0  0  0  0
    1.2034  -20.8117   24.9099 C   0  0  0  0  0  0  0  0  0  0  0  0
    2.4206  -20.8818   24.1729 C   0  0  0  0  0  0  0  0  0  0  0  0
    2.4718  -21.6199   23.0115 O   0  0  0  0  0  0  0  0  0  0  0  0
   -0.1103  -21.3512   24.7334 C   0  0  0  0  0  0  0  0  0  0  0  0
   -0.8733  -20.9044   25.8212 C   0  0  0  0  0  0  0  0  0  0  0  0
   -0.0993  -20.1469   26.6087 N   0  0  0  0  0  0  0  0  0  0  0  0
  1  2  1  0  0  0  0
  1  7  1  0  0  0  0
  2  3  1  0  0  0  0
  2  4  2  0  0  0  0
  4  5  1  0  0  0  0
  5  6  2  0  0  0  0
  5 11  1  0  0  0  0
  6  7  1  0  0  0  0
  6  9  1  0  0  0  0
  7  8  2  0  0  0  0
  9 10  2  0  0  0  0
 10 11  1  0  0  0  0
M  END
>  <CHROM.1>
1.88169175,-20.34356892,25.29106177,-0.16538186,-0.26794834,-2.14306106

>  <Name>
ligand

>  <RI>
0

>  <Rbt.Current_Directory>
/home/itssahil/PROJECTS/Mol_Feturizer/New_Systems/rnas/4LVW

>  <Rbt.Executable>
rbdock ($Id: //depot/dev/client3/rdock/2013.1/src/exe/rbdock.cxx#4 $)

>  <Rbt.Library>
libRbt.so (2013.1, Build901 2013/11/27)

>  <Rbt.Parameter_File>
/export/apps/rDock/src/rDock_2013.1_src/data/scripts/dock_solv.prm

>  <Rbt.Receptor>
prm/pocket_docking_7.prm

>  <SCORE>
-13.0847

>  <SCORE.INTER>
-13.0847

>  <SCORE.INTER.CONST>
1

>  <SCORE.INTER.POLAR>
0

>  <SCORE.INTER.ROT>
0

>  <SCORE.INTER.SOLV>
6.53268

>  <SCORE.INTER.VDW>
-14.5007

>  <SCORE.INTER.norm>
-1.18951

>  <SCORE.INTRA>
0

>  <SCORE.INTRA.DIHEDRAL>
0

>  <SCORE.INTRA.DIHEDRAL.0>
0

>  <SCORE.INTRA.POLAR>
0

>  <SCORE.INTRA.POLAR.0>
0

>  <SCORE.INTRA.REPUL>
0

>  <SCORE.INTRA.REPUL.0>
0

>  <SCORE.INTRA.SOLV>
0

>  <SCORE.INTRA.SOLV.lig_0>
-29.307

>  <SCORE.INTRA.VDW>
0

>  <SCORE.INTRA.VDW.0>
0

>  <SCORE.INTRA.norm>
0

>  <SCORE.RESTR>
0

>  <SCORE.RESTR.CAVITY>
0

>  <SCORE.RESTR.norm>
0

>  <SCORE.SYSTEM>
0

>  <SCORE.SYSTEM.CONST>
0

>  <SCORE.SYSTEM.DIHEDRAL>
0

>  <SCORE.SYSTEM.SOLV>
0

>  <SCORE.SYSTEM.norm>
0

>  <SCORE.heavy>
11

>  <SCORE.norm>
-1.18951

>  <RMSD>
4.064

$$$$
ligand
 OpenBabel11021811503D
libRbt.so/2013.1/901 2013/11/27
 11 12  0  0  0  0  0  0  0  0999 V2000
    3.5577  -20.2389   24.6763 N   0  0  0  0  0  0  0  0  0  0  0  0
    3.4803  -19.5194   25.8097 C   0  0  0  0  0  0  0  0  0  0  0  0
    4.6290  -18.8352   26.3094 N   0  0  0  0  0  0  0  0  0  0  0  0
    2.3434  -19.4075   26.5031 N   0  0  0  0  0  0  0  0  0  0  0  0
    1.1974  -20.0458   26.0935 C   0  0  0  0  0  0  0  0  0  0  0  0
    1.2362  -20.7921   24.9358 C   0  0  0  0  0  0  0  0  0  0  0  0
    2.4584  -20.8780   24.2087 C   0  0  0  0  0  0  0  0  0  0  0  0
    2.5118  -21.6241   23.0526 O   0  0  0  0  0  0  0  0  0  0  0  0
   -0.0810  -21.3208   24.7525 C   0  0  0  0  0  0  0  0  0  0  0  0
   -0.8482  -20.8600   25.8314 C   0  0  0  0  0  0  0  0  0  0  0  0
   -0.0735  -20.1044   26.6200 N   0  0  0  0  0  0  0  0  0  0  0  0
  1  2  1  0  0  0  0
  1  7  1  0  0  0  0
  2  3  1  0  0  0  0
  2  4  2  0  0  0  0
  4  5  1  0  0  0  0
  5  6  2  0  0  0  0
  5 11  1  0  0  0  0
  6  7  1  0  0  0  0
  6  9  1  0  0  0  0
  7  8  2  0  0  0  0
  9 10  2  0  0  0  0
 10 11  1  0  0  0  0
M  END
>  <CHROM.1>
1.91579900,-20.32763787,25.31915985,-0.16700049,-0.25607653,-2.14997024

>  <Name>
ligand

>  <RI>
0

>  <Rbt.Current_Directory>
/home/itssahil/PROJECTS/Mol_Feturizer/New_Systems/rnas/4LVW

>  <Rbt.Executable>
rbdock ($Id: //depot/dev/client3/rdock/2013.1/src/exe/rbdock.cxx#4 $)

>  <Rbt.Library>
libRbt.so (2013.1, Build901 2013/11/27)

>  <Rbt.Parameter_File>
/export/apps/rDock/src/rDock_2013.1_src/data/scripts/dock_solv.prm

>  <Rbt.Receptor>
prm/pocket_docking_7.prm

>  <SCORE>
-13.0755

>  <SCORE.INTER>
-13.0755

>  <SCORE.INTER.CONST>
1

>  <SCORE.INTER.POLAR>
0

>  <SCORE.INTER.ROT>
0

>  <SCORE.INTER.SOLV>
6.50874

>  <SCORE.INTER.VDW>
-14.4866

>  <SCORE.INTER.norm>
-1.18869

>  <SCORE.INTRA>
0

>  <SCORE.INTRA.DIHEDRAL>
0

>  <SCORE.INTRA.DIHEDRAL.0>
0

>  <SCORE.INTRA.POLAR>
0

>  <SCORE.INTRA.POLAR.0>
0

>  <SCORE.INTRA.REPUL>
0

>  <SCORE.INTRA.REPUL.0>
0

>  <SCORE.INTRA.SOLV>
0

>  <SCORE.INTRA.SOLV.lig_0>
-29.307

>  <SCORE.INTRA.VDW>
0

>  <SCORE.INTRA.VDW.0>
0

>  <SCORE.INTRA.norm>
0

>  <SCORE.RESTR>
0

>  <SCORE.RESTR.CAVITY>
0

>  <SCORE.RESTR.norm>
0

>  <SCORE.SYSTEM>
0

>  <SCORE.SYSTEM.CONST>
0

>  <SCORE.SYSTEM.DIHEDRAL>
0

>  <SCORE.SYSTEM.SOLV>
0

>  <SCORE.SYSTEM.norm>
0

>  <SCORE.heavy>
11

>  <SCORE.norm>
-1.18869

>  <RMSD>
4.064

$$$$
ligand
 OpenBabel11021811503D
libRbt.so/2013.1/901 2013/11/27
 11 12  0  0  0  0  0  0  0  0999 V2000
    3.5319  -20.2257   24.6454 N   0  0  0  0  0  0  0  0  0  0  0  0
    3.4570  -19.5156   25.7848 C   0  0  0  0  0  0  0  0  0  0  0  0
    4.6039  -18.8261   26.2814 N   0  0  0  0  0  0  0  0  0  0  0  0
    2.3244  -19.4180   26.4873 N   0  0  0  0  0  0  0  0  0  0  0  0
    1.1806  -20.0624   26.0811 C   0  0  0  0  0  0  0  0  0  0  0  0
    1.2169  -20.7995   24.9174 C   0  0  0  0  0  0  0  0  0  0  0  0
    2.4343  -20.8701   24.1809 C   0  0  0  0  0  0  0  0  0  0  0  0
    2.4852  -21.6069   23.0187 O   0  0  0  0  0  0  0  0  0  0  0  0
   -0.0974  -21.3373   24.7396 C   0  0  0  0  0  0  0  0  0  0  0  0
   -0.8604  -20.8909   25.8276 C   0  0  0  0  0  0  0  0  0  0  0  0
   -0.0860  -20.1352   26.6163 N   0  0  0  0  0  0  0  0  0  0  0  0
  1  2  1  0  0  0  0
  1  7  1  0  0  0  0
  2  3  1  0  0  0  0
  2  4  2  0  0  0  0
  4  5  1  0  0  0  0
  5  6  2  0  0  0  0
  5 11  1  0  0  0  0
  6  7  1  0  0  0  0
  6  9  1  0  0  0  0
  7  8  2  0  0  0  0
  9 10  2  0  0  0  0
 10 11  1  0  0  0  0
M  END
>  <CHROM.1>
1.89547864,-20.33254757,25.29943897,-0.16517661,-0.26674336,-2.14183181

>  <Name>
ligand

>  <RI>
0

>  <Rbt.Current_Directory>
/home/itssahil/PROJECTS/Mol_Feturizer/New_Systems/rnas/4LVW

>  <Rbt.Executable>
rbdock ($Id: //depot/dev/client3/rdock/2013.1/src/exe/rbdock.cxx#4 $)

>  <Rbt.Library>
libRbt.so (2013.1, Build901 2013/11/27)

>  <Rbt.Parameter_File>
/export/apps/rDock/src/rDock_2013.1_src/data/scripts/dock_solv.prm

>  <Rbt.Receptor>
prm/pocket_docking_8.prm

>  <SCORE>
-13.0722

>  <SCORE.INTER>
-13.0722

>  <SCORE.INTER.CONST>
1

>  <SCORE.INTER.POLAR>
0

>  <SCORE.INTER.ROT>
0

>  <SCORE.INTER.SOLV>
6.53652

>  <SCORE.INTER.VDW>
-14.4936

>  <SCORE.INTER.norm>
-1.18838

>  <SCORE.INTRA>
0

>  <SCORE.INTRA.DIHEDRAL>
0

>  <SCORE.INTRA.DIHEDRAL.0>
0

>  <SCORE.INTRA.POLAR>
0

>  <SCORE.INTRA.POLAR.0>
0

>  <SCORE.INTRA.REPUL>
0

>  <SCORE.INTRA.REPUL.0>
0

>  <SCORE.INTRA.SOLV>
0

>  <SCORE.INTRA.SOLV.lig_0>
-29.307

>  <SCORE.INTRA.VDW>
0

>  <SCORE.INTRA.VDW.0>
0

>  <SCORE.INTRA.norm>
0

>  <SCORE.RESTR>
0

>  <SCORE.RESTR.CAVITY>
0

>  <SCORE.RESTR.norm>
0

>  <SCORE.SYSTEM>
0

>  <SCORE.SYSTEM.CONST>
0

>  <SCORE.SYSTEM.DIHEDRAL>
0

>  <SCORE.SYSTEM.SOLV>
0

>  <SCORE.SYSTEM.norm>
0

>  <SCORE.heavy>
11

>  <SCORE.norm>
-1.18838

>  <RMSD>
4.064

$$$$
ligand
 OpenBabel11021811503D
libRbt.so/2013.1/901 2013/11/27
 11 12  0  0  0  0  0  0  0  0999 V2000
    3.4933  -20.1702   24.5689 N   0  0  0  0  0  0  0  0  0  0  0  0
    3.4050  -19.4167   25.6791 C   0  0  0  0  0  0  0  0  0  0  0  0
    4.5343  -18.6743   26.1385 N   0  0  0  0  0  0  0  0  0  0  0  0
    2.2746  -19.3237   26.3858 N   0  0  0  0  0  0  0  0  0  0  0  0
    1.1476  -20.0171   26.0149 C   0  0  0  0  0  0  0  0  0  0  0  0
    1.1980  -20.7996   24.8818 C   0  0  0  0  0  0  0  0  0  0  0  0
    2.4122  -20.8647   24.1394 C   0  0  0  0  0  0  0  0  0  0  0  0
    2.4772  -21.6464   23.0076 O   0  0  0  0  0  0  0  0  0  0  0  0
   -0.1010  -21.3824   24.7361 C   0  0  0  0  0  0  0  0  0  0  0  0
   -0.8697  -20.9145   25.8110 C   0  0  0  0  0  0  0  0  0  0  0  0
   -0.1127  -20.1050   26.5624 N   0  0  0  0  0  0  0  0  0  0  0  0
  1  2  1  0  0  0  0
  1  7  1  0  0  0  0
  2  3  1  0  0  0  0
  2  4  2  0  0  0  0
  4  5  1  0  0  0  0
  5  6  2  0  0  0  0
  5 11  1  0  0  0  0
  6  7  1  0  0  0  0
  6  9  1  0  0  0  0
  7  8  2  0  0  0  0
  9 10  2  0  0  0  0
 10 11  1  0  0  0  0
M  END
>  <CHROM.1>
1.86505359,-20.29794341,25.23933996,-0.17607838,-0.29505187,-2.18550505

>  <Name>
ligand

>  <RI>
0

>  <Rbt.Current_Directory>
/home/itssahil/PROJECTS/Mol_Feturizer/New_Systems/rnas/4LVW

>  <Rbt.Executable>
rbdock ($Id: //depot/dev/client3/rdock/2013.1/src/exe/rbdock.cxx#4 $)

>  <Rbt.Library>
libRbt.so (2013.1, Build901 2013/11/27)

>  <Rbt.Parameter_File>
/export/apps/rDock/src/rDock_2013.1_src/data/scripts/dock_solv.prm

>  <Rbt.Receptor>
prm/pocket_docking_8.prm

>  <SCORE>
-13.0589

>  <SCORE.INTER>
-13.0589

>  <SCORE.INTER.CONST>
1

>  <SCORE.INTER.POLAR>
0

>  <SCORE.INTER.ROT>
0

>  <SCORE.INTER.SOLV>
6.86777

>  <SCORE.INTER.VDW>
-14.5952

>  <SCORE.INTER.norm>
-1.18717

>  <SCORE.INTRA>
0

>  <SCORE.INTRA.DIHEDRAL>
0

>  <SCORE.INTRA.DIHEDRAL.0>
0

>  <SCORE.INTRA.POLAR>
0

>  <SCORE.INTRA.POLAR.0>
0

>  <SCORE.INTRA.REPUL>
0

>  <SCORE.INTRA.REPUL.0>
0

>  <SCORE.INTRA.SOLV>
0

>  <SCORE.INTRA.SOLV.lig_0>
-29.307

>  <SCORE.INTRA.VDW>
0

>  <SCORE.INTRA.VDW.0>
0

>  <SCORE.INTRA.norm>
0

>  <SCORE.RESTR>
0

>  <SCORE.RESTR.CAVITY>
0

>  <SCORE.RESTR.norm>
0

>  <SCORE.SYSTEM>
0

>  <SCORE.SYSTEM.CONST>
0

>  <SCORE.SYSTEM.DIHEDRAL>
0

>  <SCORE.SYSTEM.SOLV>
0

>  <SCORE.SYSTEM.norm>
0

>  <SCORE.heavy>
11

>  <SCORE.norm>
-1.18717

>  <RMSD>
4.066

$$$$
ligand
 OpenBabel11021811503D
libRbt.so/2013.1/901 2013/11/27
 11 12  0  0  0  0  0  0  0  0999 V2000
    3.5282  -20.2123   24.5849 N   0  0  0  0  0  0  0  0  0  0  0  0
    3.4584  -19.4891   25.7165 C   0  0  0  0  0  0  0  0  0  0  0  0
    4.6025  -18.7791   26.1902 N   0  0  0  0  0  0  0  0  0  0  0  0
    2.3335  -19.3973   26.4320 N   0  0  0  0  0  0  0  0  0  0  0  0
    1.1930  -20.0610   26.0481 C   0  0  0  0  0  0  0  0  0  0  0  0
    1.2242  -20.8118   24.8931 C   0  0  0  0  0  0  0  0  0  0  0  0
    2.4333  -20.8761   24.1422 C   0  0  0  0  0  0  0  0  0  0  0  0
    2.4791  -21.6265   22.9885 O   0  0  0  0  0  0  0  0  0  0  0  0
   -0.0851  -21.3684   24.7384 C   0  0  0  0  0  0  0  0  0  0  0  0
   -0.8402  -20.9183   25.8305 C   0  0  0  0  0  0  0  0  0  0  0  0
   -0.0657  -20.1433   26.6001 N   0  0  0  0  0  0  0  0  0  0  0  0
  1  2  1  0  0  0  0
  1  7  1  0  0  0  0
  2  3  1  0  0  0  0
  2  4  2  0  0  0  0
  4  5  1  0  0  0  0
  5  6  2  0  0  0  0
  5 11  1  0  0  0  0
  6  7  1  0  0  0  0
  6  9  1  0  0  0  0
  7  8  2  0  0  0  0
  9 10  2  0  0  0  0
 10 11  1  0  0  0  0
M  END
>  <CHROM.1>
1.90153994,-20.33170642,25.26082940,-0.16147290,-0.28424096,-2.15306753

>  <Name>
ligand

>  <RI>
0

>  <Rbt.Current_Directory>
/home/itssahil/PROJECTS/Mol_Feturizer/New_Systems/rnas/4LVW

>  <Rbt.Executable>
rbdock ($Id: //depot/dev/client3/rdock/2013.1/src/exe/rbdock.cxx#4 $)

>  <Rbt.Library>
libRbt.so (2013.1, Build901 2013/11/27)

>  <Rbt.Parameter_File>
/export/apps/rDock/src/rDock_2013.1_src/data/scripts/dock_solv.prm

>  <Rbt.Receptor>
prm/pocket_docking_6.prm

>  <SCORE>
-13.0965

>  <SCORE.INTER>
-13.0965

>  <SCORE.INTER.CONST>
1

>  <SCORE.INTER.POLAR>
0

>  <SCORE.INTER.ROT>
0

>  <SCORE.INTER.SOLV>
6.44595

>  <SCORE.INTER.VDW>
-14.4797

>  <SCORE.INTER.norm>
-1.19059

>  <SCORE.INTRA>
0

>  <SCORE.INTRA.DIHEDRAL>
0

>  <SCORE.INTRA.DIHEDRAL.0>
0

>  <SCORE.INTRA.POLAR>
0

>  <SCORE.INTRA.POLAR.0>
0

>  <SCORE.INTRA.REPUL>
0

>  <SCORE.INTRA.REPUL.0>
0

>  <SCORE.INTRA.SOLV>
0

>  <SCORE.INTRA.SOLV.lig_0>
-29.307

>  <SCORE.INTRA.VDW>
0

>  <SCORE.INTRA.VDW.0>
0

>  <SCORE.INTRA.norm>
0

>  <SCORE.RESTR>
0

>  <SCORE.RESTR.CAVITY>
0

>  <SCORE.RESTR.norm>
0

>  <SCORE.SYSTEM>
0

>  <SCORE.SYSTEM.CONST>
0

>  <SCORE.SYSTEM.DIHEDRAL>
0

>  <SCORE.SYSTEM.SOLV>
0

>  <SCORE.SYSTEM.norm>
0

>  <SCORE.heavy>
11

>  <SCORE.norm>
-1.19059

>  <RMSD>
4.067

$$$$
ligand
 OpenBabel11021811503D
libRbt.so/2013.1/901 2013/11/27
 11 12  0  0  0  0  0  0  0  0999 V2000
    3.5356  -20.2127   24.5809 N   0  0  0  0  0  0  0  0  0  0  0  0
    3.4660  -19.4836   25.7086 C   0  0  0  0  0  0  0  0  0  0  0  0
    4.6111  -18.7736   26.1800 N   0  0  0  0  0  0  0  0  0  0  0  0
    2.3404  -19.3856   26.4223 N   0  0  0  0  0  0  0  0  0  0  0  0
    1.1990  -20.0487   26.0405 C   0  0  0  0  0  0  0  0  0  0  0  0
    1.2299  -20.8056   24.8894 C   0  0  0  0  0  0  0  0  0  0  0  0
    2.4397  -20.8765   24.1403 C   0  0  0  0  0  0  0  0  0  0  0  0
    2.4853  -21.6329   22.9905 O   0  0  0  0  0  0  0  0  0  0  0  0
   -0.0805  -21.3601   24.7361 C   0  0  0  0  0  0  0  0  0  0  0  0
   -0.8358  -20.9028   25.8248 C   0  0  0  0  0  0  0  0  0  0  0  0
   -0.0606  -20.1254   26.5914 N   0  0  0  0  0  0  0  0  0  0  0  0
  1  2  1  0  0  0  0
  1  7  1  0  0  0  0
  2  3  1  0  0  0  0
  2  4  2  0  0  0  0
  4  5  1  0  0  0  0
  5  6  2  0  0  0  0
  5 11  1  0  0  0  0
  6  7  1  0  0  0  0
  6  9  1  0  0  0  0
  7  8  2  0  0  0  0
  9 10  2  0  0  0  0
 10 11  1  0  0  0  0
M  END
>  <CHROM.1>
1.90785634,-20.32509749,25.25544158,-0.16124259,-0.28175419,-2.15818292

>  <Name>
ligand

>  <RI>
0

>  <Rbt.Current_Directory>
/home/itssahil/PROJECTS/Mol_Feturizer/New_Systems/rnas/4LVW

>  <Rbt.Executable>
rbdock ($Id: //depot/dev/client3/rdock/2013.1/src/exe/rbdock.cxx#4 $)

>  <Rbt.Library>
libRbt.so (2013.1, Build901 2013/11/27)

>  <Rbt.Parameter_File>
/export/apps/rDock/src/rDock_2013.1_src/data/scripts/dock_solv.prm

>  <Rbt.Receptor>
prm/pocket_docking_4.prm

>  <SCORE>
-13.0979

>  <SCORE.INTER>
-13.0979

>  <SCORE.INTER.CONST>
1

>  <SCORE.INTER.POLAR>
0

>  <SCORE.INTER.ROT>
0

>  <SCORE.INTER.SOLV>
6.42997

>  <SCORE.INTER.VDW>
-14.4753

>  <SCORE.INTER.norm>
-1.19072

>  <SCORE.INTRA>
0

>  <SCORE.INTRA.DIHEDRAL>
0

>  <SCORE.INTRA.DIHEDRAL.0>
0

>  <SCORE.INTRA.POLAR>
0

>  <SCORE.INTRA.POLAR.0>
0

>  <SCORE.INTRA.REPUL>
0

>  <SCORE.INTRA.REPUL.0>
0

>  <SCORE.INTRA.SOLV>
0

>  <SCORE.INTRA.SOLV.lig_0>
-29.307

>  <SCORE.INTRA.VDW>
0

>  <SCORE.INTRA.VDW.0>
0

>  <SCORE.INTRA.norm>
0

>  <SCORE.RESTR>
0

>  <SCORE.RESTR.CAVITY>
0

>  <SCORE.RESTR.norm>
0

>  <SCORE.SYSTEM>
0

>  <SCORE.SYSTEM.CONST>
0

>  <SCORE.SYSTEM.DIHEDRAL>
0

>  <SCORE.SYSTEM.SOLV>
0

>  <SCORE.SYSTEM.norm>
0

>  <SCORE.heavy>
11

>  <SCORE.norm>
-1.19072

>  <RMSD>
4.068

$$$$
ligand
 OpenBabel11021811503D
libRbt.so/2013.1/901 2013/11/27
 11 12  0  0  0  0  0  0  0  0999 V2000
    3.5287  -20.1967   24.5754 N   0  0  0  0  0  0  0  0  0  0  0  0
    3.4633  -19.4824   25.7128 C   0  0  0  0  0  0  0  0  0  0  0  0
    4.6088  -18.7751   26.1870 N   0  0  0  0  0  0  0  0  0  0  0  0
    2.3414  -19.3972   26.4339 N   0  0  0  0  0  0  0  0  0  0  0  0
    1.1999  -20.0589   26.0499 C   0  0  0  0  0  0  0  0  0  0  0  0
    1.2267  -20.8007   24.8890 C   0  0  0  0  0  0  0  0  0  0  0  0
    2.4325  -20.8580   24.1323 C   0  0  0  0  0  0  0  0  0  0  0  0
    2.4739  -21.5994   22.9726 O   0  0  0  0  0  0  0  0  0  0  0  0
   -0.0829  -21.3572   24.7357 C   0  0  0  0  0  0  0  0  0  0  0  0
   -0.8335  -20.9163   25.8345 C   0  0  0  0  0  0  0  0  0  0  0  0
   -0.0564  -20.1465   26.6067 N   0  0  0  0  0  0  0  0  0  0  0  0
  1  2  1  0  0  0  0
  1  7  1  0  0  0  0
  2  3  1  0  0  0  0
  2  4  2  0  0  0  0
  4  5  1  0  0  0  0
  5  6  2  0  0  0  0
  5 11  1  0  0  0  0
  6  7  1  0  0  0  0
  6  9  1  0  0  0  0
  7  8  2  0  0  0  0
  9 10  2  0  0  0  0
 10 11  1  0  0  0  0
M  END
>  <CHROM.1>
1.90517312,-20.32281240,25.25744104,-0.15814442,-0.28736106,-2.14434535

>  <Name>
ligand

>  <RI>
0

>  <Rbt.Current_Directory>
/home/itssahil/PROJECTS/Mol_Feturizer/New_Systems/rnas/4LVW

>  <Rbt.Executable>
rbdock ($Id: //depot/dev/client3/rdock/2013.1/src/exe/rbdock.cxx#4 $)

>  <Rbt.Library>
libRbt.so (2013.1, Build901 2013/11/27)

>  <Rbt.Parameter_File>
/export/apps/rDock/src/rDock_2013.1_src/data/scripts/dock_solv.prm

>  <Rbt.Receptor>
prm/pocket_docking_5.prm

>  <SCORE>
-13.1004

>  <SCORE.INTER>
-13.1004

>  <SCORE.INTER.CONST>
1

>  <SCORE.INTER.POLAR>
0

>  <SCORE.INTER.ROT>
0

>  <SCORE.INTER.SOLV>
6.45441

>  <SCORE.INTER.VDW>
-14.4851

>  <SCORE.INTER.norm>
-1.19095

>  <SCORE.INTRA>
0

>  <SCORE.INTRA.DIHEDRAL>
0

>  <SCORE.INTRA.DIHEDRAL.0>
0

>  <SCORE.INTRA.POLAR>
0

>  <SCORE.INTRA.POLAR.0>
0

>  <SCORE.INTRA.REPUL>
0

>  <SCORE.INTRA.REPUL.0>
0

>  <SCORE.INTRA.SOLV>
0

>  <SCORE.INTRA.SOLV.lig_0>
-29.307

>  <SCORE.INTRA.VDW>
0

>  <SCORE.INTRA.VDW.0>
0

>  <SCORE.INTRA.norm>
0

>  <SCORE.RESTR>
0

>  <SCORE.RESTR.CAVITY>
0

>  <SCORE.RESTR.norm>
0

>  <SCORE.SYSTEM>
0

>  <SCORE.SYSTEM.CONST>
0

>  <SCORE.SYSTEM.DIHEDRAL>
0

>  <SCORE.SYSTEM.SOLV>
0

>  <SCORE.SYSTEM.norm>
0

>  <SCORE.heavy>
11

>  <SCORE.norm>
-1.19095

>  <RMSD>
4.068

$$$$
ligand
 OpenBabel11021811503D
libRbt.so/2013.1/901 2013/11/27
 11 12  0  0  0  0  0  0  0  0999 V2000
    3.5308  -20.1841   24.5805 N   0  0  0  0  0  0  0  0  0  0  0  0
    3.4623  -19.4669   25.7159 C   0  0  0  0  0  0  0  0  0  0  0  0
    4.6058  -18.7559   26.1897 N   0  0  0  0  0  0  0  0  0  0  0  0
    2.3393  -19.3820   26.4352 N   0  0  0  0  0  0  0  0  0  0  0  0
    1.1997  -20.0471   26.0514 C   0  0  0  0  0  0  0  0  0  0  0  0
    1.2296  -20.7920   24.8925 C   0  0  0  0  0  0  0  0  0  0  0  0
    2.4366  -20.8489   24.1377 C   0  0  0  0  0  0  0  0  0  0  0  0
    2.4811  -21.5933   22.9800 O   0  0  0  0  0  0  0  0  0  0  0  0
   -0.0786  -21.3516   24.7390 C   0  0  0  0  0  0  0  0  0  0  0  0
   -0.8316  -20.9093   25.8355 C   0  0  0  0  0  0  0  0  0  0  0  0
   -0.0571  -20.1359   26.6068 N   0  0  0  0  0  0  0  0  0  0  0  0
  1  2  1  0  0  0  0
  1  7  1  0  0  0  0
  2  3  1  0  0  0  0
  2  4  2  0  0  0  0
  4  5  1  0  0  0  0
  5  6  2  0  0  0  0
  5 11  1  0  0  0  0
  6  7  1  0  0  0  0
  6  9  1  0  0  0  0
  7  8  2  0  0  0  0
  9 10  2  0  0  0  0
 10 11  1  0  0  0  0
M  END
>  <CHROM.1>
1.90661163,-20.31173261,25.26064748,-0.16052467,-0.28835457,-2.14773104

>  <Name>
ligand

>  <RI>
0

>  <Rbt.Current_Directory>
/home/itssahil/PROJECTS/Mol_Feturizer/New_Systems/rnas/4LVW

>  <Rbt.Executable>
rbdock ($Id: //depot/dev/client3/rdock/2013.1/src/exe/rbdock.cxx#4 $)

>  <Rbt.Library>
libRbt.so (2013.1, Build901 2013/11/27)

>  <Rbt.Parameter_File>
/export/apps/rDock/src/rDock_2013.1_src/data/scripts/dock_solv.prm

>  <Rbt.Receptor>
prm/pocket_docking_5.prm

>  <SCORE>
-13.0688

>  <SCORE.INTER>
-13.0688

>  <SCORE.INTER.CONST>
1

>  <SCORE.INTER.POLAR>
0

>  <SCORE.INTER.ROT>
0

>  <SCORE.INTER.SOLV>
6.52821

>  <SCORE.INTER.VDW>
-14.4886

>  <SCORE.INTER.norm>
-1.18807

>  <SCORE.INTRA>
0

>  <SCORE.INTRA.DIHEDRAL>
0

>  <SCORE.INTRA.DIHEDRAL.0>
0

>  <SCORE.INTRA.POLAR>
0

>  <SCORE.INTRA.POLAR.0>
0

>  <SCORE.INTRA.REPUL>
0

>  <SCORE.INTRA.REPUL.0>
0

>  <SCORE.INTRA.SOLV>
0

>  <SCORE.INTRA.SOLV.lig_0>
-29.307

>  <SCORE.INTRA.VDW>
0

>  <SCORE.INTRA.VDW.0>
0

>  <SCORE.INTRA.norm>
0

>  <SCORE.RESTR>
0

>  <SCORE.RESTR.CAVITY>
0

>  <SCORE.RESTR.norm>
0

>  <SCORE.SYSTEM>
0

>  <SCORE.SYSTEM.CONST>
0

>  <SCORE.SYSTEM.DIHEDRAL>
0

>  <SCORE.SYSTEM.SOLV>
0

>  <SCORE.SYSTEM.norm>
0

>  <SCORE.heavy>
11

>  <SCORE.norm>
-1.18807

>  <RMSD>
4.068

$$$$
ligand
 OpenBabel11021811503D
libRbt.so/2013.1/901 2013/11/27
 11 12  0  0  0  0  0  0  0  0999 V2000
    3.5349  -20.2052   24.5795 N   0  0  0  0  0  0  0  0  0  0  0  0
    3.4669  -19.4800   25.7099 C   0  0  0  0  0  0  0  0  0  0  0  0
    4.6124  -18.7709   26.1817 N   0  0  0  0  0  0  0  0  0  0  0  0
    2.3425  -19.3852   26.4259 N   0  0  0  0  0  0  0  0  0  0  0  0
    1.2009  -20.0478   26.0438 C   0  0  0  0  0  0  0  0  0  0  0  0
    1.2302  -20.8007   24.8900 C   0  0  0  0  0  0  0  0  0  0  0  0
    2.4387  -20.8681   24.1385 C   0  0  0  0  0  0  0  0  0  0  0  0
    2.4827  -21.6204   22.9860 O   0  0  0  0  0  0  0  0  0  0  0  0
   -0.0801  -21.3555   24.7371 C   0  0  0  0  0  0  0  0  0  0  0  0
   -0.8338  -20.9024   25.8288 C   0  0  0  0  0  0  0  0  0  0  0  0
   -0.0577  -20.1273   26.5967 N   0  0  0  0  0  0  0  0  0  0  0  0
  1  2  1  0  0  0  0
  1  7  1  0  0  0  0
  2  3  1  0  0  0  0
  2  4  2  0  0  0  0
  4  5  1  0  0  0  0
  5  6  2  0  0  0  0
  5 11  1  0  0  0  0
  6  7  1  0  0  0  0
  6  9  1  0  0  0  0
  7  8  2  0  0  0  0
  9 10  2  0  0  0  0
 10 11  1  0  0  0  0
M  END
>  <CHROM.1>
1.90848528,-20.32096631,25.25655186,-0.16007069,-0.28329818,-2.15435426

>  <Name>
ligand

>  <RI>
0

>  <Rbt.Current_Directory>
/home/itssahil/PROJECTS/Mol_Feturizer/New_Systems/rnas/4LVW

>  <Rbt.Executable>
rbdock ($Id: //depot/dev/client3/rdock/2013.1/src/exe/rbdock.cxx#4 $)

>  <Rbt.Library>
libRbt.so (2013.1, Build901 2013/11/27)

>  <Rbt.Parameter_File>
/export/apps/rDock/src/rDock_2013.1_src/data/scripts/dock_solv.prm

>  <Rbt.Receptor>
prm/pocket_docking_6.prm

>  <SCORE>
-13.1024

>  <SCORE.INTER>
-13.1024

>  <SCORE.INTER.CONST>
1

>  <SCORE.INTER.POLAR>
0

>  <SCORE.INTER.ROT>
0

>  <SCORE.INTER.SOLV>
6.44368

>  <SCORE.INTER.VDW>
-14.4829

>  <SCORE.INTER.norm>
-1.19113

>  <SCORE.INTRA>
0

>  <SCORE.INTRA.DIHEDRAL>
0

>  <SCORE.INTRA.DIHEDRAL.0>
0

>  <SCORE.INTRA.POLAR>
0

>  <SCORE.INTRA.POLAR.0>
0

>  <SCORE.INTRA.REPUL>
0

>  <SCORE.INTRA.REPUL.0>
0

>  <SCORE.INTRA.SOLV>
0

>  <SCORE.INTRA.SOLV.lig_0>
-29.307

>  <SCORE.INTRA.VDW>
0

>  <SCORE.INTRA.VDW.0>
0

>  <SCORE.INTRA.norm>
0

>  <SCORE.RESTR>
0

>  <SCORE.RESTR.CAVITY>
0

>  <SCORE.RESTR.norm>
0

>  <SCORE.SYSTEM>
0

>  <SCORE.SYSTEM.CONST>
0

>  <SCORE.SYSTEM.DIHEDRAL>
0

>  <SCORE.SYSTEM.SOLV>
0

>  <SCORE.SYSTEM.norm>
0

>  <SCORE.heavy>
11

>  <SCORE.norm>
-1.19113

>  <RMSD>
4.068

$$$$
ligand
 OpenBabel11021811503D
libRbt.so/2013.1/901 2013/11/27
 11 12  0  0  0  0  0  0  0  0999 V2000
    3.5397  -20.2040   24.5769 N   0  0  0  0  0  0  0  0  0  0  0  0
    3.4708  -19.4764   25.7056 C   0  0  0  0  0  0  0  0  0  0  0  0
    4.6159  -18.7662   26.1767 N   0  0  0  0  0  0  0  0  0  0  0  0
    2.3459  -19.3802   26.4206 N   0  0  0  0  0  0  0  0  0  0  0  0
    1.2046  -20.0437   26.0391 C   0  0  0  0  0  0  0  0  0  0  0  0
    1.2349  -20.7990   24.8870 C   0  0  0  0  0  0  0  0  0  0  0  0
    2.4439  -20.8680   24.1366 C   0  0  0  0  0  0  0  0  0  0  0  0
    2.4888  -21.6228   22.9857 O   0  0  0  0  0  0  0  0  0  0  0  0
   -0.0753  -21.3543   24.7343 C   0  0  0  0  0  0  0  0  0  0  0  0
   -0.8298  -20.8989   25.8245 C   0  0  0  0  0  0  0  0  0  0  0  0
   -0.0543  -20.1220   26.5912 N   0  0  0  0  0  0  0  0  0  0  0  0
  1  2  1  0  0  0  0
  1  7  1  0  0  0  0
  2  3  1  0  0  0  0
  2  4  2  0  0  0  0
  4  5  1  0  0  0  0
  5  6  2  0  0  0  0
  5 11  1  0  0  0  0
  6  7  1  0  0  0  0
  6  9  1  0  0  0  0
  7  8  2  0  0  0  0
  9 10  2  0  0  0  0
 10 11  1  0  0  0  0
M  END
>  <CHROM.1>
1.91282068,-20.31846398,25.25299057,-0.16075837,-0.28295416,-2.15672131

>  <Name>
ligand

>  <RI>
0

>  <Rbt.Current_Directory>
/home/itssahil/PROJECTS/Mol_Feturizer/New_Systems/rnas/4LVW

>  <Rbt.Executable>
rbdock ($Id: //depot/dev/client3/rdock/2013.1/src/exe/rbdock.cxx#4 $)

>  <Rbt.Library>
libRbt.so (2013.1, Build901 2013/11/27)

>  <Rbt.Parameter_File>
/export/apps/rDock/src/rDock_2013.1_src/data/scripts/dock_solv.prm

>  <Rbt.Receptor>
prm/pocket_docking_7.prm

>  <SCORE>
-13.1017

>  <SCORE.INTER>
-13.1017

>  <SCORE.INTER.CONST>
1

>  <SCORE.INTER.POLAR>
0

>  <SCORE.INTER.ROT>
0

>  <SCORE.INTER.SOLV>
6.4406

>  <SCORE.INTER.VDW>
-14.4813

>  <SCORE.INTER.norm>
-1.19106

>  <SCORE.INTRA>
0

>  <SCORE.INTRA.DIHEDRAL>
0

>  <SCORE.INTRA.DIHEDRAL.0>
0

>  <SCORE.INTRA.POLAR>
0

>  <SCORE.INTRA.POLAR.0>
0

>  <SCORE.INTRA.REPUL>
0

>  <SCORE.INTRA.REPUL.0>
0

>  <SCORE.INTRA.SOLV>
0

>  <SCORE.INTRA.SOLV.lig_0>
-29.307

>  <SCORE.INTRA.VDW>
0

>  <SCORE.INTRA.VDW.0>
0

>  <SCORE.INTRA.norm>
0

>  <SCORE.RESTR>
0

>  <SCORE.RESTR.CAVITY>
0

>  <SCORE.RESTR.norm>
0

>  <SCORE.SYSTEM>
0

>  <SCORE.SYSTEM.CONST>
0

>  <SCORE.SYSTEM.DIHEDRAL>
0

>  <SCORE.SYSTEM.SOLV>
0

>  <SCORE.SYSTEM.norm>
0

>  <SCORE.heavy>
11

>  <SCORE.norm>
-1.19106

>  <RMSD>
4.068

$$$$
ligand
 OpenBabel11021811503D
libRbt.so/2013.1/901 2013/11/27
 11 12  0  0  0  0  0  0  0  0999 V2000
    3.5340  -20.2001   24.5740 N   0  0  0  0  0  0  0  0  0  0  0  0
    3.4676  -19.4767   25.7056 C   0  0  0  0  0  0  0  0  0  0  0  0
    4.6131  -18.7663   26.1755 N   0  0  0  0  0  0  0  0  0  0  0  0
    2.3450  -19.3850   26.4247 N   0  0  0  0  0  0  0  0  0  0  0  0
    1.2035  -20.0491   26.0447 C   0  0  0  0  0  0  0  0  0  0  0  0
    1.2312  -20.8001   24.8897 C   0  0  0  0  0  0  0  0  0  0  0  0
    2.4378  -20.8643   24.1349 C   0  0  0  0  0  0  0  0  0  0  0  0
    2.4801  -21.6148   22.9812 O   0  0  0  0  0  0  0  0  0  0  0  0
   -0.0786  -21.3571   24.7394 C   0  0  0  0  0  0  0  0  0  0  0  0
   -0.8302  -20.9070   25.8338 C   0  0  0  0  0  0  0  0  0  0  0  0
   -0.0534  -20.1315   26.6008 N   0  0  0  0  0  0  0  0  0  0  0  0
  1  2  1  0  0  0  0
  1  7  1  0  0  0  0
  2  3  1  0  0  0  0
  2  4  2  0  0  0  0
  4  5  1  0  0  0  0
  5  6  2  0  0  0  0
  5 11  1  0  0  0  0
  6  7  1  0  0  0  0
  6  9  1  0  0  0  0
  7  8  2  0  0  0  0
  9 10  2  0  0  0  0
 10 11  1  0  0  0  0
M  END
>  <CHROM.1>
1.90953774,-20.31976794,25.25516337,-0.15879966,-0.28622838,-2.15251094

>  <Name>
ligand

>  <RI>
0

>  <Rbt.Current_Directory>
/home/itssahil/PROJECTS/Mol_Feturizer/New_Systems/rnas/4LVW

>  <Rbt.Executable>
rbdock ($Id: //depot/dev/client3/rdock/2013.1/src/exe/rbdock.cxx#4 $)

>  <Rbt.Library>
libRbt.so (2013.1, Build901 2013/11/27)

>  <Rbt.Parameter_File>
/export/apps/rDock/src/rDock_2013.1_src/data/scripts/dock_solv.prm

>  <Rbt.Receptor>
prm/pocket_docking_3.prm

>  <SCORE>
-13.104

>  <SCORE.INTER>
-13.104

>  <SCORE.INTER.CONST>
1

>  <SCORE.INTER.POLAR>
0

>  <SCORE.INTER.ROT>
0

>  <SCORE.INTER.SOLV>
6.44754

>  <SCORE.INTER.VDW>
-14.4852

>  <SCORE.INTER.norm>
-1.19128

>  <SCORE.INTRA>
0

>  <SCORE.INTRA.DIHEDRAL>
0

>  <SCORE.INTRA.DIHEDRAL.0>
0

>  <SCORE.INTRA.POLAR>
0

>  <SCORE.INTRA.POLAR.0>
0

>  <SCORE.INTRA.REPUL>
0

>  <SCORE.INTRA.REPUL.0>
0

>  <SCORE.INTRA.SOLV>
0

>  <SCORE.INTRA.SOLV.lig_0>
-29.307

>  <SCORE.INTRA.VDW>
0

>  <SCORE.INTRA.VDW.0>
0

>  <SCORE.INTRA.norm>
0

>  <SCORE.RESTR>
0

>  <SCORE.RESTR.CAVITY>
0

>  <SCORE.RESTR.norm>
0

>  <SCORE.SYSTEM>
0

>  <SCORE.SYSTEM.CONST>
0

>  <SCORE.SYSTEM.DIHEDRAL>
0

>  <SCORE.SYSTEM.SOLV>
0

>  <SCORE.SYSTEM.norm>
0

>  <SCORE.heavy>
11

>  <SCORE.norm>
-1.19128

>  <RMSD>
4.069

$$$$
ligand
 OpenBabel11021811503D
libRbt.so/2013.1/901 2013/11/27
 11 12  0  0  0  0  0  0  0  0999 V2000
    3.4840  -20.1636   24.5716 N   0  0  0  0  0  0  0  0  0  0  0  0
    3.3994  -19.4127   25.6839 C   0  0  0  0  0  0  0  0  0  0  0  0
    4.5308  -18.6731   26.1424 N   0  0  0  0  0  0  0  0  0  0  0  0
    2.2708  -19.3200   26.3936 N   0  0  0  0  0  0  0  0  0  0  0  0
    1.1420  -20.0109   26.0236 C   0  0  0  0  0  0  0  0  0  0  0  0
    1.1886  -20.7907   24.8885 C   0  0  0  0  0  0  0  0  0  0  0  0
    2.4010  -20.8555   24.1430 C   0  0  0  0  0  0  0  0  0  0  0  0
    2.4622  -21.6345   23.0091 O   0  0  0  0  0  0  0  0  0  0  0  0
   -0.1115  -21.3713   24.7444 C   0  0  0  0  0  0  0  0  0  0  0  0
   -0.8770  -20.9050   25.8223 C   0  0  0  0  0  0  0  0  0  0  0  0
   -0.1171  -20.0985   26.5739 N   0  0  0  0  0  0  0  0  0  0  0  0
  1  2  1  0  0  0  0
  1  7  1  0  0  0  0
  2  3  1  0  0  0  0
  2  4  2  0  0  0  0
  4  5  1  0  0  0  0
  5  6  2  0  0  0  0
  5 11  1  0  0  0  0
  6  7  1  0  0  0  0
  6  9  1  0  0  0  0
  7  8  2  0  0  0  0
  9 10  2  0  0  0  0
 10 11  1  0  0  0  0
M  END
>  <CHROM.1>
1.85720757,-20.29080675,25.24563599,-0.17321833,-0.29530319,-2.18218993

>  <Name>
ligand

>  <RI>
0

>  <Rbt.Current_Directory>
/home/itssahil/PROJECTS/Mol_Feturizer/New_Systems/rnas/4LVW

>  <Rbt.Executable>
rbdock ($Id: //depot/dev/client3/rdock/2013.1/src/exe/rbdock.cxx#4 $)

>  <Rbt.Library>
libRbt.so (2013.1, Build901 2013/11/27)

>  <Rbt.Parameter_File>
/export/apps/rDock/src/rDock_2013.1_src/data/scripts/dock_solv.prm

>  <Rbt.Receptor>
prm/pocket_docking_3.prm

>  <SCORE>
-13.0594

>  <SCORE.INTER>
-13.0594

>  <SCORE.INTER.CONST>
1

>  <SCORE.INTER.POLAR>
0

>  <SCORE.INTER.ROT>
0

>  <SCORE.INTER.SOLV>
6.90226

>  <SCORE.INTER.VDW>
-14.607

>  <SCORE.INTER.norm>
-1.18721

>  <SCORE.INTRA>
0

>  <SCORE.INTRA.DIHEDRAL>
0

>  <SCORE.INTRA.DIHEDRAL.0>
0

>  <SCORE.INTRA.POLAR>
0

>  <SCORE.INTRA.POLAR.0>
0

>  <SCORE.INTRA.REPUL>
0

>  <SCORE.INTRA.REPUL.0>
0

>  <SCORE.INTRA.SOLV>
0

>  <SCORE.INTRA.SOLV.lig_0>
-29.307

>  <SCORE.INTRA.VDW>
0

>  <SCORE.INTRA.VDW.0>
0

>  <SCORE.INTRA.norm>
0

>  <SCORE.RESTR>
0

>  <SCORE.RESTR.CAVITY>
0

>  <SCORE.RESTR.norm>
0

>  <SCORE.SYSTEM>
0

>  <SCORE.SYSTEM.CONST>
0

>  <SCORE.SYSTEM.DIHEDRAL>
0

>  <SCORE.SYSTEM.SOLV>
0

>  <SCORE.SYSTEM.norm>
0

>  <SCORE.heavy>
11

>  <SCORE.norm>
-1.18721

>  <RMSD>
4.069

$$$$
ligand
 OpenBabel11021811503D
libRbt.so/2013.1/901 2013/11/27
 11 12  0  0  0  0  0  0  0  0999 V2000
    3.5373  -20.2093   24.5804 N   0  0  0  0  0  0  0  0  0  0  0  0
    3.4701  -19.4812   25.7090 C   0  0  0  0  0  0  0  0  0  0  0  0
    4.6170  -18.7740   26.1801 N   0  0  0  0  0  0  0  0  0  0  0  0
    2.3453  -19.3817   26.4237 N   0  0  0  0  0  0  0  0  0  0  0  0
    1.2023  -20.0422   26.0422 C   0  0  0  0  0  0  0  0  0  0  0  0
    1.2307  -20.7979   24.8902 C   0  0  0  0  0  0  0  0  0  0  0  0
    2.4397  -20.8704   24.1400 C   0  0  0  0  0  0  0  0  0  0  0  0
    2.4828  -21.6256   22.9894 O   0  0  0  0  0  0  0  0  0  0  0  0
   -0.0809  -21.3496   24.7374 C   0  0  0  0  0  0  0  0  0  0  0  0
   -0.8344  -20.8919   25.8273 C   0  0  0  0  0  0  0  0  0  0  0  0
   -0.0570  -20.1170   26.5940 N   0  0  0  0  0  0  0  0  0  0  0  0
  1  2  1  0  0  0  0
  1  7  1  0  0  0  0
  2  3  1  0  0  0  0
  2  4  2  0  0  0  0
  4  5  1  0  0  0  0
  5  6  2  0  0  0  0
  5 11  1  0  0  0  0
  6  7  1  0  0  0  0
  6  9  1  0  0  0  0
  7  8  2  0  0  0  0
  9 10  2  0  0  0  0
 10 11  1  0  0  0  0
M  END
>  <CHROM.1>
1.90990742,-20.31912932,25.25622871,-0.15935938,-0.28056495,-2.15657619

>  <Name>
ligand

>  <RI>
0

>  <Rbt.Current_Directory>
/home/itssahil/PROJECTS/Mol_Feturizer/New_Systems/rnas/4LVW

>  <Rbt.Executable>
rbdock ($Id: //depot/dev/client3/rdock/2013.1/src/exe/rbdock.cxx#4 $)

>  <Rbt.Library>
libRbt.so (2013.1, Build901 2013/11/27)

>  <Rbt.Parameter_File>
/export/apps/rDock/src/rDock_2013.1_src/data/scripts/dock_solv.prm

>  <Rbt.Receptor>
prm/pocket_docking_4.prm

>  <SCORE>
-13.1027

>  <SCORE.INTER>
-13.1027

>  <SCORE.INTER.CONST>
1

>  <SCORE.INTER.POLAR>
0

>  <SCORE.INTER.ROT>
0

>  <SCORE.INTER.SOLV>
6.42287

>  <SCORE.INTER.VDW>
-14.4761

>  <SCORE.INTER.norm>
-1.19116

>  <SCORE.INTRA>
0

>  <SCORE.INTRA.DIHEDRAL>
0

>  <SCORE.INTRA.DIHEDRAL.0>
0

>  <SCORE.INTRA.POLAR>
0

>  <SCORE.INTRA.POLAR.0>
0

>  <SCORE.INTRA.REPUL>
0

>  <SCORE.INTRA.REPUL.0>
0

>  <SCORE.INTRA.SOLV>
0

>  <SCORE.INTRA.SOLV.lig_0>
-29.307

>  <SCORE.INTRA.VDW>
0

>  <SCORE.INTRA.VDW.0>
0

>  <SCORE.INTRA.norm>
0

>  <SCORE.RESTR>
0

>  <SCORE.RESTR.CAVITY>
0

>  <SCORE.RESTR.norm>
0

>  <SCORE.SYSTEM>
0

>  <SCORE.SYSTEM.CONST>
0

>  <SCORE.SYSTEM.DIHEDRAL>
0

>  <SCORE.SYSTEM.SOLV>
0

>  <SCORE.SYSTEM.norm>
0

>  <SCORE.heavy>
11

>  <SCORE.norm>
-1.19116

>  <RMSD>
4.069

$$$$
ligand
 OpenBabel11021811503D
libRbt.so/2013.1/901 2013/11/27
 11 12  0  0  0  0  0  0  0  0999 V2000
    3.5359  -20.1966   24.5765 N   0  0  0  0  0  0  0  0  0  0  0  0
    3.4692  -19.4723   25.7076 C   0  0  0  0  0  0  0  0  0  0  0  0
    4.6149  -18.7628   26.1781 N   0  0  0  0  0  0  0  0  0  0  0  0
    2.3459  -19.3788   26.4254 N   0  0  0  0  0  0  0  0  0  0  0  0
    1.2040  -20.0418   26.0446 C   0  0  0  0  0  0  0  0  0  0  0  0
    1.2321  -20.7938   24.8903 C   0  0  0  0  0  0  0  0  0  0  0  0
    2.4394  -20.8599   24.1368 C   0  0  0  0  0  0  0  0  0  0  0  0
    2.4821  -21.6113   22.9837 O   0  0  0  0  0  0  0  0  0  0  0  0
   -0.0781  -21.3493   24.7390 C   0  0  0  0  0  0  0  0  0  0  0  0
   -0.8304  -20.8975   25.8322 C   0  0  0  0  0  0  0  0  0  0  0  0
   -0.0536  -20.1224   26.5994 N   0  0  0  0  0  0  0  0  0  0  0  0
  1  2  1  0  0  0  0
  1  7  1  0  0  0  0
  2  3  1  0  0  0  0
  2  4  2  0  0  0  0
  4  5  1  0  0  0  0
  5  6  2  0  0  0  0
  5 11  1  0  0  0  0
  6  7  1  0  0  0  0
  6  9  1  0  0  0  0
  7  8  2  0  0  0  0
  9 10  2  0  0  0  0
 10 11  1  0  0  0  0
M  END
>  <CHROM.1>
1.91060183,-20.31389354,25.25606614,-0.15907204,-0.28467905,-2.15334102

>  <Name>
ligand

>  <RI>
0

>  <Rbt.Current_Directory>
/home/itssahil/PROJECTS/Mol_Feturizer/New_Systems/rnas/4LVW

>  <Rbt.Executable>
rbdock ($Id: //depot/dev/client3/rdock/2013.1/src/exe/rbdock.cxx#4 $)

>  <Rbt.Library>
libRbt.so (2013.1, Build901 2013/11/27)

>  <Rbt.Parameter_File>
/export/apps/rDock/src/rDock_2013.1_src/data/scripts/dock_solv.prm

>  <Rbt.Receptor>
prm/pocket_docking_4.prm

>  <SCORE>
-13.1045

>  <SCORE.INTER>
-13.1045

>  <SCORE.INTER.CONST>
1

>  <SCORE.INTER.POLAR>
0

>  <SCORE.INTER.ROT>
0

>  <SCORE.INTER.SOLV>
6.46346

>  <SCORE.INTER.VDW>
-14.4908

>  <SCORE.INTER.norm>
-1.19131

>  <SCORE.INTRA>
0

>  <SCORE.INTRA.DIHEDRAL>
0

>  <SCORE.INTRA.DIHEDRAL.0>
0

>  <SCORE.INTRA.POLAR>
0

>  <SCORE.INTRA.POLAR.0>
0

>  <SCORE.INTRA.REPUL>
0

>  <SCORE.INTRA.REPUL.0>
0

>  <SCORE.INTRA.SOLV>
0

>  <SCORE.INTRA.SOLV.lig_0>
-29.307

>  <SCORE.INTRA.VDW>
0

>  <SCORE.INTRA.VDW.0>
0

>  <SCORE.INTRA.norm>
0

>  <SCORE.RESTR>
0

>  <SCORE.RESTR.CAVITY>
0

>  <SCORE.RESTR.norm>
0

>  <SCORE.SYSTEM>
0

>  <SCORE.SYSTEM.CONST>
0

>  <SCORE.SYSTEM.DIHEDRAL>
0

>  <SCORE.SYSTEM.SOLV>
0

>  <SCORE.SYSTEM.norm>
0

>  <SCORE.heavy>
11

>  <SCORE.norm>
-1.19131

>  <RMSD>
4.069

$$$$
ligand
 OpenBabel11021811503D
libRbt.so/2013.1/901 2013/11/27
 11 12  0  0  0  0  0  0  0  0999 V2000
    3.5321  -20.2049   24.5783 N   0  0  0  0  0  0  0  0  0  0  0  0
    3.4664  -19.4825   25.7106 C   0  0  0  0  0  0  0  0  0  0  0  0
    4.6128  -18.7746   26.1819 N   0  0  0  0  0  0  0  0  0  0  0  0
    2.3435  -19.3896   26.4291 N   0  0  0  0  0  0  0  0  0  0  0  0
    1.2010  -20.0512   26.0477 C   0  0  0  0  0  0  0  0  0  0  0  0
    1.2281  -20.8012   24.8921 C   0  0  0  0  0  0  0  0  0  0  0  0
    2.4351  -20.8668   24.1380 C   0  0  0  0  0  0  0  0  0  0  0  0
    2.4767  -21.6163   22.9835 O   0  0  0  0  0  0  0  0  0  0  0  0
   -0.0825  -21.3557   24.7404 C   0  0  0  0  0  0  0  0  0  0  0  0
   -0.8340  -20.9053   25.8347 C   0  0  0  0  0  0  0  0  0  0  0  0
   -0.0564  -20.1320   26.6030 N   0  0  0  0  0  0  0  0  0  0  0  0
  1  2  1  0  0  0  0
  1  7  1  0  0  0  0
  2  3  1  0  0  0  0
  2  4  2  0  0  0  0
  4  5  1  0  0  0  0
  5  6  2  0  0  0  0
  5 11  1  0  0  0  0
  6  7  1  0  0  0  0
  6  9  1  0  0  0  0
  7  8  2  0  0  0  0
  9 10  2  0  0  0  0
 10 11  1  0  0  0  0
M  END
>  <CHROM.1>
1.90707965,-20.32240721,25.25839865,-0.15832571,-0.28440821,-2.15141381

>  <Name>
ligand

>  <RI>
0

>  <Rbt.Current_Directory>
/home/itssahil/PROJECTS/Mol_Feturizer/New_Systems/rnas/4LVW

>  <Rbt.Executable>
rbdock ($Id: //depot/dev/client3/rdock/2013.1/src/exe/rbdock.cxx#4 $)

>  <Rbt.Library>
libRbt.so (2013.1, Build901 2013/11/27)

>  <Rbt.Parameter_File>
/export/apps/rDock/src/rDock_2013.1_src/data/scripts/dock_solv.prm

>  <Rbt.Receptor>
prm/pocket_docking_5.prm

>  <SCORE>
-13.1049

>  <SCORE.INTER>
-13.1049

>  <SCORE.INTER.CONST>
1

>  <SCORE.INTER.POLAR>
0

>  <SCORE.INTER.ROT>
0

>  <SCORE.INTER.SOLV>
6.43332

>  <SCORE.INTER.VDW>
-14.481

>  <SCORE.INTER.norm>
-1.19135

>  <SCORE.INTRA>
0

>  <SCORE.INTRA.DIHEDRAL>
0

>  <SCORE.INTRA.DIHEDRAL.0>
0

>  <SCORE.INTRA.POLAR>
0

>  <SCORE.INTRA.POLAR.0>
0

>  <SCORE.INTRA.REPUL>
0

>  <SCORE.INTRA.REPUL.0>
0

>  <SCORE.INTRA.SOLV>
0

>  <SCORE.INTRA.SOLV.lig_0>
-29.307

>  <SCORE.INTRA.VDW>
0

>  <SCORE.INTRA.VDW.0>
0

>  <SCORE.INTRA.norm>
0

>  <SCORE.RESTR>
0

>  <SCORE.RESTR.CAVITY>
0

>  <SCORE.RESTR.norm>
0

>  <SCORE.SYSTEM>
0

>  <SCORE.SYSTEM.CONST>
0

>  <SCORE.SYSTEM.DIHEDRAL>
0

>  <SCORE.SYSTEM.SOLV>
0

>  <SCORE.SYSTEM.norm>
0

>  <SCORE.heavy>
11

>  <SCORE.norm>
-1.19135

>  <RMSD>
4.069

$$$$
ligand
 OpenBabel11021811503D
libRbt.so/2013.1/901 2013/11/27
 11 12  0  0  0  0  0  0  0  0999 V2000
    3.5297  -20.2027   24.5778 N   0  0  0  0  0  0  0  0  0  0  0  0
    3.4638  -19.4815   25.7109 C   0  0  0  0  0  0  0  0  0  0  0  0
    4.6094  -18.7723   26.1819 N   0  0  0  0  0  0  0  0  0  0  0  0
    2.3413  -19.3910   26.4304 N   0  0  0  0  0  0  0  0  0  0  0  0
    1.1996  -20.0541   26.0493 C   0  0  0  0  0  0  0  0  0  0  0  0
    1.2268  -20.8029   24.8929 C   0  0  0  0  0  0  0  0  0  0  0  0
    2.4333  -20.8658   24.1377 C   0  0  0  0  0  0  0  0  0  0  0  0
    2.4752  -21.6142   22.9825 O   0  0  0  0  0  0  0  0  0  0  0  0
   -0.0830  -21.3592   24.7417 C   0  0  0  0  0  0  0  0  0  0  0  0
   -0.8343  -20.9111   25.8371 C   0  0  0  0  0  0  0  0  0  0  0  0
   -0.0573  -20.1374   26.6054 N   0  0  0  0  0  0  0  0  0  0  0  0
  1  2  1  0  0  0  0
  1  7  1  0  0  0  0
  2  3  1  0  0  0  0
  2  4  2  0  0  0  0
  4  5  1  0  0  0  0
  5  6  2  0  0  0  0
  5 11  1  0  0  0  0
  6  7  1  0  0  0  0
  6  9  1  0  0  0  0
  7  8  2  0  0  0  0
  9 10  2  0  0  0  0
 10 11  1  0  0  0  0
M  END
>  <CHROM.1>
1.90538532,-20.32337442,25.25909256,-0.15850483,-0.28616037,-2.15048554

>  <Name>
ligand

>  <RI>
0

>  <Rbt.Current_Directory>
/home/itssahil/PROJECTS/Mol_Feturizer/New_Systems/rnas/4LVW

>  <Rbt.Executable>
rbdock ($Id: //depot/dev/client3/rdock/2013.1/src/exe/rbdock.cxx#4 $)

>  <Rbt.Library>
libRbt.so (2013.1, Build901 2013/11/27)

>  <Rbt.Parameter_File>
/export/apps/rDock/src/rDock_2013.1_src/data/scripts/dock_solv.prm

>  <Rbt.Receptor>
prm/pocket_docking_5.prm

>  <SCORE>
-13.1038

>  <SCORE.INTER>
-13.1038

>  <SCORE.INTER.CONST>
1

>  <SCORE.INTER.POLAR>
0

>  <SCORE.INTER.ROT>
0

>  <SCORE.INTER.SOLV>
6.44746

>  <SCORE.INTER.VDW>
-14.485

>  <SCORE.INTER.norm>
-1.19125

>  <SCORE.INTRA>
0

>  <SCORE.INTRA.DIHEDRAL>
0

>  <SCORE.INTRA.DIHEDRAL.0>
0

>  <SCORE.INTRA.POLAR>
0

>  <SCORE.INTRA.POLAR.0>
0

>  <SCORE.INTRA.REPUL>
0

>  <SCORE.INTRA.REPUL.0>
0

>  <SCORE.INTRA.SOLV>
0

>  <SCORE.INTRA.SOLV.lig_0>
-29.307

>  <SCORE.INTRA.VDW>
0

>  <SCORE.INTRA.VDW.0>
0

>  <SCORE.INTRA.norm>
0

>  <SCORE.RESTR>
0

>  <SCORE.RESTR.CAVITY>
0

>  <SCORE.RESTR.norm>
0

>  <SCORE.SYSTEM>
0

>  <SCORE.SYSTEM.CONST>
0

>  <SCORE.SYSTEM.DIHEDRAL>
0

>  <SCORE.SYSTEM.SOLV>
0

>  <SCORE.SYSTEM.norm>
0

>  <SCORE.heavy>
11

>  <SCORE.norm>
-1.19125

>  <RMSD>
4.069

$$$$
ligand
 OpenBabel11021811503D
libRbt.so/2013.1/901 2013/11/27
 11 12  0  0  0  0  0  0  0  0999 V2000
    3.5350  -20.2105   24.5795 N   0  0  0  0  0  0  0  0  0  0  0  0
    3.4688  -19.4830   25.7085 C   0  0  0  0  0  0  0  0  0  0  0  0
    4.6161  -18.7757   26.1788 N   0  0  0  0  0  0  0  0  0  0  0  0
    2.3448  -19.3841   26.4244 N   0  0  0  0  0  0  0  0  0  0  0  0
    1.2015  -20.0447   26.0437 C   0  0  0  0  0  0  0  0  0  0  0  0
    1.2289  -20.7998   24.8914 C   0  0  0  0  0  0  0  0  0  0  0  0
    2.4372  -20.8716   24.1400 C   0  0  0  0  0  0  0  0  0  0  0  0
    2.4793  -21.6263   22.9889 O   0  0  0  0  0  0  0  0  0  0  0  0
   -0.0828  -21.3518   24.7397 C   0  0  0  0  0  0  0  0  0  0  0  0
   -0.8353  -20.8948   25.8305 C   0  0  0  0  0  0  0  0  0  0  0  0
   -0.0572  -20.1199   26.5968 N   0  0  0  0  0  0  0  0  0  0  0  0
  1  2  1  0  0  0  0
  1  7  1  0  0  0  0
  2  3  1  0  0  0  0
  2  4  2  0  0  0  0
  4  5  1  0  0  0  0
  5  6  2  0  0  0  0
  5 11  1  0  0  0  0
  6  7  1  0  0  0  0
  6  9  1  0  0  0  0
  7  8  2  0  0  0  0
  9 10  2  0  0  0  0
 10 11  1  0  0  0  0
M  END
>  <CHROM.1>
1.90836212,-20.32103572,25.25693402,-0.15861351,-0.28132216,-2.15591029

>  <Name>
ligand

>  <RI>
0

>  <Rbt.Current_Directory>
/home/itssahil/PROJECTS/Mol_Feturizer/New_Systems/rnas/4LVW

>  <Rbt.Executable>
rbdock ($Id: //depot/dev/client3/rdock/2013.1/src/exe/rbdock.cxx#4 $)

>  <Rbt.Library>
libRbt.so (2013.1, Build901 2013/11/27)

>  <Rbt.Parameter_File>
/export/apps/rDock/src/rDock_2013.1_src/data/scripts/dock_solv.prm

>  <Rbt.Receptor>
prm/pocket_docking_6.prm

>  <SCORE>
-13.1032

>  <SCORE.INTER>
-13.1032

>  <SCORE.INTER.CONST>
1

>  <SCORE.INTER.POLAR>
0

>  <SCORE.INTER.ROT>
0

>  <SCORE.INTER.SOLV>
6.41731

>  <SCORE.INTER.VDW>
-14.4746

>  <SCORE.INTER.norm>
-1.1912

>  <SCORE.INTRA>
0

>  <SCORE.INTRA.DIHEDRAL>
0

>  <SCORE.INTRA.DIHEDRAL.0>
0

>  <SCORE.INTRA.POLAR>
0

>  <SCORE.INTRA.POLAR.0>
0

>  <SCORE.INTRA.REPUL>
0

>  <SCORE.INTRA.REPUL.0>
0

>  <SCORE.INTRA.SOLV>
0

>  <SCORE.INTRA.SOLV.lig_0>
-29.307

>  <SCORE.INTRA.VDW>
0

>  <SCORE.INTRA.VDW.0>
0

>  <SCORE.INTRA.norm>
0

>  <SCORE.RESTR>
0

>  <SCORE.RESTR.CAVITY>
0

>  <SCORE.RESTR.norm>
0

>  <SCORE.SYSTEM>
0

>  <SCORE.SYSTEM.CONST>
0

>  <SCORE.SYSTEM.DIHEDRAL>
0

>  <SCORE.SYSTEM.SOLV>
0

>  <SCORE.SYSTEM.norm>
0

>  <SCORE.heavy>
11

>  <SCORE.norm>
-1.1912

>  <RMSD>
4.069

$$$$
ligand
 OpenBabel11021811503D
libRbt.so/2013.1/901 2013/11/27
 11 12  0  0  0  0  0  0  0  0999 V2000
    3.5335  -20.2059   24.5764 N   0  0  0  0  0  0  0  0  0  0  0  0
    3.4663  -19.4790   25.7058 C   0  0  0  0  0  0  0  0  0  0  0  0
    4.6118  -18.7684   26.1751 N   0  0  0  0  0  0  0  0  0  0  0  0
    2.3427  -19.3839   26.4229 N   0  0  0  0  0  0  0  0  0  0  0  0
    1.2010  -20.0479   26.0432 C   0  0  0  0  0  0  0  0  0  0  0  0
    1.2296  -20.8025   24.8906 C   0  0  0  0  0  0  0  0  0  0  0  0
    2.4372  -20.8703   24.1378 C   0  0  0  0  0  0  0  0  0  0  0  0
    2.4804  -21.6245   22.9864 O   0  0  0  0  0  0  0  0  0  0  0  0
   -0.0806  -21.3585   24.7400 C   0  0  0  0  0  0  0  0  0  0  0  0
   -0.8333  -20.9042   25.8319 C   0  0  0  0  0  0  0  0  0  0  0  0
   -0.0568  -20.1272   26.5976 N   0  0  0  0  0  0  0  0  0  0  0  0
  1  2  1  0  0  0  0
  1  7  1  0  0  0  0
  2  3  1  0  0  0  0
  2  4  2  0  0  0  0
  4  5  1  0  0  0  0
  5  6  2  0  0  0  0
  5 11  1  0  0  0  0
  6  7  1  0  0  0  0
  6  9  1  0  0  0  0
  7  8  2  0  0  0  0
  9 10  2  0  0  0  0
 10 11  1  0  0  0  0
M  END
>  <CHROM.1>
1.90792609,-20.32176626,25.25555463,-0.15946459,-0.28448607,-2.15577612

>  <Name>
ligand

>  <RI>
0

>  <Rbt.Current_Directory>
/home/itssahil/PROJECTS/Mol_Feturizer/New_Systems/rnas/4LVW

>  <Rbt.Executable>
rbdock ($Id: //depot/dev/client3/rdock/2013.1/src/exe/rbdock.cxx#4 $)

>  <Rbt.Library>
libRbt.so (2013.1, Build901 2013/11/27)

>  <Rbt.Parameter_File>
/export/apps/rDock/src/rDock_2013.1_src/data/scripts/dock_solv.prm

>  <Rbt.Receptor>
prm/pocket_docking_6.prm

>  <SCORE>
-13.1018

>  <SCORE.INTER>
-13.1018

>  <SCORE.INTER.CONST>
1

>  <SCORE.INTER.POLAR>
0

>  <SCORE.INTER.ROT>
0

>  <SCORE.INTER.SOLV>
6.44049

>  <SCORE.INTER.VDW>
-14.4814

>  <SCORE.INTER.norm>
-1.19107

>  <SCORE.INTRA>
0

>  <SCORE.INTRA.DIHEDRAL>
0

>  <SCORE.INTRA.DIHEDRAL.0>
0

>  <SCORE.INTRA.POLAR>
0

>  <SCORE.INTRA.POLAR.0>
0

>  <SCORE.INTRA.REPUL>
0

>  <SCORE.INTRA.REPUL.0>
0

>  <SCORE.INTRA.SOLV>
0

>  <SCORE.INTRA.SOLV.lig_0>
-29.307

>  <SCORE.INTRA.VDW>
0

>  <SCORE.INTRA.VDW.0>
0

>  <SCORE.INTRA.norm>
0

>  <SCORE.RESTR>
0

>  <SCORE.RESTR.CAVITY>
0

>  <SCORE.RESTR.norm>
0

>  <SCORE.SYSTEM>
0

>  <SCORE.SYSTEM.CONST>
0

>  <SCORE.SYSTEM.DIHEDRAL>
0

>  <SCORE.SYSTEM.SOLV>
0

>  <SCORE.SYSTEM.norm>
0

>  <SCORE.heavy>
11

>  <SCORE.norm>
-1.19107

>  <RMSD>
4.069

$$$$
ligand
 OpenBabel11021811503D
libRbt.so/2013.1/901 2013/11/27
 11 12  0  0  0  0  0  0  0  0999 V2000
    3.5308  -20.2128   24.5771 N   0  0  0  0  0  0  0  0  0  0  0  0
    3.4649  -19.4875   25.7075 C   0  0  0  0  0  0  0  0  0  0  0  0
    4.6112  -18.7784   26.1772 N   0  0  0  0  0  0  0  0  0  0  0  0
    2.3418  -19.3926   26.4255 N   0  0  0  0  0  0  0  0  0  0  0  0
    1.1994  -20.0552   26.0456 C   0  0  0  0  0  0  0  0  0  0  0  0
    1.2267  -20.8082   24.8919 C   0  0  0  0  0  0  0  0  0  0  0  0
    2.4338  -20.8757   24.1382 C   0  0  0  0  0  0  0  0  0  0  0  0
    2.4757  -21.6282   22.9857 O   0  0  0  0  0  0  0  0  0  0  0  0
   -0.0839  -21.3629   24.7413 C   0  0  0  0  0  0  0  0  0  0  0  0
   -0.8357  -20.9097   25.8343 C   0  0  0  0  0  0  0  0  0  0  0  0
   -0.0581  -20.1345   26.6007 N   0  0  0  0  0  0  0  0  0  0  0  0
  1  2  1  0  0  0  0
  1  7  1  0  0  0  0
  2  3  1  0  0  0  0
  2  4  2  0  0  0  0
  4  5  1  0  0  0  0
  5  6  2  0  0  0  0
  5 11  1  0  0  0  0
  6  7  1  0  0  0  0
  6  9  1  0  0  0  0
  7  8  2  0  0  0  0
  9 10  2  0  0  0  0
 10 11  1  0  0  0  0
M  END
>  <CHROM.1>
1.90561489,-20.32842748,25.25709666,-0.15849464,-0.28424989,-2.15403789

>  <Name>
ligand

>  <RI>
0

>  <Rbt.Current_Directory>
/home/itssahil/PROJECTS/Mol_Feturizer/New_Systems/rnas/4LVW

>  <Rbt.Executable>
rbdock ($Id: //depot/dev/client3/rdock/2013.1/src/exe/rbdock.cxx#4 $)

>  <Rbt.Library>
libRbt.so (2013.1, Build901 2013/11/27)

>  <Rbt.Parameter_File>
/export/apps/rDock/src/rDock_2013.1_src/data/scripts/dock_solv.prm

>  <Rbt.Receptor>
prm/pocket_docking_6.prm

>  <SCORE>
-13.1013

>  <SCORE.INTER>
-13.1013

>  <SCORE.INTER.CONST>
1

>  <SCORE.INTER.POLAR>
0

>  <SCORE.INTER.ROT>
0

>  <SCORE.INTER.SOLV>
6.41103

>  <SCORE.INTER.VDW>
-14.4712

>  <SCORE.INTER.norm>
-1.19102

>  <SCORE.INTRA>
0

>  <SCORE.INTRA.DIHEDRAL>
0

>  <SCORE.INTRA.DIHEDRAL.0>
0

>  <SCORE.INTRA.POLAR>
0

>  <SCORE.INTRA.POLAR.0>
0

>  <SCORE.INTRA.REPUL>
0

>  <SCORE.INTRA.REPUL.0>
0

>  <SCORE.INTRA.SOLV>
0

>  <SCORE.INTRA.SOLV.lig_0>
-29.307

>  <SCORE.INTRA.VDW>
0

>  <SCORE.INTRA.VDW.0>
0

>  <SCORE.INTRA.norm>
0

>  <SCORE.RESTR>
0

>  <SCORE.RESTR.CAVITY>
0

>  <SCORE.RESTR.norm>
0

>  <SCORE.SYSTEM>
0

>  <SCORE.SYSTEM.CONST>
0

>  <SCORE.SYSTEM.DIHEDRAL>
0

>  <SCORE.SYSTEM.SOLV>
0

>  <SCORE.SYSTEM.norm>
0

>  <SCORE.heavy>
11

>  <SCORE.norm>
-1.19102

>  <RMSD>
4.069

$$$$
ligand
 OpenBabel11021811503D
libRbt.so/2013.1/901 2013/11/27
 11 12  0  0  0  0  0  0  0  0999 V2000
    3.5235  -20.1741   24.5835 N   0  0  0  0  0  0  0  0  0  0  0  0
    3.4446  -19.4285   25.6998 C   0  0  0  0  0  0  0  0  0  0  0  0
    4.5815  -18.6993   26.1617 N   0  0  0  0  0  0  0  0  0  0  0  0
    2.3170  -19.3314   26.4104 N   0  0  0  0  0  0  0  0  0  0  0  0
    1.1832  -20.0123   26.0374 C   0  0  0  0  0  0  0  0  0  0  0  0
    1.2238  -20.7865   24.8981 C   0  0  0  0  0  0  0  0  0  0  0  0
    2.4353  -20.8560   24.1518 C   0  0  0  0  0  0  0  0  0  0  0  0
    2.4905  -21.6295   23.0138 O   0  0  0  0  0  0  0  0  0  0  0  0
   -0.0805  -21.3570   24.7516 C   0  0  0  0  0  0  0  0  0  0  0  0
   -0.8422  -20.8910   25.8322 C   0  0  0  0  0  0  0  0  0  0  0  0
   -0.0763  -20.0938   26.5878 N   0  0  0  0  0  0  0  0  0  0  0  0
  1  2  1  0  0  0  0
  1  7  1  0  0  0  0
  2  3  1  0  0  0  0
  2  4  2  0  0  0  0
  4  5  1  0  0  0  0
  5  6  2  0  0  0  0
  5 11  1  0  0  0  0
  6  7  1  0  0  0  0
  6  9  1  0  0  0  0
  7  8  2  0  0  0  0
  9 10  2  0  0  0  0
 10 11  1  0  0  0  0
M  END
>  <CHROM.1>
1.89606566,-20.29323381,25.25762987,-0.16860161,-0.28969544,-2.17562790

>  <Name>
ligand

>  <RI>
0

>  <Rbt.Current_Directory>
/home/itssahil/PROJECTS/Mol_Feturizer/New_Systems/rnas/4LVW

>  <Rbt.Executable>
rbdock ($Id: //depot/dev/client3/rdock/2013.1/src/exe/rbdock.cxx#4 $)

>  <Rbt.Library>
libRbt.so (2013.1, Build901 2013/11/27)

>  <Rbt.Parameter_File>
/export/apps/rDock/src/rDock_2013.1_src/data/scripts/dock_solv.prm

>  <Rbt.Receptor>
prm/pocket_docking_7.prm

>  <SCORE>
-13.0621

>  <SCORE.INTER>
-13.0621

>  <SCORE.INTER.CONST>
1

>  <SCORE.INTER.POLAR>
0

>  <SCORE.INTER.ROT>
0

>  <SCORE.INTER.SOLV>
6.71243

>  <SCORE.INTER.VDW>
-14.5456

>  <SCORE.INTER.norm>
-1.18747

>  <SCORE.INTRA>
0

>  <SCORE.INTRA.DIHEDRAL>
0

>  <SCORE.INTRA.DIHEDRAL.0>
0

>  <SCORE.INTRA.POLAR>
0

>  <SCORE.INTRA.POLAR.0>
0

>  <SCORE.INTRA.REPUL>
0

>  <SCORE.INTRA.REPUL.0>
0

>  <SCORE.INTRA.SOLV>
0

>  <SCORE.INTRA.SOLV.lig_0>
-29.307

>  <SCORE.INTRA.VDW>
0

>  <SCORE.INTRA.VDW.0>
0

>  <SCORE.INTRA.norm>
0

>  <SCORE.RESTR>
0

>  <SCORE.RESTR.CAVITY>
0

>  <SCORE.RESTR.norm>
0

>  <SCORE.SYSTEM>
0

>  <SCORE.SYSTEM.CONST>
0

>  <SCORE.SYSTEM.DIHEDRAL>
0

>  <SCORE.SYSTEM.SOLV>
0

>  <SCORE.SYSTEM.norm>
0

>  <SCORE.heavy>
11

>  <SCORE.norm>
-1.18747

>  <RMSD>
4.069

$$$$
ligand
 OpenBabel11021811503D
libRbt.so/2013.1/901 2013/11/27
 11 12  0  0  0  0  0  0  0  0999 V2000
    3.5284  -20.1298   24.5689 N   0  0  0  0  0  0  0  0  0  0  0  0
    3.4489  -19.3933   25.6912 C   0  0  0  0  0  0  0  0  0  0  0  0
    4.5816  -18.6572   26.1524 N   0  0  0  0  0  0  0  0  0  0  0  0
    2.3243  -19.3118   26.4086 N   0  0  0  0  0  0  0  0  0  0  0  0
    1.1947  -20.0003   26.0365 C   0  0  0  0  0  0  0  0  0  0  0  0
    1.2361  -20.7655   24.8913 C   0  0  0  0  0  0  0  0  0  0  0  0
    2.4442  -20.8184   24.1380 C   0  0  0  0  0  0  0  0  0  0  0  0
    2.5002  -21.5829   22.9940 O   0  0  0  0  0  0  0  0  0  0  0  0
   -0.0637  -21.3468   24.7476 C   0  0  0  0  0  0  0  0  0  0  0  0
   -0.8237  -20.8958   25.8357 C   0  0  0  0  0  0  0  0  0  0  0  0
   -0.0610  -20.0973   26.5931 N   0  0  0  0  0  0  0  0  0  0  0  0
  1  2  1  0  0  0  0
  1  7  1  0  0  0  0
  2  3  1  0  0  0  0
  2  4  2  0  0  0  0
  4  5  1  0  0  0  0
  5  6  2  0  0  0  0
  5 11  1  0  0  0  0
  6  7  1  0  0  0  0
  6  9  1  0  0  0  0
  7  8  2  0  0  0  0
  9 10  2  0  0  0  0
 10 11  1  0  0  0  0
M  END
>  <CHROM.1>
1.90585846,-20.26883704,25.25087936,-0.16931758,-0.30027490,-2.16836247

>  <Name>
ligand

>  <RI>
0

>  <Rbt.Current_Directory>
/home/itssahil/PROJECTS/Mol_Feturizer/New_Systems/rnas/4LVW

>  <Rbt.Executable>
rbdock ($Id: //depot/dev/client3/rdock/2013.1/src/exe/rbdock.cxx#4 $)

>  <Rbt.Library>
libRbt.so (2013.1, Build901 2013/11/27)

>  <Rbt.Parameter_File>
/export/apps/rDock/src/rDock_2013.1_src/data/scripts/dock_solv.prm

>  <Rbt.Receptor>
prm/pocket_docking_7.prm

>  <SCORE>
-13.0976

>  <SCORE.INTER>
-13.0976

>  <SCORE.INTER.CONST>
1

>  <SCORE.INTER.POLAR>
0

>  <SCORE.INTER.ROT>
0

>  <SCORE.INTER.SOLV>
6.83707

>  <SCORE.INTER.VDW>
-14.6107

>  <SCORE.INTER.norm>
-1.19069

>  <SCORE.INTRA>
0

>  <SCORE.INTRA.DIHEDRAL>
0

>  <SCORE.INTRA.DIHEDRAL.0>
0

>  <SCORE.INTRA.POLAR>
0

>  <SCORE.INTRA.POLAR.0>
0

>  <SCORE.INTRA.REPUL>
0

>  <SCORE.INTRA.REPUL.0>
0

>  <SCORE.INTRA.SOLV>
0

>  <SCORE.INTRA.SOLV.lig_0>
-29.307

>  <SCORE.INTRA.VDW>
0

>  <SCORE.INTRA.VDW.0>
0

>  <SCORE.INTRA.norm>
0

>  <SCORE.RESTR>
0

>  <SCORE.RESTR.CAVITY>
0

>  <SCORE.RESTR.norm>
0

>  <SCORE.SYSTEM>
0

>  <SCORE.SYSTEM.CONST>
0

>  <SCORE.SYSTEM.DIHEDRAL>
0

>  <SCORE.SYSTEM.SOLV>
0

>  <SCORE.SYSTEM.norm>
0

>  <SCORE.heavy>
11

>  <SCORE.norm>
-1.19069

>  <RMSD>
4.069

$$$$
ligand
 OpenBabel11021811503D
libRbt.so/2013.1/901 2013/11/27
 11 12  0  0  0  0  0  0  0  0999 V2000
    3.5333  -20.2147   24.5804 N   0  0  0  0  0  0  0  0  0  0  0  0
    3.4665  -19.4880   25.7099 C   0  0  0  0  0  0  0  0  0  0  0  0
    4.6132  -18.7807   26.1812 N   0  0  0  0  0  0  0  0  0  0  0  0
    2.3421  -19.3901   26.4255 N   0  0  0  0  0  0  0  0  0  0  0  0
    1.1992  -20.0508   26.0439 C   0  0  0  0  0  0  0  0  0  0  0  0
    1.2273  -20.8051   24.8910 C   0  0  0  0  0  0  0  0  0  0  0  0
    2.4359  -20.8759   24.1400 C   0  0  0  0  0  0  0  0  0  0  0  0
    2.4787  -21.6298   22.9884 O   0  0  0  0  0  0  0  0  0  0  0  0
   -0.0841  -21.3575   24.7384 C   0  0  0  0  0  0  0  0  0  0  0  0
   -0.8372  -20.9016   25.8293 C   0  0  0  0  0  0  0  0  0  0  0  0
   -0.0597  -20.1270   26.5965 N   0  0  0  0  0  0  0  0  0  0  0  0
  1  2  1  0  0  0  0
  1  7  1  0  0  0  0
  2  3  1  0  0  0  0
  2  4  2  0  0  0  0
  4  5  1  0  0  0  0
  5  6  2  0  0  0  0
  5 11  1  0  0  0  0
  6  7  1  0  0  0  0
  6  9  1  0  0  0  0
  7  8  2  0  0  0  0
  9 10  2  0  0  0  0
 10 11  1  0  0  0  0
M  END
>  <CHROM.1>
1.90646841,-20.32636024,25.25717154,-0.15916327,-0.28143200,-2.15531629

>  <Name>
ligand

>  <RI>
0

>  <Rbt.Current_Directory>
/home/itssahil/PROJECTS/Mol_Feturizer/New_Systems/rnas/4LVW

>  <Rbt.Executable>
rbdock ($Id: //depot/dev/client3/rdock/2013.1/src/exe/rbdock.cxx#4 $)

>  <Rbt.Library>
libRbt.so (2013.1, Build901 2013/11/27)

>  <Rbt.Parameter_File>
/export/apps/rDock/src/rDock_2013.1_src/data/scripts/dock_solv.prm

>  <Rbt.Receptor>
prm/pocket_docking_8.prm

>  <SCORE>
-13.101

>  <SCORE.INTER>
-13.101

>  <SCORE.INTER.CONST>
1

>  <SCORE.INTER.POLAR>
0

>  <SCORE.INTER.ROT>
0

>  <SCORE.INTER.SOLV>
6.40828

>  <SCORE.INTER.VDW>
-14.4701

>  <SCORE.INTER.norm>
-1.191

>  <SCORE.INTRA>
0

>  <SCORE.INTRA.DIHEDRAL>
0

>  <SCORE.INTRA.DIHEDRAL.0>
0

>  <SCORE.INTRA.POLAR>
0

>  <SCORE.INTRA.POLAR.0>
0

>  <SCORE.INTRA.REPUL>
0

>  <SCORE.INTRA.REPUL.0>
0

>  <SCORE.INTRA.SOLV>
0

>  <SCORE.INTRA.SOLV.lig_0>
-29.307

>  <SCORE.INTRA.VDW>
0

>  <SCORE.INTRA.VDW.0>
0

>  <SCORE.INTRA.norm>
0

>  <SCORE.RESTR>
0

>  <SCORE.RESTR.CAVITY>
0

>  <SCORE.RESTR.norm>
0

>  <SCORE.SYSTEM>
0

>  <SCORE.SYSTEM.CONST>
0

>  <SCORE.SYSTEM.DIHEDRAL>
0

>  <SCORE.SYSTEM.SOLV>
0

>  <SCORE.SYSTEM.norm>
0

>  <SCORE.heavy>
11

>  <SCORE.norm>
-1.191

>  <RMSD>
4.069

$$$$
ligand
 OpenBabel11021811503D
libRbt.so/2013.1/901 2013/11/27
 11 12  0  0  0  0  0  0  0  0999 V2000
    3.5329  -20.2092   24.5773 N   0  0  0  0  0  0  0  0  0  0  0  0
    3.4653  -19.4819   25.7063 C   0  0  0  0  0  0  0  0  0  0  0  0
    4.6107  -18.7713   26.1759 N   0  0  0  0  0  0  0  0  0  0  0  0
    2.3414  -19.3864   26.4229 N   0  0  0  0  0  0  0  0  0  0  0  0
    1.1998  -20.0503   26.0430 C   0  0  0  0  0  0  0  0  0  0  0  0
    1.2288  -20.8053   24.8906 C   0  0  0  0  0  0  0  0  0  0  0  0
    2.4367  -20.8736   24.1384 C   0  0  0  0  0  0  0  0  0  0  0  0
    2.4803  -21.6281   22.9873 O   0  0  0  0  0  0  0  0  0  0  0  0
   -0.0814  -21.3611   24.7397 C   0  0  0  0  0  0  0  0  0  0  0  0
   -0.8345  -20.9064   25.8311 C   0  0  0  0  0  0  0  0  0  0  0  0
   -0.0583  -20.1293   26.5969 N   0  0  0  0  0  0  0  0  0  0  0  0
  1  2  1  0  0  0  0
  1  7  1  0  0  0  0
  2  3  1  0  0  0  0
  2  4  2  0  0  0  0
  4  5  1  0  0  0  0
  5  6  2  0  0  0  0
  5 11  1  0  0  0  0
  6  7  1  0  0  0  0
  6  9  1  0  0  0  0
  7  8  2  0  0  0  0
  9 10  2  0  0  0  0
 10 11  1  0  0  0  0
M  END
>  <CHROM.1>
1.90702759,-20.32456693,25.25572803,-0.15975311,-0.28413373,-2.15618970

>  <Name>
ligand

>  <RI>
0

>  <Rbt.Current_Directory>
/home/itssahil/PROJECTS/Mol_Feturizer/New_Systems/rnas/4LVW

>  <Rbt.Executable>
rbdock ($Id: //depot/dev/client3/rdock/2013.1/src/exe/rbdock.cxx#4 $)

>  <Rbt.Library>
libRbt.so (2013.1, Build901 2013/11/27)

>  <Rbt.Parameter_File>
/export/apps/rDock/src/rDock_2013.1_src/data/scripts/dock_solv.prm

>  <Rbt.Receptor>
prm/pocket_docking_8.prm

>  <SCORE>
-13.1005

>  <SCORE.INTER>
-13.1005

>  <SCORE.INTER.CONST>
1

>  <SCORE.INTER.POLAR>
0

>  <SCORE.INTER.ROT>
0

>  <SCORE.INTER.SOLV>
6.43274

>  <SCORE.INTER.VDW>
-14.4779

>  <SCORE.INTER.norm>
-1.19095

>  <SCORE.INTRA>
0

>  <SCORE.INTRA.DIHEDRAL>
0

>  <SCORE.INTRA.DIHEDRAL.0>
0

>  <SCORE.INTRA.POLAR>
0

>  <SCORE.INTRA.POLAR.0>
0

>  <SCORE.INTRA.REPUL>
0

>  <SCORE.INTRA.REPUL.0>
0

>  <SCORE.INTRA.SOLV>
0

>  <SCORE.INTRA.SOLV.lig_0>
-29.307

>  <SCORE.INTRA.VDW>
0

>  <SCORE.INTRA.VDW.0>
0

>  <SCORE.INTRA.norm>
0

>  <SCORE.RESTR>
0

>  <SCORE.RESTR.CAVITY>
0

>  <SCORE.RESTR.norm>
0

>  <SCORE.SYSTEM>
0

>  <SCORE.SYSTEM.CONST>
0

>  <SCORE.SYSTEM.DIHEDRAL>
0

>  <SCORE.SYSTEM.SOLV>
0

>  <SCORE.SYSTEM.norm>
0

>  <SCORE.heavy>
11

>  <SCORE.norm>
-1.19095

>  <RMSD>
4.069

$$$$
ligand
 OpenBabel11021811503D
libRbt.so/2013.1/901 2013/11/27
 11 12  0  0  0  0  0  0  0  0999 V2000
    3.5343  -20.1976   24.5738 N   0  0  0  0  0  0  0  0  0  0  0  0
    3.4689  -19.4739   25.7052 C   0  0  0  0  0  0  0  0  0  0  0  0
    4.6150  -18.7642   26.1746 N   0  0  0  0  0  0  0  0  0  0  0  0
    2.3465  -19.3811   26.4246 N   0  0  0  0  0  0  0  0  0  0  0  0
    1.2044  -20.0444   26.0450 C   0  0  0  0  0  0  0  0  0  0  0  0
    1.2312  -20.7958   24.8903 C   0  0  0  0  0  0  0  0  0  0  0  0
    2.4375  -20.8611   24.1352 C   0  0  0  0  0  0  0  0  0  0  0  0
    2.4790  -21.6121   22.9817 O   0  0  0  0  0  0  0  0  0  0  0  0
   -0.0790  -21.3518   24.7405 C   0  0  0  0  0  0  0  0  0  0  0  0
   -0.8300  -20.9008   25.8349 C   0  0  0  0  0  0  0  0  0  0  0  0
   -0.0525  -20.1257   26.6014 N   0  0  0  0  0  0  0  0  0  0  0  0
  1  2  1  0  0  0  0
  1  7  1  0  0  0  0
  2  3  1  0  0  0  0
  2  4  2  0  0  0  0
  4  5  1  0  0  0  0
  5  6  2  0  0  0  0
  5 11  1  0  0  0  0
  6  7  1  0  0  0  0
  6  9  1  0  0  0  0
  7  8  2  0  0  0  0
  9 10  2  0  0  0  0
 10 11  1  0  0  0  0
M  END
>  <CHROM.1>
1.90999373,-20.31585133,25.25541168,-0.15813778,-0.28571867,-2.15263371

>  <Name>
ligand

>  <RI>
0

>  <Rbt.Current_Directory>
/home/itssahil/PROJECTS/Mol_Feturizer/New_Systems/rnas/4LVW

>  <Rbt.Executable>
rbdock ($Id: //depot/dev/client3/rdock/2013.1/src/exe/rbdock.cxx#4 $)

>  <Rbt.Library>
libRbt.so (2013.1, Build901 2013/11/27)

>  <Rbt.Parameter_File>
/export/apps/rDock/src/rDock_2013.1_src/data/scripts/dock_solv.prm

>  <Rbt.Receptor>
prm/pocket_docking_3.prm

>  <SCORE>
-13.1047

>  <SCORE.INTER>
-13.1047

>  <SCORE.INTER.CONST>
1

>  <SCORE.INTER.POLAR>
0

>  <SCORE.INTER.ROT>
0

>  <SCORE.INTER.SOLV>
6.45282

>  <SCORE.INTER.VDW>
-14.4874

>  <SCORE.INTER.norm>
-1.19134

>  <SCORE.INTRA>
0

>  <SCORE.INTRA.DIHEDRAL>
0

>  <SCORE.INTRA.DIHEDRAL.0>
0

>  <SCORE.INTRA.POLAR>
0

>  <SCORE.INTRA.POLAR.0>
0

>  <SCORE.INTRA.REPUL>
0

>  <SCORE.INTRA.REPUL.0>
0

>  <SCORE.INTRA.SOLV>
0

>  <SCORE.INTRA.SOLV.lig_0>
-29.307

>  <SCORE.INTRA.VDW>
0

>  <SCORE.INTRA.VDW.0>
0

>  <SCORE.INTRA.norm>
0

>  <SCORE.RESTR>
0

>  <SCORE.RESTR.CAVITY>
0

>  <SCORE.RESTR.norm>
0

>  <SCORE.SYSTEM>
0

>  <SCORE.SYSTEM.CONST>
0

>  <SCORE.SYSTEM.DIHEDRAL>
0

>  <SCORE.SYSTEM.SOLV>
0

>  <SCORE.SYSTEM.norm>
0

>  <SCORE.heavy>
11

>  <SCORE.norm>
-1.19134

>  <RMSD>
4.070

$$$$
ligand
 OpenBabel11021811503D
libRbt.so/2013.1/901 2013/11/27
 11 12  0  0  0  0  0  0  0  0999 V2000
    3.5353  -20.2113   24.5781 N   0  0  0  0  0  0  0  0  0  0  0  0
    3.4697  -19.4823   25.7062 C   0  0  0  0  0  0  0  0  0  0  0  0
    4.6173  -18.7749   26.1753 N   0  0  0  0  0  0  0  0  0  0  0  0
    2.3459  -19.3820   26.4222 N   0  0  0  0  0  0  0  0  0  0  0  0
    1.2022  -20.0426   26.0426 C   0  0  0  0  0  0  0  0  0  0  0  0
    1.2291  -20.7993   24.8913 C   0  0  0  0  0  0  0  0  0  0  0  0
    2.4371  -20.8725   24.1397 C   0  0  0  0  0  0  0  0  0  0  0  0
    2.4786  -21.6287   22.9896 O   0  0  0  0  0  0  0  0  0  0  0  0
   -0.0829  -21.3509   24.7406 C   0  0  0  0  0  0  0  0  0  0  0  0
   -0.8349  -20.8922   25.8310 C   0  0  0  0  0  0  0  0  0  0  0  0
   -0.0564  -20.1167   26.5962 N   0  0  0  0  0  0  0  0  0  0  0  0
  1  2  1  0  0  0  0
  1  7  1  0  0  0  0
  2  3  1  0  0  0  0
  2  4  2  0  0  0  0
  4  5  1  0  0  0  0
  5  6  2  0  0  0  0
  5 11  1  0  0  0  0
  6  7  1  0  0  0  0
  6  9  1  0  0  0  0
  7  8  2  0  0  0  0
  9 10  2  0  0  0  0
 10 11  1  0  0  0  0
M  END
>  <CHROM.1>
1.90879421,-20.32029025,25.25604954,-0.15817492,-0.28111656,-2.15706790

>  <Name>
ligand

>  <RI>
0

>  <Rbt.Current_Directory>
/home/itssahil/PROJECTS/Mol_Feturizer/New_Systems/rnas/4LVW

>  <Rbt.Executable>
rbdock ($Id: //depot/dev/client3/rdock/2013.1/src/exe/rbdock.cxx#4 $)

>  <Rbt.Library>
libRbt.so (2013.1, Build901 2013/11/27)

>  <Rbt.Parameter_File>
/export/apps/rDock/src/rDock_2013.1_src/data/scripts/dock_solv.prm

>  <Rbt.Receptor>
prm/pocket_docking_3.prm

>  <SCORE>
-13.1026

>  <SCORE.INTER>
-13.1026

>  <SCORE.INTER.CONST>
1

>  <SCORE.INTER.POLAR>
0

>  <SCORE.INTER.ROT>
0

>  <SCORE.INTER.SOLV>
6.41206

>  <SCORE.INTER.VDW>
-14.4724

>  <SCORE.INTER.norm>
-1.19114

>  <SCORE.INTRA>
0

>  <SCORE.INTRA.DIHEDRAL>
0

>  <SCORE.INTRA.DIHEDRAL.0>
0

>  <SCORE.INTRA.POLAR>
0

>  <SCORE.INTRA.POLAR.0>
0

>  <SCORE.INTRA.REPUL>
0

>  <SCORE.INTRA.REPUL.0>
0

>  <SCORE.INTRA.SOLV>
0

>  <SCORE.INTRA.SOLV.lig_0>
-29.307

>  <SCORE.INTRA.VDW>
0

>  <SCORE.INTRA.VDW.0>
0

>  <SCORE.INTRA.norm>
0

>  <SCORE.RESTR>
0

>  <SCORE.RESTR.CAVITY>
0

>  <SCORE.RESTR.norm>
0

>  <SCORE.SYSTEM>
0

>  <SCORE.SYSTEM.CONST>
0

>  <SCORE.SYSTEM.DIHEDRAL>
0

>  <SCORE.SYSTEM.SOLV>
0

>  <SCORE.SYSTEM.norm>
0

>  <SCORE.heavy>
11

>  <SCORE.norm>
-1.19114

>  <RMSD>
4.070

$$$$
ligand
 OpenBabel11021811503D
libRbt.so/2013.1/901 2013/11/27
 11 12  0  0  0  0  0  0  0  0999 V2000
    3.5250  -20.2021   24.5771 N   0  0  0  0  0  0  0  0  0  0  0  0
    3.4625  -19.4862   25.7137 C   0  0  0  0  0  0  0  0  0  0  0  0
    4.6106  -18.7821   26.1865 N   0  0  0  0  0  0  0  0  0  0  0  0
    2.3413  -19.3964   26.4353 N   0  0  0  0  0  0  0  0  0  0  0  0
    1.1974  -20.0548   26.0527 C   0  0  0  0  0  0  0  0  0  0  0  0
    1.2212  -20.7981   24.8926 C   0  0  0  0  0  0  0  0  0  0  0  0
    2.4264  -20.8604   24.1354 C   0  0  0  0  0  0  0  0  0  0  0  0
    2.4648  -21.6033   22.9766 O   0  0  0  0  0  0  0  0  0  0  0  0
   -0.0903  -21.3505   24.7407 C   0  0  0  0  0  0  0  0  0  0  0  0
   -0.8389  -20.9058   25.8393 C   0  0  0  0  0  0  0  0  0  0  0  0
   -0.0588  -20.1376   26.6102 N   0  0  0  0  0  0  0  0  0  0  0  0
  1  2  1  0  0  0  0
  1  7  1  0  0  0  0
  2  3  1  0  0  0  0
  2  4  2  0  0  0  0
  4  5  1  0  0  0  0
  5  6  2  0  0  0  0
  5 11  1  0  0  0  0
  6  7  1  0  0  0  0
  6  9  1  0  0  0  0
  7  8  2  0  0  0  0
  9 10  2  0  0  0  0
 10 11  1  0  0  0  0
M  END
>  <CHROM.1>
1.90142232,-20.32204468,25.26016686,-0.15583589,-0.28486539,-2.14494251

>  <Name>
ligand

>  <RI>
0

>  <Rbt.Current_Directory>
/home/itssahil/PROJECTS/Mol_Feturizer/New_Systems/rnas/4LVW

>  <Rbt.Executable>
rbdock ($Id: //depot/dev/client3/rdock/2013.1/src/exe/rbdock.cxx#4 $)

>  <Rbt.Library>
libRbt.so (2013.1, Build901 2013/11/27)

>  <Rbt.Parameter_File>
/export/apps/rDock/src/rDock_2013.1_src/data/scripts/dock_solv.prm

>  <Rbt.Receptor>
prm/pocket_docking_3.prm

>  <SCORE>
-13.1007

>  <SCORE.INTER>
-13.1007

>  <SCORE.INTER.CONST>
1

>  <SCORE.INTER.POLAR>
0

>  <SCORE.INTER.ROT>
0

>  <SCORE.INTER.SOLV>
6.43403

>  <SCORE.INTER.VDW>
-14.4785

>  <SCORE.INTER.norm>
-1.19098

>  <SCORE.INTRA>
0

>  <SCORE.INTRA.DIHEDRAL>
0

>  <SCORE.INTRA.DIHEDRAL.0>
0

>  <SCORE.INTRA.POLAR>
0

>  <SCORE.INTRA.POLAR.0>
0

>  <SCORE.INTRA.REPUL>
0

>  <SCORE.INTRA.REPUL.0>
0

>  <SCORE.INTRA.SOLV>
0

>  <SCORE.INTRA.SOLV.lig_0>
-29.307

>  <SCORE.INTRA.VDW>
0

>  <SCORE.INTRA.VDW.0>
0

>  <SCORE.INTRA.norm>
0

>  <SCORE.RESTR>
0

>  <SCORE.RESTR.CAVITY>
0

>  <SCORE.RESTR.norm>
0

>  <SCORE.SYSTEM>
0

>  <SCORE.SYSTEM.CONST>
0

>  <SCORE.SYSTEM.DIHEDRAL>
0

>  <SCORE.SYSTEM.SOLV>
0

>  <SCORE.SYSTEM.norm>
0

>  <SCORE.heavy>
11

>  <SCORE.norm>
-1.19098

>  <RMSD>
4.070

$$$$
ligand
 OpenBabel11021811503D
libRbt.so/2013.1/901 2013/11/27
 11 12  0  0  0  0  0  0  0  0999 V2000
    3.5333  -20.2074   24.5764 N   0  0  0  0  0  0  0  0  0  0  0  0
    3.4682  -19.4798   25.7054 C   0  0  0  0  0  0  0  0  0  0  0  0
    4.6154  -18.7713   26.1737 N   0  0  0  0  0  0  0  0  0  0  0  0
    2.3452  -19.3820   26.4231 N   0  0  0  0  0  0  0  0  0  0  0  0
    1.2020  -20.0438   26.0443 C   0  0  0  0  0  0  0  0  0  0  0  0
    1.2284  -20.7991   24.8921 C   0  0  0  0  0  0  0  0  0  0  0  0
    2.4354  -20.8697   24.1387 C   0  0  0  0  0  0  0  0  0  0  0  0
    2.4765  -21.6245   22.9877 O   0  0  0  0  0  0  0  0  0  0  0  0
   -0.0830  -21.3524   24.7426 C   0  0  0  0  0  0  0  0  0  0  0  0
   -0.8342  -20.8960   25.8346 C   0  0  0  0  0  0  0  0  0  0  0  0
   -0.0557  -20.1203   26.5995 N   0  0  0  0  0  0  0  0  0  0  0  0
  1  2  1  0  0  0  0
  1  7  1  0  0  0  0
  2  3  1  0  0  0  0
  2  4  2  0  0  0  0
  4  5  1  0  0  0  0
  5  6  2  0  0  0  0
  5 11  1  0  0  0  0
  6  7  1  0  0  0  0
  6  9  1  0  0  0  0
  7  8  2  0  0  0  0
  9 10  2  0  0  0  0
 10 11  1  0  0  0  0
M  END
>  <CHROM.1>
1.90788555,-20.31952950,25.25646215,-0.15780522,-0.28309130,-2.15581835

>  <Name>
ligand

>  <RI>
0

>  <Rbt.Current_Directory>
/home/itssahil/PROJECTS/Mol_Feturizer/New_Systems/rnas/4LVW

>  <Rbt.Executable>
rbdock ($Id: //depot/dev/client3/rdock/2013.1/src/exe/rbdock.cxx#4 $)

>  <Rbt.Library>
libRbt.so (2013.1, Build901 2013/11/27)

>  <Rbt.Parameter_File>
/export/apps/rDock/src/rDock_2013.1_src/data/scripts/dock_solv.prm

>  <Rbt.Receptor>
prm/pocket_docking_4.prm

>  <SCORE>
-13.1035

>  <SCORE.INTER>
-13.1035

>  <SCORE.INTER.CONST>
1

>  <SCORE.INTER.POLAR>
0

>  <SCORE.INTER.ROT>
0

>  <SCORE.INTER.SOLV>
6.42572

>  <SCORE.INTER.VDW>
-14.4776

>  <SCORE.INTER.norm>
-1.19123

>  <SCORE.INTRA>
0

>  <SCORE.INTRA.DIHEDRAL>
0

>  <SCORE.INTRA.DIHEDRAL.0>
0

>  <SCORE.INTRA.POLAR>
0

>  <SCORE.INTRA.POLAR.0>
0

>  <SCORE.INTRA.REPUL>
0

>  <SCORE.INTRA.REPUL.0>
0

>  <SCORE.INTRA.SOLV>
0

>  <SCORE.INTRA.SOLV.lig_0>
-29.307

>  <SCORE.INTRA.VDW>
0

>  <SCORE.INTRA.VDW.0>
0

>  <SCORE.INTRA.norm>
0

>  <SCORE.RESTR>
0

>  <SCORE.RESTR.CAVITY>
0

>  <SCORE.RESTR.norm>
0

>  <SCORE.SYSTEM>
0

>  <SCORE.SYSTEM.CONST>
0

>  <SCORE.SYSTEM.DIHEDRAL>
0

>  <SCORE.SYSTEM.SOLV>
0

>  <SCORE.SYSTEM.norm>
0

>  <SCORE.heavy>
11

>  <SCORE.norm>
-1.19123

>  <RMSD>
4.070

$$$$
ligand
 OpenBabel11021811503D
libRbt.so/2013.1/901 2013/11/27
 11 12  0  0  0  0  0  0  0  0999 V2000
    3.4846  -20.1601   24.5980 N   0  0  0  0  0  0  0  0  0  0  0  0
    3.3981  -19.4057   25.7078 C   0  0  0  0  0  0  0  0  0  0  0  0
    4.5315  -18.6719   26.1710 N   0  0  0  0  0  0  0  0  0  0  0  0
    2.2660  -19.3039   26.4105 N   0  0  0  0  0  0  0  0  0  0  0  0
    1.1351  -19.9888   26.0358 C   0  0  0  0  0  0  0  0  0  0  0  0
    1.1835  -20.7719   24.9030 C   0  0  0  0  0  0  0  0  0  0  0  0
    2.3998  -20.8464   24.1649 C   0  0  0  0  0  0  0  0  0  0  0  0
    2.4628  -21.6289   23.0335 O   0  0  0  0  0  0  0  0  0  0  0  0
   -0.1194  -21.3448   24.7529 C   0  0  0  0  0  0  0  0  0  0  0  0
   -0.8883  -20.8707   25.8249 C   0  0  0  0  0  0  0  0  0  0  0  0
   -0.1278  -20.0669   26.5788 N   0  0  0  0  0  0  0  0  0  0  0  0
  1  2  1  0  0  0  0
  1  7  1  0  0  0  0
  2  3  1  0  0  0  0
  2  4  2  0  0  0  0
  4  5  1  0  0  0  0
  5  6  2  0  0  0  0
  5 11  1  0  0  0  0
  6  7  1  0  0  0  0
  6  9  1  0  0  0  0
  7  8  2  0  0  0  0
  9 10  2  0  0  0  0
 10 11  1  0  0  0  0
M  END
>  <CHROM.1>
1.85309710,-20.27528149,25.26278378,-0.17447451,-0.28676395,-2.18528684

>  <Name>
ligand

>  <RI>
0

>  <Rbt.Current_Directory>
/home/itssahil/PROJECTS/Mol_Feturizer/New_Systems/rnas/4LVW

>  <Rbt.Executable>
rbdock ($Id: //depot/dev/client3/rdock/2013.1/src/exe/rbdock.cxx#4 $)

>  <Rbt.Library>
libRbt.so (2013.1, Build901 2013/11/27)

>  <Rbt.Parameter_File>
/export/apps/rDock/src/rDock_2013.1_src/data/scripts/dock_solv.prm

>  <Rbt.Receptor>
prm/pocket_docking_4.prm

>  <SCORE>
-13.0457

>  <SCORE.INTER>
-13.0457

>  <SCORE.INTER.CONST>
1

>  <SCORE.INTER.POLAR>
0

>  <SCORE.INTER.ROT>
0

>  <SCORE.INTER.SOLV>
6.97085

>  <SCORE.INTER.VDW>
-14.6208

>  <SCORE.INTER.norm>
-1.18598

>  <SCORE.INTRA>
0

>  <SCORE.INTRA.DIHEDRAL>
0

>  <SCORE.INTRA.DIHEDRAL.0>
0

>  <SCORE.INTRA.POLAR>
0

>  <SCORE.INTRA.POLAR.0>
0

>  <SCORE.INTRA.REPUL>
0

>  <SCORE.INTRA.REPUL.0>
0

>  <SCORE.INTRA.SOLV>
0

>  <SCORE.INTRA.SOLV.lig_0>
-29.307

>  <SCORE.INTRA.VDW>
0

>  <SCORE.INTRA.VDW.0>
0

>  <SCORE.INTRA.norm>
0

>  <SCORE.RESTR>
0

>  <SCORE.RESTR.CAVITY>
0

>  <SCORE.RESTR.norm>
0

>  <SCORE.SYSTEM>
0

>  <SCORE.SYSTEM.CONST>
0

>  <SCORE.SYSTEM.DIHEDRAL>
0

>  <SCORE.SYSTEM.SOLV>
0

>  <SCORE.SYSTEM.norm>
0

>  <SCORE.heavy>
11

>  <SCORE.norm>
-1.18598

>  <RMSD>
4.070

$$$$
ligand
 OpenBabel11021811503D
libRbt.so/2013.1/901 2013/11/27
 11 12  0  0  0  0  0  0  0  0999 V2000
    3.5312  -20.2178   24.5814 N   0  0  0  0  0  0  0  0  0  0  0  0
    3.4668  -19.4898   25.7102 C   0  0  0  0  0  0  0  0  0  0  0  0
    4.6154  -18.7843   26.1797 N   0  0  0  0  0  0  0  0  0  0  0  0
    2.3432  -19.3889   26.4266 N   0  0  0  0  0  0  0  0  0  0  0  0
    1.1987  -20.0477   26.0467 C   0  0  0  0  0  0  0  0  0  0  0  0
    1.2244  -20.8034   24.8946 C   0  0  0  0  0  0  0  0  0  0  0  0
    2.4321  -20.8774   24.1426 C   0  0  0  0  0  0  0  0  0  0  0  0
    2.4724  -21.6325   22.9918 O   0  0  0  0  0  0  0  0  0  0  0  0
   -0.0883  -21.3532   24.7437 C   0  0  0  0  0  0  0  0  0  0  0  0
   -0.8395  -20.8946   25.8348 C   0  0  0  0  0  0  0  0  0  0  0  0
   -0.0599  -20.1208   26.6004 N   0  0  0  0  0  0  0  0  0  0  0  0
  1  2  1  0  0  0  0
  1  7  1  0  0  0  0
  2  3  1  0  0  0  0
  2  4  2  0  0  0  0
  4  5  1  0  0  0  0
  5  6  2  0  0  0  0
  5 11  1  0  0  0  0
  6  7  1  0  0  0  0
  6  9  1  0  0  0  0
  7  8  2  0  0  0  0
  9 10  2  0  0  0  0
 10 11  1  0  0  0  0
M  END
>  <CHROM.1>
1.90474369,-20.32553513,25.25965163,-0.15726756,-0.28024104,-2.15587202

>  <Name>
ligand

>  <RI>
0

>  <Rbt.Current_Directory>
/home/itssahil/PROJECTS/Mol_Feturizer/New_Systems/rnas/4LVW

>  <Rbt.Executable>
rbdock ($Id: //depot/dev/client3/rdock/2013.1/src/exe/rbdock.cxx#4 $)

>  <Rbt.Library>
libRbt.so (2013.1, Build901 2013/11/27)

>  <Rbt.Parameter_File>
/export/apps/rDock/src/rDock_2013.1_src/data/scripts/dock_solv.prm

>  <Rbt.Receptor>
prm/pocket_docking_5.prm

>  <SCORE>
-13.1023

>  <SCORE.INTER>
-13.1023

>  <SCORE.INTER.CONST>
1

>  <SCORE.INTER.POLAR>
0

>  <SCORE.INTER.ROT>
0

>  <SCORE.INTER.SOLV>
6.39391

>  <SCORE.INTER.VDW>
-14.4662

>  <SCORE.INTER.norm>
-1.19112

>  <SCORE.INTRA>
0

>  <SCORE.INTRA.DIHEDRAL>
0

>  <SCORE.INTRA.DIHEDRAL.0>
0

>  <SCORE.INTRA.POLAR>
0

>  <SCORE.INTRA.POLAR.0>
0

>  <SCORE.INTRA.REPUL>
0

>  <SCORE.INTRA.REPUL.0>
0

>  <SCORE.INTRA.SOLV>
0

>  <SCORE.INTRA.SOLV.lig_0>
-29.307

>  <SCORE.INTRA.VDW>
0

>  <SCORE.INTRA.VDW.0>
0

>  <SCORE.INTRA.norm>
0

>  <SCORE.RESTR>
0

>  <SCORE.RESTR.CAVITY>
0

>  <SCORE.RESTR.norm>
0

>  <SCORE.SYSTEM>
0

>  <SCORE.SYSTEM.CONST>
0

>  <SCORE.SYSTEM.DIHEDRAL>
0

>  <SCORE.SYSTEM.SOLV>
0

>  <SCORE.SYSTEM.norm>
0

>  <SCORE.heavy>
11

>  <SCORE.norm>
-1.19112

>  <RMSD>
4.070

$$$$
ligand
 OpenBabel11021811503D
libRbt.so/2013.1/901 2013/11/27
 11 12  0  0  0  0  0  0  0  0999 V2000
    3.5262  -20.2169   24.5815 N   0  0  0  0  0  0  0  0  0  0  0  0
    3.4630  -19.4924   25.7125 C   0  0  0  0  0  0  0  0  0  0  0  0
    4.6117  -18.7871   26.1821 N   0  0  0  0  0  0  0  0  0  0  0  0
    2.3407  -19.3948   26.4313 N   0  0  0  0  0  0  0  0  0  0  0  0
    1.1961  -20.0537   26.0515 C   0  0  0  0  0  0  0  0  0  0  0  0
    1.2204  -20.8057   24.8971 C   0  0  0  0  0  0  0  0  0  0  0  0
    2.4269  -20.8762   24.1426 C   0  0  0  0  0  0  0  0  0  0  0  0
    2.4659  -21.6279   22.9895 O   0  0  0  0  0  0  0  0  0  0  0  0
   -0.0919  -21.3565   24.7469 C   0  0  0  0  0  0  0  0  0  0  0  0
   -0.8416  -20.9020   25.8407 C   0  0  0  0  0  0  0  0  0  0  0  0
   -0.0614  -20.1297   26.6073 N   0  0  0  0  0  0  0  0  0  0  0  0
  1  2  1  0  0  0  0
  1  7  1  0  0  0  0
  2  3  1  0  0  0  0
  2  4  2  0  0  0  0
  4  5  1  0  0  0  0
  5  6  2  0  0  0  0
  5 11  1  0  0  0  0
  6  7  1  0  0  0  0
  6  9  1  0  0  0  0
  7  8  2  0  0  0  0
  9 10  2  0  0  0  0
 10 11  1  0  0  0  0
M  END
>  <CHROM.1>
1.90101499,-20.32834249,25.26232633,-0.15627507,-0.28209339,-2.15255532

>  <Name>
ligand

>  <RI>
0

>  <Rbt.Current_Directory>
/home/itssahil/PROJECTS/Mol_Feturizer/New_Systems/rnas/4LVW

>  <Rbt.Executable>
rbdock ($Id: //depot/dev/client3/rdock/2013.1/src/exe/rbdock.cxx#4 $)

>  <Rbt.Library>
libRbt.so (2013.1, Build901 2013/11/27)

>  <Rbt.Parameter_File>
/export/apps/rDock/src/rDock_2013.1_src/data/scripts/dock_solv.prm

>  <Rbt.Receptor>
prm/pocket_docking_5.prm

>  <SCORE>
-13.1022

>  <SCORE.INTER>
-13.1022

>  <SCORE.INTER.CONST>
1

>  <SCORE.INTER.POLAR>
0

>  <SCORE.INTER.ROT>
0

>  <SCORE.INTER.SOLV>
6.39762

>  <SCORE.INTER.VDW>
-14.4674

>  <SCORE.INTER.norm>
-1.19111

>  <SCORE.INTRA>
0

>  <SCORE.INTRA.DIHEDRAL>
0

>  <SCORE.INTRA.DIHEDRAL.0>
0

>  <SCORE.INTRA.POLAR>
0

>  <SCORE.INTRA.POLAR.0>
0

>  <SCORE.INTRA.REPUL>
0

>  <SCORE.INTRA.REPUL.0>
0

>  <SCORE.INTRA.SOLV>
0

>  <SCORE.INTRA.SOLV.lig_0>
-29.307

>  <SCORE.INTRA.VDW>
0

>  <SCORE.INTRA.VDW.0>
0

>  <SCORE.INTRA.norm>
0

>  <SCORE.RESTR>
0

>  <SCORE.RESTR.CAVITY>
0

>  <SCORE.RESTR.norm>
0

>  <SCORE.SYSTEM>
0

>  <SCORE.SYSTEM.CONST>
0

>  <SCORE.SYSTEM.DIHEDRAL>
0

>  <SCORE.SYSTEM.SOLV>
0

>  <SCORE.SYSTEM.norm>
0

>  <SCORE.heavy>
11

>  <SCORE.norm>
-1.19111

>  <RMSD>
4.070

$$$$
ligand
 OpenBabel11021811503D
libRbt.so/2013.1/901 2013/11/27
 11 12  0  0  0  0  0  0  0  0999 V2000
    3.5358  -20.2104   24.5794 N   0  0  0  0  0  0  0  0  0  0  0  0
    3.4698  -19.4817   25.7076 C   0  0  0  0  0  0  0  0  0  0  0  0
    4.6174  -18.7749   26.1776 N   0  0  0  0  0  0  0  0  0  0  0  0
    2.3455  -19.3811   26.4229 N   0  0  0  0  0  0  0  0  0  0  0  0
    1.2018  -20.0411   26.0424 C   0  0  0  0  0  0  0  0  0  0  0  0
    1.2291  -20.7975   24.8909 C   0  0  0  0  0  0  0  0  0  0  0  0
    2.4376  -20.8711   24.1400 C   0  0  0  0  0  0  0  0  0  0  0  0
    2.4796  -21.6271   22.9898 O   0  0  0  0  0  0  0  0  0  0  0  0
   -0.0830  -21.3485   24.7392 C   0  0  0  0  0  0  0  0  0  0  0  0
   -0.8356  -20.8898   25.8293 C   0  0  0  0  0  0  0  0  0  0  0  0
   -0.0572  -20.1148   26.5951 N   0  0  0  0  0  0  0  0  0  0  0  0
  1  2  1  0  0  0  0
  1  7  1  0  0  0  0
  2  3  1  0  0  0  0
  2  4  2  0  0  0  0
  4  5  1  0  0  0  0
  5  6  2  0  0  0  0
  5 11  1  0  0  0  0
  6  7  1  0  0  0  0
  6  9  1  0  0  0  0
  7  8  2  0  0  0  0
  9 10  2  0  0  0  0
 10 11  1  0  0  0  0
M  END
>  <CHROM.1>
1.90878901,-20.31892348,25.25622581,-0.15850178,-0.28040194,-2.15691320

>  <Name>
ligand

>  <RI>
0

>  <Rbt.Current_Directory>
/home/itssahil/PROJECTS/Mol_Feturizer/New_Systems/rnas/4LVW

>  <Rbt.Executable>
rbdock ($Id: //depot/dev/client3/rdock/2013.1/src/exe/rbdock.cxx#4 $)

>  <Rbt.Library>
libRbt.so (2013.1, Build901 2013/11/27)

>  <Rbt.Parameter_File>
/export/apps/rDock/src/rDock_2013.1_src/data/scripts/dock_solv.prm

>  <Rbt.Receptor>
prm/pocket_docking_5.prm

>  <SCORE>
-13.1019

>  <SCORE.INTER>
-13.1019

>  <SCORE.INTER.CONST>
1

>  <SCORE.INTER.POLAR>
0

>  <SCORE.INTER.ROT>
0

>  <SCORE.INTER.SOLV>
6.41745

>  <SCORE.INTER.VDW>
-14.4737

>  <SCORE.INTER.norm>
-1.19108

>  <SCORE.INTRA>
0

>  <SCORE.INTRA.DIHEDRAL>
0

>  <SCORE.INTRA.DIHEDRAL.0>
0

>  <SCORE.INTRA.POLAR>
0

>  <SCORE.INTRA.POLAR.0>
0

>  <SCORE.INTRA.REPUL>
0

>  <SCORE.INTRA.REPUL.0>
0

>  <SCORE.INTRA.SOLV>
0

>  <SCORE.INTRA.SOLV.lig_0>
-29.307

>  <SCORE.INTRA.VDW>
0

>  <SCORE.INTRA.VDW.0>
0

>  <SCORE.INTRA.norm>
0

>  <SCORE.RESTR>
0

>  <SCORE.RESTR.CAVITY>
0

>  <SCORE.RESTR.norm>
0

>  <SCORE.SYSTEM>
0

>  <SCORE.SYSTEM.CONST>
0

>  <SCORE.SYSTEM.DIHEDRAL>
0

>  <SCORE.SYSTEM.SOLV>
0

>  <SCORE.SYSTEM.norm>
0

>  <SCORE.heavy>
11

>  <SCORE.norm>
-1.19108

>  <RMSD>
4.070

$$$$
ligand
 OpenBabel11021811503D
libRbt.so/2013.1/901 2013/11/27
 11 12  0  0  0  0  0  0  0  0999 V2000
    3.5342  -20.2156   24.5802 N   0  0  0  0  0  0  0  0  0  0  0  0
    3.4685  -19.4860   25.7078 C   0  0  0  0  0  0  0  0  0  0  0  0
    4.6164  -18.7794   26.1774 N   0  0  0  0  0  0  0  0  0  0  0  0
    2.3443  -19.3844   26.4230 N   0  0  0  0  0  0  0  0  0  0  0  0
    1.2003  -20.0442   26.0430 C   0  0  0  0  0  0  0  0  0  0  0  0
    1.2273  -20.8014   24.8921 C   0  0  0  0  0  0  0  0  0  0  0  0
    2.4357  -20.8761   24.1413 C   0  0  0  0  0  0  0  0  0  0  0  0
    2.4774  -21.6329   22.9916 O   0  0  0  0  0  0  0  0  0  0  0  0
   -0.0851  -21.3519   24.7407 C   0  0  0  0  0  0  0  0  0  0  0  0
   -0.8375  -20.8920   25.8305 C   0  0  0  0  0  0  0  0  0  0  0  0
   -0.0588  -20.1169   26.5957 N   0  0  0  0  0  0  0  0  0  0  0  0
  1  2  1  0  0  0  0
  1  7  1  0  0  0  0
  2  3  1  0  0  0  0
  2  4  2  0  0  0  0
  4  5  1  0  0  0  0
  5  6  2  0  0  0  0
  5 11  1  0  0  0  0
  6  7  1  0  0  0  0
  6  9  1  0  0  0  0
  7  8  2  0  0  0  0
  9 10  2  0  0  0  0
 10 11  1  0  0  0  0
M  END
>  <CHROM.1>
1.90716150,-20.32286987,25.25706557,-0.15825560,-0.27999809,-2.15758771

>  <Name>
ligand

>  <RI>
0

>  <Rbt.Current_Directory>
/home/itssahil/PROJECTS/Mol_Feturizer/New_Systems/rnas/4LVW

>  <Rbt.Executable>
rbdock ($Id: //depot/dev/client3/rdock/2013.1/src/exe/rbdock.cxx#4 $)

>  <Rbt.Library>
libRbt.so (2013.1, Build901 2013/11/27)

>  <Rbt.Parameter_File>
/export/apps/rDock/src/rDock_2013.1_src/data/scripts/dock_solv.prm

>  <Rbt.Receptor>
prm/pocket_docking_6.prm

>  <SCORE>
-13.1011

>  <SCORE.INTER>
-13.1011

>  <SCORE.INTER.CONST>
1

>  <SCORE.INTER.POLAR>
0

>  <SCORE.INTER.ROT>
0

>  <SCORE.INTER.SOLV>
6.40274

>  <SCORE.INTER.VDW>
-14.4683

>  <SCORE.INTER.norm>
-1.19101

>  <SCORE.INTRA>
0

>  <SCORE.INTRA.DIHEDRAL>
0

>  <SCORE.INTRA.DIHEDRAL.0>
0

>  <SCORE.INTRA.POLAR>
0

>  <SCORE.INTRA.POLAR.0>
0

>  <SCORE.INTRA.REPUL>
0

>  <SCORE.INTRA.REPUL.0>
0

>  <SCORE.INTRA.SOLV>
0

>  <SCORE.INTRA.SOLV.lig_0>
-29.307

>  <SCORE.INTRA.VDW>
0

>  <SCORE.INTRA.VDW.0>
0

>  <SCORE.INTRA.norm>
0

>  <SCORE.RESTR>
0

>  <SCORE.RESTR.CAVITY>
0

>  <SCORE.RESTR.norm>
0

>  <SCORE.SYSTEM>
0

>  <SCORE.SYSTEM.CONST>
0

>  <SCORE.SYSTEM.DIHEDRAL>
0

>  <SCORE.SYSTEM.SOLV>
0

>  <SCORE.SYSTEM.norm>
0

>  <SCORE.heavy>
11

>  <SCORE.norm>
-1.19101

>  <RMSD>
4.070

$$$$
ligand
 OpenBabel11021811503D
libRbt.so/2013.1/901 2013/11/27
 11 12  0  0  0  0  0  0  0  0999 V2000
    3.4748  -20.2657   24.5851 N   0  0  0  0  0  0  0  0  0  0  0  0
    3.3986  -19.4984   25.6867 C   0  0  0  0  0  0  0  0  0  0  0  0
    4.5402  -18.7702   26.1385 N   0  0  0  0  0  0  0  0  0  0  0  0
    2.2696  -19.3783   26.3915 N   0  0  0  0  0  0  0  0  0  0  0  0
    1.1312  -20.0566   26.0276 C   0  0  0  0  0  0  0  0  0  0  0  0
    1.1689  -20.8525   24.9034 C   0  0  0  0  0  0  0  0  0  0  0  0
    2.3823  -20.9466   24.1626 C   0  0  0  0  0  0  0  0  0  0  0  0
    2.4346  -21.7420   23.0398 O   0  0  0  0  0  0  0  0  0  0  0  0
   -0.1397  -21.4147   24.7633 C   0  0  0  0  0  0  0  0  0  0  0  0
   -0.9009  -20.9218   25.8322 C   0  0  0  0  0  0  0  0  0  0  0  0
   -0.1307  -20.1169   26.5751 N   0  0  0  0  0  0  0  0  0  0  0  0
  1  2  1  0  0  0  0
  1  7  1  0  0  0  0
  2  3  1  0  0  0  0
  2  4  2  0  0  0  0
  4  5  1  0  0  0  0
  5  6  2  0  0  0  0
  5 11  1  0  0  0  0
  6  7  1  0  0  0  0
  6  9  1  0  0  0  0
  7  8  2  0  0  0  0
  9 10  2  0  0  0  0
 10 11  1  0  0  0  0
M  END
>  <CHROM.1>
1.84422354,-20.35826123,25.25573613,-0.16634325,-0.28082412,-2.19400685

>  <Name>
ligand

>  <RI>
0

>  <Rbt.Current_Directory>
/home/itssahil/PROJECTS/Mol_Feturizer/New_Systems/rnas/4LVW

>  <Rbt.Executable>
rbdock ($Id: //depot/dev/client3/rdock/2013.1/src/exe/rbdock.cxx#4 $)

>  <Rbt.Library>
libRbt.so (2013.1, Build901 2013/11/27)

>  <Rbt.Parameter_File>
/export/apps/rDock/src/rDock_2013.1_src/data/scripts/dock_solv.prm

>  <Rbt.Receptor>
prm/pocket_docking_6.prm

>  <SCORE>
-13.0498

>  <SCORE.INTER>
-13.0498

>  <SCORE.INTER.CONST>
1

>  <SCORE.INTER.POLAR>
0

>  <SCORE.INTER.ROT>
0

>  <SCORE.INTER.SOLV>
6.54975

>  <SCORE.INTER.VDW>
-14.4831

>  <SCORE.INTER.norm>
-1.18634

>  <SCORE.INTRA>
0

>  <SCORE.INTRA.DIHEDRAL>
0

>  <SCORE.INTRA.DIHEDRAL.0>
0

>  <SCORE.INTRA.POLAR>
0

>  <SCORE.INTRA.POLAR.0>
0

>  <SCORE.INTRA.REPUL>
0

>  <SCORE.INTRA.REPUL.0>
0

>  <SCORE.INTRA.SOLV>
0

>  <SCORE.INTRA.SOLV.lig_0>
-29.307

>  <SCORE.INTRA.VDW>
0

>  <SCORE.INTRA.VDW.0>
0

>  <SCORE.INTRA.norm>
0

>  <SCORE.RESTR>
0

>  <SCORE.RESTR.CAVITY>
0

>  <SCORE.RESTR.norm>
0

>  <SCORE.SYSTEM>
0

>  <SCORE.SYSTEM.CONST>
0

>  <SCORE.SYSTEM.DIHEDRAL>
0

>  <SCORE.SYSTEM.SOLV>
0

>  <SCORE.SYSTEM.norm>
0

>  <SCORE.heavy>
11

>  <SCORE.norm>
-1.18634

>  <RMSD>
4.070

$$$$
ligand
 OpenBabel11021811503D
libRbt.so/2013.1/901 2013/11/27
 11 12  0  0  0  0  0  0  0  0999 V2000
    3.5332  -20.2051   24.5779 N   0  0  0  0  0  0  0  0  0  0  0  0
    3.4678  -19.4786   25.7077 C   0  0  0  0  0  0  0  0  0  0  0  0
    4.6149  -18.7706   26.1771 N   0  0  0  0  0  0  0  0  0  0  0  0
    2.3446  -19.3816   26.4252 N   0  0  0  0  0  0  0  0  0  0  0  0
    1.2015  -20.0431   26.0455 C   0  0  0  0  0  0  0  0  0  0  0  0
    1.2282  -20.7972   24.8925 C   0  0  0  0  0  0  0  0  0  0  0  0
    2.4354  -20.8670   24.1393 C   0  0  0  0  0  0  0  0  0  0  0  0
    2.4768  -21.6206   22.9875 O   0  0  0  0  0  0  0  0  0  0  0  0
   -0.0831  -21.3504   24.7420 C   0  0  0  0  0  0  0  0  0  0  0  0
   -0.8346  -20.8952   25.8343 C   0  0  0  0  0  0  0  0  0  0  0  0
   -0.0564  -20.1202   26.6003 N   0  0  0  0  0  0  0  0  0  0  0  0
  1  2  1  0  0  0  0
  1  7  1  0  0  0  0
  2  3  1  0  0  0  0
  2  4  2  0  0  0  0
  4  5  1  0  0  0  0
  5  6  2  0  0  0  0
  5 11  1  0  0  0  0
  6  7  1  0  0  0  0
  6  9  1  0  0  0  0
  7  8  2  0  0  0  0
  9 10  2  0  0  0  0
 10 11  1  0  0  0  0
M  END
>  <CHROM.1>
1.90759098,-20.31797481,25.25748339,-0.15803666,-0.28297409,-2.15482448

>  <Name>
ligand

>  <RI>
0

>  <Rbt.Current_Directory>
/home/itssahil/PROJECTS/Mol_Feturizer/New_Systems/rnas/4LVW

>  <Rbt.Executable>
rbdock ($Id: //depot/dev/client3/rdock/2013.1/src/exe/rbdock.cxx#4 $)

>  <Rbt.Library>
libRbt.so (2013.1, Build901 2013/11/27)

>  <Rbt.Parameter_File>
/export/apps/rDock/src/rDock_2013.1_src/data/scripts/dock_solv.prm

>  <Rbt.Receptor>
prm/pocket_docking_6.prm

>  <SCORE>
-13.1038

>  <SCORE.INTER>
-13.1038

>  <SCORE.INTER.CONST>
1

>  <SCORE.INTER.POLAR>
0

>  <SCORE.INTER.ROT>
0

>  <SCORE.INTER.SOLV>
6.43656

>  <SCORE.INTER.VDW>
-14.4814

>  <SCORE.INTER.norm>
-1.19125

>  <SCORE.INTRA>
0

>  <SCORE.INTRA.DIHEDRAL>
0

>  <SCORE.INTRA.DIHEDRAL.0>
0

>  <SCORE.INTRA.POLAR>
0

>  <SCORE.INTRA.POLAR.0>
0

>  <SCORE.INTRA.REPUL>
0

>  <SCORE.INTRA.REPUL.0>
0

>  <SCORE.INTRA.SOLV>
0

>  <SCORE.INTRA.SOLV.lig_0>
-29.307

>  <SCORE.INTRA.VDW>
0

>  <SCORE.INTRA.VDW.0>
0

>  <SCORE.INTRA.norm>
0

>  <SCORE.RESTR>
0

>  <SCORE.RESTR.CAVITY>
0

>  <SCORE.RESTR.norm>
0

>  <SCORE.SYSTEM>
0

>  <SCORE.SYSTEM.CONST>
0

>  <SCORE.SYSTEM.DIHEDRAL>
0

>  <SCORE.SYSTEM.SOLV>
0

>  <SCORE.SYSTEM.norm>
0

>  <SCORE.heavy>
11

>  <SCORE.norm>
-1.19125

>  <RMSD>
4.070

$$$$
ligand
 OpenBabel11021811503D
libRbt.so/2013.1/901 2013/11/27
 11 12  0  0  0  0  0  0  0  0999 V2000
    3.5331  -20.2020   24.5787 N   0  0  0  0  0  0  0  0  0  0  0  0
    3.4683  -19.4781   25.7101 C   0  0  0  0  0  0  0  0  0  0  0  0
    4.6157  -18.7713   26.1805 N   0  0  0  0  0  0  0  0  0  0  0  0
    2.3455  -19.3826   26.4285 N   0  0  0  0  0  0  0  0  0  0  0  0
    1.2022  -20.0431   26.0479 C   0  0  0  0  0  0  0  0  0  0  0  0
    1.2282  -20.7946   24.8932 C   0  0  0  0  0  0  0  0  0  0  0  0
    2.4350  -20.8629   24.1392 C   0  0  0  0  0  0  0  0  0  0  0  0
    2.4757  -21.6139   22.9857 O   0  0  0  0  0  0  0  0  0  0  0  0
   -0.0833  -21.3474   24.7422 C   0  0  0  0  0  0  0  0  0  0  0  0
   -0.8341  -20.8946   25.8359 C   0  0  0  0  0  0  0  0  0  0  0  0
   -0.0554  -20.1214   26.6032 N   0  0  0  0  0  0  0  0  0  0  0  0
  1  2  1  0  0  0  0
  1  7  1  0  0  0  0
  2  3  1  0  0  0  0
  2  4  2  0  0  0  0
  4  5  1  0  0  0  0
  5  6  2  0  0  0  0
  5 11  1  0  0  0  0
  6  7  1  0  0  0  0
  6  9  1  0  0  0  0
  7  8  2  0  0  0  0
  9 10  2  0  0  0  0
 10 11  1  0  0  0  0
M  END
>  <CHROM.1>
1.90783417,-20.31633196,25.25888395,-0.15752331,-0.28320522,-2.15244016

>  <Name>
ligand

>  <RI>
0

>  <Rbt.Current_Directory>
/home/itssahil/PROJECTS/Mol_Feturizer/New_Systems/rnas/4LVW

>  <Rbt.Executable>
rbdock ($Id: //depot/dev/client3/rdock/2013.1/src/exe/rbdock.cxx#4 $)

>  <Rbt.Library>
libRbt.so (2013.1, Build901 2013/11/27)

>  <Rbt.Parameter_File>
/export/apps/rDock/src/rDock_2013.1_src/data/scripts/dock_solv.prm

>  <Rbt.Receptor>
prm/pocket_docking_6.prm

>  <SCORE>
-13.1055

>  <SCORE.INTER>
-13.1055

>  <SCORE.INTER.CONST>
1

>  <SCORE.INTER.POLAR>
0

>  <SCORE.INTER.ROT>
0

>  <SCORE.INTER.SOLV>
6.44116

>  <SCORE.INTER.VDW>
-14.484

>  <SCORE.INTER.norm>
-1.19141

>  <SCORE.INTRA>
0

>  <SCORE.INTRA.DIHEDRAL>
0

>  <SCORE.INTRA.DIHEDRAL.0>
0

>  <SCORE.INTRA.POLAR>
0

>  <SCORE.INTRA.POLAR.0>
0

>  <SCORE.INTRA.REPUL>
0

>  <SCORE.INTRA.REPUL.0>
0

>  <SCORE.INTRA.SOLV>
0

>  <SCORE.INTRA.SOLV.lig_0>
-29.307

>  <SCORE.INTRA.VDW>
0

>  <SCORE.INTRA.VDW.0>
0

>  <SCORE.INTRA.norm>
0

>  <SCORE.RESTR>
0

>  <SCORE.RESTR.CAVITY>
0

>  <SCORE.RESTR.norm>
0

>  <SCORE.SYSTEM>
0

>  <SCORE.SYSTEM.CONST>
0

>  <SCORE.SYSTEM.DIHEDRAL>
0

>  <SCORE.SYSTEM.SOLV>
0

>  <SCORE.SYSTEM.norm>
0

>  <SCORE.heavy>
11

>  <SCORE.norm>
-1.19141

>  <RMSD>
4.070

$$$$
ligand
 OpenBabel11021811503D
libRbt.so/2013.1/901 2013/11/27
 11 12  0  0  0  0  0  0  0  0999 V2000
    3.5250  -20.1634   24.5702 N   0  0  0  0  0  0  0  0  0  0  0  0
    3.4504  -19.4233   25.6904 C   0  0  0  0  0  0  0  0  0  0  0  0
    4.5879  -18.6934   26.1495 N   0  0  0  0  0  0  0  0  0  0  0  0
    2.3265  -19.3324   26.4076 N   0  0  0  0  0  0  0  0  0  0  0  0
    1.1924  -20.0146   26.0376 C   0  0  0  0  0  0  0  0  0  0  0  0
    1.2287  -20.7832   24.8945 C   0  0  0  0  0  0  0  0  0  0  0  0
    2.4362  -20.8462   24.1412 C   0  0  0  0  0  0  0  0  0  0  0  0
    2.4872  -21.6141   22.9993 O   0  0  0  0  0  0  0  0  0  0  0  0
   -0.0750  -21.3565   24.7525 C   0  0  0  0  0  0  0  0  0  0  0  0
   -0.8319  -20.8975   25.8394 C   0  0  0  0  0  0  0  0  0  0  0  0
   -0.0639  -20.1019   26.5945 N   0  0  0  0  0  0  0  0  0  0  0  0
  1  2  1  0  0  0  0
  1  7  1  0  0  0  0
  2  3  1  0  0  0  0
  2  4  2  0  0  0  0
  4  5  1  0  0  0  0
  5  6  2  0  0  0  0
  5 11  1  0  0  0  0
  6  7  1  0  0  0  0
  6  9  1  0  0  0  0
  7  8  2  0  0  0  0
  9 10  2  0  0  0  0
 10 11  1  0  0  0  0
M  END
>  <CHROM.1>
1.90163995,-20.28994901,25.25263389,-0.16539469,-0.29492181,-2.17000144

>  <Name>
ligand

>  <RI>
0

>  <Rbt.Current_Directory>
/home/itssahil/PROJECTS/Mol_Feturizer/New_Systems/rnas/4LVW

>  <Rbt.Executable>
rbdock ($Id: //depot/dev/client3/rdock/2013.1/src/exe/rbdock.cxx#4 $)

>  <Rbt.Library>
libRbt.so (2013.1, Build901 2013/11/27)

>  <Rbt.Parameter_File>
/export/apps/rDock/src/rDock_2013.1_src/data/scripts/dock_solv.prm

>  <Rbt.Receptor>
prm/pocket_docking_7.prm

>  <SCORE>
-13.072

>  <SCORE.INTER>
-13.072

>  <SCORE.INTER.CONST>
1

>  <SCORE.INTER.POLAR>
0

>  <SCORE.INTER.ROT>
0

>  <SCORE.INTER.SOLV>
6.69731

>  <SCORE.INTER.VDW>
-14.5471

>  <SCORE.INTER.norm>
-1.18836

>  <SCORE.INTRA>
0

>  <SCORE.INTRA.DIHEDRAL>
0

>  <SCORE.INTRA.DIHEDRAL.0>
0

>  <SCORE.INTRA.POLAR>
0

>  <SCORE.INTRA.POLAR.0>
0

>  <SCORE.INTRA.REPUL>
0

>  <SCORE.INTRA.REPUL.0>
0

>  <SCORE.INTRA.SOLV>
0

>  <SCORE.INTRA.SOLV.lig_0>
-29.307

>  <SCORE.INTRA.VDW>
0

>  <SCORE.INTRA.VDW.0>
0

>  <SCORE.INTRA.norm>
0

>  <SCORE.RESTR>
0

>  <SCORE.RESTR.CAVITY>
0

>  <SCORE.RESTR.norm>
0

>  <SCORE.SYSTEM>
0

>  <SCORE.SYSTEM.CONST>
0

>  <SCORE.SYSTEM.DIHEDRAL>
0

>  <SCORE.SYSTEM.SOLV>
0

>  <SCORE.SYSTEM.norm>
0

>  <SCORE.heavy>
11

>  <SCORE.norm>
-1.18836

>  <RMSD>
4.070

$$$$
ligand
 OpenBabel11021811503D
libRbt.so/2013.1/901 2013/11/27
 11 12  0  0  0  0  0  0  0  0999 V2000
    3.5302  -20.2223   24.5825 N   0  0  0  0  0  0  0  0  0  0  0  0
    3.4655  -19.4938   25.7109 C   0  0  0  0  0  0  0  0  0  0  0  0
    4.6141  -18.7883   26.1805 N   0  0  0  0  0  0  0  0  0  0  0  0
    2.3417  -19.3922   26.4269 N   0  0  0  0  0  0  0  0  0  0  0  0
    1.1971  -20.0509   26.0468 C   0  0  0  0  0  0  0  0  0  0  0  0
    1.2230  -20.8070   24.8951 C   0  0  0  0  0  0  0  0  0  0  0  0
    2.4310  -20.8817   24.1436 C   0  0  0  0  0  0  0  0  0  0  0  0
    2.4716  -21.6374   22.9931 O   0  0  0  0  0  0  0  0  0  0  0  0
   -0.0897  -21.3566   24.7440 C   0  0  0  0  0  0  0  0  0  0  0  0
   -0.8412  -20.8973   25.8346 C   0  0  0  0  0  0  0  0  0  0  0  0
   -0.0616  -20.1234   26.6002 N   0  0  0  0  0  0  0  0  0  0  0  0
  1  2  1  0  0  0  0
  1  7  1  0  0  0  0
  2  3  1  0  0  0  0
  2  4  2  0  0  0  0
  4  5  1  0  0  0  0
  5  6  2  0  0  0  0
  5 11  1  0  0  0  0
  6  7  1  0  0  0  0
  6  9  1  0  0  0  0
  7  8  2  0  0  0  0
  9 10  2  0  0  0  0
 10 11  1  0  0  0  0
M  END
>  <CHROM.1>
1.90342104,-20.32923442,25.26020313,-0.15741582,-0.27981044,-2.15636299

>  <Name>
ligand

>  <RI>
0

>  <Rbt.Current_Directory>
/home/itssahil/PROJECTS/Mol_Feturizer/New_Systems/rnas/4LVW

>  <Rbt.Executable>
rbdock ($Id: //depot/dev/client3/rdock/2013.1/src/exe/rbdock.cxx#4 $)

>  <Rbt.Library>
libRbt.so (2013.1, Build901 2013/11/27)

>  <Rbt.Parameter_File>
/export/apps/rDock/src/rDock_2013.1_src/data/scripts/dock_solv.prm

>  <Rbt.Receptor>
prm/pocket_docking_7.prm

>  <SCORE>
-13.1006

>  <SCORE.INTER>
-13.1006

>  <SCORE.INTER.CONST>
1

>  <SCORE.INTER.POLAR>
0

>  <SCORE.INTER.ROT>
0

>  <SCORE.INTER.SOLV>
6.38279

>  <SCORE.INTER.VDW>
-14.4613

>  <SCORE.INTER.norm>
-1.19096

>  <SCORE.INTRA>
0

>  <SCORE.INTRA.DIHEDRAL>
0

>  <SCORE.INTRA.DIHEDRAL.0>
0

>  <SCORE.INTRA.POLAR>
0

>  <SCORE.INTRA.POLAR.0>
0

>  <SCORE.INTRA.REPUL>
0

>  <SCORE.INTRA.REPUL.0>
0

>  <SCORE.INTRA.SOLV>
0

>  <SCORE.INTRA.SOLV.lig_0>
-29.307

>  <SCORE.INTRA.VDW>
0

>  <SCORE.INTRA.VDW.0>
0

>  <SCORE.INTRA.norm>
0

>  <SCORE.RESTR>
0

>  <SCORE.RESTR.CAVITY>
0

>  <SCORE.RESTR.norm>
0

>  <SCORE.SYSTEM>
0

>  <SCORE.SYSTEM.CONST>
0

>  <SCORE.SYSTEM.DIHEDRAL>
0

>  <SCORE.SYSTEM.SOLV>
0

>  <SCORE.SYSTEM.norm>
0

>  <SCORE.heavy>
11

>  <SCORE.norm>
-1.19096

>  <RMSD>
4.070

$$$$
ligand
 OpenBabel11021811503D
libRbt.so/2013.1/901 2013/11/27
 11 12  0  0  0  0  0  0  0  0999 V2000
    3.5308  -20.2062   24.5799 N   0  0  0  0  0  0  0  0  0  0  0  0
    3.4656  -19.4833   25.7120 C   0  0  0  0  0  0  0  0  0  0  0  0
    4.6126  -18.7762   26.1830 N   0  0  0  0  0  0  0  0  0  0  0  0
    2.3427  -19.3890   26.4303 N   0  0  0  0  0  0  0  0  0  0  0  0
    1.1997  -20.0498   26.0491 C   0  0  0  0  0  0  0  0  0  0  0  0
    1.2262  -20.8003   24.8937 C   0  0  0  0  0  0  0  0  0  0  0  0
    2.4332  -20.8672   24.1397 C   0  0  0  0  0  0  0  0  0  0  0  0
    2.4743  -21.6172   22.9856 O   0  0  0  0  0  0  0  0  0  0  0  0
   -0.0849  -21.3537   24.7421 C   0  0  0  0  0  0  0  0  0  0  0  0
   -0.8361  -20.9022   25.8362 C   0  0  0  0  0  0  0  0  0  0  0  0
   -0.0579  -20.1293   26.6042 N   0  0  0  0  0  0  0  0  0  0  0  0
  1  2  1  0  0  0  0
  1  7  1  0  0  0  0
  2  3  1  0  0  0  0
  2  4  2  0  0  0  0
  4  5  1  0  0  0  0
  5  6  2  0  0  0  0
  5 11  1  0  0  0  0
  6  7  1  0  0  0  0
  6  9  1  0  0  0  0
  7  8  2  0  0  0  0
  9 10  2  0  0  0  0
 10 11  1  0  0  0  0
M  END
>  <CHROM.1>
1.90557706,-20.32195204,25.25989264,-0.15791010,-0.28362342,-2.15169112

>  <Name>
ligand

>  <RI>
0

>  <Rbt.Current_Directory>
/home/itssahil/PROJECTS/Mol_Feturizer/New_Systems/rnas/4LVW

>  <Rbt.Executable>
rbdock ($Id: //depot/dev/client3/rdock/2013.1/src/exe/rbdock.cxx#4 $)

>  <Rbt.Library>
libRbt.so (2013.1, Build901 2013/11/27)

>  <Rbt.Parameter_File>
/export/apps/rDock/src/rDock_2013.1_src/data/scripts/dock_solv.prm

>  <Rbt.Receptor>
prm/pocket_docking_7.prm

>  <SCORE>
-13.1049

>  <SCORE.INTER>
-13.1049

>  <SCORE.INTER.CONST>
1

>  <SCORE.INTER.POLAR>
0

>  <SCORE.INTER.ROT>
0

>  <SCORE.INTER.SOLV>
6.43274

>  <SCORE.INTER.VDW>
-14.4808

>  <SCORE.INTER.norm>
-1.19135

>  <SCORE.INTRA>
0

>  <SCORE.INTRA.DIHEDRAL>
0

>  <SCORE.INTRA.DIHEDRAL.0>
0

>  <SCORE.INTRA.POLAR>
0

>  <SCORE.INTRA.POLAR.0>
0

>  <SCORE.INTRA.REPUL>
0

>  <SCORE.INTRA.REPUL.0>
0

>  <SCORE.INTRA.SOLV>
0

>  <SCORE.INTRA.SOLV.lig_0>
-29.307

>  <SCORE.INTRA.VDW>
0

>  <SCORE.INTRA.VDW.0>
0

>  <SCORE.INTRA.norm>
0

>  <SCORE.RESTR>
0

>  <SCORE.RESTR.CAVITY>
0

>  <SCORE.RESTR.norm>
0

>  <SCORE.SYSTEM>
0

>  <SCORE.SYSTEM.CONST>
0

>  <SCORE.SYSTEM.DIHEDRAL>
0

>  <SCORE.SYSTEM.SOLV>
0

>  <SCORE.SYSTEM.norm>
0

>  <SCORE.heavy>
11

>  <SCORE.norm>
-1.19135

>  <RMSD>
4.070

$$$$
ligand
 OpenBabel11021811503D
libRbt.so/2013.1/901 2013/11/27
 11 12  0  0  0  0  0  0  0  0999 V2000
    3.5341  -20.2070   24.5770 N   0  0  0  0  0  0  0  0  0  0  0  0
    3.4696  -19.4792   25.7058 C   0  0  0  0  0  0  0  0  0  0  0  0
    4.6176  -18.7718   26.1742 N   0  0  0  0  0  0  0  0  0  0  0  0
    2.3467  -19.3801   26.4234 N   0  0  0  0  0  0  0  0  0  0  0  0
    1.2028  -20.0408   26.0447 C   0  0  0  0  0  0  0  0  0  0  0  0
    1.2285  -20.7963   24.8926 C   0  0  0  0  0  0  0  0  0  0  0  0
    2.4356  -20.8683   24.1393 C   0  0  0  0  0  0  0  0  0  0  0  0
    2.4760  -21.6234   22.9884 O   0  0  0  0  0  0  0  0  0  0  0  0
   -0.0834  -21.3483   24.7430 C   0  0  0  0  0  0  0  0  0  0  0  0
   -0.8342  -20.8910   25.8349 C   0  0  0  0  0  0  0  0  0  0  0  0
   -0.0550  -20.1160   26.5997 N   0  0  0  0  0  0  0  0  0  0  0  0
  1  2  1  0  0  0  0
  1  7  1  0  0  0  0
  2  3  1  0  0  0  0
  2  4  2  0  0  0  0
  4  5  1  0  0  0  0
  5  6  2  0  0  0  0
  5 11  1  0  0  0  0
  6  7  1  0  0  0  0
  6  9  1  0  0  0  0
  7  8  2  0  0  0  0
  9 10  2  0  0  0  0
 10 11  1  0  0  0  0
M  END
>  <CHROM.1>
1.90850208,-20.31741042,25.25690985,-0.15730493,-0.28217863,-2.15583772

>  <Name>
ligand

>  <RI>
0

>  <Rbt.Current_Directory>
/home/itssahil/PROJECTS/Mol_Feturizer/New_Systems/rnas/4LVW

>  <Rbt.Executable>
rbdock ($Id: //depot/dev/client3/rdock/2013.1/src/exe/rbdock.cxx#4 $)

>  <Rbt.Library>
libRbt.so (2013.1, Build901 2013/11/27)

>  <Rbt.Parameter_File>
/export/apps/rDock/src/rDock_2013.1_src/data/scripts/dock_solv.prm

>  <Rbt.Receptor>
prm/pocket_docking_8.prm

>  <SCORE>
-13.1041

>  <SCORE.INTER>
-13.1041

>  <SCORE.INTER.CONST>
1

>  <SCORE.INTER.POLAR>
0

>  <SCORE.INTER.ROT>
0

>  <SCORE.INTER.SOLV>
6.42274

>  <SCORE.INTER.VDW>
-14.477

>  <SCORE.INTER.norm>
-1.19128

>  <SCORE.INTRA>
0

>  <SCORE.INTRA.DIHEDRAL>
0

>  <SCORE.INTRA.DIHEDRAL.0>
0

>  <SCORE.INTRA.POLAR>
0

>  <SCORE.INTRA.POLAR.0>
0

>  <SCORE.INTRA.REPUL>
0

>  <SCORE.INTRA.REPUL.0>
0

>  <SCORE.INTRA.SOLV>
0

>  <SCORE.INTRA.SOLV.lig_0>
-29.307

>  <SCORE.INTRA.VDW>
0

>  <SCORE.INTRA.VDW.0>
0

>  <SCORE.INTRA.norm>
0

>  <SCORE.RESTR>
0

>  <SCORE.RESTR.CAVITY>
0

>  <SCORE.RESTR.norm>
0

>  <SCORE.SYSTEM>
0

>  <SCORE.SYSTEM.CONST>
0

>  <SCORE.SYSTEM.DIHEDRAL>
0

>  <SCORE.SYSTEM.SOLV>
0

>  <SCORE.SYSTEM.norm>
0

>  <SCORE.heavy>
11

>  <SCORE.norm>
-1.19128

>  <RMSD>
4.070

$$$$
ligand
 OpenBabel11021811503D
libRbt.so/2013.1/901 2013/11/27
 11 12  0  0  0  0  0  0  0  0999 V2000
    3.5299  -20.2094   24.5832 N   0  0  0  0  0  0  0  0  0  0  0  0
    3.4643  -19.4825   25.7126 C   0  0  0  0  0  0  0  0  0  0  0  0
    4.6117  -18.7756   26.1828 N   0  0  0  0  0  0  0  0  0  0  0  0
    2.3405  -19.3840   26.4291 N   0  0  0  0  0  0  0  0  0  0  0  0
    1.1970  -20.0443   26.0485 C   0  0  0  0  0  0  0  0  0  0  0  0
    1.2239  -20.7988   24.8958 C   0  0  0  0  0  0  0  0  0  0  0  0
    2.4318  -20.8702   24.1438 C   0  0  0  0  0  0  0  0  0  0  0  0
    2.4733  -21.6243   22.9923 O   0  0  0  0  0  0  0  0  0  0  0  0
   -0.0879  -21.3506   24.7444 C   0  0  0  0  0  0  0  0  0  0  0  0
   -0.8398  -20.8942   25.8358 C   0  0  0  0  0  0  0  0  0  0  0  0
   -0.0614  -20.1198   26.6022 N   0  0  0  0  0  0  0  0  0  0  0  0
  1  2  1  0  0  0  0
  1  7  1  0  0  0  0
  2  3  1  0  0  0  0
  2  4  2  0  0  0  0
  4  5  1  0  0  0  0
  5  6  2  0  0  0  0
  5 11  1  0  0  0  0
  6  7  1  0  0  0  0
  6  9  1  0  0  0  0
  7  8  2  0  0  0  0
  9 10  2  0  0  0  0
 10 11  1  0  0  0  0
M  END
>  <CHROM.1>
1.90355364,-20.32025009,25.26129331,-0.15818253,-0.28153633,-2.15521762

>  <Name>
ligand

>  <RI>
0

>  <Rbt.Current_Directory>
/home/itssahil/PROJECTS/Mol_Feturizer/New_Systems/rnas/4LVW

>  <Rbt.Executable>
rbdock ($Id: //depot/dev/client3/rdock/2013.1/src/exe/rbdock.cxx#4 $)

>  <Rbt.Library>
libRbt.so (2013.1, Build901 2013/11/27)

>  <Rbt.Parameter_File>
/export/apps/rDock/src/rDock_2013.1_src/data/scripts/dock_solv.prm

>  <Rbt.Receptor>
prm/pocket_docking_8.prm

>  <SCORE>
-13.1024

>  <SCORE.INTER>
-13.1024

>  <SCORE.INTER.CONST>
1

>  <SCORE.INTER.POLAR>
0

>  <SCORE.INTER.ROT>
0

>  <SCORE.INTER.SOLV>
6.43801

>  <SCORE.INTER.VDW>
-14.4809

>  <SCORE.INTER.norm>
-1.19112

>  <SCORE.INTRA>
0

>  <SCORE.INTRA.DIHEDRAL>
0

>  <SCORE.INTRA.DIHEDRAL.0>
0

>  <SCORE.INTRA.POLAR>
0

>  <SCORE.INTRA.POLAR.0>
0

>  <SCORE.INTRA.REPUL>
0

>  <SCORE.INTRA.REPUL.0>
0

>  <SCORE.INTRA.SOLV>
0

>  <SCORE.INTRA.SOLV.lig_0>
-29.307

>  <SCORE.INTRA.VDW>
0

>  <SCORE.INTRA.VDW.0>
0

>  <SCORE.INTRA.norm>
0

>  <SCORE.RESTR>
0

>  <SCORE.RESTR.CAVITY>
0

>  <SCORE.RESTR.norm>
0

>  <SCORE.SYSTEM>
0

>  <SCORE.SYSTEM.CONST>
0

>  <SCORE.SYSTEM.DIHEDRAL>
0

>  <SCORE.SYSTEM.SOLV>
0

>  <SCORE.SYSTEM.norm>
0

>  <SCORE.heavy>
11

>  <SCORE.norm>
-1.19112

>  <RMSD>
4.070

$$$$
ligand
 OpenBabel11021811503D
libRbt.so/2013.1/901 2013/11/27
 11 12  0  0  0  0  0  0  0  0999 V2000
    3.5312  -20.2017   24.5771 N   0  0  0  0  0  0  0  0  0  0  0  0
    3.4659  -19.4772   25.7080 C   0  0  0  0  0  0  0  0  0  0  0  0
    4.6124  -18.7681   26.1773 N   0  0  0  0  0  0  0  0  0  0  0  0
    2.3433  -19.3831   26.4269 N   0  0  0  0  0  0  0  0  0  0  0  0
    1.2009  -20.0458   26.0474 C   0  0  0  0  0  0  0  0  0  0  0  0
    1.2275  -20.7981   24.8932 C   0  0  0  0  0  0  0  0  0  0  0  0
    2.4341  -20.8647   24.1386 C   0  0  0  0  0  0  0  0  0  0  0  0
    2.4754  -21.6164   22.9855 O   0  0  0  0  0  0  0  0  0  0  0  0
   -0.0830  -21.3531   24.7433 C   0  0  0  0  0  0  0  0  0  0  0  0
   -0.8341  -20.9009   25.8372 C   0  0  0  0  0  0  0  0  0  0  0  0
   -0.0562  -20.1259   26.6035 N   0  0  0  0  0  0  0  0  0  0  0  0
  1  2  1  0  0  0  0
  1  7  1  0  0  0  0
  2  3  1  0  0  0  0
  2  4  2  0  0  0  0
  4  5  1  0  0  0  0
  5  6  2  0  0  0  0
  5 11  1  0  0  0  0
  6  7  1  0  0  0  0
  6  9  1  0  0  0  0
  7  8  2  0  0  0  0
  9 10  2  0  0  0  0
 10 11  1  0  0  0  0
M  END
>  <CHROM.1>
1.90657267,-20.31834703,25.25821687,-0.15800889,-0.28493417,-2.15323451

>  <Name>
ligand

>  <RI>
0

>  <Rbt.Current_Directory>
/home/itssahil/PROJECTS/Mol_Feturizer/New_Systems/rnas/4LVW

>  <Rbt.Executable>
rbdock ($Id: //depot/dev/client3/rdock/2013.1/src/exe/rbdock.cxx#4 $)

>  <Rbt.Library>
libRbt.so (2013.1, Build901 2013/11/27)

>  <Rbt.Parameter_File>
/export/apps/rDock/src/rDock_2013.1_src/data/scripts/dock_solv.prm

>  <Rbt.Receptor>
prm/pocket_docking_8.prm

>  <SCORE>
-13.1043

>  <SCORE.INTER>
-13.1043

>  <SCORE.INTER.CONST>
1

>  <SCORE.INTER.POLAR>
0

>  <SCORE.INTER.ROT>
0

>  <SCORE.INTER.SOLV>
6.45036

>  <SCORE.INTER.VDW>
-14.4863

>  <SCORE.INTER.norm>
-1.1913

>  <SCORE.INTRA>
0

>  <SCORE.INTRA.DIHEDRAL>
0

>  <SCORE.INTRA.DIHEDRAL.0>
0

>  <SCORE.INTRA.POLAR>
0

>  <SCORE.INTRA.POLAR.0>
0

>  <SCORE.INTRA.REPUL>
0

>  <SCORE.INTRA.REPUL.0>
0

>  <SCORE.INTRA.SOLV>
0

>  <SCORE.INTRA.SOLV.lig_0>
-29.307

>  <SCORE.INTRA.VDW>
0

>  <SCORE.INTRA.VDW.0>
0

>  <SCORE.INTRA.norm>
0

>  <SCORE.RESTR>
0

>  <SCORE.RESTR.CAVITY>
0

>  <SCORE.RESTR.norm>
0

>  <SCORE.SYSTEM>
0

>  <SCORE.SYSTEM.CONST>
0

>  <SCORE.SYSTEM.DIHEDRAL>
0

>  <SCORE.SYSTEM.SOLV>
0

>  <SCORE.SYSTEM.norm>
0

>  <SCORE.heavy>
11

>  <SCORE.norm>
-1.1913

>  <RMSD>
4.070

$$$$
ligand
 OpenBabel11021811503D
libRbt.so/2013.1/901 2013/11/27
 11 12  0  0  0  0  0  0  0  0999 V2000
    3.5341  -20.2012   24.5749 N   0  0  0  0  0  0  0  0  0  0  0  0
    3.4689  -19.4754   25.7050 C   0  0  0  0  0  0  0  0  0  0  0  0
    4.6157  -18.7664   26.1738 N   0  0  0  0  0  0  0  0  0  0  0  0
    2.3462  -19.3798   26.4235 N   0  0  0  0  0  0  0  0  0  0  0  0
    1.2035  -20.0423   26.0444 C   0  0  0  0  0  0  0  0  0  0  0  0
    1.2300  -20.7958   24.8910 C   0  0  0  0  0  0  0  0  0  0  0  0
    2.4367  -20.8640   24.1368 C   0  0  0  0  0  0  0  0  0  0  0  0
    2.4778  -21.6171   22.9847 O   0  0  0  0  0  0  0  0  0  0  0  0
   -0.0809  -21.3502   24.7414 C   0  0  0  0  0  0  0  0  0  0  0  0
   -0.8319  -20.8963   25.8346 C   0  0  0  0  0  0  0  0  0  0  0  0
   -0.0538  -20.1209   26.6002 N   0  0  0  0  0  0  0  0  0  0  0  0
  1  2  1  0  0  0  0
  1  7  1  0  0  0  0
  2  3  1  0  0  0  0
  2  4  2  0  0  0  0
  4  5  1  0  0  0  0
  5  6  2  0  0  0  0
  5 11  1  0  0  0  0
  6  7  1  0  0  0  0
  6  9  1  0  0  0  0
  7  8  2  0  0  0  0
  9 10  2  0  0  0  0
 10 11  1  0  0  0  0
M  END
>  <CHROM.1>
1.90920840,-20.31607206,25.25572547,-0.15789970,-0.28427720,-2.15433152

>  <Name>
ligand

>  <RI>
0

>  <Rbt.Current_Directory>
/home/itssahil/PROJECTS/Mol_Feturizer/New_Systems/rnas/4LVW

>  <Rbt.Executable>
rbdock ($Id: //depot/dev/client3/rdock/2013.1/src/exe/rbdock.cxx#4 $)

>  <Rbt.Library>
libRbt.so (2013.1, Build901 2013/11/27)

>  <Rbt.Parameter_File>
/export/apps/rDock/src/rDock_2013.1_src/data/scripts/dock_solv.prm

>  <Rbt.Receptor>
prm/pocket_docking_8.prm

>  <SCORE>
-13.104

>  <SCORE.INTER>
-13.104

>  <SCORE.INTER.CONST>
1

>  <SCORE.INTER.POLAR>
0

>  <SCORE.INTER.ROT>
0

>  <SCORE.INTER.SOLV>
6.44342

>  <SCORE.INTER.VDW>
-14.4838

>  <SCORE.INTER.norm>
-1.19127

>  <SCORE.INTRA>
0

>  <SCORE.INTRA.DIHEDRAL>
0

>  <SCORE.INTRA.DIHEDRAL.0>
0

>  <SCORE.INTRA.POLAR>
0

>  <SCORE.INTRA.POLAR.0>
0

>  <SCORE.INTRA.REPUL>
0

>  <SCORE.INTRA.REPUL.0>
0

>  <SCORE.INTRA.SOLV>
0

>  <SCORE.INTRA.SOLV.lig_0>
-29.307

>  <SCORE.INTRA.VDW>
0

>  <SCORE.INTRA.VDW.0>
0

>  <SCORE.INTRA.norm>
0

>  <SCORE.RESTR>
0

>  <SCORE.RESTR.CAVITY>
0

>  <SCORE.RESTR.norm>
0

>  <SCORE.SYSTEM>
0

>  <SCORE.SYSTEM.CONST>
0

>  <SCORE.SYSTEM.DIHEDRAL>
0

>  <SCORE.SYSTEM.SOLV>
0

>  <SCORE.SYSTEM.norm>
0

>  <SCORE.heavy>
11

>  <SCORE.norm>
-1.19127

>  <RMSD>
4.070

$$$$
ligand
 OpenBabel11021811503D
libRbt.so/2013.1/901 2013/11/27
 11 12  0  0  0  0  0  0  0  0999 V2000
    3.5335  -20.1858   24.5455 N   0  0  0  0  0  0  0  0  0  0  0  0
    3.4645  -19.4408   25.6628 C   0  0  0  0  0  0  0  0  0  0  0  0
    4.6051  -18.7110   26.1144 N   0  0  0  0  0  0  0  0  0  0  0  0
    2.3436  -19.3449   26.3841 N   0  0  0  0  0  0  0  0  0  0  0  0
    1.2068  -20.0266   26.0214 C   0  0  0  0  0  0  0  0  0  0  0  0
    1.2373  -20.8001   24.8814 C   0  0  0  0  0  0  0  0  0  0  0  0
    2.4418  -20.8684   24.1236 C   0  0  0  0  0  0  0  0  0  0  0  0
    2.4869  -21.6412   22.9848 O   0  0  0  0  0  0  0  0  0  0  0  0
   -0.0679  -21.3716   24.7469 C   0  0  0  0  0  0  0  0  0  0  0  0
   -0.8197  -20.9067   25.8348 C   0  0  0  0  0  0  0  0  0  0  0  0
   -0.0474  -20.1093   26.5835 N   0  0  0  0  0  0  0  0  0  0  0  0
  1  2  1  0  0  0  0
  1  7  1  0  0  0  0
  2  3  1  0  0  0  0
  2  4  2  0  0  0  0
  4  5  1  0  0  0  0
  5  6  2  0  0  0  0
  5 11  1  0  0  0  0
  6  7  1  0  0  0  0
  6  9  1  0  0  0  0
  7  8  2  0  0  0  0
  9 10  2  0  0  0  0
 10 11  1  0  0  0  0
M  END
>  <CHROM.1>
1.91255133,-20.30654151,25.23478614,-0.16097770,-0.29567262,-2.17291859

>  <Name>
ligand

>  <RI>
0

>  <Rbt.Current_Directory>
/home/itssahil/PROJECTS/Mol_Feturizer/New_Systems/rnas/4LVW

>  <Rbt.Executable>
rbdock ($Id: //depot/dev/client3/rdock/2013.1/src/exe/rbdock.cxx#4 $)

>  <Rbt.Library>
libRbt.so (2013.1, Build901 2013/11/27)

>  <Rbt.Parameter_File>
/export/apps/rDock/src/rDock_2013.1_src/data/scripts/dock_solv.prm

>  <Rbt.Receptor>
prm/pocket_docking_4.prm

>  <SCORE>
-13.1073

>  <SCORE.INTER>
-13.1073

>  <SCORE.INTER.CONST>
1

>  <SCORE.INTER.POLAR>
0

>  <SCORE.INTER.ROT>
0

>  <SCORE.INTER.SOLV>
6.52903

>  <SCORE.INTER.VDW>
-14.5146

>  <SCORE.INTER.norm>
-1.19158

>  <SCORE.INTRA>
0

>  <SCORE.INTRA.DIHEDRAL>
0

>  <SCORE.INTRA.DIHEDRAL.0>
0

>  <SCORE.INTRA.POLAR>
0

>  <SCORE.INTRA.POLAR.0>
0

>  <SCORE.INTRA.REPUL>
0

>  <SCORE.INTRA.REPUL.0>
0

>  <SCORE.INTRA.SOLV>
0

>  <SCORE.INTRA.SOLV.lig_0>
-29.307

>  <SCORE.INTRA.VDW>
0

>  <SCORE.INTRA.VDW.0>
0

>  <SCORE.INTRA.norm>
0

>  <SCORE.RESTR>
0

>  <SCORE.RESTR.CAVITY>
0

>  <SCORE.RESTR.norm>
0

>  <SCORE.SYSTEM>
0

>  <SCORE.SYSTEM.CONST>
0

>  <SCORE.SYSTEM.DIHEDRAL>
0

>  <SCORE.SYSTEM.SOLV>
0

>  <SCORE.SYSTEM.norm>
0

>  <SCORE.heavy>
11

>  <SCORE.norm>
-1.19158

>  <RMSD>
4.071

$$$$
ligand
 OpenBabel11021811503D
libRbt.so/2013.1/901 2013/11/27
 11 12  0  0  0  0  0  0  0  0999 V2000
    3.5317  -20.2010   24.5777 N   0  0  0  0  0  0  0  0  0  0  0  0
    3.4677  -19.4774   25.7094 C   0  0  0  0  0  0  0  0  0  0  0  0
    4.6153  -18.7703   26.1789 N   0  0  0  0  0  0  0  0  0  0  0  0
    2.3455  -19.3824   26.4287 N   0  0  0  0  0  0  0  0  0  0  0  0
    1.2020  -20.0431   26.0489 C   0  0  0  0  0  0  0  0  0  0  0  0
    1.2272  -20.7943   24.8940 C   0  0  0  0  0  0  0  0  0  0  0  0
    2.4335  -20.8620   24.1390 C   0  0  0  0  0  0  0  0  0  0  0  0
    2.4733  -21.6128   22.9852 O   0  0  0  0  0  0  0  0  0  0  0  0
   -0.0842  -21.3474   24.7440 C   0  0  0  0  0  0  0  0  0  0  0  0
   -0.8342  -20.8951   25.8385 C   0  0  0  0  0  0  0  0  0  0  0  0
   -0.0551  -20.1219   26.6053 N   0  0  0  0  0  0  0  0  0  0  0  0
  1  2  1  0  0  0  0
  1  7  1  0  0  0  0
  2  3  1  0  0  0  0
  2  4  2  0  0  0  0
  4  5  1  0  0  0  0
  5  6  2  0  0  0  0
  5 11  1  0  0  0  0
  6  7  1  0  0  0  0
  6  9  1  0  0  0  0
  7  8  2  0  0  0  0
  9 10  2  0  0  0  0
 10 11  1  0  0  0  0
M  END
>  <CHROM.1>
1.90705873,-20.31593319,25.25927816,-0.15693518,-0.28390828,-2.15203209

>  <Name>
ligand

>  <RI>
0

>  <Rbt.Current_Directory>
/home/itssahil/PROJECTS/Mol_Feturizer/New_Systems/rnas/4LVW

>  <Rbt.Executable>
rbdock ($Id: //depot/dev/client3/rdock/2013.1/src/exe/rbdock.cxx#4 $)

>  <Rbt.Library>
libRbt.so (2013.1, Build901 2013/11/27)

>  <Rbt.Parameter_File>
/export/apps/rDock/src/rDock_2013.1_src/data/scripts/dock_solv.prm

>  <Rbt.Receptor>
prm/pocket_docking_4.prm

>  <SCORE>
-13.1055

>  <SCORE.INTER>
-13.1055

>  <SCORE.INTER.CONST>
1

>  <SCORE.INTER.POLAR>
0

>  <SCORE.INTER.ROT>
0

>  <SCORE.INTER.SOLV>
6.44361

>  <SCORE.INTER.VDW>
-14.4849

>  <SCORE.INTER.norm>
-1.19141

>  <SCORE.INTRA>
0

>  <SCORE.INTRA.DIHEDRAL>
0

>  <SCORE.INTRA.DIHEDRAL.0>
0

>  <SCORE.INTRA.POLAR>
0

>  <SCORE.INTRA.POLAR.0>
0

>  <SCORE.INTRA.REPUL>
0

>  <SCORE.INTRA.REPUL.0>
0

>  <SCORE.INTRA.SOLV>
0

>  <SCORE.INTRA.SOLV.lig_0>
-29.307

>  <SCORE.INTRA.VDW>
0

>  <SCORE.INTRA.VDW.0>
0

>  <SCORE.INTRA.norm>
0

>  <SCORE.RESTR>
0

>  <SCORE.RESTR.CAVITY>
0

>  <SCORE.RESTR.norm>
0

>  <SCORE.SYSTEM>
0

>  <SCORE.SYSTEM.CONST>
0

>  <SCORE.SYSTEM.DIHEDRAL>
0

>  <SCORE.SYSTEM.SOLV>
0

>  <SCORE.SYSTEM.norm>
0

>  <SCORE.heavy>
11

>  <SCORE.norm>
-1.19141

>  <RMSD>
4.071

$$$$
ligand
 OpenBabel11021811503D
libRbt.so/2013.1/901 2013/11/27
 11 12  0  0  0  0  0  0  0  0999 V2000
    3.5367  -20.1911   24.5660 N   0  0  0  0  0  0  0  0  0  0  0  0
    3.4715  -19.4626   25.6944 C   0  0  0  0  0  0  0  0  0  0  0  0
    4.6171  -18.7490   26.1591 N   0  0  0  0  0  0  0  0  0  0  0  0
    2.3499  -19.3686   26.4148 N   0  0  0  0  0  0  0  0  0  0  0  0
    1.2084  -20.0354   26.0396 C   0  0  0  0  0  0  0  0  0  0  0  0
    1.2350  -20.7918   24.8881 C   0  0  0  0  0  0  0  0  0  0  0  0
    2.4405  -20.8584   24.1317 C   0  0  0  0  0  0  0  0  0  0  0  0
    2.4817  -21.6142   22.9814 O   0  0  0  0  0  0  0  0  0  0  0  0
   -0.0745  -21.3506   24.7424 C   0  0  0  0  0  0  0  0  0  0  0  0
   -0.8248  -20.8961   25.8358 C   0  0  0  0  0  0  0  0  0  0  0  0
   -0.0476  -20.1164   26.5980 N   0  0  0  0  0  0  0  0  0  0  0  0
  1  2  1  0  0  0  0
  1  7  1  0  0  0  0
  2  3  1  0  0  0  0
  2  4  2  0  0  0  0
  4  5  1  0  0  0  0
  5  6  2  0  0  0  0
  5 11  1  0  0  0  0
  6  7  1  0  0  0  0
  6  9  1  0  0  0  0
  7  8  2  0  0  0  0
  9 10  2  0  0  0  0
 10 11  1  0  0  0  0
M  END
>  <CHROM.1>
1.91349295,-20.30913803,25.25021405,-0.15796997,-0.28782946,-2.15690944

>  <Name>
ligand

>  <RI>
0

>  <Rbt.Current_Directory>
/home/itssahil/PROJECTS/Mol_Feturizer/New_Systems/rnas/4LVW

>  <Rbt.Executable>
rbdock ($Id: //depot/dev/client3/rdock/2013.1/src/exe/rbdock.cxx#4 $)

>  <Rbt.Library>
libRbt.so (2013.1, Build901 2013/11/27)

>  <Rbt.Parameter_File>
/export/apps/rDock/src/rDock_2013.1_src/data/scripts/dock_solv.prm

>  <Rbt.Receptor>
prm/pocket_docking_4.prm

>  <SCORE>
-13.1025

>  <SCORE.INTER>
-13.1025

>  <SCORE.INTER.CONST>
1

>  <SCORE.INTER.POLAR>
0

>  <SCORE.INTER.ROT>
0

>  <SCORE.INTER.SOLV>
6.47118

>  <SCORE.INTER.VDW>
-14.4921

>  <SCORE.INTER.norm>
-1.19114

>  <SCORE.INTRA>
0

>  <SCORE.INTRA.DIHEDRAL>
0

>  <SCORE.INTRA.DIHEDRAL.0>
0

>  <SCORE.INTRA.POLAR>
0

>  <SCORE.INTRA.POLAR.0>
0

>  <SCORE.INTRA.REPUL>
0

>  <SCORE.INTRA.REPUL.0>
0

>  <SCORE.INTRA.SOLV>
0

>  <SCORE.INTRA.SOLV.lig_0>
-29.307

>  <SCORE.INTRA.VDW>
0

>  <SCORE.INTRA.VDW.0>
0

>  <SCORE.INTRA.norm>
0

>  <SCORE.RESTR>
0

>  <SCORE.RESTR.CAVITY>
0

>  <SCORE.RESTR.norm>
0

>  <SCORE.SYSTEM>
0

>  <SCORE.SYSTEM.CONST>
0

>  <SCORE.SYSTEM.DIHEDRAL>
0

>  <SCORE.SYSTEM.SOLV>
0

>  <SCORE.SYSTEM.norm>
0

>  <SCORE.heavy>
11

>  <SCORE.norm>
-1.19114

>  <RMSD>
4.071

$$$$
ligand
 OpenBabel11021811503D
libRbt.so/2013.1/901 2013/11/27
 11 12  0  0  0  0  0  0  0  0999 V2000
    3.5273  -20.2209   24.5818 N   0  0  0  0  0  0  0  0  0  0  0  0
    3.4650  -19.4932   25.7109 C   0  0  0  0  0  0  0  0  0  0  0  0
    4.6151  -18.7894   26.1795 N   0  0  0  0  0  0  0  0  0  0  0  0
    2.3423  -19.3908   26.4285 N   0  0  0  0  0  0  0  0  0  0  0  0
    1.1965  -20.0479   26.0495 C   0  0  0  0  0  0  0  0  0  0  0  0
    1.2199  -20.8032   24.8972 C   0  0  0  0  0  0  0  0  0  0  0  0
    2.4268  -20.8787   24.1439 C   0  0  0  0  0  0  0  0  0  0  0  0
    2.4649  -21.6336   22.9929 O   0  0  0  0  0  0  0  0  0  0  0  0
   -0.0937  -21.3511   24.7474 C   0  0  0  0  0  0  0  0  0  0  0  0
   -0.8432  -20.8918   25.8394 C   0  0  0  0  0  0  0  0  0  0  0  0
   -0.0616  -20.1193   26.6045 N   0  0  0  0  0  0  0  0  0  0  0  0
  1  2  1  0  0  0  0
  1  7  1  0  0  0  0
  2  3  1  0  0  0  0
  2  4  2  0  0  0  0
  4  5  1  0  0  0  0
  5  6  2  0  0  0  0
  5 11  1  0  0  0  0
  6  7  1  0  0  0  0
  6  9  1  0  0  0  0
  7  8  2  0  0  0  0
  9 10  2  0  0  0  0
 10 11  1  0  0  0  0
M  END
>  <CHROM.1>
1.90134225,-20.32647648,25.26168614,-0.15556507,-0.27959113,-2.15508851

>  <Name>
ligand

>  <RI>
0

>  <Rbt.Current_Directory>
/home/itssahil/PROJECTS/Mol_Feturizer/New_Systems/rnas/4LVW

>  <Rbt.Executable>
rbdock ($Id: //depot/dev/client3/rdock/2013.1/src/exe/rbdock.cxx#4 $)

>  <Rbt.Library>
libRbt.so (2013.1, Build901 2013/11/27)

>  <Rbt.Parameter_File>
/export/apps/rDock/src/rDock_2013.1_src/data/scripts/dock_solv.prm

>  <Rbt.Receptor>
prm/pocket_docking_5.prm

>  <SCORE>
-13.1006

>  <SCORE.INTER>
-13.1006

>  <SCORE.INTER.CONST>
1

>  <SCORE.INTER.POLAR>
0

>  <SCORE.INTER.ROT>
0

>  <SCORE.INTER.SOLV>
6.38214

>  <SCORE.INTER.VDW>
-14.4611

>  <SCORE.INTER.norm>
-1.19096

>  <SCORE.INTRA>
0

>  <SCORE.INTRA.DIHEDRAL>
0

>  <SCORE.INTRA.DIHEDRAL.0>
0

>  <SCORE.INTRA.POLAR>
0

>  <SCORE.INTRA.POLAR.0>
0

>  <SCORE.INTRA.REPUL>
0

>  <SCORE.INTRA.REPUL.0>
0

>  <SCORE.INTRA.SOLV>
0

>  <SCORE.INTRA.SOLV.lig_0>
-29.307

>  <SCORE.INTRA.VDW>
0

>  <SCORE.INTRA.VDW.0>
0

>  <SCORE.INTRA.norm>
0

>  <SCORE.RESTR>
0

>  <SCORE.RESTR.CAVITY>
0

>  <SCORE.RESTR.norm>
0

>  <SCORE.SYSTEM>
0

>  <SCORE.SYSTEM.CONST>
0

>  <SCORE.SYSTEM.DIHEDRAL>
0

>  <SCORE.SYSTEM.SOLV>
0

>  <SCORE.SYSTEM.norm>
0

>  <SCORE.heavy>
11

>  <SCORE.norm>
-1.19096

>  <RMSD>
4.071

$$$$
ligand
 OpenBabel11021811503D
libRbt.so/2013.1/901 2013/11/27
 11 12  0  0  0  0  0  0  0  0999 V2000
    3.4837  -20.1978   24.5622 N   0  0  0  0  0  0  0  0  0  0  0  0
    3.4059  -19.4381   25.6691 C   0  0  0  0  0  0  0  0  0  0  0  0
    4.5428  -18.7021   26.1199 N   0  0  0  0  0  0  0  0  0  0  0  0
    2.2793  -19.3330   26.3801 N   0  0  0  0  0  0  0  0  0  0  0  0
    1.1455  -20.0197   26.0175 C   0  0  0  0  0  0  0  0  0  0  0  0
    1.1851  -20.8082   24.8881 C   0  0  0  0  0  0  0  0  0  0  0  0
    2.3955  -20.8862   24.1409 C   0  0  0  0  0  0  0  0  0  0  0  0
    2.4497  -21.6740   23.0127 O   0  0  0  0  0  0  0  0  0  0  0  0
   -0.1189  -21.3817   24.7509 C   0  0  0  0  0  0  0  0  0  0  0  0
   -0.8794  -20.9026   25.8267 C   0  0  0  0  0  0  0  0  0  0  0  0
   -0.1131  -20.0952   26.5708 N   0  0  0  0  0  0  0  0  0  0  0  0
  1  2  1  0  0  0  0
  1  7  1  0  0  0  0
  2  3  1  0  0  0  0
  2  4  2  0  0  0  0
  4  5  1  0  0  0  0
  5  6  2  0  0  0  0
  5 11  1  0  0  0  0
  6  7  1  0  0  0  0
  6  9  1  0  0  0  0
  7  8  2  0  0  0  0
  9 10  2  0  0  0  0
 10 11  1  0  0  0  0
M  END
>  <CHROM.1>
1.85744214,-20.30980600,25.24028431,-0.16782103,-0.29130976,-2.18812369

>  <Name>
ligand

>  <RI>
0

>  <Rbt.Current_Directory>
/home/itssahil/PROJECTS/Mol_Feturizer/New_Systems/rnas/4LVW

>  <Rbt.Executable>
rbdock ($Id: //depot/dev/client3/rdock/2013.1/src/exe/rbdock.cxx#4 $)

>  <Rbt.Library>
libRbt.so (2013.1, Build901 2013/11/27)

>  <Rbt.Parameter_File>
/export/apps/rDock/src/rDock_2013.1_src/data/scripts/dock_solv.prm

>  <Rbt.Receptor>
prm/pocket_docking_6.prm

>  <SCORE>
-13.0832

>  <SCORE.INTER>
-13.0832

>  <SCORE.INTER.CONST>
1

>  <SCORE.INTER.POLAR>
0

>  <SCORE.INTER.ROT>
0

>  <SCORE.INTER.SOLV>
6.74065

>  <SCORE.INTER.VDW>
-14.569

>  <SCORE.INTER.norm>
-1.18938

>  <SCORE.INTRA>
0

>  <SCORE.INTRA.DIHEDRAL>
0

>  <SCORE.INTRA.DIHEDRAL.0>
0

>  <SCORE.INTRA.POLAR>
0

>  <SCORE.INTRA.POLAR.0>
0

>  <SCORE.INTRA.REPUL>
0

>  <SCORE.INTRA.REPUL.0>
0

>  <SCORE.INTRA.SOLV>
0

>  <SCORE.INTRA.SOLV.lig_0>
-29.307

>  <SCORE.INTRA.VDW>
0

>  <SCORE.INTRA.VDW.0>
0

>  <SCORE.INTRA.norm>
0

>  <SCORE.RESTR>
0

>  <SCORE.RESTR.CAVITY>
0

>  <SCORE.RESTR.norm>
0

>  <SCORE.SYSTEM>
0

>  <SCORE.SYSTEM.CONST>
0

>  <SCORE.SYSTEM.DIHEDRAL>
0

>  <SCORE.SYSTEM.SOLV>
0

>  <SCORE.SYSTEM.norm>
0

>  <SCORE.heavy>
11

>  <SCORE.norm>
-1.18938

>  <RMSD>
4.071

$$$$
ligand
 OpenBabel11021811503D
libRbt.so/2013.1/901 2013/11/27
 11 12  0  0  0  0  0  0  0  0999 V2000
    3.5273  -20.2112   24.5827 N   0  0  0  0  0  0  0  0  0  0  0  0
    3.4635  -19.4860   25.7133 C   0  0  0  0  0  0  0  0  0  0  0  0
    4.6118  -18.7804   26.1832 N   0  0  0  0  0  0  0  0  0  0  0  0
    2.3406  -19.3880   26.4313 N   0  0  0  0  0  0  0  0  0  0  0  0
    1.1964  -20.0472   26.0512 C   0  0  0  0  0  0  0  0  0  0  0  0
    1.2215  -20.8000   24.8973 C   0  0  0  0  0  0  0  0  0  0  0  0
    2.4284  -20.8708   24.1437 C   0  0  0  0  0  0  0  0  0  0  0  0
    2.4682  -21.6232   22.9910 O   0  0  0  0  0  0  0  0  0  0  0  0
   -0.0908  -21.3509   24.7466 C   0  0  0  0  0  0  0  0  0  0  0  0
   -0.8412  -20.8958   25.8397 C   0  0  0  0  0  0  0  0  0  0  0  0
   -0.0614  -20.1230   26.6063 N   0  0  0  0  0  0  0  0  0  0  0  0
  1  2  1  0  0  0  0
  1  7  1  0  0  0  0
  2  3  1  0  0  0  0
  2  4  2  0  0  0  0
  4  5  1  0  0  0  0
  5  6  2  0  0  0  0
  5 11  1  0  0  0  0
  6  7  1  0  0  0  0
  6  9  1  0  0  0  0
  7  8  2  0  0  0  0
  9 10  2  0  0  0  0
 10 11  1  0  0  0  0
M  END
>  <CHROM.1>
1.90178064,-20.32231320,25.26266933,-0.15684883,-0.28180767,-2.15332943

>  <Name>
ligand

>  <RI>
0

>  <Rbt.Current_Directory>
/home/itssahil/PROJECTS/Mol_Feturizer/New_Systems/rnas/4LVW

>  <Rbt.Executable>
rbdock ($Id: //depot/dev/client3/rdock/2013.1/src/exe/rbdock.cxx#4 $)

>  <Rbt.Library>
libRbt.so (2013.1, Build901 2013/11/27)

>  <Rbt.Parameter_File>
/export/apps/rDock/src/rDock_2013.1_src/data/scripts/dock_solv.prm

>  <Rbt.Receptor>
prm/pocket_docking_7.prm

>  <SCORE>
-13.1029

>  <SCORE.INTER>
-13.1029

>  <SCORE.INTER.CONST>
1

>  <SCORE.INTER.POLAR>
0

>  <SCORE.INTER.ROT>
0

>  <SCORE.INTER.SOLV>
6.42467

>  <SCORE.INTER.VDW>
-14.4768

>  <SCORE.INTER.norm>
-1.19117

>  <SCORE.INTRA>
0

>  <SCORE.INTRA.DIHEDRAL>
0

>  <SCORE.INTRA.DIHEDRAL.0>
0

>  <SCORE.INTRA.POLAR>
0

>  <SCORE.INTRA.POLAR.0>
0

>  <SCORE.INTRA.REPUL>
0

>  <SCORE.INTRA.REPUL.0>
0

>  <SCORE.INTRA.SOLV>
0

>  <SCORE.INTRA.SOLV.lig_0>
-29.307

>  <SCORE.INTRA.VDW>
0

>  <SCORE.INTRA.VDW.0>
0

>  <SCORE.INTRA.norm>
0

>  <SCORE.RESTR>
0

>  <SCORE.RESTR.CAVITY>
0

>  <SCORE.RESTR.norm>
0

>  <SCORE.SYSTEM>
0

>  <SCORE.SYSTEM.CONST>
0

>  <SCORE.SYSTEM.DIHEDRAL>
0

>  <SCORE.SYSTEM.SOLV>
0

>  <SCORE.SYSTEM.norm>
0

>  <SCORE.heavy>
11

>  <SCORE.norm>
-1.19117

>  <RMSD>
4.071

$$$$
ligand
 OpenBabel11021811503D
libRbt.so/2013.1/901 2013/11/27
 11 12  0  0  0  0  0  0  0  0999 V2000
    3.5344  -20.2148   24.5820 N   0  0  0  0  0  0  0  0  0  0  0  0
    3.4701  -19.4836   25.7088 C   0  0  0  0  0  0  0  0  0  0  0  0
    4.6195  -18.7788   26.1775 N   0  0  0  0  0  0  0  0  0  0  0  0
    2.3461  -19.3788   26.4238 N   0  0  0  0  0  0  0  0  0  0  0  0
    1.2007  -20.0367   26.0446 C   0  0  0  0  0  0  0  0  0  0  0  0
    1.2262  -20.7954   24.8945 C   0  0  0  0  0  0  0  0  0  0  0  0
    2.4346  -20.8735   24.1439 C   0  0  0  0  0  0  0  0  0  0  0  0
    2.4747  -21.6318   22.9951 O   0  0  0  0  0  0  0  0  0  0  0  0
   -0.0872  -21.3434   24.7438 C   0  0  0  0  0  0  0  0  0  0  0  0
   -0.8387  -20.8806   25.8329 C   0  0  0  0  0  0  0  0  0  0  0  0
   -0.0585  -20.1062   26.5973 N   0  0  0  0  0  0  0  0  0  0  0  0
  1  2  1  0  0  0  0
  1  7  1  0  0  0  0
  2  3  1  0  0  0  0
  2  4  2  0  0  0  0
  4  5  1  0  0  0  0
  5  6  2  0  0  0  0
  5 11  1  0  0  0  0
  6  7  1  0  0  0  0
  6  9  1  0  0  0  0
  7  8  2  0  0  0  0
  9 10  2  0  0  0  0
 10 11  1  0  0  0  0
M  END
>  <CHROM.1>
1.90708022,-20.31782926,25.25896103,-0.15711023,-0.27826398,-2.15848288

>  <Name>
ligand

>  <RI>
0

>  <Rbt.Current_Directory>
/home/itssahil/PROJECTS/Mol_Feturizer/New_Systems/rnas/4LVW

>  <Rbt.Executable>
rbdock ($Id: //depot/dev/client3/rdock/2013.1/src/exe/rbdock.cxx#4 $)

>  <Rbt.Library>
libRbt.so (2013.1, Build901 2013/11/27)

>  <Rbt.Parameter_File>
/export/apps/rDock/src/rDock_2013.1_src/data/scripts/dock_solv.prm

>  <Rbt.Receptor>
prm/pocket_docking_7.prm

>  <SCORE>
-13.1009

>  <SCORE.INTER>
-13.1009

>  <SCORE.INTER.CONST>
1

>  <SCORE.INTER.POLAR>
0

>  <SCORE.INTER.ROT>
0

>  <SCORE.INTER.SOLV>
6.40441

>  <SCORE.INTER.VDW>
-14.4688

>  <SCORE.INTER.norm>
-1.19099

>  <SCORE.INTRA>
0

>  <SCORE.INTRA.DIHEDRAL>
0

>  <SCORE.INTRA.DIHEDRAL.0>
0

>  <SCORE.INTRA.POLAR>
0

>  <SCORE.INTRA.POLAR.0>
0

>  <SCORE.INTRA.REPUL>
0

>  <SCORE.INTRA.REPUL.0>
0

>  <SCORE.INTRA.SOLV>
0

>  <SCORE.INTRA.SOLV.lig_0>
-29.307

>  <SCORE.INTRA.VDW>
0

>  <SCORE.INTRA.VDW.0>
0

>  <SCORE.INTRA.norm>
0

>  <SCORE.RESTR>
0

>  <SCORE.RESTR.CAVITY>
0

>  <SCORE.RESTR.norm>
0

>  <SCORE.SYSTEM>
0

>  <SCORE.SYSTEM.CONST>
0

>  <SCORE.SYSTEM.DIHEDRAL>
0

>  <SCORE.SYSTEM.SOLV>
0

>  <SCORE.SYSTEM.norm>
0

>  <SCORE.heavy>
11

>  <SCORE.norm>
-1.19099

>  <RMSD>
4.071

$$$$
ligand
 OpenBabel11021811503D
libRbt.so/2013.1/901 2013/11/27
 11 12  0  0  0  0  0  0  0  0999 V2000
    3.5328  -20.1515   24.5553 N   0  0  0  0  0  0  0  0  0  0  0  0
    3.4594  -19.4088   25.6738 C   0  0  0  0  0  0  0  0  0  0  0  0
    4.5966  -18.6756   26.1284 N   0  0  0  0  0  0  0  0  0  0  0  0
    2.3370  -19.3184   26.3935 N   0  0  0  0  0  0  0  0  0  0  0  0
    1.2034  -20.0036   26.0279 C   0  0  0  0  0  0  0  0  0  0  0  0
    1.2384  -20.7749   24.8866 C   0  0  0  0  0  0  0  0  0  0  0  0
    2.4443  -20.8374   24.1306 C   0  0  0  0  0  0  0  0  0  0  0  0
    2.4940  -21.6080   22.9904 O   0  0  0  0  0  0  0  0  0  0  0  0
   -0.0644  -21.3510   24.7491 C   0  0  0  0  0  0  0  0  0  0  0  0
   -0.8197  -20.8908   25.8367 C   0  0  0  0  0  0  0  0  0  0  0  0
   -0.0514  -20.0919   26.5880 N   0  0  0  0  0  0  0  0  0  0  0  0
  1  2  1  0  0  0  0
  1  7  1  0  0  0  0
  2  3  1  0  0  0  0
  2  4  2  0  0  0  0
  4  5  1  0  0  0  0
  5  6  2  0  0  0  0
  5 11  1  0  0  0  0
  6  7  1  0  0  0  0
  6  9  1  0  0  0  0
  7  8  2  0  0  0  0
  9 10  2  0  0  0  0
 10 11  1  0  0  0  0
M  END
>  <CHROM.1>
1.91129103,-20.27949622,25.24189625,-0.16446374,-0.29785461,-2.17216138

>  <Name>
ligand

>  <RI>
0

>  <Rbt.Current_Directory>
/home/itssahil/PROJECTS/Mol_Feturizer/New_Systems/rnas/4LVW

>  <Rbt.Executable>
rbdock ($Id: //depot/dev/client3/rdock/2013.1/src/exe/rbdock.cxx#4 $)

>  <Rbt.Library>
libRbt.so (2013.1, Build901 2013/11/27)

>  <Rbt.Parameter_File>
/export/apps/rDock/src/rDock_2013.1_src/data/scripts/dock_solv.prm

>  <Rbt.Receptor>
prm/pocket_docking_8.prm

>  <SCORE>
-13.1062

>  <SCORE.INTER>
-13.1062

>  <SCORE.INTER.CONST>
1

>  <SCORE.INTER.POLAR>
0

>  <SCORE.INTER.ROT>
0

>  <SCORE.INTER.SOLV>
6.70008

>  <SCORE.INTER.VDW>
-14.5708

>  <SCORE.INTER.norm>
-1.19147

>  <SCORE.INTRA>
0

>  <SCORE.INTRA.DIHEDRAL>
0

>  <SCORE.INTRA.DIHEDRAL.0>
0

>  <SCORE.INTRA.POLAR>
0

>  <SCORE.INTRA.POLAR.0>
0

>  <SCORE.INTRA.REPUL>
0

>  <SCORE.INTRA.REPUL.0>
0

>  <SCORE.INTRA.SOLV>
0

>  <SCORE.INTRA.SOLV.lig_0>
-29.307

>  <SCORE.INTRA.VDW>
0

>  <SCORE.INTRA.VDW.0>
0

>  <SCORE.INTRA.norm>
0

>  <SCORE.RESTR>
0

>  <SCORE.RESTR.CAVITY>
0

>  <SCORE.RESTR.norm>
0

>  <SCORE.SYSTEM>
0

>  <SCORE.SYSTEM.CONST>
0

>  <SCORE.SYSTEM.DIHEDRAL>
0

>  <SCORE.SYSTEM.SOLV>
0

>  <SCORE.SYSTEM.norm>
0

>  <SCORE.heavy>
11

>  <SCORE.norm>
-1.19147

>  <RMSD>
4.071

$$$$
ligand
 OpenBabel11021811503D
libRbt.so/2013.1/901 2013/11/27
 11 12  0  0  0  0  0  0  0  0999 V2000
    3.5314  -20.1969   24.5778 N   0  0  0  0  0  0  0  0  0  0  0  0
    3.4676  -19.4756   25.7109 C   0  0  0  0  0  0  0  0  0  0  0  0
    4.6151  -18.7688   26.1813 N   0  0  0  0  0  0  0  0  0  0  0  0
    2.3457  -19.3827   26.4311 N   0  0  0  0  0  0  0  0  0  0  0  0
    1.2024  -20.0433   26.0506 C   0  0  0  0  0  0  0  0  0  0  0  0
    1.2274  -20.7921   24.8941 C   0  0  0  0  0  0  0  0  0  0  0  0
    2.4333  -20.8577   24.1383 C   0  0  0  0  0  0  0  0  0  0  0  0
    2.4730  -21.6061   22.9831 O   0  0  0  0  0  0  0  0  0  0  0  0
   -0.0838  -21.3457   24.7437 C   0  0  0  0  0  0  0  0  0  0  0  0
   -0.8335  -20.8959   25.8395 C   0  0  0  0  0  0  0  0  0  0  0  0
   -0.0543  -20.1238   26.6074 N   0  0  0  0  0  0  0  0  0  0  0  0
  1  2  1  0  0  0  0
  1  7  1  0  0  0  0
  2  3  1  0  0  0  0
  2  4  2  0  0  0  0
  4  5  1  0  0  0  0
  5  6  2  0  0  0  0
  5 11  1  0  0  0  0
  6  7  1  0  0  0  0
  6  9  1  0  0  0  0
  7  8  2  0  0  0  0
  9 10  2  0  0  0  0
 10 11  1  0  0  0  0
M  END
>  <CHROM.1>
1.90716925,-20.31409501,25.25998834,-0.15679243,-0.28465068,-2.14999444

>  <Name>
ligand

>  <RI>
0

>  <Rbt.Current_Directory>
/home/itssahil/PROJECTS/Mol_Feturizer/New_Systems/rnas/4LVW

>  <Rbt.Executable>
rbdock ($Id: //depot/dev/client3/rdock/2013.1/src/exe/rbdock.cxx#4 $)

>  <Rbt.Library>
libRbt.so (2013.1, Build901 2013/11/27)

>  <Rbt.Parameter_File>
/export/apps/rDock/src/rDock_2013.1_src/data/scripts/dock_solv.prm

>  <Rbt.Receptor>
prm/pocket_docking_8.prm

>  <SCORE>
-13.1059

>  <SCORE.INTER>
-13.1059

>  <SCORE.INTER.CONST>
1

>  <SCORE.INTER.POLAR>
0

>  <SCORE.INTER.ROT>
0

>  <SCORE.INTER.SOLV>
6.45526

>  <SCORE.INTER.VDW>
-14.489

>  <SCORE.INTER.norm>
-1.19145

>  <SCORE.INTRA>
0

>  <SCORE.INTRA.DIHEDRAL>
0

>  <SCORE.INTRA.DIHEDRAL.0>
0

>  <SCORE.INTRA.POLAR>
0

>  <SCORE.INTRA.POLAR.0>
0

>  <SCORE.INTRA.REPUL>
0

>  <SCORE.INTRA.REPUL.0>
0

>  <SCORE.INTRA.SOLV>
0

>  <SCORE.INTRA.SOLV.lig_0>
-29.307

>  <SCORE.INTRA.VDW>
0

>  <SCORE.INTRA.VDW.0>
0

>  <SCORE.INTRA.norm>
0

>  <SCORE.RESTR>
0

>  <SCORE.RESTR.CAVITY>
0

>  <SCORE.RESTR.norm>
0

>  <SCORE.SYSTEM>
0

>  <SCORE.SYSTEM.CONST>
0

>  <SCORE.SYSTEM.DIHEDRAL>
0

>  <SCORE.SYSTEM.SOLV>
0

>  <SCORE.SYSTEM.norm>
0

>  <SCORE.heavy>
11

>  <SCORE.norm>
-1.19145

>  <RMSD>
4.071

$$$$
ligand
 OpenBabel11021811503D
libRbt.so/2013.1/901 2013/11/27
 11 12  0  0  0  0  0  0  0  0999 V2000
    3.5359  -20.1943   24.5622 N   0  0  0  0  0  0  0  0  0  0  0  0
    3.4671  -19.4465   25.6777 C   0  0  0  0  0  0  0  0  0  0  0  0
    4.6109  -18.7242   26.1332 N   0  0  0  0  0  0  0  0  0  0  0  0
    2.3435  -19.3409   26.3934 N   0  0  0  0  0  0  0  0  0  0  0  0
    1.2035  -20.0150   26.0266 C   0  0  0  0  0  0  0  0  0  0  0  0
    1.2337  -20.7911   24.8884 C   0  0  0  0  0  0  0  0  0  0  0  0
    2.4413  -20.8698   24.1366 C   0  0  0  0  0  0  0  0  0  0  0  0
    2.4862  -21.6453   22.9996 O   0  0  0  0  0  0  0  0  0  0  0  0
   -0.0750  -21.3532   24.7488 C   0  0  0  0  0  0  0  0  0  0  0  0
   -0.8286  -20.8805   25.8322 C   0  0  0  0  0  0  0  0  0  0  0  0
   -0.0540  -20.0873   26.5829 N   0  0  0  0  0  0  0  0  0  0  0  0
  1  2  1  0  0  0  0
  1  7  1  0  0  0  0
  2  3  1  0  0  0  0
  2  4  2  0  0  0  0
  4  5  1  0  0  0  0
  5  6  2  0  0  0  0
  5 11  1  0  0  0  0
  6  7  1  0  0  0  0
  6  9  1  0  0  0  0
  7  8  2  0  0  0  0
  9 10  2  0  0  0  0
 10 11  1  0  0  0  0
M  END
>  <CHROM.1>
1.91088996,-20.30173421,25.24401709,-0.16073407,-0.28689851,-2.17492157

>  <Name>
ligand

>  <RI>
0

>  <Rbt.Current_Directory>
/home/itssahil/PROJECTS/Mol_Feturizer/New_Systems/rnas/4LVW

>  <Rbt.Executable>
rbdock ($Id: //depot/dev/client3/rdock/2013.1/src/exe/rbdock.cxx#4 $)

>  <Rbt.Library>
libRbt.so (2013.1, Build901 2013/11/27)

>  <Rbt.Parameter_File>
/export/apps/rDock/src/rDock_2013.1_src/data/scripts/dock_solv.prm

>  <Rbt.Receptor>
prm/pocket_docking_4.prm

>  <SCORE>
-13.1066

>  <SCORE.INTER>
-13.1066

>  <SCORE.INTER.CONST>
1

>  <SCORE.INTER.POLAR>
0

>  <SCORE.INTER.ROT>
0

>  <SCORE.INTER.SOLV>
6.51747

>  <SCORE.INTER.VDW>
-14.5103

>  <SCORE.INTER.norm>
-1.19151

>  <SCORE.INTRA>
0

>  <SCORE.INTRA.DIHEDRAL>
0

>  <SCORE.INTRA.DIHEDRAL.0>
0

>  <SCORE.INTRA.POLAR>
0

>  <SCORE.INTRA.POLAR.0>
0

>  <SCORE.INTRA.REPUL>
0

>  <SCORE.INTRA.REPUL.0>
0

>  <SCORE.INTRA.SOLV>
0

>  <SCORE.INTRA.SOLV.lig_0>
-29.307

>  <SCORE.INTRA.VDW>
0

>  <SCORE.INTRA.VDW.0>
0

>  <SCORE.INTRA.norm>
0

>  <SCORE.RESTR>
0

>  <SCORE.RESTR.CAVITY>
0

>  <SCORE.RESTR.norm>
0

>  <SCORE.SYSTEM>
0

>  <SCORE.SYSTEM.CONST>
0

>  <SCORE.SYSTEM.DIHEDRAL>
0

>  <SCORE.SYSTEM.SOLV>
0

>  <SCORE.SYSTEM.norm>
0

>  <SCORE.heavy>
11

>  <SCORE.norm>
-1.19151

>  <RMSD>
4.072

$$$$
ligand
 OpenBabel11021811503D
libRbt.so/2013.1/901 2013/11/27
 11 12  0  0  0  0  0  0  0  0999 V2000
    3.5335  -20.2043   24.5616 N   0  0  0  0  0  0  0  0  0  0  0  0
    3.4681  -19.4623   25.6812 C   0  0  0  0  0  0  0  0  0  0  0  0
    4.6137  -18.7438   26.1380 N   0  0  0  0  0  0  0  0  0  0  0  0
    2.3462  -19.3592   26.3999 N   0  0  0  0  0  0  0  0  0  0  0  0
    1.2045  -20.0299   26.0321 C   0  0  0  0  0  0  0  0  0  0  0  0
    1.2313  -20.7999   24.8896 C   0  0  0  0  0  0  0  0  0  0  0  0
    2.4371  -20.8761   24.1347 C   0  0  0  0  0  0  0  0  0  0  0  0
    2.4785  -21.6456   22.9935 O   0  0  0  0  0  0  0  0  0  0  0  0
   -0.0784  -21.3598   24.7500 C   0  0  0  0  0  0  0  0  0  0  0  0
   -0.8290  -20.8920   25.8375 C   0  0  0  0  0  0  0  0  0  0  0  0
   -0.0518  -20.1037   26.5908 N   0  0  0  0  0  0  0  0  0  0  0  0
  1  2  1  0  0  0  0
  1  7  1  0  0  0  0
  2  3  1  0  0  0  0
  2  4  2  0  0  0  0
  4  5  1  0  0  0  0
  5  6  2  0  0  0  0
  5 11  1  0  0  0  0
  6  7  1  0  0  0  0
  6  9  1  0  0  0  0
  7  8  2  0  0  0  0
  9 10  2  0  0  0  0
 10 11  1  0  0  0  0
M  END
>  <CHROM.1>
1.90982686,-20.31333664,25.24637457,-0.15810311,-0.28715156,-2.16883205

>  <Name>
ligand

>  <RI>
0

>  <Rbt.Current_Directory>
/home/itssahil/PROJECTS/Mol_Feturizer/New_Systems/rnas/4LVW

>  <Rbt.Executable>
rbdock ($Id: //depot/dev/client3/rdock/2013.1/src/exe/rbdock.cxx#4 $)

>  <Rbt.Library>
libRbt.so (2013.1, Build901 2013/11/27)

>  <Rbt.Parameter_File>
/export/apps/rDock/src/rDock_2013.1_src/data/scripts/dock_solv.prm

>  <Rbt.Receptor>
prm/pocket_docking_5.prm

>  <SCORE>
-13.0917

>  <SCORE.INTER>
-13.0917

>  <SCORE.INTER.CONST>
1

>  <SCORE.INTER.POLAR>
0

>  <SCORE.INTER.ROT>
0

>  <SCORE.INTER.SOLV>
6.45313

>  <SCORE.INTER.VDW>
-14.4788

>  <SCORE.INTER.norm>
-1.19015

>  <SCORE.INTRA>
0

>  <SCORE.INTRA.DIHEDRAL>
0

>  <SCORE.INTRA.DIHEDRAL.0>
0

>  <SCORE.INTRA.POLAR>
0

>  <SCORE.INTRA.POLAR.0>
0

>  <SCORE.INTRA.REPUL>
0

>  <SCORE.INTRA.REPUL.0>
0

>  <SCORE.INTRA.SOLV>
0

>  <SCORE.INTRA.SOLV.lig_0>
-29.307

>  <SCORE.INTRA.VDW>
0

>  <SCORE.INTRA.VDW.0>
0

>  <SCORE.INTRA.norm>
0

>  <SCORE.RESTR>
0

>  <SCORE.RESTR.CAVITY>
0

>  <SCORE.RESTR.norm>
0

>  <SCORE.SYSTEM>
0

>  <SCORE.SYSTEM.CONST>
0

>  <SCORE.SYSTEM.DIHEDRAL>
0

>  <SCORE.SYSTEM.SOLV>
0

>  <SCORE.SYSTEM.norm>
0

>  <SCORE.heavy>
11

>  <SCORE.norm>
-1.19015

>  <RMSD>
4.072

$$$$
ligand
 OpenBabel11021811503D
libRbt.so/2013.1/901 2013/11/27
 11 12  0  0  0  0  0  0  0  0999 V2000
    3.5359  -20.2022   24.5770 N   0  0  0  0  0  0  0  0  0  0  0  0
    3.4722  -19.4722   25.7045 C   0  0  0  0  0  0  0  0  0  0  0  0
    4.6211  -18.7656   26.1718 N   0  0  0  0  0  0  0  0  0  0  0  0
    2.3493  -19.3702   26.4217 N   0  0  0  0  0  0  0  0  0  0  0  0
    1.2045  -20.0299   26.0439 C   0  0  0  0  0  0  0  0  0  0  0  0
    1.2293  -20.7875   24.8932 C   0  0  0  0  0  0  0  0  0  0  0  0
    2.4365  -20.8626   24.1403 C   0  0  0  0  0  0  0  0  0  0  0  0
    2.4760  -21.6198   22.9908 O   0  0  0  0  0  0  0  0  0  0  0  0
   -0.0833  -21.3378   24.7443 C   0  0  0  0  0  0  0  0  0  0  0  0
   -0.8337  -20.8774   25.8352 C   0  0  0  0  0  0  0  0  0  0  0  0
   -0.0536  -20.1022   26.5988 N   0  0  0  0  0  0  0  0  0  0  0  0
  1  2  1  0  0  0  0
  1  7  1  0  0  0  0
  2  3  1  0  0  0  0
  2  4  2  0  0  0  0
  4  5  1  0  0  0  0
  5  6  2  0  0  0  0
  5 11  1  0  0  0  0
  6  7  1  0  0  0  0
  6  9  1  0  0  0  0
  7  8  2  0  0  0  0
  9 10  2  0  0  0  0
 10 11  1  0  0  0  0
M  END
>  <CHROM.1>
1.90995751,-20.30893171,25.25679018,-0.15663352,-0.28083554,-2.15746289

>  <Name>
ligand

>  <RI>
0

>  <Rbt.Current_Directory>
/home/itssahil/PROJECTS/Mol_Feturizer/New_Systems/rnas/4LVW

>  <Rbt.Executable>
rbdock ($Id: //depot/dev/client3/rdock/2013.1/src/exe/rbdock.cxx#4 $)

>  <Rbt.Library>
libRbt.so (2013.1, Build901 2013/11/27)

>  <Rbt.Parameter_File>
/export/apps/rDock/src/rDock_2013.1_src/data/scripts/dock_solv.prm

>  <Rbt.Receptor>
prm/pocket_docking_6.prm

>  <SCORE>
-13.1011

>  <SCORE.INTER>
-13.1011

>  <SCORE.INTER.CONST>
1

>  <SCORE.INTER.POLAR>
0

>  <SCORE.INTER.ROT>
0

>  <SCORE.INTER.SOLV>
6.43778

>  <SCORE.INTER.VDW>
-14.48

>  <SCORE.INTER.norm>
-1.19101

>  <SCORE.INTRA>
0

>  <SCORE.INTRA.DIHEDRAL>
0

>  <SCORE.INTRA.DIHEDRAL.0>
0

>  <SCORE.INTRA.POLAR>
0

>  <SCORE.INTRA.POLAR.0>
0

>  <SCORE.INTRA.REPUL>
0

>  <SCORE.INTRA.REPUL.0>
0

>  <SCORE.INTRA.SOLV>
0

>  <SCORE.INTRA.SOLV.lig_0>
-29.307

>  <SCORE.INTRA.VDW>
0

>  <SCORE.INTRA.VDW.0>
0

>  <SCORE.INTRA.norm>
0

>  <SCORE.RESTR>
0

>  <SCORE.RESTR.CAVITY>
0

>  <SCORE.RESTR.norm>
0

>  <SCORE.SYSTEM>
0

>  <SCORE.SYSTEM.CONST>
0

>  <SCORE.SYSTEM.DIHEDRAL>
0

>  <SCORE.SYSTEM.SOLV>
0

>  <SCORE.SYSTEM.norm>
0

>  <SCORE.heavy>
11

>  <SCORE.norm>
-1.19101

>  <RMSD>
4.072

$$$$
ligand
 OpenBabel11021811503D
libRbt.so/2013.1/901 2013/11/27
 11 12  0  0  0  0  0  0  0  0999 V2000
    3.5340  -20.2028   24.5800 N   0  0  0  0  0  0  0  0  0  0  0  0
    3.4705  -19.4740   25.7083 C   0  0  0  0  0  0  0  0  0  0  0  0
    4.6196  -18.7685   26.1766 N   0  0  0  0  0  0  0  0  0  0  0  0
    2.3474  -19.3723   26.4254 N   0  0  0  0  0  0  0  0  0  0  0  0
    1.2024  -20.0311   26.0466 C   0  0  0  0  0  0  0  0  0  0  0  0
    1.2272  -20.7875   24.8951 C   0  0  0  0  0  0  0  0  0  0  0  0
    2.4345  -20.8623   24.1423 C   0  0  0  0  0  0  0  0  0  0  0  0
    2.4738  -21.6182   22.9920 O   0  0  0  0  0  0  0  0  0  0  0  0
   -0.0857  -21.3371   24.7453 C   0  0  0  0  0  0  0  0  0  0  0  0
   -0.8361  -20.8776   25.8366 C   0  0  0  0  0  0  0  0  0  0  0  0
   -0.0558  -20.1035   26.6012 N   0  0  0  0  0  0  0  0  0  0  0  0
  1  2  1  0  0  0  0
  1  7  1  0  0  0  0
  2  3  1  0  0  0  0
  2  4  2  0  0  0  0
  4  5  1  0  0  0  0
  5  6  2  0  0  0  0
  5 11  1  0  0  0  0
  6  7  1  0  0  0  0
  6  9  1  0  0  0  0
  7  8  2  0  0  0  0
  9 10  2  0  0  0  0
 10 11  1  0  0  0  0
M  END
>  <CHROM.1>
1.90793981,-20.30959072,25.25934359,-0.15655643,-0.28037010,-2.15633533

>  <Name>
ligand

>  <RI>
0

>  <Rbt.Current_Directory>
/home/itssahil/PROJECTS/Mol_Feturizer/New_Systems/rnas/4LVW

>  <Rbt.Executable>
rbdock ($Id: //depot/dev/client3/rdock/2013.1/src/exe/rbdock.cxx#4 $)

>  <Rbt.Library>
libRbt.so (2013.1, Build901 2013/11/27)

>  <Rbt.Parameter_File>
/export/apps/rDock/src/rDock_2013.1_src/data/scripts/dock_solv.prm

>  <Rbt.Receptor>
prm/pocket_docking_7.prm

>  <SCORE>
-13.1014

>  <SCORE.INTER>
-13.1014

>  <SCORE.INTER.CONST>
1

>  <SCORE.INTER.POLAR>
0

>  <SCORE.INTER.ROT>
0

>  <SCORE.INTER.SOLV>
6.44148

>  <SCORE.INTER.VDW>
-14.4814

>  <SCORE.INTER.norm>
-1.19103

>  <SCORE.INTRA>
0

>  <SCORE.INTRA.DIHEDRAL>
0

>  <SCORE.INTRA.DIHEDRAL.0>
0

>  <SCORE.INTRA.POLAR>
0

>  <SCORE.INTRA.POLAR.0>
0

>  <SCORE.INTRA.REPUL>
0

>  <SCORE.INTRA.REPUL.0>
0

>  <SCORE.INTRA.SOLV>
0

>  <SCORE.INTRA.SOLV.lig_0>
-29.307

>  <SCORE.INTRA.VDW>
0

>  <SCORE.INTRA.VDW.0>
0

>  <SCORE.INTRA.norm>
0

>  <SCORE.RESTR>
0

>  <SCORE.RESTR.CAVITY>
0

>  <SCORE.RESTR.norm>
0

>  <SCORE.SYSTEM>
0

>  <SCORE.SYSTEM.CONST>
0

>  <SCORE.SYSTEM.DIHEDRAL>
0

>  <SCORE.SYSTEM.SOLV>
0

>  <SCORE.SYSTEM.norm>
0

>  <SCORE.heavy>
11

>  <SCORE.norm>
-1.19103

>  <RMSD>
4.072

$$$$
ligand
 OpenBabel11021811503D
libRbt.so/2013.1/901 2013/11/27
 11 12  0  0  0  0  0  0  0  0999 V2000
    3.5327  -20.2058   24.5757 N   0  0  0  0  0  0  0  0  0  0  0  0
    3.4694  -19.4758   25.7033 C   0  0  0  0  0  0  0  0  0  0  0  0
    4.6180  -18.7682   26.1696 N   0  0  0  0  0  0  0  0  0  0  0  0
    2.3470  -19.3748   26.4214 N   0  0  0  0  0  0  0  0  0  0  0  0
    1.2025  -20.0356   26.0447 C   0  0  0  0  0  0  0  0  0  0  0  0
    1.2270  -20.7932   24.8939 C   0  0  0  0  0  0  0  0  0  0  0  0
    2.4336  -20.8672   24.1400 C   0  0  0  0  0  0  0  0  0  0  0  0
    2.4727  -21.6244   22.9904 O   0  0  0  0  0  0  0  0  0  0  0  0
   -0.0853  -21.3448   24.7462 C   0  0  0  0  0  0  0  0  0  0  0  0
   -0.8352  -20.8850   25.8378 C   0  0  0  0  0  0  0  0  0  0  0  0
   -0.0550  -20.1090   26.6007 N   0  0  0  0  0  0  0  0  0  0  0  0
  1  2  1  0  0  0  0
  1  7  1  0  0  0  0
  2  3  1  0  0  0  0
  2  4  2  0  0  0  0
  4  5  1  0  0  0  0
  5  6  2  0  0  0  0
  5 11  1  0  0  0  0
  6  7  1  0  0  0  0
  6  9  1  0  0  0  0
  7  8  2  0  0  0  0
  9 10  2  0  0  0  0
 10 11  1  0  0  0  0
M  END
>  <CHROM.1>
1.90749851,-20.31400158,25.25694045,-0.15640601,-0.28208915,-2.15741331

>  <Name>
ligand

>  <RI>
0

>  <Rbt.Current_Directory>
/home/itssahil/PROJECTS/Mol_Feturizer/New_Systems/rnas/4LVW

>  <Rbt.Executable>
rbdock ($Id: //depot/dev/client3/rdock/2013.1/src/exe/rbdock.cxx#4 $)

>  <Rbt.Library>
libRbt.so (2013.1, Build901 2013/11/27)

>  <Rbt.Parameter_File>
/export/apps/rDock/src/rDock_2013.1_src/data/scripts/dock_solv.prm

>  <Rbt.Receptor>
prm/pocket_docking_7.prm

>  <SCORE>
-13.1018

>  <SCORE.INTER>
-13.1018

>  <SCORE.INTER.CONST>
1

>  <SCORE.INTER.POLAR>
0

>  <SCORE.INTER.ROT>
0

>  <SCORE.INTER.SOLV>
6.42961

>  <SCORE.INTER.VDW>
-14.4778

>  <SCORE.INTER.norm>
-1.19108

>  <SCORE.INTRA>
0

>  <SCORE.INTRA.DIHEDRAL>
0

>  <SCORE.INTRA.DIHEDRAL.0>
0

>  <SCORE.INTRA.POLAR>
0

>  <SCORE.INTRA.POLAR.0>
0

>  <SCORE.INTRA.REPUL>
0

>  <SCORE.INTRA.REPUL.0>
0

>  <SCORE.INTRA.SOLV>
0

>  <SCORE.INTRA.SOLV.lig_0>
-29.307

>  <SCORE.INTRA.VDW>
0

>  <SCORE.INTRA.VDW.0>
0

>  <SCORE.INTRA.norm>
0

>  <SCORE.RESTR>
0

>  <SCORE.RESTR.CAVITY>
0

>  <SCORE.RESTR.norm>
0

>  <SCORE.SYSTEM>
0

>  <SCORE.SYSTEM.CONST>
0

>  <SCORE.SYSTEM.DIHEDRAL>
0

>  <SCORE.SYSTEM.SOLV>
0

>  <SCORE.SYSTEM.norm>
0

>  <SCORE.heavy>
11

>  <SCORE.norm>
-1.19108

>  <RMSD>
4.072

$$$$
ligand
 OpenBabel11021811503D
libRbt.so/2013.1/901 2013/11/27
 11 12  0  0  0  0  0  0  0  0999 V2000
    3.6200  -20.6660   24.6451 N   0  0  0  0  0  0  0  0  0  0  0  0
    3.7093  -20.3874   25.9577 C   0  0  0  0  0  0  0  0  0  0  0  0
    4.9672  -20.0428   26.5377 N   0  0  0  0  0  0  0  0  0  0  0  0
    2.6429  -20.4121   26.7627 N   0  0  0  0  0  0  0  0  0  0  0  0
    1.3995  -20.7460   26.2821 C   0  0  0  0  0  0  0  0  0  0  0  0
    1.2670  -21.0370   24.9418 C   0  0  0  0  0  0  0  0  0  0  0  0
    2.4191  -20.9849   24.1053 C   0  0  0  0  0  0  0  0  0  0  0  0
    2.3011  -21.2778   22.7649 O   0  0  0  0  0  0  0  0  0  0  0  0
   -0.1172  -21.3312   24.7280 C   0  0  0  0  0  0  0  0  0  0  0  0
   -0.7478  -21.2043   25.9735 C   0  0  0  0  0  0  0  0  0  0  0  0
    0.1676  -20.8571   26.8870 N   0  0  0  0  0  0  0  0  0  0  0  0
  1  2  1  0  0  0  0
  1  7  1  0  0  0  0
  2  3  1  0  0  0  0
  2  4  2  0  0  0  0
  4  5  1  0  0  0  0
  5  6  2  0  0  0  0
  5 11  1  0  0  0  0
  6  7  1  0  0  0  0
  6  9  1  0  0  0  0
  7  8  2  0  0  0  0
  9 10  2  0  0  0  0
 10 11  1  0  0  0  0
M  END
>  <CHROM.1>
2.02444100,-20.80852014,25.38732025,-0.04004830,-0.17844913,-1.76641494

>  <Name>
ligand

>  <RI>
0

>  <Rbt.Current_Directory>
/home/itssahil/PROJECTS/Mol_Feturizer/New_Systems/rnas/4LVW

>  <Rbt.Executable>
rbdock ($Id: //depot/dev/client3/rdock/2013.1/src/exe/rbdock.cxx#4 $)

>  <Rbt.Library>
libRbt.so (2013.1, Build901 2013/11/27)

>  <Rbt.Parameter_File>
/export/apps/rDock/src/rDock_2013.1_src/data/scripts/dock_solv.prm

>  <Rbt.Receptor>
prm/pocket_docking_3.prm

>  <SCORE>
-12.3985

>  <SCORE.INTER>
-12.3985

>  <SCORE.INTER.CONST>
1

>  <SCORE.INTER.POLAR>
0

>  <SCORE.INTER.ROT>
0

>  <SCORE.INTER.SOLV>
4.11998

>  <SCORE.INTER.VDW>
-13.239

>  <SCORE.INTER.norm>
-1.12713

>  <SCORE.INTRA>
0

>  <SCORE.INTRA.DIHEDRAL>
0

>  <SCORE.INTRA.DIHEDRAL.0>
0

>  <SCORE.INTRA.POLAR>
0

>  <SCORE.INTRA.POLAR.0>
0

>  <SCORE.INTRA.REPUL>
0

>  <SCORE.INTRA.REPUL.0>
0

>  <SCORE.INTRA.SOLV>
0

>  <SCORE.INTRA.SOLV.lig_0>
-29.307

>  <SCORE.INTRA.VDW>
0

>  <SCORE.INTRA.VDW.0>
0

>  <SCORE.INTRA.norm>
0

>  <SCORE.RESTR>
0

>  <SCORE.RESTR.CAVITY>
0

>  <SCORE.RESTR.norm>
0

>  <SCORE.SYSTEM>
0

>  <SCORE.SYSTEM.CONST>
0

>  <SCORE.SYSTEM.DIHEDRAL>
0

>  <SCORE.SYSTEM.SOLV>
0

>  <SCORE.SYSTEM.norm>
0

>  <SCORE.heavy>
11

>  <SCORE.norm>
-1.12713

>  <RMSD>
4.073

$$$$
ligand
 OpenBabel11021811503D
libRbt.so/2013.1/901 2013/11/27
 11 12  0  0  0  0  0  0  0  0999 V2000
    3.5340  -20.1931   24.5565 N   0  0  0  0  0  0  0  0  0  0  0  0
    3.4674  -19.4460   25.6726 C   0  0  0  0  0  0  0  0  0  0  0  0
    4.6117  -18.7229   26.1256 N   0  0  0  0  0  0  0  0  0  0  0  0
    2.3455  -19.3418   26.3911 N   0  0  0  0  0  0  0  0  0  0  0  0
    1.2051  -20.0165   26.0269 C   0  0  0  0  0  0  0  0  0  0  0  0
    1.2331  -20.7920   24.8881 C   0  0  0  0  0  0  0  0  0  0  0  0
    2.4388  -20.8692   24.1332 C   0  0  0  0  0  0  0  0  0  0  0  0
    2.4815  -21.6441   22.9956 O   0  0  0  0  0  0  0  0  0  0  0  0
   -0.0755  -21.3552   24.7515 C   0  0  0  0  0  0  0  0  0  0  0  0
   -0.8267  -20.8837   25.8371 C   0  0  0  0  0  0  0  0  0  0  0  0
   -0.0509  -20.0903   26.5863 N   0  0  0  0  0  0  0  0  0  0  0  0
  1  2  1  0  0  0  0
  1  7  1  0  0  0  0
  2  3  1  0  0  0  0
  2  4  2  0  0  0  0
  4  5  1  0  0  0  0
  5  6  2  0  0  0  0
  5 11  1  0  0  0  0
  6  7  1  0  0  0  0
  6  9  1  0  0  0  0
  7  8  2  0  0  0  0
  9 10  2  0  0  0  0
 10 11  1  0  0  0  0
M  END
>  <CHROM.1>
1.91075152,-20.30225999,25.24231301,-0.15905485,-0.28904062,-2.17387208

>  <Name>
ligand

>  <RI>
0

>  <Rbt.Current_Directory>
/home/itssahil/PROJECTS/Mol_Feturizer/New_Systems/rnas/4LVW

>  <Rbt.Executable>
rbdock ($Id: //depot/dev/client3/rdock/2013.1/src/exe/rbdock.cxx#4 $)

>  <Rbt.Library>
libRbt.so (2013.1, Build901 2013/11/27)

>  <Rbt.Parameter_File>
/export/apps/rDock/src/rDock_2013.1_src/data/scripts/dock_solv.prm

>  <Rbt.Receptor>
prm/pocket_docking_4.prm

>  <SCORE>
-13.1089

>  <SCORE.INTER>
-13.1089

>  <SCORE.INTER.CONST>
1

>  <SCORE.INTER.POLAR>
0

>  <SCORE.INTER.ROT>
0

>  <SCORE.INTER.SOLV>
6.50717

>  <SCORE.INTER.VDW>
-14.5083

>  <SCORE.INTER.norm>
-1.19171

>  <SCORE.INTRA>
0

>  <SCORE.INTRA.DIHEDRAL>
0

>  <SCORE.INTRA.DIHEDRAL.0>
0

>  <SCORE.INTRA.POLAR>
0

>  <SCORE.INTRA.POLAR.0>
0

>  <SCORE.INTRA.REPUL>
0

>  <SCORE.INTRA.REPUL.0>
0

>  <SCORE.INTRA.SOLV>
0

>  <SCORE.INTRA.SOLV.lig_0>
-29.307

>  <SCORE.INTRA.VDW>
0

>  <SCORE.INTRA.VDW.0>
0

>  <SCORE.INTRA.norm>
0

>  <SCORE.RESTR>
0

>  <SCORE.RESTR.CAVITY>
0

>  <SCORE.RESTR.norm>
0

>  <SCORE.SYSTEM>
0

>  <SCORE.SYSTEM.CONST>
0

>  <SCORE.SYSTEM.DIHEDRAL>
0

>  <SCORE.SYSTEM.SOLV>
0

>  <SCORE.SYSTEM.norm>
0

>  <SCORE.heavy>
11

>  <SCORE.norm>
-1.19171

>  <RMSD>
4.073

$$$$
ligand
 OpenBabel11021811503D
libRbt.so/2013.1/901 2013/11/27
 11 12  0  0  0  0  0  0  0  0999 V2000
    3.5380  -20.1969   24.5748 N   0  0  0  0  0  0  0  0  0  0  0  0
    3.4697  -19.4470   25.6889 C   0  0  0  0  0  0  0  0  0  0  0  0
    4.6161  -18.7308   26.1474 N   0  0  0  0  0  0  0  0  0  0  0  0
    2.3441  -19.3336   26.4003 N   0  0  0  0  0  0  0  0  0  0  0  0
    1.2014  -20.0013   26.0304 C   0  0  0  0  0  0  0  0  0  0  0  0
    1.2311  -20.7794   24.8935 C   0  0  0  0  0  0  0  0  0  0  0  0
    2.4409  -20.8664   24.1462 C   0  0  0  0  0  0  0  0  0  0  0  0
    2.4852  -21.6440   23.0105 O   0  0  0  0  0  0  0  0  0  0  0  0
   -0.0804  -21.3339   24.7500 C   0  0  0  0  0  0  0  0  0  0  0  0
   -0.8351  -20.8550   25.8299 C   0  0  0  0  0  0  0  0  0  0  0  0
   -0.0584  -20.0653   26.5823 N   0  0  0  0  0  0  0  0  0  0  0  0
  1  2  1  0  0  0  0
  1  7  1  0  0  0  0
  2  3  1  0  0  0  0
  2  4  2  0  0  0  0
  4  5  1  0  0  0  0
  5  6  2  0  0  0  0
  5 11  1  0  0  0  0
  6  7  1  0  0  0  0
  6  9  1  0  0  0  0
  7  8  2  0  0  0  0
  9 10  2  0  0  0  0
 10 11  1  0  0  0  0
M  END
>  <CHROM.1>
1.90991771,-20.29353735,25.25081827,-0.16027972,-0.27991793,-2.17631538

>  <Name>
ligand

>  <RI>
0

>  <Rbt.Current_Directory>
/home/itssahil/PROJECTS/Mol_Feturizer/New_Systems/rnas/4LVW

>  <Rbt.Executable>
rbdock ($Id: //depot/dev/client3/rdock/2013.1/src/exe/rbdock.cxx#4 $)

>  <Rbt.Library>
libRbt.so (2013.1, Build901 2013/11/27)

>  <Rbt.Parameter_File>
/export/apps/rDock/src/rDock_2013.1_src/data/scripts/dock_solv.prm

>  <Rbt.Receptor>
prm/pocket_docking_5.prm

>  <SCORE>
-13.1003

>  <SCORE.INTER>
-13.1003

>  <SCORE.INTER.CONST>
1

>  <SCORE.INTER.POLAR>
0

>  <SCORE.INTER.ROT>
0

>  <SCORE.INTER.SOLV>
6.52109

>  <SCORE.INTER.VDW>
-14.5073

>  <SCORE.INTER.norm>
-1.19094

>  <SCORE.INTRA>
0

>  <SCORE.INTRA.DIHEDRAL>
0

>  <SCORE.INTRA.DIHEDRAL.0>
0

>  <SCORE.INTRA.POLAR>
0

>  <SCORE.INTRA.POLAR.0>
0

>  <SCORE.INTRA.REPUL>
0

>  <SCORE.INTRA.REPUL.0>
0

>  <SCORE.INTRA.SOLV>
0

>  <SCORE.INTRA.SOLV.lig_0>
-29.307

>  <SCORE.INTRA.VDW>
0

>  <SCORE.INTRA.VDW.0>
0

>  <SCORE.INTRA.norm>
0

>  <SCORE.RESTR>
0

>  <SCORE.RESTR.CAVITY>
0

>  <SCORE.RESTR.norm>
0

>  <SCORE.SYSTEM>
0

>  <SCORE.SYSTEM.CONST>
0

>  <SCORE.SYSTEM.DIHEDRAL>
0

>  <SCORE.SYSTEM.SOLV>
0

>  <SCORE.SYSTEM.norm>
0

>  <SCORE.heavy>
11

>  <SCORE.norm>
-1.19094

>  <RMSD>
4.073

$$$$
ligand
 OpenBabel11021811503D
libRbt.so/2013.1/901 2013/11/27
 11 12  0  0  0  0  0  0  0  0999 V2000
    3.5345  -20.1663   24.5666 N   0  0  0  0  0  0  0  0  0  0  0  0
    3.4666  -19.4278   25.6884 C   0  0  0  0  0  0  0  0  0  0  0  0
    4.6099  -18.7070   26.1474 N   0  0  0  0  0  0  0  0  0  0  0  0
    2.3443  -19.3303   26.4071 N   0  0  0  0  0  0  0  0  0  0  0  0
    1.2048  -20.0035   26.0372 C   0  0  0  0  0  0  0  0  0  0  0  0
    1.2341  -20.7701   24.8926 C   0  0  0  0  0  0  0  0  0  0  0  0
    2.4403  -20.8403   24.1377 C   0  0  0  0  0  0  0  0  0  0  0  0
    2.4843  -21.6064   22.9942 O   0  0  0  0  0  0  0  0  0  0  0  0
   -0.0738  -21.3336   24.7511 C   0  0  0  0  0  0  0  0  0  0  0  0
   -0.8260  -20.8713   25.8398 C   0  0  0  0  0  0  0  0  0  0  0  0
   -0.0514  -20.0828   26.5955 N   0  0  0  0  0  0  0  0  0  0  0  0
  1  2  1  0  0  0  0
  1  7  1  0  0  0  0
  2  3  1  0  0  0  0
  2  4  2  0  0  0  0
  4  5  1  0  0  0  0
  5  6  2  0  0  0  0
  5 11  1  0  0  0  0
  6  7  1  0  0  0  0
  6  9  1  0  0  0  0
  7  8  2  0  0  0  0
  9 10  2  0  0  0  0
 10 11  1  0  0  0  0
M  END
>  <CHROM.1>
1.91109791,-20.28242217,25.25082549,-0.16008466,-0.28963830,-2.16651922

>  <Name>
ligand

>  <RI>
0

>  <Rbt.Current_Directory>
/home/itssahil/PROJECTS/Mol_Feturizer/New_Systems/rnas/4LVW

>  <Rbt.Executable>
rbdock ($Id: //depot/dev/client3/rdock/2013.1/src/exe/rbdock.cxx#4 $)

>  <Rbt.Library>
libRbt.so (2013.1, Build901 2013/11/27)

>  <Rbt.Parameter_File>
/export/apps/rDock/src/rDock_2013.1_src/data/scripts/dock_solv.prm

>  <Rbt.Receptor>
prm/pocket_docking_6.prm

>  <SCORE>
-13.111

>  <SCORE.INTER>
-13.111

>  <SCORE.INTER.CONST>
1

>  <SCORE.INTER.POLAR>
0

>  <SCORE.INTER.ROT>
0

>  <SCORE.INTER.SOLV>
6.61451

>  <SCORE.INTER.VDW>
-14.5455

>  <SCORE.INTER.norm>
-1.19191

>  <SCORE.INTRA>
0

>  <SCORE.INTRA.DIHEDRAL>
0

>  <SCORE.INTRA.DIHEDRAL.0>
0

>  <SCORE.INTRA.POLAR>
0

>  <SCORE.INTRA.POLAR.0>
0

>  <SCORE.INTRA.REPUL>
0

>  <SCORE.INTRA.REPUL.0>
0

>  <SCORE.INTRA.SOLV>
0

>  <SCORE.INTRA.SOLV.lig_0>
-29.307

>  <SCORE.INTRA.VDW>
0

>  <SCORE.INTRA.VDW.0>
0

>  <SCORE.INTRA.norm>
0

>  <SCORE.RESTR>
0

>  <SCORE.RESTR.CAVITY>
0

>  <SCORE.RESTR.norm>
0

>  <SCORE.SYSTEM>
0

>  <SCORE.SYSTEM.CONST>
0

>  <SCORE.SYSTEM.DIHEDRAL>
0

>  <SCORE.SYSTEM.SOLV>
0

>  <SCORE.SYSTEM.norm>
0

>  <SCORE.heavy>
11

>  <SCORE.norm>
-1.19191

>  <RMSD>
4.073

$$$$
ligand
 OpenBabel11021811503D
libRbt.so/2013.1/901 2013/11/27
 11 12  0  0  0  0  0  0  0  0999 V2000
    3.5374  -20.1863   24.5494 N   0  0  0  0  0  0  0  0  0  0  0  0
    3.4717  -19.4427   25.6679 C   0  0  0  0  0  0  0  0  0  0  0  0
    4.6154  -18.7186   26.1207 N   0  0  0  0  0  0  0  0  0  0  0  0
    2.3511  -19.3430   26.3891 N   0  0  0  0  0  0  0  0  0  0  0  0
    1.2114  -20.0190   26.0253 C   0  0  0  0  0  0  0  0  0  0  0  0
    1.2386  -20.7910   24.8841 C   0  0  0  0  0  0  0  0  0  0  0  0
    2.4429  -20.8634   24.1264 C   0  0  0  0  0  0  0  0  0  0  0  0
    2.4847  -21.6347   22.9865 O   0  0  0  0  0  0  0  0  0  0  0  0
   -0.0691  -21.3565   24.7486 C   0  0  0  0  0  0  0  0  0  0  0  0
   -0.8191  -20.8899   25.8372 C   0  0  0  0  0  0  0  0  0  0  0  0
   -0.0433  -20.0971   26.5872 N   0  0  0  0  0  0  0  0  0  0  0  0
  1  2  1  0  0  0  0
  1  7  1  0  0  0  0
  2  3  1  0  0  0  0
  2  4  2  0  0  0  0
  4  5  1  0  0  0  0
  5  6  2  0  0  0  0
  5 11  1  0  0  0  0
  6  7  1  0  0  0  0
  6  9  1  0  0  0  0
  7  8  2  0  0  0  0
  9 10  2  0  0  0  0
 10 11  1  0  0  0  0
M  END
>  <CHROM.1>
1.91593253,-20.30090958,25.23837321,-0.15846872,-0.29196602,-2.17068313

>  <Name>
ligand

>  <RI>
0

>  <Rbt.Current_Directory>
/home/itssahil/PROJECTS/Mol_Feturizer/New_Systems/rnas/4LVW

>  <Rbt.Executable>
rbdock ($Id: //depot/dev/client3/rdock/2013.1/src/exe/rbdock.cxx#4 $)

>  <Rbt.Library>
libRbt.so (2013.1, Build901 2013/11/27)

>  <Rbt.Parameter_File>
/export/apps/rDock/src/rDock_2013.1_src/data/scripts/dock_solv.prm

>  <Rbt.Receptor>
prm/pocket_docking_6.prm

>  <SCORE>
-13.1149

>  <SCORE.INTER>
-13.1149

>  <SCORE.INTER.CONST>
1

>  <SCORE.INTER.POLAR>
0

>  <SCORE.INTER.ROT>
0

>  <SCORE.INTER.SOLV>
6.50105

>  <SCORE.INTER.VDW>
-14.5103

>  <SCORE.INTER.norm>
-1.19226

>  <SCORE.INTRA>
0

>  <SCORE.INTRA.DIHEDRAL>
0

>  <SCORE.INTRA.DIHEDRAL.0>
0

>  <SCORE.INTRA.POLAR>
0

>  <SCORE.INTRA.POLAR.0>
0

>  <SCORE.INTRA.REPUL>
0

>  <SCORE.INTRA.REPUL.0>
0

>  <SCORE.INTRA.SOLV>
0

>  <SCORE.INTRA.SOLV.lig_0>
-29.307

>  <SCORE.INTRA.VDW>
0

>  <SCORE.INTRA.VDW.0>
0

>  <SCORE.INTRA.norm>
0

>  <SCORE.RESTR>
0

>  <SCORE.RESTR.CAVITY>
0

>  <SCORE.RESTR.norm>
0

>  <SCORE.SYSTEM>
0

>  <SCORE.SYSTEM.CONST>
0

>  <SCORE.SYSTEM.DIHEDRAL>
0

>  <SCORE.SYSTEM.SOLV>
0

>  <SCORE.SYSTEM.norm>
0

>  <SCORE.heavy>
11

>  <SCORE.norm>
-1.19226

>  <RMSD>
4.073

$$$$
ligand
 OpenBabel11021811503D
libRbt.so/2013.1/901 2013/11/27
 11 12  0  0  0  0  0  0  0  0999 V2000
    3.5376  -20.1909   24.5577 N   0  0  0  0  0  0  0  0  0  0  0  0
    3.4713  -19.4453   25.6748 C   0  0  0  0  0  0  0  0  0  0  0  0
    4.6162  -18.7240   26.1293 N   0  0  0  0  0  0  0  0  0  0  0  0
    2.3493  -19.3409   26.3931 N   0  0  0  0  0  0  0  0  0  0  0  0
    1.2084  -20.0141   26.0275 C   0  0  0  0  0  0  0  0  0  0  0  0
    1.2360  -20.7880   24.8877 C   0  0  0  0  0  0  0  0  0  0  0  0
    2.4420  -20.8654   24.1331 C   0  0  0  0  0  0  0  0  0  0  0  0
    2.4842  -21.6387   22.9945 O   0  0  0  0  0  0  0  0  0  0  0  0
   -0.0731  -21.3497   24.7498 C   0  0  0  0  0  0  0  0  0  0  0  0
   -0.8243  -20.8790   25.8358 C   0  0  0  0  0  0  0  0  0  0  0  0
   -0.0479  -20.0873   26.5864 N   0  0  0  0  0  0  0  0  0  0  0  0
  1  2  1  0  0  0  0
  1  7  1  0  0  0  0
  2  3  1  0  0  0  0
  2  4  2  0  0  0  0
  4  5  1  0  0  0  0
  5  6  2  0  0  0  0
  5 11  1  0  0  0  0
  6  7  1  0  0  0  0
  6  9  1  0  0  0  0
  7  8  2  0  0  0  0
  9 10  2  0  0  0  0
 10 11  1  0  0  0  0
M  END
>  <CHROM.1>
1.91402422,-20.29942049,25.24281158,-0.15878583,-0.28799585,-2.17241557

>  <Name>
ligand

>  <RI>
0

>  <Rbt.Current_Directory>
/home/itssahil/PROJECTS/Mol_Feturizer/New_Systems/rnas/4LVW

>  <Rbt.Executable>
rbdock ($Id: //depot/dev/client3/rdock/2013.1/src/exe/rbdock.cxx#4 $)

>  <Rbt.Library>
libRbt.so (2013.1, Build901 2013/11/27)

>  <Rbt.Parameter_File>
/export/apps/rDock/src/rDock_2013.1_src/data/scripts/dock_solv.prm

>  <Rbt.Receptor>
prm/pocket_docking_8.prm

>  <SCORE>
-13.1118

>  <SCORE.INTER>
-13.1118

>  <SCORE.INTER.CONST>
1

>  <SCORE.INTER.POLAR>
0

>  <SCORE.INTER.ROT>
0

>  <SCORE.INTER.SOLV>
6.50115

>  <SCORE.INTER.VDW>
-14.5082

>  <SCORE.INTER.norm>
-1.19198

>  <SCORE.INTRA>
0

>  <SCORE.INTRA.DIHEDRAL>
0

>  <SCORE.INTRA.DIHEDRAL.0>
0

>  <SCORE.INTRA.POLAR>
0

>  <SCORE.INTRA.POLAR.0>
0

>  <SCORE.INTRA.REPUL>
0

>  <SCORE.INTRA.REPUL.0>
0

>  <SCORE.INTRA.SOLV>
0

>  <SCORE.INTRA.SOLV.lig_0>
-29.307

>  <SCORE.INTRA.VDW>
0

>  <SCORE.INTRA.VDW.0>
0

>  <SCORE.INTRA.norm>
0

>  <SCORE.RESTR>
0

>  <SCORE.RESTR.CAVITY>
0

>  <SCORE.RESTR.norm>
0

>  <SCORE.SYSTEM>
0

>  <SCORE.SYSTEM.CONST>
0

>  <SCORE.SYSTEM.DIHEDRAL>
0

>  <SCORE.SYSTEM.SOLV>
0

>  <SCORE.SYSTEM.norm>
0

>  <SCORE.heavy>
11

>  <SCORE.norm>
-1.19198

>  <RMSD>
4.073

$$$$
ligand
 OpenBabel11021811503D
libRbt.so/2013.1/901 2013/11/27
 11 12  0  0  0  0  0  0  0  0999 V2000
    3.5371  -20.1906   24.5528 N   0  0  0  0  0  0  0  0  0  0  0  0
    3.4709  -19.4447   25.6698 C   0  0  0  0  0  0  0  0  0  0  0  0
    4.6149  -18.7210   26.1224 N   0  0  0  0  0  0  0  0  0  0  0  0
    2.3496  -19.3425   26.3896 N   0  0  0  0  0  0  0  0  0  0  0  0
    1.2096  -20.0181   26.0258 C   0  0  0  0  0  0  0  0  0  0  0  0
    1.2372  -20.7923   24.8862 C   0  0  0  0  0  0  0  0  0  0  0  0
    2.4423  -20.8674   24.1299 C   0  0  0  0  0  0  0  0  0  0  0  0
    2.4845  -21.6410   22.9915 O   0  0  0  0  0  0  0  0  0  0  0  0
   -0.0709  -21.3567   24.7503 C   0  0  0  0  0  0  0  0  0  0  0  0
   -0.8215  -20.8872   25.8372 C   0  0  0  0  0  0  0  0  0  0  0  0
   -0.0457  -20.0937   26.5865 N   0  0  0  0  0  0  0  0  0  0  0  0
  1  2  1  0  0  0  0
  1  7  1  0  0  0  0
  2  3  1  0  0  0  0
  2  4  2  0  0  0  0
  4  5  1  0  0  0  0
  5  6  2  0  0  0  0
  5 11  1  0  0  0  0
  6  7  1  0  0  0  0
  6  9  1  0  0  0  0
  7  8  2  0  0  0  0
  9 10  2  0  0  0  0
 10 11  1  0  0  0  0
M  END
>  <CHROM.1>
1.91473333,-20.30220598,25.24018763,-0.15879302,-0.29050176,-2.17271149

>  <Name>
ligand

>  <RI>
0

>  <Rbt.Current_Directory>
/home/itssahil/PROJECTS/Mol_Feturizer/New_Systems/rnas/4LVW

>  <Rbt.Executable>
rbdock ($Id: //depot/dev/client3/rdock/2013.1/src/exe/rbdock.cxx#4 $)

>  <Rbt.Library>
libRbt.so (2013.1, Build901 2013/11/27)

>  <Rbt.Parameter_File>
/export/apps/rDock/src/rDock_2013.1_src/data/scripts/dock_solv.prm

>  <Rbt.Receptor>
prm/pocket_docking_8.prm

>  <SCORE>
-13.1134

>  <SCORE.INTER>
-13.1134

>  <SCORE.INTER.CONST>
1

>  <SCORE.INTER.POLAR>
0

>  <SCORE.INTER.ROT>
0

>  <SCORE.INTER.SOLV>
6.497

>  <SCORE.INTER.VDW>
-14.5079

>  <SCORE.INTER.norm>
-1.19213

>  <SCORE.INTRA>
0

>  <SCORE.INTRA.DIHEDRAL>
0

>  <SCORE.INTRA.DIHEDRAL.0>
0

>  <SCORE.INTRA.POLAR>
0

>  <SCORE.INTRA.POLAR.0>
0

>  <SCORE.INTRA.REPUL>
0

>  <SCORE.INTRA.REPUL.0>
0

>  <SCORE.INTRA.SOLV>
0

>  <SCORE.INTRA.SOLV.lig_0>
-29.307

>  <SCORE.INTRA.VDW>
0

>  <SCORE.INTRA.VDW.0>
0

>  <SCORE.INTRA.norm>
0

>  <SCORE.RESTR>
0

>  <SCORE.RESTR.CAVITY>
0

>  <SCORE.RESTR.norm>
0

>  <SCORE.SYSTEM>
0

>  <SCORE.SYSTEM.CONST>
0

>  <SCORE.SYSTEM.DIHEDRAL>
0

>  <SCORE.SYSTEM.SOLV>
0

>  <SCORE.SYSTEM.norm>
0

>  <SCORE.heavy>
11

>  <SCORE.norm>
-1.19213

>  <RMSD>
4.073

$$$$
ligand
 OpenBabel11021811503D
libRbt.so/2013.1/901 2013/11/27
 11 12  0  0  0  0  0  0  0  0999 V2000
    3.5320  -20.1966   24.5621 N   0  0  0  0  0  0  0  0  0  0  0  0
    3.4663  -19.4479   25.6772 C   0  0  0  0  0  0  0  0  0  0  0  0
    4.6119  -18.7269   26.1302 N   0  0  0  0  0  0  0  0  0  0  0  0
    2.3441  -19.3403   26.3948 N   0  0  0  0  0  0  0  0  0  0  0  0
    1.2025  -20.0129   26.0306 C   0  0  0  0  0  0  0  0  0  0  0  0
    1.2296  -20.7898   24.8929 C   0  0  0  0  0  0  0  0  0  0  0  0
    2.4357  -20.8707   24.1389 C   0  0  0  0  0  0  0  0  0  0  0  0
    2.4774  -21.6471   23.0023 O   0  0  0  0  0  0  0  0  0  0  0  0
   -0.0801  -21.3502   24.7560 C   0  0  0  0  0  0  0  0  0  0  0  0
   -0.8311  -20.8757   25.8404 C   0  0  0  0  0  0  0  0  0  0  0  0
   -0.0540  -20.0831   26.5892 N   0  0  0  0  0  0  0  0  0  0  0  0
  1  2  1  0  0  0  0
  1  7  1  0  0  0  0
  2  3  1  0  0  0  0
  2  4  2  0  0  0  0
  4  5  1  0  0  0  0
  5  6  2  0  0  0  0
  5 11  1  0  0  0  0
  6  7  1  0  0  0  0
  6  9  1  0  0  0  0
  7  8  2  0  0  0  0
  9 10  2  0  0  0  0
 10 11  1  0  0  0  0
M  END
>  <CHROM.1>
1.90808975,-20.30121283,25.24692506,-0.15833822,-0.28676249,-2.17491549

>  <Name>
ligand

>  <RI>
0

>  <Rbt.Current_Directory>
/home/itssahil/PROJECTS/Mol_Feturizer/New_Systems/rnas/4LVW

>  <Rbt.Executable>
rbdock ($Id: //depot/dev/client3/rdock/2013.1/src/exe/rbdock.cxx#4 $)

>  <Rbt.Library>
libRbt.so (2013.1, Build901 2013/11/27)

>  <Rbt.Parameter_File>
/export/apps/rDock/src/rDock_2013.1_src/data/scripts/dock_solv.prm

>  <Rbt.Receptor>
prm/pocket_docking_5.prm

>  <SCORE>
-13.1068

>  <SCORE.INTER>
-13.1068

>  <SCORE.INTER.CONST>
1

>  <SCORE.INTER.POLAR>
0

>  <SCORE.INTER.ROT>
0

>  <SCORE.INTER.SOLV>
6.50609

>  <SCORE.INTER.VDW>
-14.5066

>  <SCORE.INTER.norm>
-1.19153

>  <SCORE.INTRA>
0

>  <SCORE.INTRA.DIHEDRAL>
0

>  <SCORE.INTRA.DIHEDRAL.0>
0

>  <SCORE.INTRA.POLAR>
0

>  <SCORE.INTRA.POLAR.0>
0

>  <SCORE.INTRA.REPUL>
0

>  <SCORE.INTRA.REPUL.0>
0

>  <SCORE.INTRA.SOLV>
0

>  <SCORE.INTRA.SOLV.lig_0>
-29.307

>  <SCORE.INTRA.VDW>
0

>  <SCORE.INTRA.VDW.0>
0

>  <SCORE.INTRA.norm>
0

>  <SCORE.RESTR>
0

>  <SCORE.RESTR.CAVITY>
0

>  <SCORE.RESTR.norm>
0

>  <SCORE.SYSTEM>
0

>  <SCORE.SYSTEM.CONST>
0

>  <SCORE.SYSTEM.DIHEDRAL>
0

>  <SCORE.SYSTEM.SOLV>
0

>  <SCORE.SYSTEM.norm>
0

>  <SCORE.heavy>
11

>  <SCORE.norm>
-1.19153

>  <RMSD>
4.074

$$$$
ligand
 OpenBabel11021811503D
libRbt.so/2013.1/901 2013/11/27
 11 12  0  0  0  0  0  0  0  0999 V2000
    3.5385  -20.1689   24.5567 N   0  0  0  0  0  0  0  0  0  0  0  0
    3.4733  -19.4293   25.6778 C   0  0  0  0  0  0  0  0  0  0  0  0
    4.6179  -18.7084   26.1336 N   0  0  0  0  0  0  0  0  0  0  0  0
    2.3527  -19.3307   26.3991 N   0  0  0  0  0  0  0  0  0  0  0  0
    1.2122  -20.0039   26.0324 C   0  0  0  0  0  0  0  0  0  0  0  0
    1.2386  -20.7717   24.8885 C   0  0  0  0  0  0  0  0  0  0  0  0
    2.4431  -20.8430   24.1309 C   0  0  0  0  0  0  0  0  0  0  0  0
    2.4842  -21.6102   22.9881 O   0  0  0  0  0  0  0  0  0  0  0  0
   -0.0697  -21.3350   24.7505 C   0  0  0  0  0  0  0  0  0  0  0  0
   -0.8194  -20.8713   25.8406 C   0  0  0  0  0  0  0  0  0  0  0  0
   -0.0428  -20.0823   26.5937 N   0  0  0  0  0  0  0  0  0  0  0  0
  1  2  1  0  0  0  0
  1  7  1  0  0  0  0
  2  3  1  0  0  0  0
  2  4  2  0  0  0  0
  4  5  1  0  0  0  0
  5  6  2  0  0  0  0
  5 11  1  0  0  0  0
  6  7  1  0  0  0  0
  6  9  1  0  0  0  0
  7  8  2  0  0  0  0
  9 10  2  0  0  0  0
 10 11  1  0  0  0  0
M  END
>  <CHROM.1>
1.91658273,-20.28384084,25.24470568,-0.15793254,-0.29068583,-2.16687131

>  <Name>
ligand

>  <RI>
0

>  <Rbt.Current_Directory>
/home/itssahil/PROJECTS/Mol_Feturizer/New_Systems/rnas/4LVW

>  <Rbt.Executable>
rbdock ($Id: //depot/dev/client3/rdock/2013.1/src/exe/rbdock.cxx#4 $)

>  <Rbt.Library>
libRbt.so (2013.1, Build901 2013/11/27)

>  <Rbt.Parameter_File>
/export/apps/rDock/src/rDock_2013.1_src/data/scripts/dock_solv.prm

>  <Rbt.Receptor>
prm/pocket_docking_6.prm

>  <SCORE>
-13.1144

>  <SCORE.INTER>
-13.1144

>  <SCORE.INTER.CONST>
1

>  <SCORE.INTER.POLAR>
0

>  <SCORE.INTER.ROT>
0

>  <SCORE.INTER.SOLV>
6.56664

>  <SCORE.INTER.VDW>
-14.5318

>  <SCORE.INTER.norm>
-1.19222

>  <SCORE.INTRA>
0

>  <SCORE.INTRA.DIHEDRAL>
0

>  <SCORE.INTRA.DIHEDRAL.0>
0

>  <SCORE.INTRA.POLAR>
0

>  <SCORE.INTRA.POLAR.0>
0

>  <SCORE.INTRA.REPUL>
0

>  <SCORE.INTRA.REPUL.0>
0

>  <SCORE.INTRA.SOLV>
0

>  <SCORE.INTRA.SOLV.lig_0>
-29.307

>  <SCORE.INTRA.VDW>
0

>  <SCORE.INTRA.VDW.0>
0

>  <SCORE.INTRA.norm>
0

>  <SCORE.RESTR>
0

>  <SCORE.RESTR.CAVITY>
0

>  <SCORE.RESTR.norm>
0

>  <SCORE.SYSTEM>
0

>  <SCORE.SYSTEM.CONST>
0

>  <SCORE.SYSTEM.DIHEDRAL>
0

>  <SCORE.SYSTEM.SOLV>
0

>  <SCORE.SYSTEM.norm>
0

>  <SCORE.heavy>
11

>  <SCORE.norm>
-1.19222

>  <RMSD>
4.074

$$$$
ligand
 OpenBabel11021811503D
libRbt.so/2013.1/901 2013/11/27
 11 12  0  0  0  0  0  0  0  0999 V2000
    3.5570  -20.1914   24.5238 N   0  0  0  0  0  0  0  0  0  0  0  0
    3.4994  -19.4517   25.6454 C   0  0  0  0  0  0  0  0  0  0  0  0
    4.6476  -18.7325   26.0946 N   0  0  0  0  0  0  0  0  0  0  0  0
    2.3829  -19.3514   26.3729 N   0  0  0  0  0  0  0  0  0  0  0  0
    1.2394  -20.0230   26.0127 C   0  0  0  0  0  0  0  0  0  0  0  0
    1.2582  -20.7908   24.8687 C   0  0  0  0  0  0  0  0  0  0  0  0
    2.4583  -20.8639   24.1043 C   0  0  0  0  0  0  0  0  0  0  0  0
    2.4918  -21.6311   22.9613 O   0  0  0  0  0  0  0  0  0  0  0  0
   -0.0517  -21.3521   24.7381 C   0  0  0  0  0  0  0  0  0  0  0  0
   -0.7945  -20.8874   25.8324 C   0  0  0  0  0  0  0  0  0  0  0  0
   -0.0125  -20.0995   26.5810 N   0  0  0  0  0  0  0  0  0  0  0  0
  1  2  1  0  0  0  0
  1  7  1  0  0  0  0
  2  3  1  0  0  0  0
  2  4  2  0  0  0  0
  4  5  1  0  0  0  0
  5  6  2  0  0  0  0
  5 11  1  0  0  0  0
  6  7  1  0  0  0  0
  6  9  1  0  0  0  0
  7  8  2  0  0  0  0
  9 10  2  0  0  0  0
 10 11  1  0  0  0  0
M  END
>  <CHROM.1>
1.93891347,-20.30394922,25.22103768,-0.15217256,-0.29262018,-2.16522811

>  <Name>
ligand

>  <RI>
0

>  <Rbt.Current_Directory>
/home/itssahil/PROJECTS/Mol_Feturizer/New_Systems/rnas/4LVW

>  <Rbt.Executable>
rbdock ($Id: //depot/dev/client3/rdock/2013.1/src/exe/rbdock.cxx#4 $)

>  <Rbt.Library>
libRbt.so (2013.1, Build901 2013/11/27)

>  <Rbt.Parameter_File>
/export/apps/rDock/src/rDock_2013.1_src/data/scripts/dock_solv.prm

>  <Rbt.Receptor>
prm/pocket_docking_6.prm

>  <SCORE>
-13.0539

>  <SCORE.INTER>
-13.0539

>  <SCORE.INTER.CONST>
1

>  <SCORE.INTER.POLAR>
0

>  <SCORE.INTER.ROT>
0

>  <SCORE.INTER.SOLV>
6.33367

>  <SCORE.INTER.VDW>
-14.4138

>  <SCORE.INTER.norm>
-1.18671

>  <SCORE.INTRA>
0

>  <SCORE.INTRA.DIHEDRAL>
0

>  <SCORE.INTRA.DIHEDRAL.0>
0

>  <SCORE.INTRA.POLAR>
0

>  <SCORE.INTRA.POLAR.0>
0

>  <SCORE.INTRA.REPUL>
0

>  <SCORE.INTRA.REPUL.0>
0

>  <SCORE.INTRA.SOLV>
0

>  <SCORE.INTRA.SOLV.lig_0>
-29.307

>  <SCORE.INTRA.VDW>
0

>  <SCORE.INTRA.VDW.0>
0

>  <SCORE.INTRA.norm>
0

>  <SCORE.RESTR>
0

>  <SCORE.RESTR.CAVITY>
0

>  <SCORE.RESTR.norm>
0

>  <SCORE.SYSTEM>
0

>  <SCORE.SYSTEM.CONST>
0

>  <SCORE.SYSTEM.DIHEDRAL>
0

>  <SCORE.SYSTEM.SOLV>
0

>  <SCORE.SYSTEM.norm>
0

>  <SCORE.heavy>
11

>  <SCORE.norm>
-1.18671

>  <RMSD>
4.074

$$$$
ligand
 OpenBabel11021811503D
libRbt.so/2013.1/901 2013/11/27
 11 12  0  0  0  0  0  0  0  0999 V2000
    3.5358  -20.1970   24.5524 N   0  0  0  0  0  0  0  0  0  0  0  0
    3.4731  -19.4506   25.6692 C   0  0  0  0  0  0  0  0  0  0  0  0
    4.6204  -18.7317   26.1214 N   0  0  0  0  0  0  0  0  0  0  0  0
    2.3524  -19.3432   26.3892 N   0  0  0  0  0  0  0  0  0  0  0  0
    1.2094  -20.0139   26.0259 C   0  0  0  0  0  0  0  0  0  0  0  0
    1.2333  -20.7884   24.8865 C   0  0  0  0  0  0  0  0  0  0  0  0
    2.4379  -20.8691   24.1300 C   0  0  0  0  0  0  0  0  0  0  0  0
    2.4765  -21.6432   22.9917 O   0  0  0  0  0  0  0  0  0  0  0  0
   -0.0773  -21.3471   24.7511 C   0  0  0  0  0  0  0  0  0  0  0  0
   -0.8256  -20.8741   25.8379 C   0  0  0  0  0  0  0  0  0  0  0  0
   -0.0461  -20.0838   26.5868 N   0  0  0  0  0  0  0  0  0  0  0  0
  1  2  1  0  0  0  0
  1  7  1  0  0  0  0
  2  3  1  0  0  0  0
  2  4  2  0  0  0  0
  4  5  1  0  0  0  0
  5  6  2  0  0  0  0
  5 11  1  0  0  0  0
  6  7  1  0  0  0  0
  6  9  1  0  0  0  0
  7  8  2  0  0  0  0
  9 10  2  0  0  0  0
 10 11  1  0  0  0  0
M  END
>  <CHROM.1>
1.91308316,-20.30129074,25.24020904,-0.15600186,-0.28698478,-2.17219047

>  <Name>
ligand

>  <RI>
0

>  <Rbt.Current_Directory>
/home/itssahil/PROJECTS/Mol_Feturizer/New_Systems/rnas/4LVW

>  <Rbt.Executable>
rbdock ($Id: //depot/dev/client3/rdock/2013.1/src/exe/rbdock.cxx#4 $)

>  <Rbt.Library>
libRbt.so (2013.1, Build901 2013/11/27)

>  <Rbt.Parameter_File>
/export/apps/rDock/src/rDock_2013.1_src/data/scripts/dock_solv.prm

>  <Rbt.Receptor>
prm/pocket_docking_7.prm

>  <SCORE>
-13.1089

>  <SCORE.INTER>
-13.1089

>  <SCORE.INTER.CONST>
1

>  <SCORE.INTER.POLAR>
0

>  <SCORE.INTER.ROT>
0

>  <SCORE.INTER.SOLV>
6.45853

>  <SCORE.INTER.VDW>
-14.4921

>  <SCORE.INTER.norm>
-1.19172

>  <SCORE.INTRA>
0

>  <SCORE.INTRA.DIHEDRAL>
0

>  <SCORE.INTRA.DIHEDRAL.0>
0

>  <SCORE.INTRA.POLAR>
0

>  <SCORE.INTRA.POLAR.0>
0

>  <SCORE.INTRA.REPUL>
0

>  <SCORE.INTRA.REPUL.0>
0

>  <SCORE.INTRA.SOLV>
0

>  <SCORE.INTRA.SOLV.lig_0>
-29.307

>  <SCORE.INTRA.VDW>
0

>  <SCORE.INTRA.VDW.0>
0

>  <SCORE.INTRA.norm>
0

>  <SCORE.RESTR>
0

>  <SCORE.RESTR.CAVITY>
0

>  <SCORE.RESTR.norm>
0

>  <SCORE.SYSTEM>
0

>  <SCORE.SYSTEM.CONST>
0

>  <SCORE.SYSTEM.DIHEDRAL>
0

>  <SCORE.SYSTEM.SOLV>
0

>  <SCORE.SYSTEM.norm>
0

>  <SCORE.heavy>
11

>  <SCORE.norm>
-1.19172

>  <RMSD>
4.074

$$$$
ligand
 OpenBabel11021811503D
libRbt.so/2013.1/901 2013/11/27
 11 12  0  0  0  0  0  0  0  0999 V2000
    3.5412  -20.1977   24.5536 N   0  0  0  0  0  0  0  0  0  0  0  0
    3.4794  -19.4479   25.6681 C   0  0  0  0  0  0  0  0  0  0  0  0
    4.6280  -18.7304   26.1191 N   0  0  0  0  0  0  0  0  0  0  0  0
    2.3584  -19.3358   26.3870 N   0  0  0  0  0  0  0  0  0  0  0  0
    1.2141  -20.0049   26.0247 C   0  0  0  0  0  0  0  0  0  0  0  0
    1.2371  -20.7828   24.8876 C   0  0  0  0  0  0  0  0  0  0  0  0
    2.4420  -20.8685   24.1323 C   0  0  0  0  0  0  0  0  0  0  0  0
    2.4797  -21.6459   22.9963 O   0  0  0  0  0  0  0  0  0  0  0  0
   -0.0747  -21.3389   24.7528 C   0  0  0  0  0  0  0  0  0  0  0  0
   -0.8227  -20.8609   25.8377 C   0  0  0  0  0  0  0  0  0  0  0  0
   -0.0420  -20.0703   26.5849 N   0  0  0  0  0  0  0  0  0  0  0  0
  1  2  1  0  0  0  0
  1  7  1  0  0  0  0
  2  3  1  0  0  0  0
  2  4  2  0  0  0  0
  4  5  1  0  0  0  0
  5  6  2  0  0  0  0
  5 11  1  0  0  0  0
  6  7  1  0  0  0  0
  6  9  1  0  0  0  0
  7  8  2  0  0  0  0
  9 10  2  0  0  0  0
 10 11  1  0  0  0  0
M  END
>  <CHROM.1>
1.91770460,-20.29623905,25.24042373,-0.15527851,-0.28463279,-2.17489463

>  <Name>
ligand

>  <RI>
0

>  <Rbt.Current_Directory>
/home/itssahil/PROJECTS/Mol_Feturizer/New_Systems/rnas/4LVW

>  <Rbt.Executable>
rbdock ($Id: //depot/dev/client3/rdock/2013.1/src/exe/rbdock.cxx#4 $)

>  <Rbt.Library>
libRbt.so (2013.1, Build901 2013/11/27)

>  <Rbt.Parameter_File>
/export/apps/rDock/src/rDock_2013.1_src/data/scripts/dock_solv.prm

>  <Rbt.Receptor>
prm/pocket_docking_3.prm

>  <SCORE>
-13.1106

>  <SCORE.INTER>
-13.1106

>  <SCORE.INTER.CONST>
1

>  <SCORE.INTER.POLAR>
0

>  <SCORE.INTER.ROT>
0

>  <SCORE.INTER.SOLV>
6.44296

>  <SCORE.INTER.VDW>
-14.4881

>  <SCORE.INTER.norm>
-1.19187

>  <SCORE.INTRA>
0

>  <SCORE.INTRA.DIHEDRAL>
0

>  <SCORE.INTRA.DIHEDRAL.0>
0

>  <SCORE.INTRA.POLAR>
0

>  <SCORE.INTRA.POLAR.0>
0

>  <SCORE.INTRA.REPUL>
0

>  <SCORE.INTRA.REPUL.0>
0

>  <SCORE.INTRA.SOLV>
0

>  <SCORE.INTRA.SOLV.lig_0>
-29.307

>  <SCORE.INTRA.VDW>
0

>  <SCORE.INTRA.VDW.0>
0

>  <SCORE.INTRA.norm>
0

>  <SCORE.RESTR>
0

>  <SCORE.RESTR.CAVITY>
0

>  <SCORE.RESTR.norm>
0

>  <SCORE.SYSTEM>
0

>  <SCORE.SYSTEM.CONST>
0

>  <SCORE.SYSTEM.DIHEDRAL>
0

>  <SCORE.SYSTEM.SOLV>
0

>  <SCORE.SYSTEM.norm>
0

>  <SCORE.heavy>
11

>  <SCORE.norm>
-1.19187

>  <RMSD>
4.075

$$$$
ligand
 OpenBabel11021811503D
libRbt.so/2013.1/901 2013/11/27
 11 12  0  0  0  0  0  0  0  0999 V2000
    3.5403  -20.1962   24.5578 N   0  0  0  0  0  0  0  0  0  0  0  0
    3.4787  -19.4490   25.6741 C   0  0  0  0  0  0  0  0  0  0  0  0
    4.6276  -18.7334   26.1272 N   0  0  0  0  0  0  0  0  0  0  0  0
    2.3575  -19.3378   26.3928 N   0  0  0  0  0  0  0  0  0  0  0  0
    1.2128  -20.0052   26.0285 C   0  0  0  0  0  0  0  0  0  0  0  0
    1.2357  -20.7804   24.8896 C   0  0  0  0  0  0  0  0  0  0  0  0
    2.4409  -20.8651   24.1345 C   0  0  0  0  0  0  0  0  0  0  0  0
    2.4784  -21.6399   22.9967 O   0  0  0  0  0  0  0  0  0  0  0  0
   -0.0764  -21.3352   24.7529 C   0  0  0  0  0  0  0  0  0  0  0  0
   -0.8245  -20.8593   25.8387 C   0  0  0  0  0  0  0  0  0  0  0  0
   -0.0435  -20.0710   26.5881 N   0  0  0  0  0  0  0  0  0  0  0  0
  1  2  1  0  0  0  0
  1  7  1  0  0  0  0
  2  3  1  0  0  0  0
  2  4  2  0  0  0  0
  4  5  1  0  0  0  0
  5  6  2  0  0  0  0
  5 11  1  0  0  0  0
  6  7  1  0  0  0  0
  6  9  1  0  0  0  0
  7  8  2  0  0  0  0
  9 10  2  0  0  0  0
 10 11  1  0  0  0  0
M  END
>  <CHROM.1>
1.91655316,-20.29515212,25.24380003,-0.15517624,-0.28383155,-2.17248539

>  <Name>
ligand

>  <RI>
0

>  <Rbt.Current_Directory>
/home/itssahil/PROJECTS/Mol_Feturizer/New_Systems/rnas/4LVW

>  <Rbt.Executable>
rbdock ($Id: //depot/dev/client3/rdock/2013.1/src/exe/rbdock.cxx#4 $)

>  <Rbt.Library>
libRbt.so (2013.1, Build901 2013/11/27)

>  <Rbt.Parameter_File>
/export/apps/rDock/src/rDock_2013.1_src/data/scripts/dock_solv.prm

>  <Rbt.Receptor>
prm/pocket_docking_4.prm

>  <SCORE>
-13.112

>  <SCORE.INTER>
-13.112

>  <SCORE.INTER.CONST>
1

>  <SCORE.INTER.POLAR>
0

>  <SCORE.INTER.ROT>
0

>  <SCORE.INTER.SOLV>
6.45146

>  <SCORE.INTER.VDW>
-14.4918

>  <SCORE.INTER.norm>
-1.192

>  <SCORE.INTRA>
0

>  <SCORE.INTRA.DIHEDRAL>
0

>  <SCORE.INTRA.DIHEDRAL.0>
0

>  <SCORE.INTRA.POLAR>
0

>  <SCORE.INTRA.POLAR.0>
0

>  <SCORE.INTRA.REPUL>
0

>  <SCORE.INTRA.REPUL.0>
0

>  <SCORE.INTRA.SOLV>
0

>  <SCORE.INTRA.SOLV.lig_0>
-29.307

>  <SCORE.INTRA.VDW>
0

>  <SCORE.INTRA.VDW.0>
0

>  <SCORE.INTRA.norm>
0

>  <SCORE.RESTR>
0

>  <SCORE.RESTR.CAVITY>
0

>  <SCORE.RESTR.norm>
0

>  <SCORE.SYSTEM>
0

>  <SCORE.SYSTEM.CONST>
0

>  <SCORE.SYSTEM.DIHEDRAL>
0

>  <SCORE.SYSTEM.SOLV>
0

>  <SCORE.SYSTEM.norm>
0

>  <SCORE.heavy>
11

>  <SCORE.norm>
-1.192

>  <RMSD>
4.075

$$$$
ligand
 OpenBabel11021811503D
libRbt.so/2013.1/901 2013/11/27
 11 12  0  0  0  0  0  0  0  0999 V2000
    3.5375  -20.1965   24.5555 N   0  0  0  0  0  0  0  0  0  0  0  0
    3.4755  -19.4446   25.6686 C   0  0  0  0  0  0  0  0  0  0  0  0
    4.6238  -18.7257   26.1181 N   0  0  0  0  0  0  0  0  0  0  0  0
    2.3545  -19.3316   26.3873 N   0  0  0  0  0  0  0  0  0  0  0  0
    1.2105  -20.0019   26.0264 C   0  0  0  0  0  0  0  0  0  0  0  0
    1.2338  -20.7820   24.8908 C   0  0  0  0  0  0  0  0  0  0  0  0
    2.4387  -20.8686   24.1355 C   0  0  0  0  0  0  0  0  0  0  0  0
    2.4766  -21.6482   23.0011 O   0  0  0  0  0  0  0  0  0  0  0  0
   -0.0778  -21.3389   24.7571 C   0  0  0  0  0  0  0  0  0  0  0  0
   -0.8260  -20.8592   25.8412 C   0  0  0  0  0  0  0  0  0  0  0  0
   -0.0456  -20.0668   26.5868 N   0  0  0  0  0  0  0  0  0  0  0  0
  1  2  1  0  0  0  0
  1  7  1  0  0  0  0
  2  3  1  0  0  0  0
  2  4  2  0  0  0  0
  4  5  1  0  0  0  0
  5  6  2  0  0  0  0
  5 11  1  0  0  0  0
  6  7  1  0  0  0  0
  6  9  1  0  0  0  0
  7  8  2  0  0  0  0
  9 10  2  0  0  0  0
 10 11  1  0  0  0  0
M  END
>  <CHROM.1>
1.91416139,-20.29443092,25.24263300,-0.15548933,-0.28503652,-2.17687175

>  <Name>
ligand

>  <RI>
0

>  <Rbt.Current_Directory>
/home/itssahil/PROJECTS/Mol_Feturizer/New_Systems/rnas/4LVW

>  <Rbt.Executable>
rbdock ($Id: //depot/dev/client3/rdock/2013.1/src/exe/rbdock.cxx#4 $)

>  <Rbt.Library>
libRbt.so (2013.1, Build901 2013/11/27)

>  <Rbt.Parameter_File>
/export/apps/rDock/src/rDock_2013.1_src/data/scripts/dock_solv.prm

>  <Rbt.Receptor>
prm/pocket_docking_5.prm

>  <SCORE>
-13.1063

>  <SCORE.INTER>
-13.1063

>  <SCORE.INTER.CONST>
1

>  <SCORE.INTER.POLAR>
0

>  <SCORE.INTER.ROT>
0

>  <SCORE.INTER.SOLV>
6.46802

>  <SCORE.INTER.VDW>
-14.4935

>  <SCORE.INTER.norm>
-1.19148

>  <SCORE.INTRA>
0

>  <SCORE.INTRA.DIHEDRAL>
0

>  <SCORE.INTRA.DIHEDRAL.0>
0

>  <SCORE.INTRA.POLAR>
0

>  <SCORE.INTRA.POLAR.0>
0

>  <SCORE.INTRA.REPUL>
0

>  <SCORE.INTRA.REPUL.0>
0

>  <SCORE.INTRA.SOLV>
0

>  <SCORE.INTRA.SOLV.lig_0>
-29.307

>  <SCORE.INTRA.VDW>
0

>  <SCORE.INTRA.VDW.0>
0

>  <SCORE.INTRA.norm>
0

>  <SCORE.RESTR>
0

>  <SCORE.RESTR.CAVITY>
0

>  <SCORE.RESTR.norm>
0

>  <SCORE.SYSTEM>
0

>  <SCORE.SYSTEM.CONST>
0

>  <SCORE.SYSTEM.DIHEDRAL>
0

>  <SCORE.SYSTEM.SOLV>
0

>  <SCORE.SYSTEM.norm>
0

>  <SCORE.heavy>
11

>  <SCORE.norm>
-1.19148

>  <RMSD>
4.075

$$$$
ligand
 OpenBabel11021811503D
libRbt.so/2013.1/901 2013/11/27
 11 12  0  0  0  0  0  0  0  0999 V2000
    3.4659  -20.2392   24.5620 N   0  0  0  0  0  0  0  0  0  0  0  0
    3.3998  -19.4831   25.6720 C   0  0  0  0  0  0  0  0  0  0  0  0
    4.5458  -18.7606   26.1216 N   0  0  0  0  0  0  0  0  0  0  0  0
    2.2769  -19.3692   26.3874 N   0  0  0  0  0  0  0  0  0  0  0  0
    1.1349  -20.0427   26.0263 C   0  0  0  0  0  0  0  0  0  0  0  0
    1.1623  -20.8272   24.8937 C   0  0  0  0  0  0  0  0  0  0  0  0
    2.3692  -20.9147   24.1418 C   0  0  0  0  0  0  0  0  0  0  0  0
    2.4113  -21.6986   23.0105 O   0  0  0  0  0  0  0  0  0  0  0  0
   -0.1480  -21.3868   24.7589 C   0  0  0  0  0  0  0  0  0  0  0  0
   -0.8997  -20.9041   25.8392 C   0  0  0  0  0  0  0  0  0  0  0  0
   -0.1225  -20.1075   26.5838 N   0  0  0  0  0  0  0  0  0  0  0  0
  1  2  1  0  0  0  0
  1  7  1  0  0  0  0
  2  3  1  0  0  0  0
  2  4  2  0  0  0  0
  4  5  1  0  0  0  0
  5  6  2  0  0  0  0
  5 11  1  0  0  0  0
  6  7  1  0  0  0  0
  6  9  1  0  0  0  0
  7  8  2  0  0  0  0
  9 10  2  0  0  0  0
 10 11  1  0  0  0  0
M  END
>  <CHROM.1>
1.84101339,-20.33713677,25.24538237,-0.15861985,-0.28495279,-2.18163109

>  <Name>
ligand

>  <RI>
0

>  <Rbt.Current_Directory>
/home/itssahil/PROJECTS/Mol_Feturizer/New_Systems/rnas/4LVW

>  <Rbt.Executable>
rbdock ($Id: //depot/dev/client3/rdock/2013.1/src/exe/rbdock.cxx#4 $)

>  <Rbt.Library>
libRbt.so (2013.1, Build901 2013/11/27)

>  <Rbt.Parameter_File>
/export/apps/rDock/src/rDock_2013.1_src/data/scripts/dock_solv.prm

>  <Rbt.Receptor>
prm/pocket_docking_6.prm

>  <SCORE>
-13.0596

>  <SCORE.INTER>
-13.0596

>  <SCORE.INTER.CONST>
1

>  <SCORE.INTER.POLAR>
0

>  <SCORE.INTER.ROT>
0

>  <SCORE.INTER.SOLV>
6.56544

>  <SCORE.INTER.VDW>
-14.4949

>  <SCORE.INTER.norm>
-1.18724

>  <SCORE.INTRA>
0

>  <SCORE.INTRA.DIHEDRAL>
0

>  <SCORE.INTRA.DIHEDRAL.0>
0

>  <SCORE.INTRA.POLAR>
0

>  <SCORE.INTRA.POLAR.0>
0

>  <SCORE.INTRA.REPUL>
0

>  <SCORE.INTRA.REPUL.0>
0

>  <SCORE.INTRA.SOLV>
0

>  <SCORE.INTRA.SOLV.lig_0>
-29.307

>  <SCORE.INTRA.VDW>
0

>  <SCORE.INTRA.VDW.0>
0

>  <SCORE.INTRA.norm>
0

>  <SCORE.RESTR>
0

>  <SCORE.RESTR.CAVITY>
0

>  <SCORE.RESTR.norm>
0

>  <SCORE.SYSTEM>
0

>  <SCORE.SYSTEM.CONST>
0

>  <SCORE.SYSTEM.DIHEDRAL>
0

>  <SCORE.SYSTEM.SOLV>
0

>  <SCORE.SYSTEM.norm>
0

>  <SCORE.heavy>
11

>  <SCORE.norm>
-1.18724

>  <RMSD>
4.075

$$$$
ligand
 OpenBabel11021811503D
libRbt.so/2013.1/901 2013/11/27
 11 12  0  0  0  0  0  0  0  0999 V2000
    3.4601  -20.2351   24.5739 N   0  0  0  0  0  0  0  0  0  0  0  0
    3.3921  -19.4808   25.6851 C   0  0  0  0  0  0  0  0  0  0  0  0
    4.5370  -18.7579   26.1370 N   0  0  0  0  0  0  0  0  0  0  0  0
    2.2684  -19.3691   26.3996 N   0  0  0  0  0  0  0  0  0  0  0  0
    1.1273  -20.0432   26.0362 C   0  0  0  0  0  0  0  0  0  0  0  0
    1.1566  -20.8258   24.9024 C   0  0  0  0  0  0  0  0  0  0  0  0
    2.3644  -20.9110   24.1516 C   0  0  0  0  0  0  0  0  0  0  0  0
    2.4084  -21.6931   23.0191 O   0  0  0  0  0  0  0  0  0  0  0  0
   -0.1530  -21.3864   24.7655 C   0  0  0  0  0  0  0  0  0  0  0  0
   -0.9062  -20.9062   25.8458 C   0  0  0  0  0  0  0  0  0  0  0  0
   -0.1305  -20.1101   26.5924 N   0  0  0  0  0  0  0  0  0  0  0  0
  1  2  1  0  0  0  0
  1  7  1  0  0  0  0
  2  3  1  0  0  0  0
  2  4  2  0  0  0  0
  4  5  1  0  0  0  0
  5  6  2  0  0  0  0
  5 11  1  0  0  0  0
  6  7  1  0  0  0  0
  6  9  1  0  0  0  0
  7  8  2  0  0  0  0
  9 10  2  0  0  0  0
 10 11  1  0  0  0  0
M  END
>  <CHROM.1>
1.83453780,-20.33567273,25.25557305,-0.16003689,-0.28516960,-2.18043155

>  <Name>
ligand

>  <RI>
0

>  <Rbt.Current_Directory>
/home/itssahil/PROJECTS/Mol_Feturizer/New_Systems/rnas/4LVW

>  <Rbt.Executable>
rbdock ($Id: //depot/dev/client3/rdock/2013.1/src/exe/rbdock.cxx#4 $)

>  <Rbt.Library>
libRbt.so (2013.1, Build901 2013/11/27)

>  <Rbt.Parameter_File>
/export/apps/rDock/src/rDock_2013.1_src/data/scripts/dock_solv.prm

>  <Rbt.Receptor>
prm/pocket_docking_6.prm

>  <SCORE>
-13.059

>  <SCORE.INTER>
-13.059

>  <SCORE.INTER.CONST>
1

>  <SCORE.INTER.POLAR>
0

>  <SCORE.INTER.ROT>
0

>  <SCORE.INTER.SOLV>
6.62132

>  <SCORE.INTER.VDW>
-14.5131

>  <SCORE.INTER.norm>
-1.18718

>  <SCORE.INTRA>
0

>  <SCORE.INTRA.DIHEDRAL>
0

>  <SCORE.INTRA.DIHEDRAL.0>
0

>  <SCORE.INTRA.POLAR>
0

>  <SCORE.INTRA.POLAR.0>
0

>  <SCORE.INTRA.REPUL>
0

>  <SCORE.INTRA.REPUL.0>
0

>  <SCORE.INTRA.SOLV>
0

>  <SCORE.INTRA.SOLV.lig_0>
-29.307

>  <SCORE.INTRA.VDW>
0

>  <SCORE.INTRA.VDW.0>
0

>  <SCORE.INTRA.norm>
0

>  <SCORE.RESTR>
0

>  <SCORE.RESTR.CAVITY>
0

>  <SCORE.RESTR.norm>
0

>  <SCORE.SYSTEM>
0

>  <SCORE.SYSTEM.CONST>
0

>  <SCORE.SYSTEM.DIHEDRAL>
0

>  <SCORE.SYSTEM.SOLV>
0

>  <SCORE.SYSTEM.norm>
0

>  <SCORE.heavy>
11

>  <SCORE.norm>
-1.18718

>  <RMSD>
4.075

$$$$
ligand
 OpenBabel11021811503D
libRbt.so/2013.1/901 2013/11/27
 11 12  0  0  0  0  0  0  0  0999 V2000
    3.5345  -20.2097   24.5496 N   0  0  0  0  0  0  0  0  0  0  0  0
    3.4705  -19.4462   25.6547 C   0  0  0  0  0  0  0  0  0  0  0  0
    4.6172  -18.7204   26.0971 N   0  0  0  0  0  0  0  0  0  0  0  0
    2.3490  -19.3279   26.3717 N   0  0  0  0  0  0  0  0  0  0  0  0
    1.2064  -20.0042   26.0174 C   0  0  0  0  0  0  0  0  0  0  0  0
    1.2318  -20.7962   24.8900 C   0  0  0  0  0  0  0  0  0  0  0  0
    2.4372  -20.8883   24.1362 C   0  0  0  0  0  0  0  0  0  0  0  0
    2.4772  -21.6797   23.0100 O   0  0  0  0  0  0  0  0  0  0  0  0
   -0.0786  -21.3570   24.7617 C   0  0  0  0  0  0  0  0  0  0  0  0
   -0.8283  -20.8674   25.8403 C   0  0  0  0  0  0  0  0  0  0  0  0
   -0.0497  -20.0656   26.5779 N   0  0  0  0  0  0  0  0  0  0  0  0
  1  2  1  0  0  0  0
  1  7  1  0  0  0  0
  2  3  1  0  0  0  0
  2  4  2  0  0  0  0
  4  5  1  0  0  0  0
  5  6  2  0  0  0  0
  5 11  1  0  0  0  0
  6  7  1  0  0  0  0
  6  9  1  0  0  0  0
  7  8  2  0  0  0  0
  9 10  2  0  0  0  0
 10 11  1  0  0  0  0
M  END
>  <CHROM.1>
1.91105304,-20.30357140,25.23702744,-0.15703428,-0.28639717,-2.18781984

>  <Name>
ligand

>  <RI>
0

>  <Rbt.Current_Directory>
/home/itssahil/PROJECTS/Mol_Feturizer/New_Systems/rnas/4LVW

>  <Rbt.Executable>
rbdock ($Id: //depot/dev/client3/rdock/2013.1/src/exe/rbdock.cxx#4 $)

>  <Rbt.Library>
libRbt.so (2013.1, Build901 2013/11/27)

>  <Rbt.Parameter_File>
/export/apps/rDock/src/rDock_2013.1_src/data/scripts/dock_solv.prm

>  <Rbt.Receptor>
prm/pocket_docking_7.prm

>  <SCORE>
-13.0928

>  <SCORE.INTER>
-13.0928

>  <SCORE.INTER.CONST>
1

>  <SCORE.INTER.POLAR>
0

>  <SCORE.INTER.ROT>
0

>  <SCORE.INTER.SOLV>
6.45039

>  <SCORE.INTER.VDW>
-14.4787

>  <SCORE.INTER.norm>
-1.19025

>  <SCORE.INTRA>
0

>  <SCORE.INTRA.DIHEDRAL>
0

>  <SCORE.INTRA.DIHEDRAL.0>
0

>  <SCORE.INTRA.POLAR>
0

>  <SCORE.INTRA.POLAR.0>
0

>  <SCORE.INTRA.REPUL>
0

>  <SCORE.INTRA.REPUL.0>
0

>  <SCORE.INTRA.SOLV>
0

>  <SCORE.INTRA.SOLV.lig_0>
-29.307

>  <SCORE.INTRA.VDW>
0

>  <SCORE.INTRA.VDW.0>
0

>  <SCORE.INTRA.norm>
0

>  <SCORE.RESTR>
0

>  <SCORE.RESTR.CAVITY>
0

>  <SCORE.RESTR.norm>
0

>  <SCORE.SYSTEM>
0

>  <SCORE.SYSTEM.CONST>
0

>  <SCORE.SYSTEM.DIHEDRAL>
0

>  <SCORE.SYSTEM.SOLV>
0

>  <SCORE.SYSTEM.norm>
0

>  <SCORE.heavy>
11

>  <SCORE.norm>
-1.19025

>  <RMSD>
4.075

$$$$
ligand
 OpenBabel11021811503D
libRbt.so/2013.1/901 2013/11/27
 11 12  0  0  0  0  0  0  0  0999 V2000
    3.5407  -20.2073   24.5629 N   0  0  0  0  0  0  0  0  0  0  0  0
    3.4796  -19.4582   25.6779 C   0  0  0  0  0  0  0  0  0  0  0  0
    4.6303  -18.7463   26.1323 N   0  0  0  0  0  0  0  0  0  0  0  0
    2.3574  -19.3416   26.3941 N   0  0  0  0  0  0  0  0  0  0  0  0
    1.2109  -20.0051   26.0285 C   0  0  0  0  0  0  0  0  0  0  0  0
    1.2332  -20.7823   24.8908 C   0  0  0  0  0  0  0  0  0  0  0  0
    2.4396  -20.8728   24.1383 C   0  0  0  0  0  0  0  0  0  0  0  0
    2.4765  -21.6495   23.0018 O   0  0  0  0  0  0  0  0  0  0  0  0
   -0.0808  -21.3322   24.7523 C   0  0  0  0  0  0  0  0  0  0  0  0
   -0.8293  -20.8517   25.8358 C   0  0  0  0  0  0  0  0  0  0  0  0
   -0.0468  -20.0653   26.5856 N   0  0  0  0  0  0  0  0  0  0  0  0
  1  2  1  0  0  0  0
  1  7  1  0  0  0  0
  2  3  1  0  0  0  0
  2  4  2  0  0  0  0
  4  5  1  0  0  0  0
  5  6  2  0  0  0  0
  5 11  1  0  0  0  0
  6  7  1  0  0  0  0
  6  9  1  0  0  0  0
  7  8  2  0  0  0  0
  9 10  2  0  0  0  0
 10 11  1  0  0  0  0
M  END
>  <CHROM.1>
1.91515005,-20.29904191,25.24570174,-0.15469132,-0.27951165,-2.17391356

>  <Name>
ligand

>  <RI>
0

>  <Rbt.Current_Directory>
/home/itssahil/PROJECTS/Mol_Feturizer/New_Systems/rnas/4LVW

>  <Rbt.Executable>
rbdock ($Id: //depot/dev/client3/rdock/2013.1/src/exe/rbdock.cxx#4 $)

>  <Rbt.Library>
libRbt.so (2013.1, Build901 2013/11/27)

>  <Rbt.Parameter_File>
/export/apps/rDock/src/rDock_2013.1_src/data/scripts/dock_solv.prm

>  <Rbt.Receptor>
prm/pocket_docking_8.prm

>  <SCORE>
-13.1076

>  <SCORE.INTER>
-13.1076

>  <SCORE.INTER.CONST>
1

>  <SCORE.INTER.POLAR>
0

>  <SCORE.INTER.ROT>
0

>  <SCORE.INTER.SOLV>
6.4146

>  <SCORE.INTER.VDW>
-14.4766

>  <SCORE.INTER.norm>
-1.1916

>  <SCORE.INTRA>
0

>  <SCORE.INTRA.DIHEDRAL>
0

>  <SCORE.INTRA.DIHEDRAL.0>
0

>  <SCORE.INTRA.POLAR>
0

>  <SCORE.INTRA.POLAR.0>
0

>  <SCORE.INTRA.REPUL>
0

>  <SCORE.INTRA.REPUL.0>
0

>  <SCORE.INTRA.SOLV>
0

>  <SCORE.INTRA.SOLV.lig_0>
-29.307

>  <SCORE.INTRA.VDW>
0

>  <SCORE.INTRA.VDW.0>
0

>  <SCORE.INTRA.norm>
0

>  <SCORE.RESTR>
0

>  <SCORE.RESTR.CAVITY>
0

>  <SCORE.RESTR.norm>
0

>  <SCORE.SYSTEM>
0

>  <SCORE.SYSTEM.CONST>
0

>  <SCORE.SYSTEM.DIHEDRAL>
0

>  <SCORE.SYSTEM.SOLV>
0

>  <SCORE.SYSTEM.norm>
0

>  <SCORE.heavy>
11

>  <SCORE.norm>
-1.1916

>  <RMSD>
4.075

$$$$
ligand
 OpenBabel11021811503D
libRbt.so/2013.1/901 2013/11/27
 11 12  0  0  0  0  0  0  0  0999 V2000
    3.5282  -20.1804   24.5350 N   0  0  0  0  0  0  0  0  0  0  0  0
    3.4716  -19.4447   25.6591 C   0  0  0  0  0  0  0  0  0  0  0  0
    4.6211  -18.7295   26.1115 N   0  0  0  0  0  0  0  0  0  0  0  0
    2.3550  -19.3447   26.3865 N   0  0  0  0  0  0  0  0  0  0  0  0
    1.2102  -20.0125   26.0233 C   0  0  0  0  0  0  0  0  0  0  0  0
    1.2280  -20.7762   24.8765 C   0  0  0  0  0  0  0  0  0  0  0  0
    2.4283  -20.8491   24.1124 C   0  0  0  0  0  0  0  0  0  0  0  0
    2.4608  -21.6123   22.9667 O   0  0  0  0  0  0  0  0  0  0  0  0
   -0.0831  -21.3343   24.7433 C   0  0  0  0  0  0  0  0  0  0  0  0
   -0.8254  -20.8720   25.8389 C   0  0  0  0  0  0  0  0  0  0  0  0
   -0.0421  -20.0884   26.5908 N   0  0  0  0  0  0  0  0  0  0  0  0
  1  2  1  0  0  0  0
  1  7  1  0  0  0  0
  2  3  1  0  0  0  0
  2  4  2  0  0  0  0
  4  5  1  0  0  0  0
  5  6  2  0  0  0  0
  5 11  1  0  0  0  0
  6  7  1  0  0  0  0
  6  9  1  0  0  0  0
  7  8  2  0  0  0  0
  9 10  2  0  0  0  0
 10 11  1  0  0  0  0
M  END
>  <CHROM.1>
1.90954858,-20.29210285,25.23098326,-0.15136724,-0.29060543,-2.16139155

>  <Name>
ligand

>  <RI>
0

>  <Rbt.Current_Directory>
/home/itssahil/PROJECTS/Mol_Feturizer/New_Systems/rnas/4LVW

>  <Rbt.Executable>
rbdock ($Id: //depot/dev/client3/rdock/2013.1/src/exe/rbdock.cxx#4 $)

>  <Rbt.Library>
libRbt.so (2013.1, Build901 2013/11/27)

>  <Rbt.Parameter_File>
/export/apps/rDock/src/rDock_2013.1_src/data/scripts/dock_solv.prm

>  <Rbt.Receptor>
prm/pocket_docking_3.prm

>  <SCORE>
-13.0945

>  <SCORE.INTER>
-13.0945

>  <SCORE.INTER.CONST>
1

>  <SCORE.INTER.POLAR>
0

>  <SCORE.INTER.ROT>
0

>  <SCORE.INTER.SOLV>
6.47336

>  <SCORE.INTER.VDW>
-14.4874

>  <SCORE.INTER.norm>
-1.19041

>  <SCORE.INTRA>
0

>  <SCORE.INTRA.DIHEDRAL>
0

>  <SCORE.INTRA.DIHEDRAL.0>
0

>  <SCORE.INTRA.POLAR>
0

>  <SCORE.INTRA.POLAR.0>
0

>  <SCORE.INTRA.REPUL>
0

>  <SCORE.INTRA.REPUL.0>
0

>  <SCORE.INTRA.SOLV>
0

>  <SCORE.INTRA.SOLV.lig_0>
-29.307

>  <SCORE.INTRA.VDW>
0

>  <SCORE.INTRA.VDW.0>
0

>  <SCORE.INTRA.norm>
0

>  <SCORE.RESTR>
0

>  <SCORE.RESTR.CAVITY>
0

>  <SCORE.RESTR.norm>
0

>  <SCORE.SYSTEM>
0

>  <SCORE.SYSTEM.CONST>
0

>  <SCORE.SYSTEM.DIHEDRAL>
0

>  <SCORE.SYSTEM.SOLV>
0

>  <SCORE.SYSTEM.norm>
0

>  <SCORE.heavy>
11

>  <SCORE.norm>
-1.19041

>  <RMSD>
4.076

$$$$
ligand
 OpenBabel11021811503D
libRbt.so/2013.1/901 2013/11/27
 11 12  0  0  0  0  0  0  0  0999 V2000
    3.5333  -20.1484   24.5253 N   0  0  0  0  0  0  0  0  0  0  0  0
    3.4754  -19.4110   25.6483 C   0  0  0  0  0  0  0  0  0  0  0  0
    4.6191  -18.6805   26.0910 N   0  0  0  0  0  0  0  0  0  0  0  0
    2.3630  -19.3236   26.3836 N   0  0  0  0  0  0  0  0  0  0  0  0
    1.2241  -20.0065   26.0300 C   0  0  0  0  0  0  0  0  0  0  0  0
    1.2433  -20.7724   24.8846 C   0  0  0  0  0  0  0  0  0  0  0  0
    2.4388  -20.8317   24.1120 C   0  0  0  0  0  0  0  0  0  0  0  0
    2.4727  -21.5968   22.9676 O   0  0  0  0  0  0  0  0  0  0  0  0
   -0.0616  -21.3472   24.7620 C   0  0  0  0  0  0  0  0  0  0  0  0
   -0.8018  -20.8920   25.8620 C   0  0  0  0  0  0  0  0  0  0  0  0
   -0.0230  -20.0971   26.6066 N   0  0  0  0  0  0  0  0  0  0  0  0
  1  2  1  0  0  0  0
  1  7  1  0  0  0  0
  2  3  1  0  0  0  0
  2  4  2  0  0  0  0
  4  5  1  0  0  0  0
  5  6  2  0  0  0  0
  5 11  1  0  0  0  0
  6  7  1  0  0  0  0
  6  9  1  0  0  0  0
  7  8  2  0  0  0  0
  9 10  2  0  0  0  0
 10 11  1  0  0  0  0
M  END
>  <CHROM.1>
1.92118069,-20.27895709,25.23316350,-0.15246165,-0.30509278,-2.16374294

>  <Name>
ligand

>  <RI>
0

>  <Rbt.Current_Directory>
/home/itssahil/PROJECTS/Mol_Feturizer/New_Systems/rnas/4LVW

>  <Rbt.Executable>
rbdock ($Id: //depot/dev/client3/rdock/2013.1/src/exe/rbdock.cxx#4 $)

>  <Rbt.Library>
libRbt.so (2013.1, Build901 2013/11/27)

>  <Rbt.Parameter_File>
/export/apps/rDock/src/rDock_2013.1_src/data/scripts/dock_solv.prm

>  <Rbt.Receptor>
prm/pocket_docking_3.prm

>  <SCORE>
-13.0827

>  <SCORE.INTER>
-13.0827

>  <SCORE.INTER.CONST>
1

>  <SCORE.INTER.POLAR>
0

>  <SCORE.INTER.ROT>
0

>  <SCORE.INTER.SOLV>
6.57872

>  <SCORE.INTER.VDW>
-14.5147

>  <SCORE.INTER.norm>
-1.18934

>  <SCORE.INTRA>
0

>  <SCORE.INTRA.DIHEDRAL>
0

>  <SCORE.INTRA.DIHEDRAL.0>
0

>  <SCORE.INTRA.POLAR>
0

>  <SCORE.INTRA.POLAR.0>
0

>  <SCORE.INTRA.REPUL>
0

>  <SCORE.INTRA.REPUL.0>
0

>  <SCORE.INTRA.SOLV>
0

>  <SCORE.INTRA.SOLV.lig_0>
-29.307

>  <SCORE.INTRA.VDW>
0

>  <SCORE.INTRA.VDW.0>
0

>  <SCORE.INTRA.norm>
0

>  <SCORE.RESTR>
0

>  <SCORE.RESTR.CAVITY>
0

>  <SCORE.RESTR.norm>
0

>  <SCORE.SYSTEM>
0

>  <SCORE.SYSTEM.CONST>
0

>  <SCORE.SYSTEM.DIHEDRAL>
0

>  <SCORE.SYSTEM.SOLV>
0

>  <SCORE.SYSTEM.norm>
0

>  <SCORE.heavy>
11

>  <SCORE.norm>
-1.18934

>  <RMSD>
4.077

$$$$
ligand
 OpenBabel11021811503D
libRbt.so/2013.1/901 2013/11/27
 11 12  0  0  0  0  0  0  0  0999 V2000
    3.5435  -20.1786   24.5359 N   0  0  0  0  0  0  0  0  0  0  0  0
    3.4808  -19.4194   25.6440 C   0  0  0  0  0  0  0  0  0  0  0  0
    4.6232  -18.6822   26.0786 N   0  0  0  0  0  0  0  0  0  0  0  0
    2.3644  -19.3158   26.3712 N   0  0  0  0  0  0  0  0  0  0  0  0
    1.2263  -20.0036   26.0248 C   0  0  0  0  0  0  0  0  0  0  0  0
    1.2505  -20.7917   24.8947 C   0  0  0  0  0  0  0  0  0  0  0  0
    2.4501  -20.8681   24.1300 C   0  0  0  0  0  0  0  0  0  0  0  0
    2.4889  -21.6555   23.0010 O   0  0  0  0  0  0  0  0  0  0  0  0
   -0.0547  -21.3667   24.7761 C   0  0  0  0  0  0  0  0  0  0  0  0
   -0.8002  -20.8888   25.8628 C   0  0  0  0  0  0  0  0  0  0  0  0
   -0.0241  -20.0808   26.5961 N   0  0  0  0  0  0  0  0  0  0  0  0
  1  2  1  0  0  0  0
  1  7  1  0  0  0  0
  2  3  1  0  0  0  0
  2  4  2  0  0  0  0
  4  5  1  0  0  0  0
  5  6  2  0  0  0  0
  5 11  1  0  0  0  0
  6  7  1  0  0  0  0
  6  9  1  0  0  0  0
  7  8  2  0  0  0  0
  9 10  2  0  0  0  0
 10 11  1  0  0  0  0
M  END
>  <CHROM.1>
1.92729327,-20.29270566,25.23726736,-0.15621411,-0.30056050,-2.18441853

>  <Name>
ligand

>  <RI>
0

>  <Rbt.Current_Directory>
/home/itssahil/PROJECTS/Mol_Feturizer/New_Systems/rnas/4LVW

>  <Rbt.Executable>
rbdock ($Id: //depot/dev/client3/rdock/2013.1/src/exe/rbdock.cxx#4 $)

>  <Rbt.Library>
libRbt.so (2013.1, Build901 2013/11/27)

>  <Rbt.Parameter_File>
/export/apps/rDock/src/rDock_2013.1_src/data/scripts/dock_solv.prm

>  <Rbt.Receptor>
prm/pocket_docking_7.prm

>  <SCORE>
-13.086

>  <SCORE.INTER>
-13.086

>  <SCORE.INTER.CONST>
1

>  <SCORE.INTER.POLAR>
0

>  <SCORE.INTER.ROT>
0

>  <SCORE.INTER.SOLV>
6.50591

>  <SCORE.INTER.VDW>
-14.4927

>  <SCORE.INTER.norm>
-1.18964

>  <SCORE.INTRA>
0

>  <SCORE.INTRA.DIHEDRAL>
0

>  <SCORE.INTRA.DIHEDRAL.0>
0

>  <SCORE.INTRA.POLAR>
0

>  <SCORE.INTRA.POLAR.0>
0

>  <SCORE.INTRA.REPUL>
0

>  <SCORE.INTRA.REPUL.0>
0

>  <SCORE.INTRA.SOLV>
0

>  <SCORE.INTRA.SOLV.lig_0>
-29.307

>  <SCORE.INTRA.VDW>
0

>  <SCORE.INTRA.VDW.0>
0

>  <SCORE.INTRA.norm>
0

>  <SCORE.RESTR>
0

>  <SCORE.RESTR.CAVITY>
0

>  <SCORE.RESTR.norm>
0

>  <SCORE.SYSTEM>
0

>  <SCORE.SYSTEM.CONST>
0

>  <SCORE.SYSTEM.DIHEDRAL>
0

>  <SCORE.SYSTEM.SOLV>
0

>  <SCORE.SYSTEM.norm>
0

>  <SCORE.heavy>
11

>  <SCORE.norm>
-1.18964

>  <RMSD>
4.077

$$$$
ligand
 OpenBabel11021811503D
libRbt.so/2013.1/901 2013/11/27
 11 12  0  0  0  0  0  0  0  0999 V2000
    3.5123  -20.4642   24.7178 N   0  0  0  0  0  0  0  0  0  0  0  0
    3.5651  -20.0693   26.0021 C   0  0  0  0  0  0  0  0  0  0  0  0
    4.7917  -19.6017   26.5628 N   0  0  0  0  0  0  0  0  0  0  0  0
    2.4899  -20.0886   26.7956 N   0  0  0  0  0  0  0  0  0  0  0  0
    1.2757  -20.5362   26.3332 C   0  0  0  0  0  0  0  0  0  0  0  0
    1.1808  -20.9485   25.0218 C   0  0  0  0  0  0  0  0  0  0  0  0
    2.3404  -20.8995   24.1955 C   0  0  0  0  0  0  0  0  0  0  0  0
    2.2601  -21.3127   22.8844 O   0  0  0  0  0  0  0  0  0  0  0  0
   -0.1803  -21.3421   24.8203 C   0  0  0  0  0  0  0  0  0  0  0  0
   -0.8361  -21.1469   26.0438 C   0  0  0  0  0  0  0  0  0  0  0  0
    0.0434  -20.6686   26.9330 N   0  0  0  0  0  0  0  0  0  0  0  0
  1  2  1  0  0  0  0
  1  7  1  0  0  0  0
  2  3  1  0  0  0  0
  2  4  2  0  0  0  0
  4  5  1  0  0  0  0
  5  6  2  0  0  0  0
  5 11  1  0  0  0  0
  6  7  1  0  0  0  0
  6  9  1  0  0  0  0
  7  8  2  0  0  0  0
  9 10  2  0  0  0  0
 10 11  1  0  0  0  0
M  END
>  <CHROM.1>
1.91671777,-20.63774356,25.45347108,-0.06705482,-0.23305166,-1.85821694

>  <Name>
ligand

>  <RI>
0

>  <Rbt.Current_Directory>
/home/itssahil/PROJECTS/Mol_Feturizer/New_Systems/rnas/4LVW

>  <Rbt.Executable>
rbdock ($Id: //depot/dev/client3/rdock/2013.1/src/exe/rbdock.cxx#4 $)

>  <Rbt.Library>
libRbt.so (2013.1, Build901 2013/11/27)

>  <Rbt.Parameter_File>
/export/apps/rDock/src/rDock_2013.1_src/data/scripts/dock_solv.prm

>  <Rbt.Receptor>
prm/pocket_docking_6.prm

>  <SCORE>
-12.4505

>  <SCORE.INTER>
-12.4505

>  <SCORE.INTER.CONST>
1

>  <SCORE.INTER.POLAR>
0

>  <SCORE.INTER.ROT>
0

>  <SCORE.INTER.SOLV>
5.14352

>  <SCORE.INTER.VDW>
-13.6149

>  <SCORE.INTER.norm>
-1.13187

>  <SCORE.INTRA>
0

>  <SCORE.INTRA.DIHEDRAL>
0

>  <SCORE.INTRA.DIHEDRAL.0>
0

>  <SCORE.INTRA.POLAR>
0

>  <SCORE.INTRA.POLAR.0>
0

>  <SCORE.INTRA.REPUL>
0

>  <SCORE.INTRA.REPUL.0>
0

>  <SCORE.INTRA.SOLV>
0

>  <SCORE.INTRA.SOLV.lig_0>
-29.307

>  <SCORE.INTRA.VDW>
0

>  <SCORE.INTRA.VDW.0>
0

>  <SCORE.INTRA.norm>
0

>  <SCORE.RESTR>
0

>  <SCORE.RESTR.CAVITY>
0

>  <SCORE.RESTR.norm>
0

>  <SCORE.SYSTEM>
0

>  <SCORE.SYSTEM.CONST>
0

>  <SCORE.SYSTEM.DIHEDRAL>
0

>  <SCORE.SYSTEM.SOLV>
0

>  <SCORE.SYSTEM.norm>
0

>  <SCORE.heavy>
11

>  <SCORE.norm>
-1.13187

>  <RMSD>
4.078

$$$$
ligand
 OpenBabel11021811503D
libRbt.so/2013.1/901 2013/11/27
 11 12  0  0  0  0  0  0  0  0999 V2000
    3.5307  -20.6847   24.7137 N   0  0  0  0  0  0  0  0  0  0  0  0
    3.6252  -20.4317   26.0310 C   0  0  0  0  0  0  0  0  0  0  0  0
    4.8872  -20.1088   26.6145 N   0  0  0  0  0  0  0  0  0  0  0  0
    2.5604  -20.4626   26.8380 N   0  0  0  0  0  0  0  0  0  0  0  0
    1.3132  -20.7767   26.3541 C   0  0  0  0  0  0  0  0  0  0  0  0
    1.1752  -21.0413   25.0088 C   0  0  0  0  0  0  0  0  0  0  0  0
    2.3258  -20.9833   24.1708 C   0  0  0  0  0  0  0  0  0  0  0  0
    2.2024  -21.2499   22.8254 O   0  0  0  0  0  0  0  0  0  0  0  0
   -0.2119  -21.3197   24.7928 C   0  0  0  0  0  0  0  0  0  0  0  0
   -0.8387  -21.2110   26.0420 C   0  0  0  0  0  0  0  0  0  0  0  0
    0.0817  -20.8888   26.9597 N   0  0  0  0  0  0  0  0  0  0  0  0
  1  2  1  0  0  0  0
  1  7  1  0  0  0  0
  2  3  1  0  0  0  0
  2  4  2  0  0  0  0
  4  5  1  0  0  0  0
  5  6  2  0  0  0  0
  5 11  1  0  0  0  0
  6  7  1  0  0  0  0
  6  9  1  0  0  0  0
  7  8  2  0  0  0  0
  9 10  2  0  0  0  0
 10 11  1  0  0  0  0
M  END
>  <CHROM.1>
1.93556878,-20.82772340,25.45683013,-0.03617778,-0.17051527,-1.74691196

>  <Name>
ligand

>  <RI>
0

>  <Rbt.Current_Directory>
/home/itssahil/PROJECTS/Mol_Feturizer/New_Systems/rnas/4LVW

>  <Rbt.Executable>
rbdock ($Id: //depot/dev/client3/rdock/2013.1/src/exe/rbdock.cxx#4 $)

>  <Rbt.Library>
libRbt.so (2013.1, Build901 2013/11/27)

>  <Rbt.Parameter_File>
/export/apps/rDock/src/rDock_2013.1_src/data/scripts/dock_solv.prm

>  <Rbt.Receptor>
prm/pocket_docking_4.prm

>  <SCORE>
-12.3607

>  <SCORE.INTER>
-12.3607

>  <SCORE.INTER.CONST>
1

>  <SCORE.INTER.POLAR>
0

>  <SCORE.INTER.ROT>
0

>  <SCORE.INTER.SOLV>
4.49118

>  <SCORE.INTER.VDW>
-13.3376

>  <SCORE.INTER.norm>
-1.1237

>  <SCORE.INTRA>
0

>  <SCORE.INTRA.DIHEDRAL>
0

>  <SCORE.INTRA.DIHEDRAL.0>
0

>  <SCORE.INTRA.POLAR>
0

>  <SCORE.INTRA.POLAR.0>
0

>  <SCORE.INTRA.REPUL>
0

>  <SCORE.INTRA.REPUL.0>
0

>  <SCORE.INTRA.SOLV>
0

>  <SCORE.INTRA.SOLV.lig_0>
-29.307

>  <SCORE.INTRA.VDW>
0

>  <SCORE.INTRA.VDW.0>
0

>  <SCORE.INTRA.norm>
0

>  <SCORE.RESTR>
0

>  <SCORE.RESTR.CAVITY>
0

>  <SCORE.RESTR.norm>
0

>  <SCORE.SYSTEM>
0

>  <SCORE.SYSTEM.CONST>
0

>  <SCORE.SYSTEM.DIHEDRAL>
0

>  <SCORE.SYSTEM.SOLV>
0

>  <SCORE.SYSTEM.norm>
0

>  <SCORE.heavy>
11

>  <SCORE.norm>
-1.1237

>  <RMSD>
4.081

$$$$
ligand
 OpenBabel11021811503D
libRbt.so/2013.1/901 2013/11/27
 11 12  0  0  0  0  0  0  0  0999 V2000
    6.7393  -20.7518   29.4919 N   0  0  0  0  0  0  0  0  0  0  0  0
    6.0095  -21.5619   28.7049 C   0  0  0  0  0  0  0  0  0  0  0  0
    6.1801  -21.5359   27.2879 N   0  0  0  0  0  0  0  0  0  0  0  0
    5.1134  -22.4182   29.2044 N   0  0  0  0  0  0  0  0  0  0  0  0
    4.8831  -22.4944   30.5570 C   0  0  0  0  0  0  0  0  0  0  0  0
    5.6122  -21.6809   31.3969 C   0  0  0  0  0  0  0  0  0  0  0  0
    6.5729  -20.7910   30.8359 C   0  0  0  0  0  0  0  0  0  0  0  0
    7.3051  -19.9695   31.6638 O   0  0  0  0  0  0  0  0  0  0  0  0
    5.1768  -21.9808   32.7268 C   0  0  0  0  0  0  0  0  0  0  0  0
    4.1900  -22.9694   32.6089 C   0  0  0  0  0  0  0  0  0  0  0  0
    4.0263  -23.2629   31.3128 N   0  0  0  0  0  0  0  0  0  0  0  0
  1  2  1  0  0  0  0
  1  7  1  0  0  0  0
  2  3  1  0  0  0  0
  2  4  2  0  0  0  0
  4  5  1  0  0  0  0
  5  6  2  0  0  0  0
  5 11  1  0  0  0  0
  6  7  1  0  0  0  0
  6  9  1  0  0  0  0
  7  8  2  0  0  0  0
  9 10  2  0  0  0  0
 10 11  1  0  0  0  0
M  END
>  <CHROM.1>
5.65987579,-21.72802325,30.49133333,-0.97897271,0.78024841,1.46812171

>  <Name>
ligand

>  <RI>
0

>  <Rbt.Current_Directory>
/home/itssahil/PROJECTS/Mol_Feturizer/New_Systems/rnas/4LVW

>  <Rbt.Executable>
rbdock ($Id: //depot/dev/client3/rdock/2013.1/src/exe/rbdock.cxx#4 $)

>  <Rbt.Library>
libRbt.so (2013.1, Build901 2013/11/27)

>  <Rbt.Parameter_File>
/export/apps/rDock/src/rDock_2013.1_src/data/scripts/dock_solv.prm

>  <Rbt.Receptor>
prm/pocket_docking_8.prm

>  <SCORE>
-8.62722

>  <SCORE.INTER>
-8.62722

>  <SCORE.INTER.CONST>
1

>  <SCORE.INTER.POLAR>
0

>  <SCORE.INTER.ROT>
0

>  <SCORE.INTER.SOLV>
2.93932

>  <SCORE.INTER.VDW>
-10.3313

>  <SCORE.INTER.norm>
-0.784293

>  <SCORE.INTRA>
0

>  <SCORE.INTRA.DIHEDRAL>
0

>  <SCORE.INTRA.DIHEDRAL.0>
0

>  <SCORE.INTRA.POLAR>
0

>  <SCORE.INTRA.POLAR.0>
0

>  <SCORE.INTRA.REPUL>
0

>  <SCORE.INTRA.REPUL.0>
0

>  <SCORE.INTRA.SOLV>
0

>  <SCORE.INTRA.SOLV.lig_0>
-29.307

>  <SCORE.INTRA.VDW>
0

>  <SCORE.INTRA.VDW.0>
0

>  <SCORE.INTRA.norm>
0

>  <SCORE.RESTR>
0

>  <SCORE.RESTR.CAVITY>
0

>  <SCORE.RESTR.norm>
0

>  <SCORE.SYSTEM>
0

>  <SCORE.SYSTEM.CONST>
0

>  <SCORE.SYSTEM.DIHEDRAL>
0

>  <SCORE.SYSTEM.SOLV>
0

>  <SCORE.SYSTEM.norm>
0

>  <SCORE.heavy>
11

>  <SCORE.norm>
-0.784293

>  <RMSD>
7.396

$$$$
ligand
 OpenBabel11021811503D
libRbt.so/2013.1/901 2013/11/27
 11 12  0  0  0  0  0  0  0  0999 V2000
   -0.0319  -29.1702   27.0782 N   0  0  0  0  0  0  0  0  0  0  0  0
    0.4079  -30.1158   26.2294 C   0  0  0  0  0  0  0  0  0  0  0  0
    1.8032  -30.2512   25.9609 N   0  0  0  0  0  0  0  0  0  0  0  0
   -0.4250  -30.9617   25.6156 N   0  0  0  0  0  0  0  0  0  0  0  0
   -1.7830  -30.8877   25.8130 C   0  0  0  0  0  0  0  0  0  0  0  0
   -2.2726  -29.9323   26.6769 C   0  0  0  0  0  0  0  0  0  0  0  0
   -1.3583  -29.0564   27.3300 C   0  0  0  0  0  0  0  0  0  0  0  0
   -1.8349  -28.0944   28.1923 O   0  0  0  0  0  0  0  0  0  0  0  0
   -3.6943  -30.0959   26.6953 C   0  0  0  0  0  0  0  0  0  0  0  0
   -3.9842  -31.1538   25.8224 C   0  0  0  0  0  0  0  0  0  0  0  0
   -2.8376  -31.6128   25.3052 N   0  0  0  0  0  0  0  0  0  0  0  0
  1  2  1  0  0  0  0
  1  7  1  0  0  0  0
  2  3  1  0  0  0  0
  2  4  2  0  0  0  0
  4  5  1  0  0  0  0
  5  6  2  0  0  0  0
  5 11  1  0  0  0  0
  6  7  1  0  0  0  0
  6  9  1  0  0  0  0
  7  8  2  0  0  0  0
  9 10  2  0  0  0  0
 10 11  1  0  0  0  0
M  END
>  <CHROM.1>
-1.40604710,-30.08593909,26.45349712,0.22641859,0.08238761,0.70454110

>  <Name>
ligand

>  <RI>
0

>  <Rbt.Current_Directory>
/home/itssahil/PROJECTS/Mol_Feturizer/New_Systems/rnas/4LVW

>  <Rbt.Executable>
rbdock ($Id: //depot/dev/client3/rdock/2013.1/src/exe/rbdock.cxx#4 $)

>  <Rbt.Library>
libRbt.so (2013.1, Build901 2013/11/27)

>  <Rbt.Parameter_File>
/export/apps/rDock/src/rDock_2013.1_src/data/scripts/dock_solv.prm

>  <Rbt.Receptor>
prm/blind_docking_100.prm

>  <SCORE>
-10.8921

>  <SCORE.INTER>
-10.8921

>  <SCORE.INTER.CONST>
1

>  <SCORE.INTER.POLAR>
0

>  <SCORE.INTER.ROT>
0

>  <SCORE.INTER.SOLV>
9.70351

>  <SCORE.INTER.VDW>
-14.0959

>  <SCORE.INTER.norm>
-0.990186

>  <SCORE.INTRA>
0

>  <SCORE.INTRA.DIHEDRAL>
0

>  <SCORE.INTRA.DIHEDRAL.0>
0

>  <SCORE.INTRA.POLAR>
0

>  <SCORE.INTRA.POLAR.0>
0

>  <SCORE.INTRA.REPUL>
0

>  <SCORE.INTRA.REPUL.0>
0

>  <SCORE.INTRA.SOLV>
0

>  <SCORE.INTRA.SOLV.lig_0>
-29.307

>  <SCORE.INTRA.VDW>
0

>  <SCORE.INTRA.VDW.0>
0

>  <SCORE.INTRA.norm>
0

>  <SCORE.RESTR>
0

>  <SCORE.RESTR.CAVITY>
0

>  <SCORE.RESTR.norm>
0

>  <SCORE.SYSTEM>
0

>  <SCORE.SYSTEM.CONST>
0

>  <SCORE.SYSTEM.DIHEDRAL>
0

>  <SCORE.SYSTEM.SOLV>
0

>  <SCORE.SYSTEM.norm>
0

>  <SCORE.heavy>
11

>  <SCORE.norm>
-0.990186

>  <RMSD>
10.758

$$$$
ligand
 OpenBabel11021811503D
libRbt.so/2013.1/901 2013/11/27
 11 12  0  0  0  0  0  0  0  0999 V2000
   -5.2659  -30.4619   27.8198 N   0  0  0  0  0  0  0  0  0  0  0  0
   -5.0749  -29.7118   28.9194 C   0  0  0  0  0  0  0  0  0  0  0  0
   -6.0699  -29.6647   29.9418 N   0  0  0  0  0  0  0  0  0  0  0  0
   -3.9622  -28.9956   29.1057 N   0  0  0  0  0  0  0  0  0  0  0  0
   -2.9632  -28.9796   28.1622 C   0  0  0  0  0  0  0  0  0  0  0  0
   -3.1213  -29.7366   27.0216 C   0  0  0  0  0  0  0  0  0  0  0  0
   -4.3109  -30.5036   26.8597 C   0  0  0  0  0  0  0  0  0  0  0  0
   -4.4833  -31.2609   25.7226 O   0  0  0  0  0  0  0  0  0  0  0  0
   -1.9391  -29.5391   26.2396 C   0  0  0  0  0  0  0  0  0  0  0  0
   -1.1265  -28.6553   26.9632 C   0  0  0  0  0  0  0  0  0  0  0  0
   -1.7500  -28.3312   28.1030 N   0  0  0  0  0  0  0  0  0  0  0  0
  1  2  1  0  0  0  0
  1  7  1  0  0  0  0
  2  3  1  0  0  0  0
  2  4  2  0  0  0  0
  4  5  1  0  0  0  0
  5  6  2  0  0  0  0
  5 11  1  0  0  0  0
  6  7  1  0  0  0  0
  6  9  1  0  0  0  0
  7  8  2  0  0  0  0
  9 10  2  0  0  0  0
 10 11  1  0  0  0  0
M  END
>  <CHROM.1>
-3.70007252,-29.65290044,27.71623028,2.87622527,0.44877473,1.03963248

>  <Name>
ligand

>  <RI>
0

>  <Rbt.Current_Directory>
/home/itssahil/PROJECTS/Mol_Feturizer/New_Systems/rnas/4LVW

>  <Rbt.Executable>
rbdock ($Id: //depot/dev/client3/rdock/2013.1/src/exe/rbdock.cxx#4 $)

>  <Rbt.Library>
libRbt.so (2013.1, Build901 2013/11/27)

>  <Rbt.Parameter_File>
/export/apps/rDock/src/rDock_2013.1_src/data/scripts/dock_solv.prm

>  <Rbt.Receptor>
prm/blind_docking_60.prm

>  <SCORE>
-13.1575

>  <SCORE.INTER>
-13.1575

>  <SCORE.INTER.CONST>
1

>  <SCORE.INTER.POLAR>
0

>  <SCORE.INTER.ROT>
0

>  <SCORE.INTER.SOLV>
8.03342

>  <SCORE.INTER.VDW>
-15.0495

>  <SCORE.INTER.norm>
-1.19613

>  <SCORE.INTRA>
0

>  <SCORE.INTRA.DIHEDRAL>
0

>  <SCORE.INTRA.DIHEDRAL.0>
0

>  <SCORE.INTRA.POLAR>
0

>  <SCORE.INTRA.POLAR.0>
0

>  <SCORE.INTRA.REPUL>
0

>  <SCORE.INTRA.REPUL.0>
0

>  <SCORE.INTRA.SOLV>
0

>  <SCORE.INTRA.SOLV.lig_0>
-29.307

>  <SCORE.INTRA.VDW>
0

>  <SCORE.INTRA.VDW.0>
0

>  <SCORE.INTRA.norm>
0

>  <SCORE.RESTR>
0

>  <SCORE.RESTR.CAVITY>
0

>  <SCORE.RESTR.norm>
0

>  <SCORE.SYSTEM>
0

>  <SCORE.SYSTEM.CONST>
0

>  <SCORE.SYSTEM.DIHEDRAL>
0

>  <SCORE.SYSTEM.SOLV>
0

>  <SCORE.SYSTEM.norm>
0

>  <SCORE.heavy>
11

>  <SCORE.norm>
-1.19613

>  <RMSD>
11.250

$$$$
ligand
 OpenBabel11021811503D
libRbt.so/2013.1/901 2013/11/27
 11 12  0  0  0  0  0  0  0  0999 V2000
   -3.9435  -28.8651   28.9349 N   0  0  0  0  0  0  0  0  0  0  0  0
   -5.0914  -29.5220   28.6918 C   0  0  0  0  0  0  0  0  0  0  0  0
   -6.2148  -29.3549   29.5563 N   0  0  0  0  0  0  0  0  0  0  0  0
   -5.2330  -30.3401   27.6446 N   0  0  0  0  0  0  0  0  0  0  0  0
   -4.1939  -30.5624   26.7731 C   0  0  0  0  0  0  0  0  0  0  0  0
   -3.0013  -29.9064   26.9880 C   0  0  0  0  0  0  0  0  0  0  0  0
   -2.8866  -29.0269   28.1029 C   0  0  0  0  0  0  0  0  0  0  0  0
   -1.6988  -28.3687   28.3314 O   0  0  0  0  0  0  0  0  0  0  0  0
   -2.1218  -30.3135   25.9349 C   0  0  0  0  0  0  0  0  0  0  0  0
   -2.8453  -31.2107   25.1370 C   0  0  0  0  0  0  0  0  0  0  0  0
   -4.0747  -31.3488   25.6492 N   0  0  0  0  0  0  0  0  0  0  0  0
  1  2  1  0  0  0  0
  1  7  1  0  0  0  0
  2  3  1  0  0  0  0
  2  4  2  0  0  0  0
  4  5  1  0  0  0  0
  5  6  2  0  0  0  0
  5 11  1  0  0  0  0
  6  7  1  0  0  0  0
  6  9  1  0  0  0  0
  7  8  2  0  0  0  0
  9 10  2  0  0  0  0
 10 11  1  0  0  0  0
M  END
>  <CHROM.1>
-3.75966728,-29.85517463,27.48472314,-2.12947691,-0.32432452,-2.20723105

>  <Name>
ligand

>  <RI>
0

>  <Rbt.Current_Directory>
/home/itssahil/PROJECTS/Mol_Feturizer/New_Systems/rnas/4LVW

>  <Rbt.Executable>
rbdock ($Id: //depot/dev/client3/rdock/2013.1/src/exe/rbdock.cxx#4 $)

>  <Rbt.Library>
libRbt.so (2013.1, Build901 2013/11/27)

>  <Rbt.Parameter_File>
/export/apps/rDock/src/rDock_2013.1_src/data/scripts/dock_solv.prm

>  <Rbt.Receptor>
prm/blind_docking_100.prm

>  <SCORE>
-14.2238

>  <SCORE.INTER>
-14.2238

>  <SCORE.INTER.CONST>
1

>  <SCORE.INTER.POLAR>
0

>  <SCORE.INTER.ROT>
0

>  <SCORE.INTER.SOLV>
7.7047

>  <SCORE.INTER.VDW>
-15.6508

>  <SCORE.INTER.norm>
-1.29307

>  <SCORE.INTRA>
0

>  <SCORE.INTRA.DIHEDRAL>
0

>  <SCORE.INTRA.DIHEDRAL.0>
0

>  <SCORE.INTRA.POLAR>
0

>  <SCORE.INTRA.POLAR.0>
0

>  <SCORE.INTRA.REPUL>
0

>  <SCORE.INTRA.REPUL.0>
0

>  <SCORE.INTRA.SOLV>
0

>  <SCORE.INTRA.SOLV.lig_0>
-29.307

>  <SCORE.INTRA.VDW>
0

>  <SCORE.INTRA.VDW.0>
0

>  <SCORE.INTRA.norm>
0

>  <SCORE.RESTR>
0

>  <SCORE.RESTR.CAVITY>
0

>  <SCORE.RESTR.norm>
0

>  <SCORE.SYSTEM>
0

>  <SCORE.SYSTEM.CONST>
0

>  <SCORE.SYSTEM.DIHEDRAL>
0

>  <SCORE.SYSTEM.SOLV>
0

>  <SCORE.SYSTEM.norm>
0

>  <SCORE.heavy>
11

>  <SCORE.norm>
-1.29307

>  <RMSD>
11.254

$$$$
ligand
 OpenBabel11021811503D
libRbt.so/2013.1/901 2013/11/27
 11 12  0  0  0  0  0  0  0  0999 V2000
   -8.3921  -15.5395   25.9094 N   0  0  0  0  0  0  0  0  0  0  0  0
   -9.5882  -15.9395   25.4429 C   0  0  0  0  0  0  0  0  0  0  0  0
  -10.5534  -14.9788   25.0155 N   0  0  0  0  0  0  0  0  0  0  0  0
   -9.9189  -17.2311   25.3524 N   0  0  0  0  0  0  0  0  0  0  0  0
   -9.0487  -18.2156   25.7548 C   0  0  0  0  0  0  0  0  0  0  0  0
   -7.8122  -17.8457   26.2377 C   0  0  0  0  0  0  0  0  0  0  0  0
   -7.4819  -16.4615   26.3056 C   0  0  0  0  0  0  0  0  0  0  0  0
   -6.2513  -16.0783   26.7903 O   0  0  0  0  0  0  0  0  0  0  0  0
   -7.1266  -19.0593   26.5623 C   0  0  0  0  0  0  0  0  0  0  0  0
   -8.0063  -20.1071   26.2570 C   0  0  0  0  0  0  0  0  0  0  0  0
   -9.1448  -19.5890   25.7791 N   0  0  0  0  0  0  0  0  0  0  0  0
  1  2  1  0  0  0  0
  1  7  1  0  0  0  0
  2  3  1  0  0  0  0
  2  4  2  0  0  0  0
  4  5  1  0  0  0  0
  5  6  2  0  0  0  0
  5 11  1  0  0  0  0
  6  7  1  0  0  0  0
  6  9  1  0  0  0  0
  7  8  2  0  0  0  0
  9 10  2  0  0  0  0
 10 11  1  0  0  0  0
M  END
>  <CHROM.1>
-8.47863843,-17.30253513,25.94551346,-1.96501087,0.38221680,3.09913946

>  <Name>
ligand

>  <RI>
0

>  <Rbt.Current_Directory>
/home/itssahil/PROJECTS/Mol_Feturizer/New_Systems/rnas/4LVW

>  <Rbt.Executable>
rbdock ($Id: //depot/dev/client3/rdock/2013.1/src/exe/rbdock.cxx#4 $)

>  <Rbt.Library>
libRbt.so (2013.1, Build901 2013/11/27)

>  <Rbt.Parameter_File>
/export/apps/rDock/src/rDock_2013.1_src/data/scripts/dock_solv.prm

>  <Rbt.Receptor>
prm/blind_docking_40.prm

>  <SCORE>
-8.47878

>  <SCORE.INTER>
-8.47878

>  <SCORE.INTER.CONST>
1

>  <SCORE.INTER.POLAR>
0

>  <SCORE.INTER.ROT>
0

>  <SCORE.INTER.SOLV>
4.86525

>  <SCORE.INTER.VDW>
-10.8743

>  <SCORE.INTER.norm>
-0.770798

>  <SCORE.INTRA>
0

>  <SCORE.INTRA.DIHEDRAL>
0

>  <SCORE.INTRA.DIHEDRAL.0>
0

>  <SCORE.INTRA.POLAR>
0

>  <SCORE.INTRA.POLAR.0>
0

>  <SCORE.INTRA.REPUL>
0

>  <SCORE.INTRA.REPUL.0>
0

>  <SCORE.INTRA.SOLV>
0

>  <SCORE.INTRA.SOLV.lig_0>
-29.307

>  <SCORE.INTRA.VDW>
0

>  <SCORE.INTRA.VDW.0>
0

>  <SCORE.INTRA.norm>
0

>  <SCORE.RESTR>
0

>  <SCORE.RESTR.CAVITY>
0

>  <SCORE.RESTR.norm>
0

>  <SCORE.SYSTEM>
0

>  <SCORE.SYSTEM.CONST>
0

>  <SCORE.SYSTEM.DIHEDRAL>
0

>  <SCORE.SYSTEM.SOLV>
0

>  <SCORE.SYSTEM.norm>
0

>  <SCORE.heavy>
11

>  <SCORE.norm>
-0.770798

>  <RMSD>
11.269

$$$$
ligand
 OpenBabel11021811503D
libRbt.so/2013.1/901 2013/11/27
 11 12  0  0  0  0  0  0  0  0999 V2000
   -3.9035  -28.8806   28.9018 N   0  0  0  0  0  0  0  0  0  0  0  0
   -5.0692  -29.5071   28.6629 C   0  0  0  0  0  0  0  0  0  0  0  0
   -6.1875  -29.3033   29.5263 N   0  0  0  0  0  0  0  0  0  0  0  0
   -5.2335  -30.3278   27.6212 N   0  0  0  0  0  0  0  0  0  0  0  0
   -4.2012  -30.5845   26.7512 C   0  0  0  0  0  0  0  0  0  0  0  0
   -2.9908  -29.9604   26.9618 C   0  0  0  0  0  0  0  0  0  0  0  0
   -2.8516  -29.0771   28.0709 C   0  0  0  0  0  0  0  0  0  0  0  0
   -1.6461  -28.4504   28.2951 O   0  0  0  0  0  0  0  0  0  0  0  0
   -2.1231  -30.3986   25.9115 C   0  0  0  0  0  0  0  0  0  0  0  0
   -2.8712  -31.2807   25.1194 C   0  0  0  0  0  0  0  0  0  0  0  0
   -4.1039  -31.3814   25.6325 N   0  0  0  0  0  0  0  0  0  0  0  0
  1  2  1  0  0  0  0
  1  7  1  0  0  0  0
  2  3  1  0  0  0  0
  2  4  2  0  0  0  0
  4  5  1  0  0  0  0
  5  6  2  0  0  0  0
  5 11  1  0  0  0  0
  6  7  1  0  0  0  0
  6  9  1  0  0  0  0
  7  8  2  0  0  0  0
  9 10  2  0  0  0  0
 10 11  1  0  0  0  0
M  END
>  <CHROM.1>
-3.74739568,-29.88494283,27.45816768,-2.11213075,-0.30212082,-2.20847778

>  <Name>
ligand

>  <RI>
0

>  <Rbt.Current_Directory>
/home/itssahil/PROJECTS/Mol_Feturizer/New_Systems/rnas/4LVW

>  <Rbt.Executable>
rbdock ($Id: //depot/dev/client3/rdock/2013.1/src/exe/rbdock.cxx#4 $)

>  <Rbt.Library>
libRbt.so (2013.1, Build901 2013/11/27)

>  <Rbt.Parameter_File>
/export/apps/rDock/src/rDock_2013.1_src/data/scripts/dock_solv.prm

>  <Rbt.Receptor>
prm/blind_docking_60.prm

>  <SCORE>
-14.3018

>  <SCORE.INTER>
-14.3018

>  <SCORE.INTER.CONST>
1

>  <SCORE.INTER.POLAR>
0

>  <SCORE.INTER.ROT>
0

>  <SCORE.INTER.SOLV>
7.72278

>  <SCORE.INTER.VDW>
-15.7088

>  <SCORE.INTER.norm>
-1.30016

>  <SCORE.INTRA>
0

>  <SCORE.INTRA.DIHEDRAL>
0

>  <SCORE.INTRA.DIHEDRAL.0>
0

>  <SCORE.INTRA.POLAR>
0

>  <SCORE.INTRA.POLAR.0>
0

>  <SCORE.INTRA.REPUL>
0

>  <SCORE.INTRA.REPUL.0>
0

>  <SCORE.INTRA.SOLV>
0

>  <SCORE.INTRA.SOLV.lig_0>
-29.307

>  <SCORE.INTRA.VDW>
0

>  <SCORE.INTRA.VDW.0>
0

>  <SCORE.INTRA.norm>
0

>  <SCORE.RESTR>
0

>  <SCORE.RESTR.CAVITY>
0

>  <SCORE.RESTR.norm>
0

>  <SCORE.SYSTEM>
0

>  <SCORE.SYSTEM.CONST>
0

>  <SCORE.SYSTEM.DIHEDRAL>
0

>  <SCORE.SYSTEM.SOLV>
0

>  <SCORE.SYSTEM.norm>
0

>  <SCORE.heavy>
11

>  <SCORE.norm>
-1.30016

>  <RMSD>
11.272

$$$$
ligand
 OpenBabel11021811503D
libRbt.so/2013.1/901 2013/11/27
 11 12  0  0  0  0  0  0  0  0999 V2000
   -3.9331  -28.8859   28.9104 N   0  0  0  0  0  0  0  0  0  0  0  0
   -5.0815  -29.5479   28.6838 C   0  0  0  0  0  0  0  0  0  0  0  0
   -6.1937  -29.3844   29.5634 N   0  0  0  0  0  0  0  0  0  0  0  0
   -5.2339  -30.3679   27.6397 N   0  0  0  0  0  0  0  0  0  0  0  0
   -4.2060  -30.5869   26.7543 C   0  0  0  0  0  0  0  0  0  0  0  0
   -3.0133  -29.9257   26.9520 C   0  0  0  0  0  0  0  0  0  0  0  0
   -2.8870  -29.0443   28.0642 C   0  0  0  0  0  0  0  0  0  0  0  0
   -1.6991  -28.3808   28.2756 O   0  0  0  0  0  0  0  0  0  0  0  0
   -2.1466  -30.3304   25.8875 C   0  0  0  0  0  0  0  0  0  0  0  0
   -2.8772  -31.2317   25.1006 C   0  0  0  0  0  0  0  0  0  0  0  0
   -4.0988  -31.3743   25.6298 N   0  0  0  0  0  0  0  0  0  0  0  0
  1  2  1  0  0  0  0
  1  7  1  0  0  0  0
  2  3  1  0  0  0  0
  2  4  2  0  0  0  0
  4  5  1  0  0  0  0
  5  6  2  0  0  0  0
  5 11  1  0  0  0  0
  6  7  1  0  0  0  0
  6  9  1  0  0  0  0
  7  8  2  0  0  0  0
  9 10  2  0  0  0  0
 10 11  1  0  0  0  0
M  END
>  <CHROM.1>
-3.76501886,-29.87700909,27.45905239,-2.12046816,-0.33583674,-2.20553974

>  <Name>
ligand

>  <RI>
0

>  <Rbt.Current_Directory>
/home/itssahil/PROJECTS/Mol_Feturizer/New_Systems/rnas/4LVW

>  <Rbt.Executable>
rbdock ($Id: //depot/dev/client3/rdock/2013.1/src/exe/rbdock.cxx#4 $)

>  <Rbt.Library>
libRbt.so (2013.1, Build901 2013/11/27)

>  <Rbt.Parameter_File>
/export/apps/rDock/src/rDock_2013.1_src/data/scripts/dock_solv.prm

>  <Rbt.Receptor>
prm/blind_docking_60.prm

>  <SCORE>
-14.2798

>  <SCORE.INTER>
-14.2798

>  <SCORE.INTER.CONST>
1

>  <SCORE.INTER.POLAR>
0

>  <SCORE.INTER.ROT>
0

>  <SCORE.INTER.SOLV>
7.6975

>  <SCORE.INTER.VDW>
-15.6857

>  <SCORE.INTER.norm>
-1.29816

>  <SCORE.INTRA>
0

>  <SCORE.INTRA.DIHEDRAL>
0

>  <SCORE.INTRA.DIHEDRAL.0>
0

>  <SCORE.INTRA.POLAR>
0

>  <SCORE.INTRA.POLAR.0>
0

>  <SCORE.INTRA.REPUL>
0

>  <SCORE.INTRA.REPUL.0>
0

>  <SCORE.INTRA.SOLV>
0

>  <SCORE.INTRA.SOLV.lig_0>
-29.307

>  <SCORE.INTRA.VDW>
0

>  <SCORE.INTRA.VDW.0>
0

>  <SCORE.INTRA.norm>
0

>  <SCORE.RESTR>
0

>  <SCORE.RESTR.CAVITY>
0

>  <SCORE.RESTR.norm>
0

>  <SCORE.SYSTEM>
0

>  <SCORE.SYSTEM.CONST>
0

>  <SCORE.SYSTEM.DIHEDRAL>
0

>  <SCORE.SYSTEM.SOLV>
0

>  <SCORE.SYSTEM.norm>
0

>  <SCORE.heavy>
11

>  <SCORE.norm>
-1.29816

>  <RMSD>
11.272

$$$$
ligand
 OpenBabel11021811503D
libRbt.so/2013.1/901 2013/11/27
 11 12  0  0  0  0  0  0  0  0999 V2000
   -3.8988  -28.8929   28.9088 N   0  0  0  0  0  0  0  0  0  0  0  0
   -5.0668  -29.5147   28.6691 C   0  0  0  0  0  0  0  0  0  0  0  0
   -6.1817  -29.3147   29.5377 N   0  0  0  0  0  0  0  0  0  0  0  0
   -5.2366  -30.3272   27.6218 N   0  0  0  0  0  0  0  0  0  0  0  0
   -4.2078  -30.5798   26.7465 C   0  0  0  0  0  0  0  0  0  0  0  0
   -2.9952  -29.9603   26.9577 C   0  0  0  0  0  0  0  0  0  0  0  0
   -2.8501  -29.0857   28.0729 C   0  0  0  0  0  0  0  0  0  0  0  0
   -1.6423  -28.4637   28.2978 O   0  0  0  0  0  0  0  0  0  0  0  0
   -2.1320  -30.3927   25.9012 C   0  0  0  0  0  0  0  0  0  0  0  0
   -2.8849  -31.2670   25.1050 C   0  0  0  0  0  0  0  0  0  0  0  0
   -4.1161  -31.3684   25.6215 N   0  0  0  0  0  0  0  0  0  0  0  0
  1  2  1  0  0  0  0
  1  7  1  0  0  0  0
  2  3  1  0  0  0  0
  2  4  2  0  0  0  0
  4  5  1  0  0  0  0
  5  6  2  0  0  0  0
  5 11  1  0  0  0  0
  6  7  1  0  0  0  0
  6  9  1  0  0  0  0
  7  8  2  0  0  0  0
  9 10  2  0  0  0  0
 10 11  1  0  0  0  0
M  END
>  <CHROM.1>
-3.74992328,-29.88668595,27.45714114,-2.10779906,-0.30210983,-2.19966030

>  <Name>
ligand

>  <RI>
0

>  <Rbt.Current_Directory>
/home/itssahil/PROJECTS/Mol_Feturizer/New_Systems/rnas/4LVW

>  <Rbt.Executable>
rbdock ($Id: //depot/dev/client3/rdock/2013.1/src/exe/rbdock.cxx#4 $)

>  <Rbt.Library>
libRbt.so (2013.1, Build901 2013/11/27)

>  <Rbt.Parameter_File>
/export/apps/rDock/src/rDock_2013.1_src/data/scripts/dock_solv.prm

>  <Rbt.Receptor>
prm/blind_docking_80.prm

>  <SCORE>
-14.2981

>  <SCORE.INTER>
-14.2981

>  <SCORE.INTER.CONST>
1

>  <SCORE.INTER.POLAR>
0

>  <SCORE.INTER.ROT>
0

>  <SCORE.INTER.SOLV>
7.70697

>  <SCORE.INTER.VDW>
-15.7011

>  <SCORE.INTER.norm>
-1.29983

>  <SCORE.INTRA>
0

>  <SCORE.INTRA.DIHEDRAL>
0

>  <SCORE.INTRA.DIHEDRAL.0>
0

>  <SCORE.INTRA.POLAR>
0

>  <SCORE.INTRA.POLAR.0>
0

>  <SCORE.INTRA.REPUL>
0

>  <SCORE.INTRA.REPUL.0>
0

>  <SCORE.INTRA.SOLV>
0

>  <SCORE.INTRA.SOLV.lig_0>
-29.307

>  <SCORE.INTRA.VDW>
0

>  <SCORE.INTRA.VDW.0>
0

>  <SCORE.INTRA.norm>
0

>  <SCORE.RESTR>
0

>  <SCORE.RESTR.CAVITY>
0

>  <SCORE.RESTR.norm>
0

>  <SCORE.SYSTEM>
0

>  <SCORE.SYSTEM.CONST>
0

>  <SCORE.SYSTEM.DIHEDRAL>
0

>  <SCORE.SYSTEM.SOLV>
0

>  <SCORE.SYSTEM.norm>
0

>  <SCORE.heavy>
11

>  <SCORE.norm>
-1.29983

>  <RMSD>
11.274

$$$$
ligand
 OpenBabel11021811503D
libRbt.so/2013.1/901 2013/11/27
 11 12  0  0  0  0  0  0  0  0999 V2000
   -3.9185  -28.8750   28.9108 N   0  0  0  0  0  0  0  0  0  0  0  0
   -5.0844  -29.5023   28.6756 C   0  0  0  0  0  0  0  0  0  0  0  0
   -6.1986  -29.3032   29.5454 N   0  0  0  0  0  0  0  0  0  0  0  0
   -5.2529  -30.3195   27.6318 N   0  0  0  0  0  0  0  0  0  0  0  0
   -4.2246  -30.5717   26.7557 C   0  0  0  0  0  0  0  0  0  0  0  0
   -3.0141  -29.9466   26.9624 C   0  0  0  0  0  0  0  0  0  0  0  0
   -2.8705  -29.0670   28.0739 C   0  0  0  0  0  0  0  0  0  0  0  0
   -1.6648  -28.4394   28.2943 O   0  0  0  0  0  0  0  0  0  0  0  0
   -2.1511  -30.3797   25.9061 C   0  0  0  0  0  0  0  0  0  0  0  0
   -2.9019  -31.2601   25.1147 C   0  0  0  0  0  0  0  0  0  0  0  0
   -4.1319  -31.3643   25.6337 N   0  0  0  0  0  0  0  0  0  0  0  0
  1  2  1  0  0  0  0
  1  7  1  0  0  0  0
  2  3  1  0  0  0  0
  2  4  2  0  0  0  0
  4  5  1  0  0  0  0
  5  6  2  0  0  0  0
  5 11  1  0  0  0  0
  6  7  1  0  0  0  0
  6  9  1  0  0  0  0
  7  8  2  0  0  0  0
  9 10  2  0  0  0  0
 10 11  1  0  0  0  0
M  END
>  <CHROM.1>
-3.76824635,-29.87393771,27.46285751,-2.10874363,-0.30627398,-2.20387123

>  <Name>
ligand

>  <RI>
0

>  <Rbt.Current_Directory>
/home/itssahil/PROJECTS/Mol_Feturizer/New_Systems/rnas/4LVW

>  <Rbt.Executable>
rbdock ($Id: //depot/dev/client3/rdock/2013.1/src/exe/rbdock.cxx#4 $)

>  <Rbt.Library>
libRbt.so (2013.1, Build901 2013/11/27)

>  <Rbt.Parameter_File>
/export/apps/rDock/src/rDock_2013.1_src/data/scripts/dock_solv.prm

>  <Rbt.Receptor>
prm/blind_docking_100.prm

>  <SCORE>
-14.2957

>  <SCORE.INTER>
-14.2957

>  <SCORE.INTER.CONST>
1

>  <SCORE.INTER.POLAR>
0

>  <SCORE.INTER.ROT>
0

>  <SCORE.INTER.SOLV>
7.67893

>  <SCORE.INTER.VDW>
-15.6901

>  <SCORE.INTER.norm>
-1.29961

>  <SCORE.INTRA>
0

>  <SCORE.INTRA.DIHEDRAL>
0

>  <SCORE.INTRA.DIHEDRAL.0>
0

>  <SCORE.INTRA.POLAR>
0

>  <SCORE.INTRA.POLAR.0>
0

>  <SCORE.INTRA.REPUL>
0

>  <SCORE.INTRA.REPUL.0>
0

>  <SCORE.INTRA.SOLV>
0

>  <SCORE.INTRA.SOLV.lig_0>
-29.307

>  <SCORE.INTRA.VDW>
0

>  <SCORE.INTRA.VDW.0>
0

>  <SCORE.INTRA.norm>
0

>  <SCORE.RESTR>
0

>  <SCORE.RESTR.CAVITY>
0

>  <SCORE.RESTR.norm>
0

>  <SCORE.SYSTEM>
0

>  <SCORE.SYSTEM.CONST>
0

>  <SCORE.SYSTEM.DIHEDRAL>
0

>  <SCORE.SYSTEM.SOLV>
0

>  <SCORE.SYSTEM.norm>
0

>  <SCORE.heavy>
11

>  <SCORE.norm>
-1.29961

>  <RMSD>
11.275

$$$$
ligand
 OpenBabel11021811503D
libRbt.so/2013.1/901 2013/11/27
 11 12  0  0  0  0  0  0  0  0999 V2000
   -3.8998  -28.8879   28.9072 N   0  0  0  0  0  0  0  0  0  0  0  0
   -5.0662  -29.5139   28.6714 C   0  0  0  0  0  0  0  0  0  0  0  0
   -6.1809  -29.3131   29.5401 N   0  0  0  0  0  0  0  0  0  0  0  0
   -5.2347  -30.3315   27.6278 N   0  0  0  0  0  0  0  0  0  0  0  0
   -4.2060  -30.5853   26.7527 C   0  0  0  0  0  0  0  0  0  0  0  0
   -2.9949  -29.9614   26.9601 C   0  0  0  0  0  0  0  0  0  0  0  0
   -2.8513  -29.0815   28.0713 C   0  0  0  0  0  0  0  0  0  0  0  0
   -1.6450  -28.4552   28.2923 O   0  0  0  0  0  0  0  0  0  0  0  0
   -2.1315  -30.3962   25.9048 C   0  0  0  0  0  0  0  0  0  0  0  0
   -2.8827  -31.2760   25.1132 C   0  0  0  0  0  0  0  0  0  0  0  0
   -4.1132  -31.3786   25.6312 N   0  0  0  0  0  0  0  0  0  0  0  0
  1  2  1  0  0  0  0
  1  7  1  0  0  0  0
  2  3  1  0  0  0  0
  2  4  2  0  0  0  0
  4  5  1  0  0  0  0
  5  6  2  0  0  0  0
  5 11  1  0  0  0  0
  6  7  1  0  0  0  0
  6  9  1  0  0  0  0
  7  8  2  0  0  0  0
  9 10  2  0  0  0  0
 10 11  1  0  0  0  0
M  END
>  <CHROM.1>
-3.74943340,-29.88770787,27.45987814,-2.10874952,-0.30485382,-2.20439244

>  <Name>
ligand

>  <RI>
0

>  <Rbt.Current_Directory>
/home/itssahil/PROJECTS/Mol_Feturizer/New_Systems/rnas/4LVW

>  <Rbt.Executable>
rbdock ($Id: //depot/dev/client3/rdock/2013.1/src/exe/rbdock.cxx#4 $)

>  <Rbt.Library>
libRbt.so (2013.1, Build901 2013/11/27)

>  <Rbt.Parameter_File>
/export/apps/rDock/src/rDock_2013.1_src/data/scripts/dock_solv.prm

>  <Rbt.Receptor>
prm/blind_docking_100.prm

>  <SCORE>
-14.3016

>  <SCORE.INTER>
-14.3016

>  <SCORE.INTER.CONST>
1

>  <SCORE.INTER.POLAR>
0

>  <SCORE.INTER.ROT>
0

>  <SCORE.INTER.SOLV>
7.70384

>  <SCORE.INTER.VDW>
-15.7024

>  <SCORE.INTER.norm>
-1.30015

>  <SCORE.INTRA>
0

>  <SCORE.INTRA.DIHEDRAL>
0

>  <SCORE.INTRA.DIHEDRAL.0>
0

>  <SCORE.INTRA.POLAR>
0

>  <SCORE.INTRA.POLAR.0>
0

>  <SCORE.INTRA.REPUL>
0

>  <SCORE.INTRA.REPUL.0>
0

>  <SCORE.INTRA.SOLV>
0

>  <SCORE.INTRA.SOLV.lig_0>
-29.307

>  <SCORE.INTRA.VDW>
0

>  <SCORE.INTRA.VDW.0>
0

>  <SCORE.INTRA.norm>
0

>  <SCORE.RESTR>
0

>  <SCORE.RESTR.CAVITY>
0

>  <SCORE.RESTR.norm>
0

>  <SCORE.SYSTEM>
0

>  <SCORE.SYSTEM.CONST>
0

>  <SCORE.SYSTEM.DIHEDRAL>
0

>  <SCORE.SYSTEM.SOLV>
0

>  <SCORE.SYSTEM.norm>
0

>  <SCORE.heavy>
11

>  <SCORE.norm>
-1.30015

>  <RMSD>
11.276

$$$$
ligand
 OpenBabel11021811503D
libRbt.so/2013.1/901 2013/11/27
 11 12  0  0  0  0  0  0  0  0999 V2000
   -3.8978  -28.9001   28.9205 N   0  0  0  0  0  0  0  0  0  0  0  0
   -5.0641  -29.5232   28.6761 C   0  0  0  0  0  0  0  0  0  0  0  0
   -6.1822  -29.3258   29.5412 N   0  0  0  0  0  0  0  0  0  0  0  0
   -5.2293  -30.3344   27.6271 N   0  0  0  0  0  0  0  0  0  0  0  0
   -4.1972  -30.5845   26.7549 C   0  0  0  0  0  0  0  0  0  0  0  0
   -2.9862  -29.9636   26.9710 C   0  0  0  0  0  0  0  0  0  0  0  0
   -2.8460  -29.0904   28.0880 C   0  0  0  0  0  0  0  0  0  0  0  0
   -1.6398  -28.4671   28.3177 O   0  0  0  0  0  0  0  0  0  0  0  0
   -2.1189  -30.3934   25.9169 C   0  0  0  0  0  0  0  0  0  0  0  0
   -2.8680  -31.2676   25.1170 C   0  0  0  0  0  0  0  0  0  0  0  0
   -4.1008  -31.3714   25.6291 N   0  0  0  0  0  0  0  0  0  0  0  0
  1  2  1  0  0  0  0
  1  7  1  0  0  0  0
  2  3  1  0  0  0  0
  2  4  2  0  0  0  0
  4  5  1  0  0  0  0
  5  6  2  0  0  0  0
  5 11  1  0  0  0  0
  6  7  1  0  0  0  0
  6  9  1  0  0  0  0
  7  8  2  0  0  0  0
  9 10  2  0  0  0  0
 10 11  1  0  0  0  0
M  END
>  <CHROM.1>
-3.74270467,-29.89174033,27.46804467,-2.11146607,-0.30121364,-2.19936457

>  <Name>
ligand

>  <RI>
0

>  <Rbt.Current_Directory>
/home/itssahil/PROJECTS/Mol_Feturizer/New_Systems/rnas/4LVW

>  <Rbt.Executable>
rbdock ($Id: //depot/dev/client3/rdock/2013.1/src/exe/rbdock.cxx#4 $)

>  <Rbt.Library>
libRbt.so (2013.1, Build901 2013/11/27)

>  <Rbt.Parameter_File>
/export/apps/rDock/src/rDock_2013.1_src/data/scripts/dock_solv.prm

>  <Rbt.Receptor>
prm/blind_docking_80.prm

>  <SCORE>
-14.2949

>  <SCORE.INTER>
-14.2949

>  <SCORE.INTER.CONST>
1

>  <SCORE.INTER.POLAR>
0

>  <SCORE.INTER.ROT>
0

>  <SCORE.INTER.SOLV>
7.71746

>  <SCORE.INTER.VDW>
-15.7024

>  <SCORE.INTER.norm>
-1.29953

>  <SCORE.INTRA>
0

>  <SCORE.INTRA.DIHEDRAL>
0

>  <SCORE.INTRA.DIHEDRAL.0>
0

>  <SCORE.INTRA.POLAR>
0

>  <SCORE.INTRA.POLAR.0>
0

>  <SCORE.INTRA.REPUL>
0

>  <SCORE.INTRA.REPUL.0>
0

>  <SCORE.INTRA.SOLV>
0

>  <SCORE.INTRA.SOLV.lig_0>
-29.307

>  <SCORE.INTRA.VDW>
0

>  <SCORE.INTRA.VDW.0>
0

>  <SCORE.INTRA.norm>
0

>  <SCORE.RESTR>
0

>  <SCORE.RESTR.CAVITY>
0

>  <SCORE.RESTR.norm>
0

>  <SCORE.SYSTEM>
0

>  <SCORE.SYSTEM.CONST>
0

>  <SCORE.SYSTEM.DIHEDRAL>
0

>  <SCORE.SYSTEM.SOLV>
0

>  <SCORE.SYSTEM.norm>
0

>  <SCORE.heavy>
11

>  <SCORE.norm>
-1.29953

>  <RMSD>
11.276

$$$$
ligand
 OpenBabel11021811503D
libRbt.so/2013.1/901 2013/11/27
 11 12  0  0  0  0  0  0  0  0999 V2000
   -3.9078  -28.8861   28.9221 N   0  0  0  0  0  0  0  0  0  0  0  0
   -5.0730  -29.5160   28.6901 C   0  0  0  0  0  0  0  0  0  0  0  0
   -6.1840  -29.3225   29.5652 N   0  0  0  0  0  0  0  0  0  0  0  0
   -5.2437  -30.3306   27.6446 N   0  0  0  0  0  0  0  0  0  0  0  0
   -4.2185  -30.5773   26.7634 C   0  0  0  0  0  0  0  0  0  0  0  0
   -3.0089  -29.9494   26.9666 C   0  0  0  0  0  0  0  0  0  0  0  0
   -2.8629  -29.0728   28.0801 C   0  0  0  0  0  0  0  0  0  0  0  0
   -1.6580  -28.4425   28.2971 O   0  0  0  0  0  0  0  0  0  0  0  0
   -2.1492  -30.3771   25.9054 C   0  0  0  0  0  0  0  0  0  0  0  0
   -2.9010  -31.2572   25.1146 C   0  0  0  0  0  0  0  0  0  0  0  0
   -4.1284  -31.3664   25.6386 N   0  0  0  0  0  0  0  0  0  0  0  0
  1  2  1  0  0  0  0
  1  7  1  0  0  0  0
  2  3  1  0  0  0  0
  2  4  2  0  0  0  0
  4  5  1  0  0  0  0
  5  6  2  0  0  0  0
  5 11  1  0  0  0  0
  6  7  1  0  0  0  0
  6  9  1  0  0  0  0
  7  8  2  0  0  0  0
  9 10  2  0  0  0  0
 10 11  1  0  0  0  0
M  END
>  <CHROM.1>
-3.76105693,-29.88038644,27.47056741,-2.10681739,-0.31105873,-2.20035450

>  <Name>
ligand

>  <RI>
0

>  <Rbt.Current_Directory>
/home/itssahil/PROJECTS/Mol_Feturizer/New_Systems/rnas/4LVW

>  <Rbt.Executable>
rbdock ($Id: //depot/dev/client3/rdock/2013.1/src/exe/rbdock.cxx#4 $)

>  <Rbt.Library>
libRbt.so (2013.1, Build901 2013/11/27)

>  <Rbt.Parameter_File>
/export/apps/rDock/src/rDock_2013.1_src/data/scripts/dock_solv.prm

>  <Rbt.Receptor>
prm/blind_docking_60.prm

>  <SCORE>
-14.2957

>  <SCORE.INTER>
-14.2957

>  <SCORE.INTER.CONST>
1

>  <SCORE.INTER.POLAR>
0

>  <SCORE.INTER.ROT>
0

>  <SCORE.INTER.SOLV>
7.66322

>  <SCORE.INTER.VDW>
-15.6849

>  <SCORE.INTER.norm>
-1.29961

>  <SCORE.INTRA>
0

>  <SCORE.INTRA.DIHEDRAL>
0

>  <SCORE.INTRA.DIHEDRAL.0>
0

>  <SCORE.INTRA.POLAR>
0

>  <SCORE.INTRA.POLAR.0>
0

>  <SCORE.INTRA.REPUL>
0

>  <SCORE.INTRA.REPUL.0>
0

>  <SCORE.INTRA.SOLV>
0

>  <SCORE.INTRA.SOLV.lig_0>
-29.307

>  <SCORE.INTRA.VDW>
0

>  <SCORE.INTRA.VDW.0>
0

>  <SCORE.INTRA.norm>
0

>  <SCORE.RESTR>
0

>  <SCORE.RESTR.CAVITY>
0

>  <SCORE.RESTR.norm>
0

>  <SCORE.SYSTEM>
0

>  <SCORE.SYSTEM.CONST>
0

>  <SCORE.SYSTEM.DIHEDRAL>
0

>  <SCORE.SYSTEM.SOLV>
0

>  <SCORE.SYSTEM.norm>
0

>  <SCORE.heavy>
11

>  <SCORE.norm>
-1.29961

>  <RMSD>
11.278

$$$$
ligand
 OpenBabel11021811503D
libRbt.so/2013.1/901 2013/11/27
 11 12  0  0  0  0  0  0  0  0999 V2000
   -3.8909  -28.9225   28.9319 N   0  0  0  0  0  0  0  0  0  0  0  0
   -5.0555  -29.5499   28.6902 C   0  0  0  0  0  0  0  0  0  0  0  0
   -6.1680  -29.3675   29.5657 N   0  0  0  0  0  0  0  0  0  0  0  0
   -5.2240  -30.3518   27.6346 N   0  0  0  0  0  0  0  0  0  0  0  0
   -4.1972  -30.5874   26.7522 C   0  0  0  0  0  0  0  0  0  0  0  0
   -2.9881  -29.9616   26.9652 C   0  0  0  0  0  0  0  0  0  0  0  0
   -2.8445  -29.0985   28.0896 C   0  0  0  0  0  0  0  0  0  0  0  0
   -1.6401  -28.4705   28.3163 O   0  0  0  0  0  0  0  0  0  0  0  0
   -2.1265  -30.3760   25.9004 C   0  0  0  0  0  0  0  0  0  0  0  0
   -2.8766  -31.2467   25.0976 C   0  0  0  0  0  0  0  0  0  0  0  0
   -4.1048  -31.3627   25.6181 N   0  0  0  0  0  0  0  0  0  0  0  0
  1  2  1  0  0  0  0
  1  7  1  0  0  0  0
  2  3  1  0  0  0  0
  2  4  2  0  0  0  0
  4  5  1  0  0  0  0
  5  6  2  0  0  0  0
  5 11  1  0  0  0  0
  6  7  1  0  0  0  0
  6  9  1  0  0  0  0
  7  8  2  0  0  0  0
  9 10  2  0  0  0  0
 10 11  1  0  0  0  0
M  END
>  <CHROM.1>
-3.74121637,-29.89895546,27.46863466,-2.10852825,-0.31032513,-2.18869725

>  <Name>
ligand

>  <RI>
0

>  <Rbt.Current_Directory>
/home/itssahil/PROJECTS/Mol_Feturizer/New_Systems/rnas/4LVW

>  <Rbt.Executable>
rbdock ($Id: //depot/dev/client3/rdock/2013.1/src/exe/rbdock.cxx#4 $)

>  <Rbt.Library>
libRbt.so (2013.1, Build901 2013/11/27)

>  <Rbt.Parameter_File>
/export/apps/rDock/src/rDock_2013.1_src/data/scripts/dock_solv.prm

>  <Rbt.Receptor>
prm/blind_docking_100.prm

>  <SCORE>
-14.3053

>  <SCORE.INTER>
-14.3053

>  <SCORE.INTER.CONST>
1

>  <SCORE.INTER.POLAR>
0

>  <SCORE.INTER.ROT>
0

>  <SCORE.INTER.SOLV>
7.70104

>  <SCORE.INTER.VDW>
-15.7039

>  <SCORE.INTER.norm>
-1.30048

>  <SCORE.INTRA>
0

>  <SCORE.INTRA.DIHEDRAL>
0

>  <SCORE.INTRA.DIHEDRAL.0>
0

>  <SCORE.INTRA.POLAR>
0

>  <SCORE.INTRA.POLAR.0>
0

>  <SCORE.INTRA.REPUL>
0

>  <SCORE.INTRA.REPUL.0>
0

>  <SCORE.INTRA.SOLV>
0

>  <SCORE.INTRA.SOLV.lig_0>
-29.307

>  <SCORE.INTRA.VDW>
0

>  <SCORE.INTRA.VDW.0>
0

>  <SCORE.INTRA.norm>
0

>  <SCORE.RESTR>
0

>  <SCORE.RESTR.CAVITY>
0

>  <SCORE.RESTR.norm>
0

>  <SCORE.SYSTEM>
0

>  <SCORE.SYSTEM.CONST>
0

>  <SCORE.SYSTEM.DIHEDRAL>
0

>  <SCORE.SYSTEM.SOLV>
0

>  <SCORE.SYSTEM.norm>
0

>  <SCORE.heavy>
11

>  <SCORE.norm>
-1.30048

>  <RMSD>
11.280

$$$$
ligand
 OpenBabel11021811503D
libRbt.so/2013.1/901 2013/11/27
 11 12  0  0  0  0  0  0  0  0999 V2000
   -3.9011  -28.9151   28.9212 N   0  0  0  0  0  0  0  0  0  0  0  0
   -5.0616  -29.5504   28.6806 C   0  0  0  0  0  0  0  0  0  0  0  0
   -6.1769  -29.3696   29.5528 N   0  0  0  0  0  0  0  0  0  0  0  0
   -5.2234  -30.3590   27.6290 N   0  0  0  0  0  0  0  0  0  0  0  0
   -4.1935  -30.5935   26.7500 C   0  0  0  0  0  0  0  0  0  0  0  0
   -2.9884  -29.9597   26.9620 C   0  0  0  0  0  0  0  0  0  0  0  0
   -2.8520  -29.0897   28.0820 C   0  0  0  0  0  0  0  0  0  0  0  0
   -1.6517  -28.4536   28.3077 O   0  0  0  0  0  0  0  0  0  0  0  0
   -2.1223  -30.3749   25.9012 C   0  0  0  0  0  0  0  0  0  0  0  0
   -2.8658  -31.2542   25.1017 C   0  0  0  0  0  0  0  0  0  0  0  0
   -4.0944  -31.3744   25.6203 N   0  0  0  0  0  0  0  0  0  0  0  0
  1  2  1  0  0  0  0
  1  7  1  0  0  0  0
  2  3  1  0  0  0  0
  2  4  2  0  0  0  0
  4  5  1  0  0  0  0
  5  6  2  0  0  0  0
  5 11  1  0  0  0  0
  6  7  1  0  0  0  0
  6  9  1  0  0  0  0
  7  8  2  0  0  0  0
  9 10  2  0  0  0  0
 10 11  1  0  0  0  0
M  END
>  <CHROM.1>
-3.74289371,-29.89857607,27.46359015,-2.11374045,-0.31379090,-2.19573433

>  <Name>
ligand

>  <RI>
0

>  <Rbt.Current_Directory>
/home/itssahil/PROJECTS/Mol_Feturizer/New_Systems/rnas/4LVW

>  <Rbt.Executable>
rbdock ($Id: //depot/dev/client3/rdock/2013.1/src/exe/rbdock.cxx#4 $)

>  <Rbt.Library>
libRbt.so (2013.1, Build901 2013/11/27)

>  <Rbt.Parameter_File>
/export/apps/rDock/src/rDock_2013.1_src/data/scripts/dock_solv.prm

>  <Rbt.Receptor>
prm/blind_docking_60.prm

>  <SCORE>
-14.3119

>  <SCORE.INTER>
-14.3119

>  <SCORE.INTER.CONST>
1

>  <SCORE.INTER.POLAR>
0

>  <SCORE.INTER.ROT>
0

>  <SCORE.INTER.SOLV>
7.71137

>  <SCORE.INTER.VDW>
-15.7117

>  <SCORE.INTER.norm>
-1.30109

>  <SCORE.INTRA>
0

>  <SCORE.INTRA.DIHEDRAL>
0

>  <SCORE.INTRA.DIHEDRAL.0>
0

>  <SCORE.INTRA.POLAR>
0

>  <SCORE.INTRA.POLAR.0>
0

>  <SCORE.INTRA.REPUL>
0

>  <SCORE.INTRA.REPUL.0>
0

>  <SCORE.INTRA.SOLV>
0

>  <SCORE.INTRA.SOLV.lig_0>
-29.307

>  <SCORE.INTRA.VDW>
0

>  <SCORE.INTRA.VDW.0>
0

>  <SCORE.INTRA.norm>
0

>  <SCORE.RESTR>
0

>  <SCORE.RESTR.CAVITY>
0

>  <SCORE.RESTR.norm>
0

>  <SCORE.SYSTEM>
0

>  <SCORE.SYSTEM.CONST>
0

>  <SCORE.SYSTEM.DIHEDRAL>
0

>  <SCORE.SYSTEM.SOLV>
0

>  <SCORE.SYSTEM.norm>
0

>  <SCORE.heavy>
11

>  <SCORE.norm>
-1.30109

>  <RMSD>
11.280

$$$$
ligand
 OpenBabel11021811503D
libRbt.so/2013.1/901 2013/11/27
 11 12  0  0  0  0  0  0  0  0999 V2000
   -3.9017  -28.8958   28.9148 N   0  0  0  0  0  0  0  0  0  0  0  0
   -5.0704  -29.5166   28.6760 C   0  0  0  0  0  0  0  0  0  0  0  0
   -6.1847  -29.3150   29.5451 N   0  0  0  0  0  0  0  0  0  0  0  0
   -5.2416  -30.3294   27.6292 N   0  0  0  0  0  0  0  0  0  0  0  0
   -4.2135  -30.5835   26.7535 C   0  0  0  0  0  0  0  0  0  0  0  0
   -3.0002  -29.9650   26.9637 C   0  0  0  0  0  0  0  0  0  0  0  0
   -2.8537  -29.0900   28.0785 C   0  0  0  0  0  0  0  0  0  0  0  0
   -1.6452  -28.4691   28.3024 O   0  0  0  0  0  0  0  0  0  0  0  0
   -2.1380  -30.3988   25.9070 C   0  0  0  0  0  0  0  0  0  0  0  0
   -2.8922  -31.2727   25.1117 C   0  0  0  0  0  0  0  0  0  0  0  0
   -4.1232  -31.3727   25.6288 N   0  0  0  0  0  0  0  0  0  0  0  0
  1  2  1  0  0  0  0
  1  7  1  0  0  0  0
  2  3  1  0  0  0  0
  2  4  2  0  0  0  0
  4  5  1  0  0  0  0
  5  6  2  0  0  0  0
  5 11  1  0  0  0  0
  6  7  1  0  0  0  0
  6  9  1  0  0  0  0
  7  8  2  0  0  0  0
  9 10  2  0  0  0  0
 10 11  1  0  0  0  0
M  END
>  <CHROM.1>
-3.75459486,-29.89043955,27.46353578,-2.10675515,-0.30163636,-2.19984056

>  <Name>
ligand

>  <RI>
0

>  <Rbt.Current_Directory>
/home/itssahil/PROJECTS/Mol_Feturizer/New_Systems/rnas/4LVW

>  <Rbt.Executable>
rbdock ($Id: //depot/dev/client3/rdock/2013.1/src/exe/rbdock.cxx#4 $)

>  <Rbt.Library>
libRbt.so (2013.1, Build901 2013/11/27)

>  <Rbt.Parameter_File>
/export/apps/rDock/src/rDock_2013.1_src/data/scripts/dock_solv.prm

>  <Rbt.Receptor>
prm/blind_docking_100.prm

>  <SCORE>
-14.3009

>  <SCORE.INTER>
-14.3009

>  <SCORE.INTER.CONST>
1

>  <SCORE.INTER.POLAR>
0

>  <SCORE.INTER.ROT>
0

>  <SCORE.INTER.SOLV>
7.69653

>  <SCORE.INTER.VDW>
-15.6995

>  <SCORE.INTER.norm>
-1.30008

>  <SCORE.INTRA>
0

>  <SCORE.INTRA.DIHEDRAL>
0

>  <SCORE.INTRA.DIHEDRAL.0>
0

>  <SCORE.INTRA.POLAR>
0

>  <SCORE.INTRA.POLAR.0>
0

>  <SCORE.INTRA.REPUL>
0

>  <SCORE.INTRA.REPUL.0>
0

>  <SCORE.INTRA.SOLV>
0

>  <SCORE.INTRA.SOLV.lig_0>
-29.307

>  <SCORE.INTRA.VDW>
0

>  <SCORE.INTRA.VDW.0>
0

>  <SCORE.INTRA.norm>
0

>  <SCORE.RESTR>
0

>  <SCORE.RESTR.CAVITY>
0

>  <SCORE.RESTR.norm>
0

>  <SCORE.SYSTEM>
0

>  <SCORE.SYSTEM.CONST>
0

>  <SCORE.SYSTEM.DIHEDRAL>
0

>  <SCORE.SYSTEM.SOLV>
0

>  <SCORE.SYSTEM.norm>
0

>  <SCORE.heavy>
11

>  <SCORE.norm>
-1.30008

>  <RMSD>
11.281

$$$$
ligand
 OpenBabel11021811503D
libRbt.so/2013.1/901 2013/11/27
 11 12  0  0  0  0  0  0  0  0999 V2000
   -3.9190  -28.9075   28.9290 N   0  0  0  0  0  0  0  0  0  0  0  0
   -5.0785  -29.5467   28.6938 C   0  0  0  0  0  0  0  0  0  0  0  0
   -6.1891  -29.3726   29.5734 N   0  0  0  0  0  0  0  0  0  0  0  0
   -5.2437  -30.3531   27.6411 N   0  0  0  0  0  0  0  0  0  0  0  0
   -4.2183  -30.5813   26.7551 C   0  0  0  0  0  0  0  0  0  0  0  0
   -3.0144  -29.9433   26.9614 C   0  0  0  0  0  0  0  0  0  0  0  0
   -2.8744  -29.0758   28.0828 C   0  0  0  0  0  0  0  0  0  0  0  0
   -1.6753  -28.4356   28.3028 O   0  0  0  0  0  0  0  0  0  0  0  0
   -2.1532  -30.3524   25.8941 C   0  0  0  0  0  0  0  0  0  0  0  0
   -2.8982  -31.2325   25.0969 C   0  0  0  0  0  0  0  0  0  0  0  0
   -4.1232  -31.3588   25.6227 N   0  0  0  0  0  0  0  0  0  0  0  0
  1  2  1  0  0  0  0
  1  7  1  0  0  0  0
  2  3  1  0  0  0  0
  2  4  2  0  0  0  0
  4  5  1  0  0  0  0
  5  6  2  0  0  0  0
  5 11  1  0  0  0  0
  6  7  1  0  0  0  0
  6  9  1  0  0  0  0
  7  8  2  0  0  0  0
  9 10  2  0  0  0  0
 10 11  1  0  0  0  0
M  END
>  <CHROM.1>
-3.76600311,-29.88653947,27.46775801,-2.11085237,-0.32055762,-2.19217678

>  <Name>
ligand

>  <RI>
0

>  <Rbt.Current_Directory>
/home/itssahil/PROJECTS/Mol_Feturizer/New_Systems/rnas/4LVW

>  <Rbt.Executable>
rbdock ($Id: //depot/dev/client3/rdock/2013.1/src/exe/rbdock.cxx#4 $)

>  <Rbt.Library>
libRbt.so (2013.1, Build901 2013/11/27)

>  <Rbt.Parameter_File>
/export/apps/rDock/src/rDock_2013.1_src/data/scripts/dock_solv.prm

>  <Rbt.Receptor>
prm/blind_docking_100.prm

>  <SCORE>
-14.2906

>  <SCORE.INTER>
-14.2906

>  <SCORE.INTER.CONST>
1

>  <SCORE.INTER.POLAR>
0

>  <SCORE.INTER.ROT>
0

>  <SCORE.INTER.SOLV>
7.68606

>  <SCORE.INTER.VDW>
-15.6891

>  <SCORE.INTER.norm>
-1.29914

>  <SCORE.INTRA>
0

>  <SCORE.INTRA.DIHEDRAL>
0

>  <SCORE.INTRA.DIHEDRAL.0>
0

>  <SCORE.INTRA.POLAR>
0

>  <SCORE.INTRA.POLAR.0>
0

>  <SCORE.INTRA.REPUL>
0

>  <SCORE.INTRA.REPUL.0>
0

>  <SCORE.INTRA.SOLV>
0

>  <SCORE.INTRA.SOLV.lig_0>
-29.307

>  <SCORE.INTRA.VDW>
0

>  <SCORE.INTRA.VDW.0>
0

>  <SCORE.INTRA.norm>
0

>  <SCORE.RESTR>
0

>  <SCORE.RESTR.CAVITY>
0

>  <SCORE.RESTR.norm>
0

>  <SCORE.SYSTEM>
0

>  <SCORE.SYSTEM.CONST>
0

>  <SCORE.SYSTEM.DIHEDRAL>
0

>  <SCORE.SYSTEM.SOLV>
0

>  <SCORE.SYSTEM.norm>
0

>  <SCORE.heavy>
11

>  <SCORE.norm>
-1.29914

>  <RMSD>
11.283

$$$$
ligand
 OpenBabel11021811503D
libRbt.so/2013.1/901 2013/11/27
 11 12  0  0  0  0  0  0  0  0999 V2000
   -3.9117  -28.9163   28.9205 N   0  0  0  0  0  0  0  0  0  0  0  0
   -5.0727  -29.5496   28.6770 C   0  0  0  0  0  0  0  0  0  0  0  0
   -6.1903  -29.3660   29.5458 N   0  0  0  0  0  0  0  0  0  0  0  0
   -5.2331  -30.3587   27.6256 N   0  0  0  0  0  0  0  0  0  0  0  0
   -4.2010  -30.5958   26.7497 C   0  0  0  0  0  0  0  0  0  0  0  0
   -2.9954  -29.9642   26.9648 C   0  0  0  0  0  0  0  0  0  0  0  0
   -2.8605  -29.0936   28.0844 C   0  0  0  0  0  0  0  0  0  0  0  0
   -1.6597  -28.4596   28.3131 O   0  0  0  0  0  0  0  0  0  0  0  0
   -2.1269  -30.3820   25.9068 C   0  0  0  0  0  0  0  0  0  0  0  0
   -2.8698  -31.2604   25.1058 C   0  0  0  0  0  0  0  0  0  0  0  0
   -4.1001  -31.3779   25.6209 N   0  0  0  0  0  0  0  0  0  0  0  0
  1  2  1  0  0  0  0
  1  7  1  0  0  0  0
  2  3  1  0  0  0  0
  2  4  2  0  0  0  0
  4  5  1  0  0  0  0
  5  6  2  0  0  0  0
  5 11  1  0  0  0  0
  6  7  1  0  0  0  0
  6  9  1  0  0  0  0
  7  8  2  0  0  0  0
  9 10  2  0  0  0  0
 10 11  1  0  0  0  0
M  END
>  <CHROM.1>
-3.75117358,-29.90126509,27.46408375,-2.11504337,-0.31054361,-2.19692553

>  <Name>
ligand

>  <RI>
0

>  <Rbt.Current_Directory>
/home/itssahil/PROJECTS/Mol_Feturizer/New_Systems/rnas/4LVW

>  <Rbt.Executable>
rbdock ($Id: //depot/dev/client3/rdock/2013.1/src/exe/rbdock.cxx#4 $)

>  <Rbt.Library>
libRbt.so (2013.1, Build901 2013/11/27)

>  <Rbt.Parameter_File>
/export/apps/rDock/src/rDock_2013.1_src/data/scripts/dock_solv.prm

>  <Rbt.Receptor>
prm/blind_docking_60.prm

>  <SCORE>
-14.313

>  <SCORE.INTER>
-14.313

>  <SCORE.INTER.CONST>
1

>  <SCORE.INTER.POLAR>
0

>  <SCORE.INTER.ROT>
0

>  <SCORE.INTER.SOLV>
7.71901

>  <SCORE.INTER.VDW>
-15.715

>  <SCORE.INTER.norm>
-1.30118

>  <SCORE.INTRA>
0

>  <SCORE.INTRA.DIHEDRAL>
0

>  <SCORE.INTRA.DIHEDRAL.0>
0

>  <SCORE.INTRA.POLAR>
0

>  <SCORE.INTRA.POLAR.0>
0

>  <SCORE.INTRA.REPUL>
0

>  <SCORE.INTRA.REPUL.0>
0

>  <SCORE.INTRA.SOLV>
0

>  <SCORE.INTRA.SOLV.lig_0>
-29.307

>  <SCORE.INTRA.VDW>
0

>  <SCORE.INTRA.VDW.0>
0

>  <SCORE.INTRA.norm>
0

>  <SCORE.RESTR>
0

>  <SCORE.RESTR.CAVITY>
0

>  <SCORE.RESTR.norm>
0

>  <SCORE.SYSTEM>
0

>  <SCORE.SYSTEM.CONST>
0

>  <SCORE.SYSTEM.DIHEDRAL>
0

>  <SCORE.SYSTEM.SOLV>
0

>  <SCORE.SYSTEM.norm>
0

>  <SCORE.heavy>
11

>  <SCORE.norm>
-1.30118

>  <RMSD>
11.286

$$$$
ligand
 OpenBabel11021811503D
libRbt.so/2013.1/901 2013/11/27
 11 12  0  0  0  0  0  0  0  0999 V2000
   -3.9100  -28.9148   28.9152 N   0  0  0  0  0  0  0  0  0  0  0  0
   -5.0712  -29.5503   28.6782 C   0  0  0  0  0  0  0  0  0  0  0  0
   -6.1843  -29.3685   29.5531 N   0  0  0  0  0  0  0  0  0  0  0  0
   -5.2357  -30.3600   27.6279 N   0  0  0  0  0  0  0  0  0  0  0  0
   -4.2080  -30.5955   26.7466 C   0  0  0  0  0  0  0  0  0  0  0  0
   -3.0024  -29.9616   26.9549 C   0  0  0  0  0  0  0  0  0  0  0  0
   -2.8631  -29.0904   28.0735 C   0  0  0  0  0  0  0  0  0  0  0  0
   -1.6622  -28.4541   28.2955 O   0  0  0  0  0  0  0  0  0  0  0  0
   -2.1389  -30.3781   25.8923 C   0  0  0  0  0  0  0  0  0  0  0  0
   -2.8845  -31.2582   25.0956 C   0  0  0  0  0  0  0  0  0  0  0  0
   -4.1118  -31.3777   25.6175 N   0  0  0  0  0  0  0  0  0  0  0  0
  1  2  1  0  0  0  0
  1  7  1  0  0  0  0
  2  3  1  0  0  0  0
  2  4  2  0  0  0  0
  4  5  1  0  0  0  0
  5  6  2  0  0  0  0
  5 11  1  0  0  0  0
  6  7  1  0  0  0  0
  6  9  1  0  0  0  0
  7  8  2  0  0  0  0
  9 10  2  0  0  0  0
 10 11  1  0  0  0  0
M  END
>  <CHROM.1>
-3.75558111,-29.89991729,27.45826761,-2.11154646,-0.31521333,-2.19613372

>  <Name>
ligand

>  <RI>
0

>  <Rbt.Current_Directory>
/home/itssahil/PROJECTS/Mol_Feturizer/New_Systems/rnas/4LVW

>  <Rbt.Executable>
rbdock ($Id: //depot/dev/client3/rdock/2013.1/src/exe/rbdock.cxx#4 $)

>  <Rbt.Library>
libRbt.so (2013.1, Build901 2013/11/27)

>  <Rbt.Parameter_File>
/export/apps/rDock/src/rDock_2013.1_src/data/scripts/dock_solv.prm

>  <Rbt.Receptor>
prm/blind_docking_80.prm

>  <SCORE>
-14.3096

>  <SCORE.INTER>
-14.3096

>  <SCORE.INTER.CONST>
1

>  <SCORE.INTER.POLAR>
0

>  <SCORE.INTER.ROT>
0

>  <SCORE.INTER.SOLV>
7.70122

>  <SCORE.INTER.VDW>
-15.7068

>  <SCORE.INTER.norm>
-1.30087

>  <SCORE.INTRA>
0

>  <SCORE.INTRA.DIHEDRAL>
0

>  <SCORE.INTRA.DIHEDRAL.0>
0

>  <SCORE.INTRA.POLAR>
0

>  <SCORE.INTRA.POLAR.0>
0

>  <SCORE.INTRA.REPUL>
0

>  <SCORE.INTRA.REPUL.0>
0

>  <SCORE.INTRA.SOLV>
0

>  <SCORE.INTRA.SOLV.lig_0>
-29.307

>  <SCORE.INTRA.VDW>
0

>  <SCORE.INTRA.VDW.0>
0

>  <SCORE.INTRA.norm>
0

>  <SCORE.RESTR>
0

>  <SCORE.RESTR.CAVITY>
0

>  <SCORE.RESTR.norm>
0

>  <SCORE.SYSTEM>
0

>  <SCORE.SYSTEM.CONST>
0

>  <SCORE.SYSTEM.DIHEDRAL>
0

>  <SCORE.SYSTEM.SOLV>
0

>  <SCORE.SYSTEM.norm>
0

>  <SCORE.heavy>
11

>  <SCORE.norm>
-1.30087

>  <RMSD>
11.287

$$$$
ligand
 OpenBabel11021811503D
libRbt.so/2013.1/901 2013/11/27
 11 12  0  0  0  0  0  0  0  0999 V2000
   -3.9255  -28.9118   28.9042 N   0  0  0  0  0  0  0  0  0  0  0  0
   -5.0837  -29.5511   28.6627 C   0  0  0  0  0  0  0  0  0  0  0  0
   -6.2018  -29.3703   29.5314 N   0  0  0  0  0  0  0  0  0  0  0  0
   -5.2406  -30.3638   27.6136 N   0  0  0  0  0  0  0  0  0  0  0  0
   -4.2077  -30.5985   26.7380 C   0  0  0  0  0  0  0  0  0  0  0  0
   -3.0049  -29.9607   26.9510 C   0  0  0  0  0  0  0  0  0  0  0  0
   -2.8737  -29.0865   28.0682 C   0  0  0  0  0  0  0  0  0  0  0  0
   -1.6758  -28.4463   28.2949 O   0  0  0  0  0  0  0  0  0  0  0  0
   -2.1349  -30.3773   25.8938 C   0  0  0  0  0  0  0  0  0  0  0  0
   -2.8739  -31.2614   25.0955 C   0  0  0  0  0  0  0  0  0  0  0  0
   -4.1035  -31.3831   25.6113 N   0  0  0  0  0  0  0  0  0  0  0  0
  1  2  1  0  0  0  0
  1  7  1  0  0  0  0
  2  3  1  0  0  0  0
  2  4  2  0  0  0  0
  4  5  1  0  0  0  0
  5  6  2  0  0  0  0
  5 11  1  0  0  0  0
  6  7  1  0  0  0  0
  6  9  1  0  0  0  0
  7  8  2  0  0  0  0
  9 10  2  0  0  0  0
 10 11  1  0  0  0  0
M  END
>  <CHROM.1>
-3.76084599,-29.89992860,27.45036994,-2.11763279,-0.31446410,-2.20042645

>  <Name>
ligand

>  <RI>
0

>  <Rbt.Current_Directory>
/home/itssahil/PROJECTS/Mol_Feturizer/New_Systems/rnas/4LVW

>  <Rbt.Executable>
rbdock ($Id: //depot/dev/client3/rdock/2013.1/src/exe/rbdock.cxx#4 $)

>  <Rbt.Library>
libRbt.so (2013.1, Build901 2013/11/27)

>  <Rbt.Parameter_File>
/export/apps/rDock/src/rDock_2013.1_src/data/scripts/dock_solv.prm

>  <Rbt.Receptor>
prm/blind_docking_80.prm

>  <SCORE>
-14.3048

>  <SCORE.INTER>
-14.3048

>  <SCORE.INTER.CONST>
1

>  <SCORE.INTER.POLAR>
0

>  <SCORE.INTER.ROT>
0

>  <SCORE.INTER.SOLV>
7.73037

>  <SCORE.INTER.VDW>
-15.7133

>  <SCORE.INTER.norm>
-1.30043

>  <SCORE.INTRA>
0

>  <SCORE.INTRA.DIHEDRAL>
0

>  <SCORE.INTRA.DIHEDRAL.0>
0

>  <SCORE.INTRA.POLAR>
0

>  <SCORE.INTRA.POLAR.0>
0

>  <SCORE.INTRA.REPUL>
0

>  <SCORE.INTRA.REPUL.0>
0

>  <SCORE.INTRA.SOLV>
0

>  <SCORE.INTRA.SOLV.lig_0>
-29.307

>  <SCORE.INTRA.VDW>
0

>  <SCORE.INTRA.VDW.0>
0

>  <SCORE.INTRA.norm>
0

>  <SCORE.RESTR>
0

>  <SCORE.RESTR.CAVITY>
0

>  <SCORE.RESTR.norm>
0

>  <SCORE.SYSTEM>
0

>  <SCORE.SYSTEM.CONST>
0

>  <SCORE.SYSTEM.DIHEDRAL>
0

>  <SCORE.SYSTEM.SOLV>
0

>  <SCORE.SYSTEM.norm>
0

>  <SCORE.heavy>
11

>  <SCORE.norm>
-1.30043

>  <RMSD>
11.287

$$$$
ligand
 OpenBabel11021811503D
libRbt.so/2013.1/901 2013/11/27
 11 12  0  0  0  0  0  0  0  0999 V2000
   -3.9350  -28.9088   28.9177 N   0  0  0  0  0  0  0  0  0  0  0  0
   -5.0927  -29.5490   28.6766 C   0  0  0  0  0  0  0  0  0  0  0  0
   -6.2094  -29.3723   29.5478 N   0  0  0  0  0  0  0  0  0  0  0  0
   -5.2504  -30.3589   27.6254 N   0  0  0  0  0  0  0  0  0  0  0  0
   -4.2188  -30.5897   26.7473 C   0  0  0  0  0  0  0  0  0  0  0  0
   -3.0165  -29.9508   26.9598 C   0  0  0  0  0  0  0  0  0  0  0  0
   -2.8845  -29.0796   28.0793 C   0  0  0  0  0  0  0  0  0  0  0  0
   -1.6870  -28.4384   28.3056 O   0  0  0  0  0  0  0  0  0  0  0  0
   -2.1478  -30.3632   25.8999 C   0  0  0  0  0  0  0  0  0  0  0  0
   -2.8871  -31.2460   25.1004 C   0  0  0  0  0  0  0  0  0  0  0  0
   -4.1156  -31.3709   25.6181 N   0  0  0  0  0  0  0  0  0  0  0  0
  1  2  1  0  0  0  0
  1  7  1  0  0  0  0
  2  3  1  0  0  0  0
  2  4  2  0  0  0  0
  4  5  1  0  0  0  0
  5  6  2  0  0  0  0
  5 11  1  0  0  0  0
  6  7  1  0  0  0  0
  6  9  1  0  0  0  0
  7  8  2  0  0  0  0
  9 10  2  0  0  0  0
 10 11  1  0  0  0  0
M  END
>  <CHROM.1>
-3.77161691,-29.89253089,27.46076748,-2.11692303,-0.31667380,-2.19733880

>  <Name>
ligand

>  <RI>
0

>  <Rbt.Current_Directory>
/home/itssahil/PROJECTS/Mol_Feturizer/New_Systems/rnas/4LVW

>  <Rbt.Executable>
rbdock ($Id: //depot/dev/client3/rdock/2013.1/src/exe/rbdock.cxx#4 $)

>  <Rbt.Library>
libRbt.so (2013.1, Build901 2013/11/27)

>  <Rbt.Parameter_File>
/export/apps/rDock/src/rDock_2013.1_src/data/scripts/dock_solv.prm

>  <Rbt.Receptor>
prm/blind_docking_60.prm

>  <SCORE>
-14.2962

>  <SCORE.INTER>
-14.2962

>  <SCORE.INTER.CONST>
1

>  <SCORE.INTER.POLAR>
0

>  <SCORE.INTER.ROT>
0

>  <SCORE.INTER.SOLV>
7.70296

>  <SCORE.INTER.VDW>
-15.6985

>  <SCORE.INTER.norm>
-1.29965

>  <SCORE.INTRA>
0

>  <SCORE.INTRA.DIHEDRAL>
0

>  <SCORE.INTRA.DIHEDRAL.0>
0

>  <SCORE.INTRA.POLAR>
0

>  <SCORE.INTRA.POLAR.0>
0

>  <SCORE.INTRA.REPUL>
0

>  <SCORE.INTRA.REPUL.0>
0

>  <SCORE.INTRA.SOLV>
0

>  <SCORE.INTRA.SOLV.lig_0>
-29.307

>  <SCORE.INTRA.VDW>
0

>  <SCORE.INTRA.VDW.0>
0

>  <SCORE.INTRA.norm>
0

>  <SCORE.RESTR>
0

>  <SCORE.RESTR.CAVITY>
0

>  <SCORE.RESTR.norm>
0

>  <SCORE.SYSTEM>
0

>  <SCORE.SYSTEM.CONST>
0

>  <SCORE.SYSTEM.DIHEDRAL>
0

>  <SCORE.SYSTEM.SOLV>
0

>  <SCORE.SYSTEM.norm>
0

>  <SCORE.heavy>
11

>  <SCORE.norm>
-1.29965

>  <RMSD>
11.288

$$$$
ligand
 OpenBabel11021811503D
libRbt.so/2013.1/901 2013/11/27
 11 12  0  0  0  0  0  0  0  0999 V2000
   -3.9276  -28.9134   28.9088 N   0  0  0  0  0  0  0  0  0  0  0  0
   -5.0860  -29.5505   28.6628 C   0  0  0  0  0  0  0  0  0  0  0  0
   -6.2070  -29.3680   29.5275 N   0  0  0  0  0  0  0  0  0  0  0  0
   -5.2406  -30.3624   27.6127 N   0  0  0  0  0  0  0  0  0  0  0  0
   -4.2049  -30.5987   26.7409 C   0  0  0  0  0  0  0  0  0  0  0  0
   -3.0018  -29.9632   26.9586 C   0  0  0  0  0  0  0  0  0  0  0  0
   -2.8731  -29.0897   28.0767 C   0  0  0  0  0  0  0  0  0  0  0  0
   -1.6748  -28.4519   28.3080 O   0  0  0  0  0  0  0  0  0  0  0  0
   -2.1286  -30.3810   25.9044 C   0  0  0  0  0  0  0  0  0  0  0  0
   -2.8663  -31.2633   25.1030 C   0  0  0  0  0  0  0  0  0  0  0  0
   -4.0981  -31.3829   25.6142 N   0  0  0  0  0  0  0  0  0  0  0  0
  1  2  1  0  0  0  0
  1  7  1  0  0  0  0
  2  3  1  0  0  0  0
  2  4  2  0  0  0  0
  4  5  1  0  0  0  0
  5  6  2  0  0  0  0
  5 11  1  0  0  0  0
  6  7  1  0  0  0  0
  6  9  1  0  0  0  0
  7  8  2  0  0  0  0
  9 10  2  0  0  0  0
 10 11  1  0  0  0  0
M  END
>  <CHROM.1>
-3.75942853,-29.90123670,27.45517369,-2.11960901,-0.31078631,-2.20057259

>  <Name>
ligand

>  <RI>
0

>  <Rbt.Current_Directory>
/home/itssahil/PROJECTS/Mol_Feturizer/New_Systems/rnas/4LVW

>  <Rbt.Executable>
rbdock ($Id: //depot/dev/client3/rdock/2013.1/src/exe/rbdock.cxx#4 $)

>  <Rbt.Library>
libRbt.so (2013.1, Build901 2013/11/27)

>  <Rbt.Parameter_File>
/export/apps/rDock/src/rDock_2013.1_src/data/scripts/dock_solv.prm

>  <Rbt.Receptor>
prm/blind_docking_80.prm

>  <SCORE>
-14.3093

>  <SCORE.INTER>
-14.3093

>  <SCORE.INTER.CONST>
1

>  <SCORE.INTER.POLAR>
0

>  <SCORE.INTER.ROT>
0

>  <SCORE.INTER.SOLV>
7.74017

>  <SCORE.INTER.VDW>
-15.7196

>  <SCORE.INTER.norm>
-1.30084

>  <SCORE.INTRA>
0

>  <SCORE.INTRA.DIHEDRAL>
0

>  <SCORE.INTRA.DIHEDRAL.0>
0

>  <SCORE.INTRA.POLAR>
0

>  <SCORE.INTRA.POLAR.0>
0

>  <SCORE.INTRA.REPUL>
0

>  <SCORE.INTRA.REPUL.0>
0

>  <SCORE.INTRA.SOLV>
0

>  <SCORE.INTRA.SOLV.lig_0>
-29.307

>  <SCORE.INTRA.VDW>
0

>  <SCORE.INTRA.VDW.0>
0

>  <SCORE.INTRA.norm>
0

>  <SCORE.RESTR>
0

>  <SCORE.RESTR.CAVITY>
0

>  <SCORE.RESTR.norm>
0

>  <SCORE.SYSTEM>
0

>  <SCORE.SYSTEM.CONST>
0

>  <SCORE.SYSTEM.DIHEDRAL>
0

>  <SCORE.SYSTEM.SOLV>
0

>  <SCORE.SYSTEM.norm>
0

>  <SCORE.heavy>
11

>  <SCORE.norm>
-1.30084

>  <RMSD>
11.288

$$$$
ligand
 OpenBabel11021811503D
libRbt.so/2013.1/901 2013/11/27
 11 12  0  0  0  0  0  0  0  0999 V2000
   -3.9203  -28.9111   28.9133 N   0  0  0  0  0  0  0  0  0  0  0  0
   -5.0795  -29.5498   28.6754 C   0  0  0  0  0  0  0  0  0  0  0  0
   -6.1959  -29.3660   29.5457 N   0  0  0  0  0  0  0  0  0  0  0  0
   -5.2391  -30.3646   27.6283 N   0  0  0  0  0  0  0  0  0  0  0  0
   -4.2081  -30.6023   26.7514 C   0  0  0  0  0  0  0  0  0  0  0  0
   -3.0043  -29.9653   26.9608 C   0  0  0  0  0  0  0  0  0  0  0  0
   -2.8702  -29.0887   28.0759 C   0  0  0  0  0  0  0  0  0  0  0  0
   -1.6712  -28.4492   28.2989 O   0  0  0  0  0  0  0  0  0  0  0  0
   -2.1366  -30.3851   25.9030 C   0  0  0  0  0  0  0  0  0  0  0  0
   -2.8780  -31.2702   25.1079 C   0  0  0  0  0  0  0  0  0  0  0  0
   -4.1068  -31.3895   25.6263 N   0  0  0  0  0  0  0  0  0  0  0  0
  1  2  1  0  0  0  0
  1  7  1  0  0  0  0
  2  3  1  0  0  0  0
  2  4  2  0  0  0  0
  4  5  1  0  0  0  0
  5  6  2  0  0  0  0
  5 11  1  0  0  0  0
  6  7  1  0  0  0  0
  6  9  1  0  0  0  0
  7  8  2  0  0  0  0
  9 10  2  0  0  0  0
 10 11  1  0  0  0  0
M  END
>  <CHROM.1>
-3.75927411,-29.90262653,27.46142226,-2.11546906,-0.31472143,-2.20195271

>  <Name>
ligand

>  <RI>
0

>  <Rbt.Current_Directory>
/home/itssahil/PROJECTS/Mol_Feturizer/New_Systems/rnas/4LVW

>  <Rbt.Executable>
rbdock ($Id: //depot/dev/client3/rdock/2013.1/src/exe/rbdock.cxx#4 $)

>  <Rbt.Library>
libRbt.so (2013.1, Build901 2013/11/27)

>  <Rbt.Parameter_File>
/export/apps/rDock/src/rDock_2013.1_src/data/scripts/dock_solv.prm

>  <Rbt.Receptor>
prm/blind_docking_100.prm

>  <SCORE>
-14.3085

>  <SCORE.INTER>
-14.3085

>  <SCORE.INTER.CONST>
1

>  <SCORE.INTER.POLAR>
0

>  <SCORE.INTER.ROT>
0

>  <SCORE.INTER.SOLV>
7.71248

>  <SCORE.INTER.VDW>
-15.7098

>  <SCORE.INTER.norm>
-1.30077

>  <SCORE.INTRA>
0

>  <SCORE.INTRA.DIHEDRAL>
0

>  <SCORE.INTRA.DIHEDRAL.0>
0

>  <SCORE.INTRA.POLAR>
0

>  <SCORE.INTRA.POLAR.0>
0

>  <SCORE.INTRA.REPUL>
0

>  <SCORE.INTRA.REPUL.0>
0

>  <SCORE.INTRA.SOLV>
0

>  <SCORE.INTRA.SOLV.lig_0>
-29.307

>  <SCORE.INTRA.VDW>
0

>  <SCORE.INTRA.VDW.0>
0

>  <SCORE.INTRA.norm>
0

>  <SCORE.RESTR>
0

>  <SCORE.RESTR.CAVITY>
0

>  <SCORE.RESTR.norm>
0

>  <SCORE.SYSTEM>
0

>  <SCORE.SYSTEM.CONST>
0

>  <SCORE.SYSTEM.DIHEDRAL>
0

>  <SCORE.SYSTEM.SOLV>
0

>  <SCORE.SYSTEM.norm>
0

>  <SCORE.heavy>
11

>  <SCORE.norm>
-1.30077

>  <RMSD>
11.291

$$$$
ligand
 OpenBabel11021811503D
libRbt.so/2013.1/901 2013/11/27
 11 12  0  0  0  0  0  0  0  0999 V2000
   -3.9348  -28.9100   28.9197 N   0  0  0  0  0  0  0  0  0  0  0  0
   -5.0935  -29.5486   28.6791 C   0  0  0  0  0  0  0  0  0  0  0  0
   -6.2096  -29.3703   29.5509 N   0  0  0  0  0  0  0  0  0  0  0  0
   -5.2528  -30.3583   27.6280 N   0  0  0  0  0  0  0  0  0  0  0  0
   -4.2220  -30.5906   26.7494 C   0  0  0  0  0  0  0  0  0  0  0  0
   -3.0187  -29.9534   26.9614 C   0  0  0  0  0  0  0  0  0  0  0  0
   -2.8850  -29.0823   28.0808 C   0  0  0  0  0  0  0  0  0  0  0  0
   -1.6865  -28.4428   28.3065 O   0  0  0  0  0  0  0  0  0  0  0  0
   -2.1511  -30.3670   25.9011 C   0  0  0  0  0  0  0  0  0  0  0  0
   -2.8920  -31.2488   25.1019 C   0  0  0  0  0  0  0  0  0  0  0  0
   -4.1205  -31.3720   25.6202 N   0  0  0  0  0  0  0  0  0  0  0  0
  1  2  1  0  0  0  0
  1  7  1  0  0  0  0
  2  3  1  0  0  0  0
  2  4  2  0  0  0  0
  4  5  1  0  0  0  0
  5  6  2  0  0  0  0
  5 11  1  0  0  0  0
  6  7  1  0  0  0  0
  6  9  1  0  0  0  0
  7  8  2  0  0  0  0
  9 10  2  0  0  0  0
 10 11  1  0  0  0  0
M  END
>  <CHROM.1>
-3.77350607,-29.89401572,27.46269228,-2.11565985,-0.31582265,-2.19697322

>  <Name>
ligand

>  <RI>
0

>  <Rbt.Current_Directory>
/home/itssahil/PROJECTS/Mol_Feturizer/New_Systems/rnas/4LVW

>  <Rbt.Executable>
rbdock ($Id: //depot/dev/client3/rdock/2013.1/src/exe/rbdock.cxx#4 $)

>  <Rbt.Library>
libRbt.so (2013.1, Build901 2013/11/27)

>  <Rbt.Parameter_File>
/export/apps/rDock/src/rDock_2013.1_src/data/scripts/dock_solv.prm

>  <Rbt.Receptor>
prm/blind_docking_60.prm

>  <SCORE>
-14.2969

>  <SCORE.INTER>
-14.2969

>  <SCORE.INTER.CONST>
1

>  <SCORE.INTER.POLAR>
0

>  <SCORE.INTER.ROT>
0

>  <SCORE.INTER.SOLV>
7.69996

>  <SCORE.INTER.VDW>
-15.6979

>  <SCORE.INTER.norm>
-1.29972

>  <SCORE.INTRA>
0

>  <SCORE.INTRA.DIHEDRAL>
0

>  <SCORE.INTRA.DIHEDRAL.0>
0

>  <SCORE.INTRA.POLAR>
0

>  <SCORE.INTRA.POLAR.0>
0

>  <SCORE.INTRA.REPUL>
0

>  <SCORE.INTRA.REPUL.0>
0

>  <SCORE.INTRA.SOLV>
0

>  <SCORE.INTRA.SOLV.lig_0>
-29.307

>  <SCORE.INTRA.VDW>
0

>  <SCORE.INTRA.VDW.0>
0

>  <SCORE.INTRA.norm>
0

>  <SCORE.RESTR>
0

>  <SCORE.RESTR.CAVITY>
0

>  <SCORE.RESTR.norm>
0

>  <SCORE.SYSTEM>
0

>  <SCORE.SYSTEM.CONST>
0

>  <SCORE.SYSTEM.DIHEDRAL>
0

>  <SCORE.SYSTEM.SOLV>
0

>  <SCORE.SYSTEM.norm>
0

>  <SCORE.heavy>
11

>  <SCORE.norm>
-1.29972

>  <RMSD>
11.291

$$$$
ligand
 OpenBabel11021811503D
libRbt.so/2013.1/901 2013/11/27
 11 12  0  0  0  0  0  0  0  0999 V2000
   -3.9087  -28.9215   28.9259 N   0  0  0  0  0  0  0  0  0  0  0  0
   -5.0729  -29.5497   28.6847 C   0  0  0  0  0  0  0  0  0  0  0  0
   -6.1865  -29.3648   29.5582 N   0  0  0  0  0  0  0  0  0  0  0  0
   -5.2400  -30.3549   27.6313 N   0  0  0  0  0  0  0  0  0  0  0  0
   -4.2121  -30.5930   26.7509 C   0  0  0  0  0  0  0  0  0  0  0  0
   -3.0034  -29.9665   26.9635 C   0  0  0  0  0  0  0  0  0  0  0  0
   -2.8612  -29.0999   28.0854 C   0  0  0  0  0  0  0  0  0  0  0  0
   -1.6572  -28.4710   28.3117 O   0  0  0  0  0  0  0  0  0  0  0  0
   -2.1403  -30.3840   25.9010 C   0  0  0  0  0  0  0  0  0  0  0  0
   -2.8893  -31.2573   25.1000 C   0  0  0  0  0  0  0  0  0  0  0  0
   -4.1182  -31.3718   25.6193 N   0  0  0  0  0  0  0  0  0  0  0  0
  1  2  1  0  0  0  0
  1  7  1  0  0  0  0
  2  3  1  0  0  0  0
  2  4  2  0  0  0  0
  4  5  1  0  0  0  0
  5  6  2  0  0  0  0
  5 11  1  0  0  0  0
  6  7  1  0  0  0  0
  6  9  1  0  0  0  0
  7  8  2  0  0  0  0
  9 10  2  0  0  0  0
 10 11  1  0  0  0  0
M  END
>  <CHROM.1>
-3.75707799,-29.90237414,27.46581752,-2.10966673,-0.30973375,-2.19211590

>  <Name>
ligand

>  <RI>
0

>  <Rbt.Current_Directory>
/home/itssahil/PROJECTS/Mol_Feturizer/New_Systems/rnas/4LVW

>  <Rbt.Executable>
rbdock ($Id: //depot/dev/client3/rdock/2013.1/src/exe/rbdock.cxx#4 $)

>  <Rbt.Library>
libRbt.so (2013.1, Build901 2013/11/27)

>  <Rbt.Parameter_File>
/export/apps/rDock/src/rDock_2013.1_src/data/scripts/dock_solv.prm

>  <Rbt.Receptor>
prm/blind_docking_80.prm

>  <SCORE>
-14.3112

>  <SCORE.INTER>
-14.3112

>  <SCORE.INTER.CONST>
1

>  <SCORE.INTER.POLAR>
0

>  <SCORE.INTER.ROT>
0

>  <SCORE.INTER.SOLV>
7.69985

>  <SCORE.INTER.VDW>
-15.7074

>  <SCORE.INTER.norm>
-1.30102

>  <SCORE.INTRA>
0

>  <SCORE.INTRA.DIHEDRAL>
0

>  <SCORE.INTRA.DIHEDRAL.0>
0

>  <SCORE.INTRA.POLAR>
0

>  <SCORE.INTRA.POLAR.0>
0

>  <SCORE.INTRA.REPUL>
0

>  <SCORE.INTRA.REPUL.0>
0

>  <SCORE.INTRA.SOLV>
0

>  <SCORE.INTRA.SOLV.lig_0>
-29.307

>  <SCORE.INTRA.VDW>
0

>  <SCORE.INTRA.VDW.0>
0

>  <SCORE.INTRA.norm>
0

>  <SCORE.RESTR>
0

>  <SCORE.RESTR.CAVITY>
0

>  <SCORE.RESTR.norm>
0

>  <SCORE.SYSTEM>
0

>  <SCORE.SYSTEM.CONST>
0

>  <SCORE.SYSTEM.DIHEDRAL>
0

>  <SCORE.SYSTEM.SOLV>
0

>  <SCORE.SYSTEM.norm>
0

>  <SCORE.heavy>
11

>  <SCORE.norm>
-1.30102

>  <RMSD>
11.291

$$$$
ligand
 OpenBabel11021811503D
libRbt.so/2013.1/901 2013/11/27
 11 12  0  0  0  0  0  0  0  0999 V2000
   -3.9385  -28.9152   28.9061 N   0  0  0  0  0  0  0  0  0  0  0  0
   -5.0951  -29.5558   28.6611 C   0  0  0  0  0  0  0  0  0  0  0  0
   -6.2167  -29.3749   29.5252 N   0  0  0  0  0  0  0  0  0  0  0  0
   -5.2473  -30.3699   27.6123 N   0  0  0  0  0  0  0  0  0  0  0  0
   -4.2108  -30.6048   26.7410 C   0  0  0  0  0  0  0  0  0  0  0  0
   -3.0095  -29.9657   26.9578 C   0  0  0  0  0  0  0  0  0  0  0  0
   -2.8834  -29.0899   28.0745 C   0  0  0  0  0  0  0  0  0  0  0  0
   -1.6869  -28.4484   28.3049 O   0  0  0  0  0  0  0  0  0  0  0  0
   -2.1350  -30.3828   25.9045 C   0  0  0  0  0  0  0  0  0  0  0  0
   -2.8701  -31.2685   25.1045 C   0  0  0  0  0  0  0  0  0  0  0  0
   -4.1016  -31.3907   25.6157 N   0  0  0  0  0  0  0  0  0  0  0  0
  1  2  1  0  0  0  0
  1  7  1  0  0  0  0
  2  3  1  0  0  0  0
  2  4  2  0  0  0  0
  4  5  1  0  0  0  0
  5  6  2  0  0  0  0
  5 11  1  0  0  0  0
  6  7  1  0  0  0  0
  6  9  1  0  0  0  0
  7  8  2  0  0  0  0
  9 10  2  0  0  0  0
 10 11  1  0  0  0  0
M  END
>  <CHROM.1>
-3.76735346,-29.90495726,27.45421924,-2.12144951,-0.31291674,-2.20283022

>  <Name>
ligand

>  <RI>
0

>  <Rbt.Current_Directory>
/home/itssahil/PROJECTS/Mol_Feturizer/New_Systems/rnas/4LVW

>  <Rbt.Executable>
rbdock ($Id: //depot/dev/client3/rdock/2013.1/src/exe/rbdock.cxx#4 $)

>  <Rbt.Library>
libRbt.so (2013.1, Build901 2013/11/27)

>  <Rbt.Parameter_File>
/export/apps/rDock/src/rDock_2013.1_src/data/scripts/dock_solv.prm

>  <Rbt.Receptor>
prm/blind_docking_60.prm

>  <SCORE>
-14.3011

>  <SCORE.INTER>
-14.3011

>  <SCORE.INTER.CONST>
1

>  <SCORE.INTER.POLAR>
0

>  <SCORE.INTER.ROT>
0

>  <SCORE.INTER.SOLV>
7.74097

>  <SCORE.INTER.VDW>
-15.7144

>  <SCORE.INTER.norm>
-1.3001

>  <SCORE.INTRA>
0

>  <SCORE.INTRA.DIHEDRAL>
0

>  <SCORE.INTRA.DIHEDRAL.0>
0

>  <SCORE.INTRA.POLAR>
0

>  <SCORE.INTRA.POLAR.0>
0

>  <SCORE.INTRA.REPUL>
0

>  <SCORE.INTRA.REPUL.0>
0

>  <SCORE.INTRA.SOLV>
0

>  <SCORE.INTRA.SOLV.lig_0>
-29.307

>  <SCORE.INTRA.VDW>
0

>  <SCORE.INTRA.VDW.0>
0

>  <SCORE.INTRA.norm>
0

>  <SCORE.RESTR>
0

>  <SCORE.RESTR.CAVITY>
0

>  <SCORE.RESTR.norm>
0

>  <SCORE.SYSTEM>
0

>  <SCORE.SYSTEM.CONST>
0

>  <SCORE.SYSTEM.DIHEDRAL>
0

>  <SCORE.SYSTEM.SOLV>
0

>  <SCORE.SYSTEM.norm>
0

>  <SCORE.heavy>
11

>  <SCORE.norm>
-1.3001

>  <RMSD>
11.294

$$$$
ligand
 OpenBabel11021811503D
libRbt.so/2013.1/901 2013/11/27
 11 12  0  0  0  0  0  0  0  0999 V2000
   -3.9382  -28.8740   28.9053 N   0  0  0  0  0  0  0  0  0  0  0  0
   -5.1083  -29.4952   28.6745 C   0  0  0  0  0  0  0  0  0  0  0  0
   -6.2203  -29.2848   29.5443 N   0  0  0  0  0  0  0  0  0  0  0  0
   -5.2828  -30.3167   27.6350 N   0  0  0  0  0  0  0  0  0  0  0  0
   -4.2569  -30.5797   26.7593 C   0  0  0  0  0  0  0  0  0  0  0  0
   -3.0424  -29.9611   26.9616 C   0  0  0  0  0  0  0  0  0  0  0  0
   -2.8923  -29.0768   28.0684 C   0  0  0  0  0  0  0  0  0  0  0  0
   -1.6824  -28.4555   28.2844 O   0  0  0  0  0  0  0  0  0  0  0  0
   -2.1831  -30.4050   25.9067 C   0  0  0  0  0  0  0  0  0  0  0  0
   -2.9402  -31.2847   25.1205 C   0  0  0  0  0  0  0  0  0  0  0  0
   -4.1702  -31.3787   25.6412 N   0  0  0  0  0  0  0  0  0  0  0  0
  1  2  1  0  0  0  0
  1  7  1  0  0  0  0
  2  3  1  0  0  0  0
  2  4  2  0  0  0  0
  4  5  1  0  0  0  0
  5  6  2  0  0  0  0
  5 11  1  0  0  0  0
  6  7  1  0  0  0  0
  6  9  1  0  0  0  0
  7  8  2  0  0  0  0
  9 10  2  0  0  0  0
 10 11  1  0  0  0  0
M  END
>  <CHROM.1>
-3.79556694,-29.88121020,27.46236759,-2.10408297,-0.30186646,-2.20760454

>  <Name>
ligand

>  <RI>
0

>  <Rbt.Current_Directory>
/home/itssahil/PROJECTS/Mol_Feturizer/New_Systems/rnas/4LVW

>  <Rbt.Executable>
rbdock ($Id: //depot/dev/client3/rdock/2013.1/src/exe/rbdock.cxx#4 $)

>  <Rbt.Library>
libRbt.so (2013.1, Build901 2013/11/27)

>  <Rbt.Parameter_File>
/export/apps/rDock/src/rDock_2013.1_src/data/scripts/dock_solv.prm

>  <Rbt.Receptor>
prm/blind_docking_60.prm

>  <SCORE>
-14.2903

>  <SCORE.INTER>
-14.2903

>  <SCORE.INTER.CONST>
1

>  <SCORE.INTER.POLAR>
0

>  <SCORE.INTER.ROT>
0

>  <SCORE.INTER.SOLV>
7.66016

>  <SCORE.INTER.VDW>
-15.6802

>  <SCORE.INTER.norm>
-1.29911

>  <SCORE.INTRA>
0

>  <SCORE.INTRA.DIHEDRAL>
0

>  <SCORE.INTRA.DIHEDRAL.0>
0

>  <SCORE.INTRA.POLAR>
0

>  <SCORE.INTRA.POLAR.0>
0

>  <SCORE.INTRA.REPUL>
0

>  <SCORE.INTRA.REPUL.0>
0

>  <SCORE.INTRA.SOLV>
0

>  <SCORE.INTRA.SOLV.lig_0>
-29.307

>  <SCORE.INTRA.VDW>
0

>  <SCORE.INTRA.VDW.0>
0

>  <SCORE.INTRA.norm>
0

>  <SCORE.RESTR>
0

>  <SCORE.RESTR.CAVITY>
0

>  <SCORE.RESTR.norm>
0

>  <SCORE.SYSTEM>
0

>  <SCORE.SYSTEM.CONST>
0

>  <SCORE.SYSTEM.DIHEDRAL>
0

>  <SCORE.SYSTEM.SOLV>
0

>  <SCORE.SYSTEM.norm>
0

>  <SCORE.heavy>
11

>  <SCORE.norm>
-1.29911

>  <RMSD>
11.296

$$$$
ligand
 OpenBabel11021811503D
libRbt.so/2013.1/901 2013/11/27
 11 12  0  0  0  0  0  0  0  0999 V2000
   -3.9456  -28.9137   28.8987 N   0  0  0  0  0  0  0  0  0  0  0  0
   -5.1026  -29.5542   28.6551 C   0  0  0  0  0  0  0  0  0  0  0  0
   -6.2234  -29.3725   29.5202 N   0  0  0  0  0  0  0  0  0  0  0  0
   -5.2560  -30.3688   27.6069 N   0  0  0  0  0  0  0  0  0  0  0  0
   -4.2204  -30.6045   26.7348 C   0  0  0  0  0  0  0  0  0  0  0  0
   -3.0187  -29.9656   26.9501 C   0  0  0  0  0  0  0  0  0  0  0  0
   -2.8913  -29.0893   28.0662 C   0  0  0  0  0  0  0  0  0  0  0  0
   -1.6944  -28.4480   28.2952 O   0  0  0  0  0  0  0  0  0  0  0  0
   -2.1453  -30.3835   25.8963 C   0  0  0  0  0  0  0  0  0  0  0  0
   -2.8814  -31.2695   25.0974 C   0  0  0  0  0  0  0  0  0  0  0  0
   -4.1125  -31.3910   25.6098 N   0  0  0  0  0  0  0  0  0  0  0  0
  1  2  1  0  0  0  0
  1  7  1  0  0  0  0
  2  3  1  0  0  0  0
  2  4  2  0  0  0  0
  4  5  1  0  0  0  0
  5  6  2  0  0  0  0
  5 11  1  0  0  0  0
  6  7  1  0  0  0  0
  6  9  1  0  0  0  0
  7  8  2  0  0  0  0
  9 10  2  0  0  0  0
 10 11  1  0  0  0  0
M  END
>  <CHROM.1>
-3.77607617,-29.90436124,27.44720599,-2.12048093,-0.31322555,-2.20308059

>  <Name>
ligand

>  <RI>
0

>  <Rbt.Current_Directory>
/home/itssahil/PROJECTS/Mol_Feturizer/New_Systems/rnas/4LVW

>  <Rbt.Executable>
rbdock ($Id: //depot/dev/client3/rdock/2013.1/src/exe/rbdock.cxx#4 $)

>  <Rbt.Library>
libRbt.so (2013.1, Build901 2013/11/27)

>  <Rbt.Parameter_File>
/export/apps/rDock/src/rDock_2013.1_src/data/scripts/dock_solv.prm

>  <Rbt.Receptor>
prm/blind_docking_80.prm

>  <SCORE>
-14.2974

>  <SCORE.INTER>
-14.2974

>  <SCORE.INTER.CONST>
1

>  <SCORE.INTER.POLAR>
0

>  <SCORE.INTER.ROT>
0

>  <SCORE.INTER.SOLV>
7.73909

>  <SCORE.INTER.VDW>
-15.7113

>  <SCORE.INTER.norm>
-1.29976

>  <SCORE.INTRA>
0

>  <SCORE.INTRA.DIHEDRAL>
0

>  <SCORE.INTRA.DIHEDRAL.0>
0

>  <SCORE.INTRA.POLAR>
0

>  <SCORE.INTRA.POLAR.0>
0

>  <SCORE.INTRA.REPUL>
0

>  <SCORE.INTRA.REPUL.0>
0

>  <SCORE.INTRA.SOLV>
0

>  <SCORE.INTRA.SOLV.lig_0>
-29.307

>  <SCORE.INTRA.VDW>
0

>  <SCORE.INTRA.VDW.0>
0

>  <SCORE.INTRA.norm>
0

>  <SCORE.RESTR>
0

>  <SCORE.RESTR.CAVITY>
0

>  <SCORE.RESTR.norm>
0

>  <SCORE.SYSTEM>
0

>  <SCORE.SYSTEM.CONST>
0

>  <SCORE.SYSTEM.DIHEDRAL>
0

>  <SCORE.SYSTEM.SOLV>
0

>  <SCORE.SYSTEM.norm>
0

>  <SCORE.heavy>
11

>  <SCORE.norm>
-1.29976

>  <RMSD>
11.297

$$$$
ligand
 OpenBabel11021811503D
libRbt.so/2013.1/901 2013/11/27
 11 12  0  0  0  0  0  0  0  0999 V2000
   -3.9450  -28.9090   28.9169 N   0  0  0  0  0  0  0  0  0  0  0  0
   -5.1044  -29.5469   28.6779 C   0  0  0  0  0  0  0  0  0  0  0  0
   -6.2198  -29.3664   29.5501 N   0  0  0  0  0  0  0  0  0  0  0  0
   -5.2651  -30.3578   27.6279 N   0  0  0  0  0  0  0  0  0  0  0  0
   -4.2350  -30.5921   26.7490 C   0  0  0  0  0  0  0  0  0  0  0  0
   -3.0310  -29.9557   26.9594 C   0  0  0  0  0  0  0  0  0  0  0  0
   -2.8958  -29.0833   28.0776 C   0  0  0  0  0  0  0  0  0  0  0  0
   -1.6966  -28.4446   28.3017 O   0  0  0  0  0  0  0  0  0  0  0  0
   -2.1644  -30.3715   25.8991 C   0  0  0  0  0  0  0  0  0  0  0  0
   -2.9066  -31.2537   25.1016 C   0  0  0  0  0  0  0  0  0  0  0  0
   -4.1348  -31.3751   25.6208 N   0  0  0  0  0  0  0  0  0  0  0  0
  1  2  1  0  0  0  0
  1  7  1  0  0  0  0
  2  3  1  0  0  0  0
  2  4  2  0  0  0  0
  4  5  1  0  0  0  0
  5  6  2  0  0  0  0
  5 11  1  0  0  0  0
  6  7  1  0  0  0  0
  6  9  1  0  0  0  0
  7  8  2  0  0  0  0
  9 10  2  0  0  0  0
 10 11  1  0  0  0  0
M  END
>  <CHROM.1>
-3.78542535,-29.89503263,27.46110062,-2.11460027,-0.31544897,-2.19795266

>  <Name>
ligand

>  <RI>
0

>  <Rbt.Current_Directory>
/home/itssahil/PROJECTS/Mol_Feturizer/New_Systems/rnas/4LVW

>  <Rbt.Executable>
rbdock ($Id: //depot/dev/client3/rdock/2013.1/src/exe/rbdock.cxx#4 $)

>  <Rbt.Library>
libRbt.so (2013.1, Build901 2013/11/27)

>  <Rbt.Parameter_File>
/export/apps/rDock/src/rDock_2013.1_src/data/scripts/dock_solv.prm

>  <Rbt.Receptor>
prm/blind_docking_100.prm

>  <SCORE>
-14.2957

>  <SCORE.INTER>
-14.2957

>  <SCORE.INTER.CONST>
1

>  <SCORE.INTER.POLAR>
0

>  <SCORE.INTER.ROT>
0

>  <SCORE.INTER.SOLV>
7.69246

>  <SCORE.INTER.VDW>
-15.6946

>  <SCORE.INTER.norm>
-1.29961

>  <SCORE.INTRA>
0

>  <SCORE.INTRA.DIHEDRAL>
0

>  <SCORE.INTRA.DIHEDRAL.0>
0

>  <SCORE.INTRA.POLAR>
0

>  <SCORE.INTRA.POLAR.0>
0

>  <SCORE.INTRA.REPUL>
0

>  <SCORE.INTRA.REPUL.0>
0

>  <SCORE.INTRA.SOLV>
0

>  <SCORE.INTRA.SOLV.lig_0>
-29.307

>  <SCORE.INTRA.VDW>
0

>  <SCORE.INTRA.VDW.0>
0

>  <SCORE.INTRA.norm>
0

>  <SCORE.RESTR>
0

>  <SCORE.RESTR.CAVITY>
0

>  <SCORE.RESTR.norm>
0

>  <SCORE.SYSTEM>
0

>  <SCORE.SYSTEM.CONST>
0

>  <SCORE.SYSTEM.DIHEDRAL>
0

>  <SCORE.SYSTEM.SOLV>
0

>  <SCORE.SYSTEM.norm>
0

>  <SCORE.heavy>
11

>  <SCORE.norm>
-1.29961

>  <RMSD>
11.298

$$$$
ligand
 OpenBabel11021811503D
libRbt.so/2013.1/901 2013/11/27
 11 12  0  0  0  0  0  0  0  0999 V2000
   -3.9327  -28.9173   28.9086 N   0  0  0  0  0  0  0  0  0  0  0  0
   -5.0936  -29.5517   28.6675 C   0  0  0  0  0  0  0  0  0  0  0  0
   -6.2100  -29.3678   29.5377 N   0  0  0  0  0  0  0  0  0  0  0  0
   -5.2548  -30.3621   27.6172 N   0  0  0  0  0  0  0  0  0  0  0  0
   -4.2239  -30.5995   26.7402 C   0  0  0  0  0  0  0  0  0  0  0  0
   -3.0184  -29.9668   26.9527 C   0  0  0  0  0  0  0  0  0  0  0  0
   -2.8826  -29.0948   28.0712 C   0  0  0  0  0  0  0  0  0  0  0  0
   -1.6819  -28.4596   28.2974 O   0  0  0  0  0  0  0  0  0  0  0  0
   -2.1511  -30.3852   25.8940 C   0  0  0  0  0  0  0  0  0  0  0  0
   -2.8945  -31.2651   25.0951 C   0  0  0  0  0  0  0  0  0  0  0  0
   -4.1241  -31.3828   25.6121 N   0  0  0  0  0  0  0  0  0  0  0  0
  1  2  1  0  0  0  0
  1  7  1  0  0  0  0
  2  3  1  0  0  0  0
  2  4  2  0  0  0  0
  4  5  1  0  0  0  0
  5  6  2  0  0  0  0
  5 11  1  0  0  0  0
  6  7  1  0  0  0  0
  6  9  1  0  0  0  0
  7  8  2  0  0  0  0
  9 10  2  0  0  0  0
 10 11  1  0  0  0  0
M  END
>  <CHROM.1>
-3.77351941,-29.90380732,27.45306620,-2.11426147,-0.31195995,-2.19784974

>  <Name>
ligand

>  <RI>
0

>  <Rbt.Current_Directory>
/home/itssahil/PROJECTS/Mol_Feturizer/New_Systems/rnas/4LVW

>  <Rbt.Executable>
rbdock ($Id: //depot/dev/client3/rdock/2013.1/src/exe/rbdock.cxx#4 $)

>  <Rbt.Library>
libRbt.so (2013.1, Build901 2013/11/27)

>  <Rbt.Parameter_File>
/export/apps/rDock/src/rDock_2013.1_src/data/scripts/dock_solv.prm

>  <Rbt.Receptor>
prm/blind_docking_100.prm

>  <SCORE>
-14.3034

>  <SCORE.INTER>
-14.3034

>  <SCORE.INTER.CONST>
1

>  <SCORE.INTER.POLAR>
0

>  <SCORE.INTER.ROT>
0

>  <SCORE.INTER.SOLV>
7.71472

>  <SCORE.INTER.VDW>
-15.7072

>  <SCORE.INTER.norm>
-1.30031

>  <SCORE.INTRA>
0

>  <SCORE.INTRA.DIHEDRAL>
0

>  <SCORE.INTRA.DIHEDRAL.0>
0

>  <SCORE.INTRA.POLAR>
0

>  <SCORE.INTRA.POLAR.0>
0

>  <SCORE.INTRA.REPUL>
0

>  <SCORE.INTRA.REPUL.0>
0

>  <SCORE.INTRA.SOLV>
0

>  <SCORE.INTRA.SOLV.lig_0>
-29.307

>  <SCORE.INTRA.VDW>
0

>  <SCORE.INTRA.VDW.0>
0

>  <SCORE.INTRA.norm>
0

>  <SCORE.RESTR>
0

>  <SCORE.RESTR.CAVITY>
0

>  <SCORE.RESTR.norm>
0

>  <SCORE.SYSTEM>
0

>  <SCORE.SYSTEM.CONST>
0

>  <SCORE.SYSTEM.DIHEDRAL>
0

>  <SCORE.SYSTEM.SOLV>
0

>  <SCORE.SYSTEM.norm>
0

>  <SCORE.heavy>
11

>  <SCORE.norm>
-1.30031

>  <RMSD>
11.298

$$$$
ligand
 OpenBabel11021811503D
libRbt.so/2013.1/901 2013/11/27
 11 12  0  0  0  0  0  0  0  0999 V2000
   -5.3579  -30.4859   27.7347 N   0  0  0  0  0  0  0  0  0  0  0  0
   -5.1633  -29.7427   28.8383 C   0  0  0  0  0  0  0  0  0  0  0  0
   -6.1688  -29.6760   29.8492 N   0  0  0  0  0  0  0  0  0  0  0  0
   -4.0374  -29.0515   29.0392 N   0  0  0  0  0  0  0  0  0  0  0  0
   -3.0274  -29.0553   28.1074 C   0  0  0  0  0  0  0  0  0  0  0  0
   -3.1887  -29.8061   26.9632 C   0  0  0  0  0  0  0  0  0  0  0  0
   -4.3929  -30.5464   26.7856 C   0  0  0  0  0  0  0  0  0  0  0  0
   -4.5686  -31.2972   25.6447 O   0  0  0  0  0  0  0  0  0  0  0  0
   -1.9934  -29.6330   26.1954 C   0  0  0  0  0  0  0  0  0  0  0  0
   -1.1701  -28.7688   26.9306 C   0  0  0  0  0  0  0  0  0  0  0  0
   -1.7996  -28.4336   28.0639 N   0  0  0  0  0  0  0  0  0  0  0  0
  1  2  1  0  0  0  0
  1  7  1  0  0  0  0
  2  3  1  0  0  0  0
  2  4  2  0  0  0  0
  4  5  1  0  0  0  0
  5  6  2  0  0  0  0
  5 11  1  0  0  0  0
  6  7  1  0  0  0  0
  6  9  1  0  0  0  0
  7  8  2  0  0  0  0
  9 10  2  0  0  0  0
 10 11  1  0  0  0  0
M  END
>  <CHROM.1>
-3.77357049,-29.71126910,27.65128693,2.87503118,0.42394155,1.04250200

>  <Name>
ligand

>  <RI>
0

>  <Rbt.Current_Directory>
/home/itssahil/PROJECTS/Mol_Feturizer/New_Systems/rnas/4LVW

>  <Rbt.Executable>
rbdock ($Id: //depot/dev/client3/rdock/2013.1/src/exe/rbdock.cxx#4 $)

>  <Rbt.Library>
libRbt.so (2013.1, Build901 2013/11/27)

>  <Rbt.Parameter_File>
/export/apps/rDock/src/rDock_2013.1_src/data/scripts/dock_solv.prm

>  <Rbt.Receptor>
prm/blind_docking_100.prm

>  <SCORE>
-13.1653

>  <SCORE.INTER>
-13.1653

>  <SCORE.INTER.CONST>
1

>  <SCORE.INTER.POLAR>
0

>  <SCORE.INTER.ROT>
0

>  <SCORE.INTER.SOLV>
8.15686

>  <SCORE.INTER.VDW>
-15.0958

>  <SCORE.INTER.norm>
-1.19685

>  <SCORE.INTRA>
0

>  <SCORE.INTRA.DIHEDRAL>
0

>  <SCORE.INTRA.DIHEDRAL.0>
0

>  <SCORE.INTRA.POLAR>
0

>  <SCORE.INTRA.POLAR.0>
0

>  <SCORE.INTRA.REPUL>
0

>  <SCORE.INTRA.REPUL.0>
0

>  <SCORE.INTRA.SOLV>
0

>  <SCORE.INTRA.SOLV.lig_0>
-29.307

>  <SCORE.INTRA.VDW>
0

>  <SCORE.INTRA.VDW.0>
0

>  <SCORE.INTRA.norm>
0

>  <SCORE.RESTR>
0

>  <SCORE.RESTR.CAVITY>
0

>  <SCORE.RESTR.norm>
0

>  <SCORE.SYSTEM>
0

>  <SCORE.SYSTEM.CONST>
0

>  <SCORE.SYSTEM.DIHEDRAL>
0

>  <SCORE.SYSTEM.SOLV>
0

>  <SCORE.SYSTEM.norm>
0

>  <SCORE.heavy>
11

>  <SCORE.norm>
-1.19685

>  <RMSD>
11.319

$$$$
ligand
 OpenBabel11021811503D
libRbt.so/2013.1/901 2013/11/27
 11 12  0  0  0  0  0  0  0  0999 V2000
   -5.3948  -30.4200   27.8473 N   0  0  0  0  0  0  0  0  0  0  0  0
   -5.1514  -29.6824   28.9450 C   0  0  0  0  0  0  0  0  0  0  0  0
   -6.1247  -29.5953   29.9855 N   0  0  0  0  0  0  0  0  0  0  0  0
   -4.0053  -29.0160   29.1128 N   0  0  0  0  0  0  0  0  0  0  0  0
   -3.0238  -29.0405   28.1513 C   0  0  0  0  0  0  0  0  0  0  0  0
   -3.2353  -29.7862   27.0120 C   0  0  0  0  0  0  0  0  0  0  0  0
   -4.4600  -30.5001   26.8699 C   0  0  0  0  0  0  0  0  0  0  0  0
   -4.6857  -31.2456   25.7343 O   0  0  0  0  0  0  0  0  0  0  0  0
   -2.0600  -29.6380   26.2090 C   0  0  0  0  0  0  0  0  0  0  0  0
   -1.1967  -28.7927   26.9198 C   0  0  0  0  0  0  0  0  0  0  0  0
   -1.7847  -28.4454   28.0716 N   0  0  0  0  0  0  0  0  0  0  0  0
  1  2  1  0  0  0  0
  1  7  1  0  0  0  0
  2  3  1  0  0  0  0
  2  4  2  0  0  0  0
  4  5  1  0  0  0  0
  5  6  2  0  0  0  0
  5 11  1  0  0  0  0
  6  7  1  0  0  0  0
  6  9  1  0  0  0  0
  7  8  2  0  0  0  0
  9 10  2  0  0  0  0
 10 11  1  0  0  0  0
M  END
>  <CHROM.1>
-3.79727143,-29.67962470,27.71720343,2.83495153,0.41997367,1.05980074

>  <Name>
ligand

>  <RI>
0

>  <Rbt.Current_Directory>
/home/itssahil/PROJECTS/Mol_Feturizer/New_Systems/rnas/4LVW

>  <Rbt.Executable>
rbdock ($Id: //depot/dev/client3/rdock/2013.1/src/exe/rbdock.cxx#4 $)

>  <Rbt.Library>
libRbt.so (2013.1, Build901 2013/11/27)

>  <Rbt.Parameter_File>
/export/apps/rDock/src/rDock_2013.1_src/data/scripts/dock_solv.prm

>  <Rbt.Receptor>
prm/blind_docking_60.prm

>  <SCORE>
-13.2479

>  <SCORE.INTER>
-13.2479

>  <SCORE.INTER.CONST>
1

>  <SCORE.INTER.POLAR>
0

>  <SCORE.INTER.ROT>
0

>  <SCORE.INTER.SOLV>
7.85699

>  <SCORE.INTER.VDW>
-15.0509

>  <SCORE.INTER.norm>
-1.20436

>  <SCORE.INTRA>
0

>  <SCORE.INTRA.DIHEDRAL>
0

>  <SCORE.INTRA.DIHEDRAL.0>
0

>  <SCORE.INTRA.POLAR>
0

>  <SCORE.INTRA.POLAR.0>
0

>  <SCORE.INTRA.REPUL>
0

>  <SCORE.INTRA.REPUL.0>
0

>  <SCORE.INTRA.SOLV>
0

>  <SCORE.INTRA.SOLV.lig_0>
-29.307

>  <SCORE.INTRA.VDW>
0

>  <SCORE.INTRA.VDW.0>
0

>  <SCORE.INTRA.norm>
0

>  <SCORE.RESTR>
0

>  <SCORE.RESTR.CAVITY>
0

>  <SCORE.RESTR.norm>
0

>  <SCORE.SYSTEM>
0

>  <SCORE.SYSTEM.CONST>
0

>  <SCORE.SYSTEM.DIHEDRAL>
0

>  <SCORE.SYSTEM.SOLV>
0

>  <SCORE.SYSTEM.norm>
0

>  <SCORE.heavy>
11

>  <SCORE.norm>
-1.20436

>  <RMSD>
11.321

$$$$
ligand
 OpenBabel11021811503D
libRbt.so/2013.1/901 2013/11/27
 11 12  0  0  0  0  0  0  0  0999 V2000
   -5.3995  -30.4237   27.8653 N   0  0  0  0  0  0  0  0  0  0  0  0
   -5.1639  -29.6764   28.9582 C   0  0  0  0  0  0  0  0  0  0  0  0
   -6.1401  -29.5888   29.9959 N   0  0  0  0  0  0  0  0  0  0  0  0
   -4.0231  -29.0005   29.1235 N   0  0  0  0  0  0  0  0  0  0  0  0
   -3.0394  -29.0248   28.1642 C   0  0  0  0  0  0  0  0  0  0  0  0
   -3.2430  -29.7803   27.0299 C   0  0  0  0  0  0  0  0  0  0  0  0
   -4.4621  -30.5041   26.8905 C   0  0  0  0  0  0  0  0  0  0  0  0
   -4.6800  -31.2594   25.7598 O   0  0  0  0  0  0  0  0  0  0  0  0
   -2.0670  -29.6293   26.2284 C   0  0  0  0  0  0  0  0  0  0  0  0
   -1.2114  -28.7726   26.9349 C   0  0  0  0  0  0  0  0  0  0  0  0
   -1.8044  -28.4212   28.0828 N   0  0  0  0  0  0  0  0  0  0  0  0
  1  2  1  0  0  0  0
  1  7  1  0  0  0  0
  2  3  1  0  0  0  0
  2  4  2  0  0  0  0
  4  5  1  0  0  0  0
  5  6  2  0  0  0  0
  5 11  1  0  0  0  0
  6  7  1  0  0  0  0
  6  9  1  0  0  0  0
  7  8  2  0  0  0  0
  9 10  2  0  0  0  0
 10 11  1  0  0  0  0
M  END
>  <CHROM.1>
-3.80718860,-29.67266321,27.73319713,2.84091458,0.42526538,1.05008921

>  <Name>
ligand

>  <RI>
0

>  <Rbt.Current_Directory>
/home/itssahil/PROJECTS/Mol_Feturizer/New_Systems/rnas/4LVW

>  <Rbt.Executable>
rbdock ($Id: //depot/dev/client3/rdock/2013.1/src/exe/rbdock.cxx#4 $)

>  <Rbt.Library>
libRbt.so (2013.1, Build901 2013/11/27)

>  <Rbt.Parameter_File>
/export/apps/rDock/src/rDock_2013.1_src/data/scripts/dock_solv.prm

>  <Rbt.Receptor>
prm/blind_docking_80.prm

>  <SCORE>
-13.2319

>  <SCORE.INTER>
-13.2319

>  <SCORE.INTER.CONST>
1

>  <SCORE.INTER.POLAR>
0

>  <SCORE.INTER.ROT>
0

>  <SCORE.INTER.SOLV>
7.86974

>  <SCORE.INTER.VDW>
-15.0445

>  <SCORE.INTER.norm>
-1.2029

>  <SCORE.INTRA>
0

>  <SCORE.INTRA.DIHEDRAL>
0

>  <SCORE.INTRA.DIHEDRAL.0>
0

>  <SCORE.INTRA.POLAR>
0

>  <SCORE.INTRA.POLAR.0>
0

>  <SCORE.INTRA.REPUL>
0

>  <SCORE.INTRA.REPUL.0>
0

>  <SCORE.INTRA.SOLV>
0

>  <SCORE.INTRA.SOLV.lig_0>
-29.307

>  <SCORE.INTRA.VDW>
0

>  <SCORE.INTRA.VDW.0>
0

>  <SCORE.INTRA.norm>
0

>  <SCORE.RESTR>
0

>  <SCORE.RESTR.CAVITY>
0

>  <SCORE.RESTR.norm>
0

>  <SCORE.SYSTEM>
0

>  <SCORE.SYSTEM.CONST>
0

>  <SCORE.SYSTEM.DIHEDRAL>
0

>  <SCORE.SYSTEM.SOLV>
0

>  <SCORE.SYSTEM.norm>
0

>  <SCORE.heavy>
11

>  <SCORE.norm>
-1.2029

>  <RMSD>
11.324

$$$$
ligand
 OpenBabel11021811503D
libRbt.so/2013.1/901 2013/11/27
 11 12  0  0  0  0  0  0  0  0999 V2000
   -5.4160  -30.4480   27.7939 N   0  0  0  0  0  0  0  0  0  0  0  0
   -5.1398  -29.7058   28.8806 C   0  0  0  0  0  0  0  0  0  0  0  0
   -6.0871  -29.6029   29.9434 N   0  0  0  0  0  0  0  0  0  0  0  0
   -3.9839  -29.0489   29.0166 N   0  0  0  0  0  0  0  0  0  0  0  0
   -3.0260  -29.0887   28.0322 C   0  0  0  0  0  0  0  0  0  0  0  0
   -3.2714  -29.8397   26.9032 C   0  0  0  0  0  0  0  0  0  0  0  0
   -4.5056  -30.5431   26.7950 C   0  0  0  0  0  0  0  0  0  0  0  0
   -4.7652  -31.2937   25.6701 O   0  0  0  0  0  0  0  0  0  0  0  0
   -2.1143  -29.7076   26.0715 C   0  0  0  0  0  0  0  0  0  0  0  0
   -1.2265  -28.8657   26.7559 C   0  0  0  0  0  0  0  0  0  0  0  0
   -1.7837  -28.5057   27.9190 N   0  0  0  0  0  0  0  0  0  0  0  0
  1  2  1  0  0  0  0
  1  7  1  0  0  0  0
  2  3  1  0  0  0  0
  2  4  2  0  0  0  0
  4  5  1  0  0  0  0
  5  6  2  0  0  0  0
  5 11  1  0  0  0  0
  6  7  1  0  0  0  0
  6  9  1  0  0  0  0
  7  8  2  0  0  0  0
  9 10  2  0  0  0  0
 10 11  1  0  0  0  0
M  END
>  <CHROM.1>
-3.81535482,-29.72339581,27.62089814,2.80719602,0.42355003,1.06465060

>  <Name>
ligand

>  <RI>
0

>  <Rbt.Current_Directory>
/home/itssahil/PROJECTS/Mol_Feturizer/New_Systems/rnas/4LVW

>  <Rbt.Executable>
rbdock ($Id: //depot/dev/client3/rdock/2013.1/src/exe/rbdock.cxx#4 $)

>  <Rbt.Library>
libRbt.so (2013.1, Build901 2013/11/27)

>  <Rbt.Parameter_File>
/export/apps/rDock/src/rDock_2013.1_src/data/scripts/dock_solv.prm

>  <Rbt.Receptor>
prm/blind_docking_80.prm

>  <SCORE>
-13.2172

>  <SCORE.INTER>
-13.2172

>  <SCORE.INTER.CONST>
1

>  <SCORE.INTER.POLAR>
0

>  <SCORE.INTER.ROT>
0

>  <SCORE.INTER.SOLV>
7.81651

>  <SCORE.INTER.VDW>
-15.017

>  <SCORE.INTER.norm>
-1.20156

>  <SCORE.INTRA>
0

>  <SCORE.INTRA.DIHEDRAL>
0

>  <SCORE.INTRA.DIHEDRAL.0>
0

>  <SCORE.INTRA.POLAR>
0

>  <SCORE.INTRA.POLAR.0>
0

>  <SCORE.INTRA.REPUL>
0

>  <SCORE.INTRA.REPUL.0>
0

>  <SCORE.INTRA.SOLV>
0

>  <SCORE.INTRA.SOLV.lig_0>
-29.307

>  <SCORE.INTRA.VDW>
0

>  <SCORE.INTRA.VDW.0>
0

>  <SCORE.INTRA.norm>
0

>  <SCORE.RESTR>
0

>  <SCORE.RESTR.CAVITY>
0

>  <SCORE.RESTR.norm>
0

>  <SCORE.SYSTEM>
0

>  <SCORE.SYSTEM.CONST>
0

>  <SCORE.SYSTEM.DIHEDRAL>
0

>  <SCORE.SYSTEM.SOLV>
0

>  <SCORE.SYSTEM.norm>
0

>  <SCORE.heavy>
11

>  <SCORE.norm>
-1.20156

>  <RMSD>
11.343

$$$$
ligand
 OpenBabel11021811503D
libRbt.so/2013.1/901 2013/11/27
 11 12  0  0  0  0  0  0  0  0999 V2000
   -4.0130  -28.9513   28.9033 N   0  0  0  0  0  0  0  0  0  0  0  0
   -5.1756  -29.5726   28.6377 C   0  0  0  0  0  0  0  0  0  0  0  0
   -6.3043  -29.3861   29.4913 N   0  0  0  0  0  0  0  0  0  0  0  0
   -5.3272  -30.3721   27.5777 N   0  0  0  0  0  0  0  0  0  0  0  0
   -4.2843  -30.6114   26.7154 C   0  0  0  0  0  0  0  0  0  0  0  0
   -3.0767  -29.9918   26.9532 C   0  0  0  0  0  0  0  0  0  0  0  0
   -2.9510  -29.1311   28.0815 C   0  0  0  0  0  0  0  0  0  0  0  0
   -1.7484  -28.5093   28.3330 O   0  0  0  0  0  0  0  0  0  0  0  0
   -2.1961  -30.4089   25.9049 C   0  0  0  0  0  0  0  0  0  0  0  0
   -2.9345  -31.2747   25.0861 C   0  0  0  0  0  0  0  0  0  0  0  0
   -4.1733  -31.3855   25.5821 N   0  0  0  0  0  0  0  0  0  0  0  0
  1  2  1  0  0  0  0
  1  7  1  0  0  0  0
  2  3  1  0  0  0  0
  2  4  2  0  0  0  0
  4  5  1  0  0  0  0
  5  6  2  0  0  0  0
  5 11  1  0  0  0  0
  6  7  1  0  0  0  0
  6  9  1  0  0  0  0
  7  8  2  0  0  0  0
  9 10  2  0  0  0  0
 10 11  1  0  0  0  0
M  END
>  <CHROM.1>
-3.83922440,-29.92628570,27.44174506,-2.12241919,-0.29492636,-2.19130980

>  <Name>
ligand

>  <RI>
0

>  <Rbt.Current_Directory>
/home/itssahil/PROJECTS/Mol_Feturizer/New_Systems/rnas/4LVW

>  <Rbt.Executable>
rbdock ($Id: //depot/dev/client3/rdock/2013.1/src/exe/rbdock.cxx#4 $)

>  <Rbt.Library>
libRbt.so (2013.1, Build901 2013/11/27)

>  <Rbt.Parameter_File>
/export/apps/rDock/src/rDock_2013.1_src/data/scripts/dock_solv.prm

>  <Rbt.Receptor>
prm/blind_docking_60.prm

>  <SCORE>
-14.2971

>  <SCORE.INTER>
-14.2971

>  <SCORE.INTER.CONST>
1

>  <SCORE.INTER.POLAR>
0

>  <SCORE.INTER.ROT>
0

>  <SCORE.INTER.SOLV>
7.74344

>  <SCORE.INTER.VDW>
-15.7125

>  <SCORE.INTER.norm>
-1.29974

>  <SCORE.INTRA>
0

>  <SCORE.INTRA.DIHEDRAL>
0

>  <SCORE.INTRA.DIHEDRAL.0>
0

>  <SCORE.INTRA.POLAR>
0

>  <SCORE.INTRA.POLAR.0>
0

>  <SCORE.INTRA.REPUL>
0

>  <SCORE.INTRA.REPUL.0>
0

>  <SCORE.INTRA.SOLV>
0

>  <SCORE.INTRA.SOLV.lig_0>
-29.307

>  <SCORE.INTRA.VDW>
0

>  <SCORE.INTRA.VDW.0>
0

>  <SCORE.INTRA.norm>
0

>  <SCORE.RESTR>
0

>  <SCORE.RESTR.CAVITY>
0

>  <SCORE.RESTR.norm>
0

>  <SCORE.SYSTEM>
0

>  <SCORE.SYSTEM.CONST>
0

>  <SCORE.SYSTEM.DIHEDRAL>
0

>  <SCORE.SYSTEM.SOLV>
0

>  <SCORE.SYSTEM.norm>
0

>  <SCORE.heavy>
11

>  <SCORE.norm>
-1.29974

>  <RMSD>
11.344

$$$$
ligand
 OpenBabel11021811503D
libRbt.so/2013.1/901 2013/11/27
 11 12  0  0  0  0  0  0  0  0999 V2000
   -4.0127  -28.9544   28.9035 N   0  0  0  0  0  0  0  0  0  0  0  0
   -5.1736  -29.5789   28.6379 C   0  0  0  0  0  0  0  0  0  0  0  0
   -6.3031  -29.3947   29.4910 N   0  0  0  0  0  0  0  0  0  0  0  0
   -5.3227  -30.3796   27.5784 N   0  0  0  0  0  0  0  0  0  0  0  0
   -4.2789  -30.6168   26.7166 C   0  0  0  0  0  0  0  0  0  0  0  0
   -3.0729  -29.9940   26.9545 C   0  0  0  0  0  0  0  0  0  0  0  0
   -2.9499  -29.1321   28.0822 C   0  0  0  0  0  0  0  0  0  0  0  0
   -1.7490  -28.5071   28.3337 O   0  0  0  0  0  0  0  0  0  0  0  0
   -2.1909  -30.4095   25.9068 C   0  0  0  0  0  0  0  0  0  0  0  0
   -2.9267  -31.2777   25.0884 C   0  0  0  0  0  0  0  0  0  0  0  0
   -4.1655  -31.3913   25.5839 N   0  0  0  0  0  0  0  0  0  0  0  0
  1  2  1  0  0  0  0
  1  7  1  0  0  0  0
  2  3  1  0  0  0  0
  2  4  2  0  0  0  0
  4  5  1  0  0  0  0
  5  6  2  0  0  0  0
  5 11  1  0  0  0  0
  6  7  1  0  0  0  0
  6  9  1  0  0  0  0
  7  8  2  0  0  0  0
  9 10  2  0  0  0  0
 10 11  1  0  0  0  0
M  END
>  <CHROM.1>
-3.83581102,-29.93000120,27.44269379,-2.12429420,-0.29678447,-2.19254851

>  <Name>
ligand

>  <RI>
0

>  <Rbt.Current_Directory>
/home/itssahil/PROJECTS/Mol_Feturizer/New_Systems/rnas/4LVW

>  <Rbt.Executable>
rbdock ($Id: //depot/dev/client3/rdock/2013.1/src/exe/rbdock.cxx#4 $)

>  <Rbt.Library>
libRbt.so (2013.1, Build901 2013/11/27)

>  <Rbt.Parameter_File>
/export/apps/rDock/src/rDock_2013.1_src/data/scripts/dock_solv.prm

>  <Rbt.Receptor>
prm/blind_docking_100.prm

>  <SCORE>
-14.2942

>  <SCORE.INTER>
-14.2942

>  <SCORE.INTER.CONST>
1

>  <SCORE.INTER.POLAR>
0

>  <SCORE.INTER.ROT>
0

>  <SCORE.INTER.SOLV>
7.74942

>  <SCORE.INTER.VDW>
-15.7126

>  <SCORE.INTER.norm>
-1.29947

>  <SCORE.INTRA>
0

>  <SCORE.INTRA.DIHEDRAL>
0

>  <SCORE.INTRA.DIHEDRAL.0>
0

>  <SCORE.INTRA.POLAR>
0

>  <SCORE.INTRA.POLAR.0>
0

>  <SCORE.INTRA.REPUL>
0

>  <SCORE.INTRA.REPUL.0>
0

>  <SCORE.INTRA.SOLV>
0

>  <SCORE.INTRA.SOLV.lig_0>
-29.307

>  <SCORE.INTRA.VDW>
0

>  <SCORE.INTRA.VDW.0>
0

>  <SCORE.INTRA.norm>
0

>  <SCORE.RESTR>
0

>  <SCORE.RESTR.CAVITY>
0

>  <SCORE.RESTR.norm>
0

>  <SCORE.SYSTEM>
0

>  <SCORE.SYSTEM.CONST>
0

>  <SCORE.SYSTEM.DIHEDRAL>
0

>  <SCORE.SYSTEM.SOLV>
0

>  <SCORE.SYSTEM.norm>
0

>  <SCORE.heavy>
11

>  <SCORE.norm>
-1.29947

>  <RMSD>
11.346

$$$$
ligand
 OpenBabel11021811503D
libRbt.so/2013.1/901 2013/11/27
 11 12  0  0  0  0  0  0  0  0999 V2000
   -4.0142  -28.9494   28.9022 N   0  0  0  0  0  0  0  0  0  0  0  0
   -5.1765  -29.5724   28.6391 C   0  0  0  0  0  0  0  0  0  0  0  0
   -6.3045  -29.3850   29.4935 N   0  0  0  0  0  0  0  0  0  0  0  0
   -5.3284  -30.3743   27.5810 N   0  0  0  0  0  0  0  0  0  0  0  0
   -4.2862  -30.6145   26.7182 C   0  0  0  0  0  0  0  0  0  0  0  0
   -3.0789  -29.9934   26.9534 C   0  0  0  0  0  0  0  0  0  0  0  0
   -2.9529  -29.1301   28.0797 C   0  0  0  0  0  0  0  0  0  0  0  0
   -1.7505  -28.5067   28.3286 O   0  0  0  0  0  0  0  0  0  0  0  0
   -2.1990  -30.4120   25.9051 C   0  0  0  0  0  0  0  0  0  0  0  0
   -2.9374  -31.2802   25.0890 C   0  0  0  0  0  0  0  0  0  0  0  0
   -4.1757  -31.3910   25.5864 N   0  0  0  0  0  0  0  0  0  0  0  0
  1  2  1  0  0  0  0
  1  7  1  0  0  0  0
  2  3  1  0  0  0  0
  2  4  2  0  0  0  0
  4  5  1  0  0  0  0
  5  6  2  0  0  0  0
  5 11  1  0  0  0  0
  6  7  1  0  0  0  0
  6  9  1  0  0  0  0
  7  8  2  0  0  0  0
  9 10  2  0  0  0  0
 10 11  1  0  0  0  0
M  END
>  <CHROM.1>
-3.84099017,-29.92744691,27.44259387,-2.12209399,-0.29621941,-2.19338735

>  <Name>
ligand

>  <RI>
0

>  <Rbt.Current_Directory>
/home/itssahil/PROJECTS/Mol_Feturizer/New_Systems/rnas/4LVW

>  <Rbt.Executable>
rbdock ($Id: //depot/dev/client3/rdock/2013.1/src/exe/rbdock.cxx#4 $)

>  <Rbt.Library>
libRbt.so (2013.1, Build901 2013/11/27)

>  <Rbt.Parameter_File>
/export/apps/rDock/src/rDock_2013.1_src/data/scripts/dock_solv.prm

>  <Rbt.Receptor>
prm/blind_docking_60.prm

>  <SCORE>
-14.2956

>  <SCORE.INTER>
-14.2956

>  <SCORE.INTER.CONST>
1

>  <SCORE.INTER.POLAR>
0

>  <SCORE.INTER.ROT>
0

>  <SCORE.INTER.SOLV>
7.73897

>  <SCORE.INTER.VDW>
-15.71

>  <SCORE.INTER.norm>
-1.2996

>  <SCORE.INTRA>
0

>  <SCORE.INTRA.DIHEDRAL>
0

>  <SCORE.INTRA.DIHEDRAL.0>
0

>  <SCORE.INTRA.POLAR>
0

>  <SCORE.INTRA.POLAR.0>
0

>  <SCORE.INTRA.REPUL>
0

>  <SCORE.INTRA.REPUL.0>
0

>  <SCORE.INTRA.SOLV>
0

>  <SCORE.INTRA.SOLV.lig_0>
-29.307

>  <SCORE.INTRA.VDW>
0

>  <SCORE.INTRA.VDW.0>
0

>  <SCORE.INTRA.norm>
0

>  <SCORE.RESTR>
0

>  <SCORE.RESTR.CAVITY>
0

>  <SCORE.RESTR.norm>
0

>  <SCORE.SYSTEM>
0

>  <SCORE.SYSTEM.CONST>
0

>  <SCORE.SYSTEM.DIHEDRAL>
0

>  <SCORE.SYSTEM.SOLV>
0

>  <SCORE.SYSTEM.norm>
0

>  <SCORE.heavy>
11

>  <SCORE.norm>
-1.2996

>  <RMSD>
11.347

$$$$
ligand
 OpenBabel11021811503D
libRbt.so/2013.1/901 2013/11/27
 11 12  0  0  0  0  0  0  0  0999 V2000
   -5.4084  -30.4513   27.7601 N   0  0  0  0  0  0  0  0  0  0  0  0
   -5.1576  -29.7152   28.8571 C   0  0  0  0  0  0  0  0  0  0  0  0
   -6.1356  -29.6058   29.8911 N   0  0  0  0  0  0  0  0  0  0  0  0
   -3.9998  -29.0706   29.0301 N   0  0  0  0  0  0  0  0  0  0  0  0
   -3.0130  -29.1173   28.0750 C   0  0  0  0  0  0  0  0  0  0  0  0
   -3.2318  -29.8623   26.9366 C   0  0  0  0  0  0  0  0  0  0  0  0
   -4.4692  -30.5527   26.7889 C   0  0  0  0  0  0  0  0  0  0  0  0
   -4.7023  -31.2972   25.6541 O   0  0  0  0  0  0  0  0  0  0  0  0
   -2.0487  -29.7395   26.1408 C   0  0  0  0  0  0  0  0  0  0  0  0
   -1.1736  -28.9089   26.8545 C   0  0  0  0  0  0  0  0  0  0  0  0
   -1.7620  -28.5466   28.0014 N   0  0  0  0  0  0  0  0  0  0  0  0
  1  2  1  0  0  0  0
  1  7  1  0  0  0  0
  2  3  1  0  0  0  0
  2  4  2  0  0  0  0
  4  5  1  0  0  0  0
  5  6  2  0  0  0  0
  5 11  1  0  0  0  0
  6  7  1  0  0  0  0
  6  9  1  0  0  0  0
  7  8  2  0  0  0  0
  9 10  2  0  0  0  0
 10 11  1  0  0  0  0
M  END
>  <CHROM.1>
-3.79595860,-29.74258846,27.63794771,2.83057976,0.39988894,1.05845587

>  <Name>
ligand

>  <RI>
0

>  <Rbt.Current_Directory>
/home/itssahil/PROJECTS/Mol_Feturizer/New_Systems/rnas/4LVW

>  <Rbt.Executable>
rbdock ($Id: //depot/dev/client3/rdock/2013.1/src/exe/rbdock.cxx#4 $)

>  <Rbt.Library>
libRbt.so (2013.1, Build901 2013/11/27)

>  <Rbt.Parameter_File>
/export/apps/rDock/src/rDock_2013.1_src/data/scripts/dock_solv.prm

>  <Rbt.Receptor>
prm/blind_docking_100.prm

>  <SCORE>
-13.193

>  <SCORE.INTER>
-13.193

>  <SCORE.INTER.CONST>
1

>  <SCORE.INTER.POLAR>
0

>  <SCORE.INTER.ROT>
0

>  <SCORE.INTER.SOLV>
7.92638

>  <SCORE.INTER.VDW>
-15.0375

>  <SCORE.INTER.norm>
-1.19937

>  <SCORE.INTRA>
0

>  <SCORE.INTRA.DIHEDRAL>
0

>  <SCORE.INTRA.DIHEDRAL.0>
0

>  <SCORE.INTRA.POLAR>
0

>  <SCORE.INTRA.POLAR.0>
0

>  <SCORE.INTRA.REPUL>
0

>  <SCORE.INTRA.REPUL.0>
0

>  <SCORE.INTRA.SOLV>
0

>  <SCORE.INTRA.SOLV.lig_0>
-29.307

>  <SCORE.INTRA.VDW>
0

>  <SCORE.INTRA.VDW.0>
0

>  <SCORE.INTRA.norm>
0

>  <SCORE.RESTR>
0

>  <SCORE.RESTR.CAVITY>
0

>  <SCORE.RESTR.norm>
0

>  <SCORE.SYSTEM>
0

>  <SCORE.SYSTEM.CONST>
0

>  <SCORE.SYSTEM.DIHEDRAL>
0

>  <SCORE.SYSTEM.SOLV>
0

>  <SCORE.SYSTEM.norm>
0

>  <SCORE.heavy>
11

>  <SCORE.norm>
-1.19937

>  <RMSD>
11.353

$$$$
ligand
 OpenBabel11021811503D
libRbt.so/2013.1/901 2013/11/27
 11 12  0  0  0  0  0  0  0  0999 V2000
   -5.4278  -30.4571   27.7639 N   0  0  0  0  0  0  0  0  0  0  0  0
   -5.1826  -29.7088   28.8540 C   0  0  0  0  0  0  0  0  0  0  0  0
   -6.1574  -29.6052   29.8916 N   0  0  0  0  0  0  0  0  0  0  0  0
   -4.0334  -29.0465   29.0166 N   0  0  0  0  0  0  0  0  0  0  0  0
   -3.0502  -29.0867   28.0573 C   0  0  0  0  0  0  0  0  0  0  0  0
   -3.2635  -29.8438   26.9259 C   0  0  0  0  0  0  0  0  0  0  0  0
   -4.4916  -30.5528   26.7893 C   0  0  0  0  0  0  0  0  0  0  0  0
   -4.7191  -31.3096   25.6615 O   0  0  0  0  0  0  0  0  0  0  0  0
   -2.0859  -29.7105   26.1236 C   0  0  0  0  0  0  0  0  0  0  0  0
   -1.2195  -28.8618   26.8267 C   0  0  0  0  0  0  0  0  0  0  0  0
   -1.8079  -28.4989   27.9734 N   0  0  0  0  0  0  0  0  0  0  0  0
  1  2  1  0  0  0  0
  1  7  1  0  0  0  0
  2  3  1  0  0  0  0
  2  4  2  0  0  0  0
  4  5  1  0  0  0  0
  5  6  2  0  0  0  0
  5 11  1  0  0  0  0
  6  7  1  0  0  0  0
  6  9  1  0  0  0  0
  7  8  2  0  0  0  0
  9 10  2  0  0  0  0
 10 11  1  0  0  0  0
M  END
>  <CHROM.1>
-3.82618880,-29.72650970,27.62879860,2.83395005,0.41453592,1.04920366

>  <Name>
ligand

>  <RI>
0

>  <Rbt.Current_Directory>
/home/itssahil/PROJECTS/Mol_Feturizer/New_Systems/rnas/4LVW

>  <Rbt.Executable>
rbdock ($Id: //depot/dev/client3/rdock/2013.1/src/exe/rbdock.cxx#4 $)

>  <Rbt.Library>
libRbt.so (2013.1, Build901 2013/11/27)

>  <Rbt.Parameter_File>
/export/apps/rDock/src/rDock_2013.1_src/data/scripts/dock_solv.prm

>  <Rbt.Receptor>
prm/blind_docking_100.prm

>  <SCORE>
-13.2687

>  <SCORE.INTER>
-13.2687

>  <SCORE.INTER.CONST>
1

>  <SCORE.INTER.POLAR>
0

>  <SCORE.INTER.ROT>
0

>  <SCORE.INTER.SOLV>
7.9369

>  <SCORE.INTER.VDW>
-15.0915

>  <SCORE.INTER.norm>
-1.20625

>  <SCORE.INTRA>
0

>  <SCORE.INTRA.DIHEDRAL>
0

>  <SCORE.INTRA.DIHEDRAL.0>
0

>  <SCORE.INTRA.POLAR>
0

>  <SCORE.INTRA.POLAR.0>
0

>  <SCORE.INTRA.REPUL>
0

>  <SCORE.INTRA.REPUL.0>
0

>  <SCORE.INTRA.SOLV>
0

>  <SCORE.INTRA.SOLV.lig_0>
-29.307

>  <SCORE.INTRA.VDW>
0

>  <SCORE.INTRA.VDW.0>
0

>  <SCORE.INTRA.norm>
0

>  <SCORE.RESTR>
0

>  <SCORE.RESTR.CAVITY>
0

>  <SCORE.RESTR.norm>
0

>  <SCORE.SYSTEM>
0

>  <SCORE.SYSTEM.CONST>
0

>  <SCORE.SYSTEM.DIHEDRAL>
0

>  <SCORE.SYSTEM.SOLV>
0

>  <SCORE.SYSTEM.norm>
0

>  <SCORE.heavy>
11

>  <SCORE.norm>
-1.20625

>  <RMSD>
11.353

$$$$
ligand
 OpenBabel11021811503D
libRbt.so/2013.1/901 2013/11/27
 11 12  0  0  0  0  0  0  0  0999 V2000
   -5.4260  -30.4562   27.7836 N   0  0  0  0  0  0  0  0  0  0  0  0
   -5.1864  -29.7111   28.8770 C   0  0  0  0  0  0  0  0  0  0  0  0
   -6.1665  -29.6104   29.9099 N   0  0  0  0  0  0  0  0  0  0  0  0
   -4.0380  -29.0495   29.0475 N   0  0  0  0  0  0  0  0  0  0  0  0
   -3.0499  -29.0870   28.0932 C   0  0  0  0  0  0  0  0  0  0  0  0
   -3.2574  -29.8408   26.9585 C   0  0  0  0  0  0  0  0  0  0  0  0
   -4.4848  -30.5493   26.8135 C   0  0  0  0  0  0  0  0  0  0  0  0
   -4.7066  -31.3027   25.6823 O   0  0  0  0  0  0  0  0  0  0  0  0
   -2.0756  -29.7053   26.1627 C   0  0  0  0  0  0  0  0  0  0  0  0
   -1.2128  -28.8588   26.8727 C   0  0  0  0  0  0  0  0  0  0  0  0
   -1.8071  -28.4991   28.0174 N   0  0  0  0  0  0  0  0  0  0  0  0
  1  2  1  0  0  0  0
  1  7  1  0  0  0  0
  2  3  1  0  0  0  0
  2  4  2  0  0  0  0
  4  5  1  0  0  0  0
  5  6  2  0  0  0  0
  5 11  1  0  0  0  0
  6  7  1  0  0  0  0
  6  9  1  0  0  0  0
  7  8  2  0  0  0  0
  9 10  2  0  0  0  0
 10 11  1  0  0  0  0
M  END
>  <CHROM.1>
-3.82366649,-29.72546978,27.65882132,2.83877309,0.41185168,1.05017835

>  <Name>
ligand

>  <RI>
0

>  <Rbt.Current_Directory>
/home/itssahil/PROJECTS/Mol_Feturizer/New_Systems/rnas/4LVW

>  <Rbt.Executable>
rbdock ($Id: //depot/dev/client3/rdock/2013.1/src/exe/rbdock.cxx#4 $)

>  <Rbt.Library>
libRbt.so (2013.1, Build901 2013/11/27)

>  <Rbt.Parameter_File>
/export/apps/rDock/src/rDock_2013.1_src/data/scripts/dock_solv.prm

>  <Rbt.Receptor>
prm/blind_docking_80.prm

>  <SCORE>
-13.2511

>  <SCORE.INTER>
-13.2511

>  <SCORE.INTER.CONST>
1

>  <SCORE.INTER.POLAR>
0

>  <SCORE.INTER.ROT>
0

>  <SCORE.INTER.SOLV>
7.9481

>  <SCORE.INTER.VDW>
-15.0835

>  <SCORE.INTER.norm>
-1.20465

>  <SCORE.INTRA>
0

>  <SCORE.INTRA.DIHEDRAL>
0

>  <SCORE.INTRA.DIHEDRAL.0>
0

>  <SCORE.INTRA.POLAR>
0

>  <SCORE.INTRA.POLAR.0>
0

>  <SCORE.INTRA.REPUL>
0

>  <SCORE.INTRA.REPUL.0>
0

>  <SCORE.INTRA.SOLV>
0

>  <SCORE.INTRA.SOLV.lig_0>
-29.307

>  <SCORE.INTRA.VDW>
0

>  <SCORE.INTRA.VDW.0>
0

>  <SCORE.INTRA.norm>
0

>  <SCORE.RESTR>
0

>  <SCORE.RESTR.CAVITY>
0

>  <SCORE.RESTR.norm>
0

>  <SCORE.SYSTEM>
0

>  <SCORE.SYSTEM.CONST>
0

>  <SCORE.SYSTEM.DIHEDRAL>
0

>  <SCORE.SYSTEM.SOLV>
0

>  <SCORE.SYSTEM.norm>
0

>  <SCORE.heavy>
11

>  <SCORE.norm>
-1.20465

>  <RMSD>
11.358

$$$$
ligand
 OpenBabel11021811503D
libRbt.so/2013.1/901 2013/11/27
 11 12  0  0  0  0  0  0  0  0999 V2000
   -5.4394  -30.4568   27.7984 N   0  0  0  0  0  0  0  0  0  0  0  0
   -5.2058  -29.7122   28.8935 C   0  0  0  0  0  0  0  0  0  0  0  0
   -6.1859  -29.6233   29.9274 N   0  0  0  0  0  0  0  0  0  0  0  0
   -4.0635  -29.0402   29.0645 N   0  0  0  0  0  0  0  0  0  0  0  0
   -3.0760  -29.0660   28.1092 C   0  0  0  0  0  0  0  0  0  0  0  0
   -3.2774  -29.8189   26.9728 C   0  0  0  0  0  0  0  0  0  0  0  0
   -4.4983  -30.5386   26.8272 C   0  0  0  0  0  0  0  0  0  0  0  0
   -4.7139  -31.2913   25.6944 O   0  0  0  0  0  0  0  0  0  0  0  0
   -2.0977  -29.6703   26.1763 C   0  0  0  0  0  0  0  0  0  0  0  0
   -1.2423  -28.8175   26.8877 C   0  0  0  0  0  0  0  0  0  0  0  0
   -1.8388  -28.4662   28.0338 N   0  0  0  0  0  0  0  0  0  0  0  0
  1  2  1  0  0  0  0
  1  7  1  0  0  0  0
  2  3  1  0  0  0  0
  2  4  2  0  0  0  0
  4  5  1  0  0  0  0
  5  6  2  0  0  0  0
  5 11  1  0  0  0  0
  6  7  1  0  0  0  0
  6  9  1  0  0  0  0
  7  8  2  0  0  0  0
  9 10  2  0  0  0  0
 10 11  1  0  0  0  0
M  END
>  <CHROM.1>
-3.84412191,-29.71066639,27.67399881,2.84303272,0.42050576,1.05093702

>  <Name>
ligand

>  <RI>
0

>  <Rbt.Current_Directory>
/home/itssahil/PROJECTS/Mol_Feturizer/New_Systems/rnas/4LVW

>  <Rbt.Executable>
rbdock ($Id: //depot/dev/client3/rdock/2013.1/src/exe/rbdock.cxx#4 $)

>  <Rbt.Library>
libRbt.so (2013.1, Build901 2013/11/27)

>  <Rbt.Parameter_File>
/export/apps/rDock/src/rDock_2013.1_src/data/scripts/dock_solv.prm

>  <Rbt.Receptor>
prm/blind_docking_80.prm

>  <SCORE>
-13.1802

>  <SCORE.INTER>
-13.1802

>  <SCORE.INTER.CONST>
1

>  <SCORE.INTER.POLAR>
0

>  <SCORE.INTER.ROT>
0

>  <SCORE.INTER.SOLV>
7.98753

>  <SCORE.INTER.VDW>
-15.0493

>  <SCORE.INTER.norm>
-1.1982

>  <SCORE.INTRA>
0

>  <SCORE.INTRA.DIHEDRAL>
0

>  <SCORE.INTRA.DIHEDRAL.0>
0

>  <SCORE.INTRA.POLAR>
0

>  <SCORE.INTRA.POLAR.0>
0

>  <SCORE.INTRA.REPUL>
0

>  <SCORE.INTRA.REPUL.0>
0

>  <SCORE.INTRA.SOLV>
0

>  <SCORE.INTRA.SOLV.lig_0>
-29.307

>  <SCORE.INTRA.VDW>
0

>  <SCORE.INTRA.VDW.0>
0

>  <SCORE.INTRA.norm>
0

>  <SCORE.RESTR>
0

>  <SCORE.RESTR.CAVITY>
0

>  <SCORE.RESTR.norm>
0

>  <SCORE.SYSTEM>
0

>  <SCORE.SYSTEM.CONST>
0

>  <SCORE.SYSTEM.DIHEDRAL>
0

>  <SCORE.SYSTEM.SOLV>
0

>  <SCORE.SYSTEM.norm>
0

>  <SCORE.heavy>
11

>  <SCORE.norm>
-1.1982

>  <RMSD>
11.360

$$$$
ligand
 OpenBabel11021811503D
libRbt.so/2013.1/901 2013/11/27
 11 12  0  0  0  0  0  0  0  0999 V2000
   -5.4307  -30.4497   27.8444 N   0  0  0  0  0  0  0  0  0  0  0  0
   -5.1617  -29.7070   28.9327 C   0  0  0  0  0  0  0  0  0  0  0  0
   -6.1150  -29.6059   29.9902 N   0  0  0  0  0  0  0  0  0  0  0  0
   -4.0078  -29.0481   29.0749 N   0  0  0  0  0  0  0  0  0  0  0  0
   -3.0444  -29.0861   28.0957 C   0  0  0  0  0  0  0  0  0  0  0  0
   -3.2824  -29.8375   26.9654 C   0  0  0  0  0  0  0  0  0  0  0  0
   -4.5147  -30.5431   26.8505 C   0  0  0  0  0  0  0  0  0  0  0  0
   -4.7668  -31.2941   25.7241 O   0  0  0  0  0  0  0  0  0  0  0  0
   -2.1209  -29.7033   26.1401 C   0  0  0  0  0  0  0  0  0  0  0  0
   -1.2385  -28.8599   26.8293 C   0  0  0  0  0  0  0  0  0  0  0  0
   -1.8026  -28.5009   27.9894 N   0  0  0  0  0  0  0  0  0  0  0  0
  1  2  1  0  0  0  0
  1  7  1  0  0  0  0
  2  3  1  0  0  0  0
  2  4  2  0  0  0  0
  4  5  1  0  0  0  0
  5  6  2  0  0  0  0
  5 11  1  0  0  0  0
  6  7  1  0  0  0  0
  6  9  1  0  0  0  0
  7  8  2  0  0  0  0
  9 10  2  0  0  0  0
 10 11  1  0  0  0  0
M  END
>  <CHROM.1>
-3.83042354,-29.72219735,27.68013386,2.81336283,0.42245126,1.06216156

>  <Name>
ligand

>  <RI>
0

>  <Rbt.Current_Directory>
/home/itssahil/PROJECTS/Mol_Feturizer/New_Systems/rnas/4LVW

>  <Rbt.Executable>
rbdock ($Id: //depot/dev/client3/rdock/2013.1/src/exe/rbdock.cxx#4 $)

>  <Rbt.Library>
libRbt.so (2013.1, Build901 2013/11/27)

>  <Rbt.Parameter_File>
/export/apps/rDock/src/rDock_2013.1_src/data/scripts/dock_solv.prm

>  <Rbt.Receptor>
prm/blind_docking_100.prm

>  <SCORE>
-13.2647

>  <SCORE.INTER>
-13.2647

>  <SCORE.INTER.CONST>
1

>  <SCORE.INTER.POLAR>
0

>  <SCORE.INTER.ROT>
0

>  <SCORE.INTER.SOLV>
7.85394

>  <SCORE.INTER.VDW>
-15.0611

>  <SCORE.INTER.norm>
-1.20588

>  <SCORE.INTRA>
0

>  <SCORE.INTRA.DIHEDRAL>
0

>  <SCORE.INTRA.DIHEDRAL.0>
0

>  <SCORE.INTRA.POLAR>
0

>  <SCORE.INTRA.POLAR.0>
0

>  <SCORE.INTRA.REPUL>
0

>  <SCORE.INTRA.REPUL.0>
0

>  <SCORE.INTRA.SOLV>
0

>  <SCORE.INTRA.SOLV.lig_0>
-29.307

>  <SCORE.INTRA.VDW>
0

>  <SCORE.INTRA.VDW.0>
0

>  <SCORE.INTRA.norm>
0

>  <SCORE.RESTR>
0

>  <SCORE.RESTR.CAVITY>
0

>  <SCORE.RESTR.norm>
0

>  <SCORE.SYSTEM>
0

>  <SCORE.SYSTEM.CONST>
0

>  <SCORE.SYSTEM.DIHEDRAL>
0

>  <SCORE.SYSTEM.SOLV>
0

>  <SCORE.SYSTEM.norm>
0

>  <SCORE.heavy>
11

>  <SCORE.norm>
-1.20588

>  <RMSD>
11.363

$$$$
ligand
 OpenBabel11021811503D
libRbt.so/2013.1/901 2013/11/27
 11 12  0  0  0  0  0  0  0  0999 V2000
   -5.4337  -30.4461   27.8451 N   0  0  0  0  0  0  0  0  0  0  0  0
   -5.1660  -29.7039   28.9340 C   0  0  0  0  0  0  0  0  0  0  0  0
   -6.1221  -29.6001   29.9888 N   0  0  0  0  0  0  0  0  0  0  0  0
   -4.0107  -29.0481   29.0796 N   0  0  0  0  0  0  0  0  0  0  0  0
   -3.0445  -29.0889   28.1033 C   0  0  0  0  0  0  0  0  0  0  0  0
   -3.2811  -29.8399   26.9724 C   0  0  0  0  0  0  0  0  0  0  0  0
   -4.5150  -30.5422   26.8540 C   0  0  0  0  0  0  0  0  0  0  0  0
   -4.7658  -31.2927   25.7270 O   0  0  0  0  0  0  0  0  0  0  0  0
   -2.1169  -29.7089   26.1505 C   0  0  0  0  0  0  0  0  0  0  0  0
   -1.2342  -28.8677   26.8423 C   0  0  0  0  0  0  0  0  0  0  0  0
   -1.8009  -28.5069   28.0006 N   0  0  0  0  0  0  0  0  0  0  0  0
  1  2  1  0  0  0  0
  1  7  1  0  0  0  0
  2  3  1  0  0  0  0
  2  4  2  0  0  0  0
  4  5  1  0  0  0  0
  5  6  2  0  0  0  0
  5 11  1  0  0  0  0
  6  7  1  0  0  0  0
  6  9  1  0  0  0  0
  7  8  2  0  0  0  0
  9 10  2  0  0  0  0
 10 11  1  0  0  0  0
M  END
>  <CHROM.1>
-3.83099371,-29.72293083,27.68550988,2.81479536,0.41867643,1.06138354

>  <Name>
ligand

>  <RI>
0

>  <Rbt.Current_Directory>
/home/itssahil/PROJECTS/Mol_Feturizer/New_Systems/rnas/4LVW

>  <Rbt.Executable>
rbdock ($Id: //depot/dev/client3/rdock/2013.1/src/exe/rbdock.cxx#4 $)

>  <Rbt.Library>
libRbt.so (2013.1, Build901 2013/11/27)

>  <Rbt.Parameter_File>
/export/apps/rDock/src/rDock_2013.1_src/data/scripts/dock_solv.prm

>  <Rbt.Receptor>
prm/blind_docking_80.prm

>  <SCORE>
-13.2769

>  <SCORE.INTER>
-13.2769

>  <SCORE.INTER.CONST>
1

>  <SCORE.INTER.POLAR>
0

>  <SCORE.INTER.ROT>
0

>  <SCORE.INTER.SOLV>
7.8501

>  <SCORE.INTER.VDW>
-15.068

>  <SCORE.INTER.norm>
-1.20699

>  <SCORE.INTRA>
0

>  <SCORE.INTRA.DIHEDRAL>
0

>  <SCORE.INTRA.DIHEDRAL.0>
0

>  <SCORE.INTRA.POLAR>
0

>  <SCORE.INTRA.POLAR.0>
0

>  <SCORE.INTRA.REPUL>
0

>  <SCORE.INTRA.REPUL.0>
0

>  <SCORE.INTRA.SOLV>
0

>  <SCORE.INTRA.SOLV.lig_0>
-29.307

>  <SCORE.INTRA.VDW>
0

>  <SCORE.INTRA.VDW.0>
0

>  <SCORE.INTRA.norm>
0

>  <SCORE.RESTR>
0

>  <SCORE.RESTR.CAVITY>
0

>  <SCORE.RESTR.norm>
0

>  <SCORE.SYSTEM>
0

>  <SCORE.SYSTEM.CONST>
0

>  <SCORE.SYSTEM.DIHEDRAL>
0

>  <SCORE.SYSTEM.SOLV>
0

>  <SCORE.SYSTEM.norm>
0

>  <SCORE.heavy>
11

>  <SCORE.norm>
-1.20699

>  <RMSD>
11.365

$$$$
ligand
 OpenBabel11021811503D
libRbt.so/2013.1/901 2013/11/27
 11 12  0  0  0  0  0  0  0  0999 V2000
   -4.1058  -28.9145   28.9256 N   0  0  0  0  0  0  0  0  0  0  0  0
   -5.2600  -29.5606   28.6834 C   0  0  0  0  0  0  0  0  0  0  0  0
   -6.3747  -29.3985   29.5601 N   0  0  0  0  0  0  0  0  0  0  0  0
   -5.4160  -30.3630   27.6262 N   0  0  0  0  0  0  0  0  0  0  0  0
   -4.3861  -30.5796   26.7426 C   0  0  0  0  0  0  0  0  0  0  0  0
   -3.1874  -29.9343   26.9561 C   0  0  0  0  0  0  0  0  0  0  0  0
   -3.0572  -29.0713   28.0822 C   0  0  0  0  0  0  0  0  0  0  0  0
   -1.8633  -28.4238   28.3094 O   0  0  0  0  0  0  0  0  0  0  0  0
   -2.3197  -30.3322   25.8898 C   0  0  0  0  0  0  0  0  0  0  0  0
   -3.0559  -31.2135   25.0857 C   0  0  0  0  0  0  0  0  0  0  0  0
   -4.2817  -31.3509   25.6068 N   0  0  0  0  0  0  0  0  0  0  0  0
  1  2  1  0  0  0  0
  1  7  1  0  0  0  0
  2  3  1  0  0  0  0
  2  4  2  0  0  0  0
  4  5  1  0  0  0  0
  5  6  2  0  0  0  0
  5 11  1  0  0  0  0
  6  7  1  0  0  0  0
  6  9  1  0  0  0  0
  7  8  2  0  0  0  0
  9 10  2  0  0  0  0
 10 11  1  0  0  0  0
M  END
>  <CHROM.1>
-3.94102945,-29.88522320,27.46018631,-2.11802776,-0.32428403,-2.18956436

>  <Name>
ligand

>  <RI>
0

>  <Rbt.Current_Directory>
/home/itssahil/PROJECTS/Mol_Feturizer/New_Systems/rnas/4LVW

>  <Rbt.Executable>
rbdock ($Id: //depot/dev/client3/rdock/2013.1/src/exe/rbdock.cxx#4 $)

>  <Rbt.Library>
libRbt.so (2013.1, Build901 2013/11/27)

>  <Rbt.Parameter_File>
/export/apps/rDock/src/rDock_2013.1_src/data/scripts/dock_solv.prm

>  <Rbt.Receptor>
prm/blind_docking_80.prm

>  <SCORE>
-14.2334

>  <SCORE.INTER>
-14.2334

>  <SCORE.INTER.CONST>
1

>  <SCORE.INTER.POLAR>
0

>  <SCORE.INTER.ROT>
0

>  <SCORE.INTER.SOLV>
7.65432

>  <SCORE.INTER.VDW>
-15.6404

>  <SCORE.INTER.norm>
-1.29395

>  <SCORE.INTRA>
0

>  <SCORE.INTRA.DIHEDRAL>
0

>  <SCORE.INTRA.DIHEDRAL.0>
0

>  <SCORE.INTRA.POLAR>
0

>  <SCORE.INTRA.POLAR.0>
0

>  <SCORE.INTRA.REPUL>
0

>  <SCORE.INTRA.REPUL.0>
0

>  <SCORE.INTRA.SOLV>
0

>  <SCORE.INTRA.SOLV.lig_0>
-29.307

>  <SCORE.INTRA.VDW>
0

>  <SCORE.INTRA.VDW.0>
0

>  <SCORE.INTRA.norm>
0

>  <SCORE.RESTR>
0

>  <SCORE.RESTR.CAVITY>
0

>  <SCORE.RESTR.norm>
0

>  <SCORE.SYSTEM>
0

>  <SCORE.SYSTEM.CONST>
0

>  <SCORE.SYSTEM.DIHEDRAL>
0

>  <SCORE.SYSTEM.SOLV>
0

>  <SCORE.SYSTEM.norm>
0

>  <SCORE.heavy>
11

>  <SCORE.norm>
-1.29395

>  <RMSD>
11.368

$$$$
ligand
 OpenBabel11021811503D
libRbt.so/2013.1/901 2013/11/27
 11 12  0  0  0  0  0  0  0  0999 V2000
   -5.4503  -30.4350   27.8422 N   0  0  0  0  0  0  0  0  0  0  0  0
   -5.1837  -29.6904   28.9298 C   0  0  0  0  0  0  0  0  0  0  0  0
   -6.1433  -29.5794   29.9806 N   0  0  0  0  0  0  0  0  0  0  0  0
   -4.0264  -29.0386   29.0775 N   0  0  0  0  0  0  0  0  0  0  0  0
   -3.0568  -29.0863   28.1049 C   0  0  0  0  0  0  0  0  0  0  0  0
   -3.2922  -29.8399   26.9756 C   0  0  0  0  0  0  0  0  0  0  0  0
   -4.5284  -30.5378   26.8548 C   0  0  0  0  0  0  0  0  0  0  0  0
   -4.7779  -31.2910   25.7293 O   0  0  0  0  0  0  0  0  0  0  0  0
   -2.1245  -29.7161   26.1575 C   0  0  0  0  0  0  0  0  0  0  0  0
   -1.2410  -28.8762   26.8498 C   0  0  0  0  0  0  0  0  0  0  0  0
   -1.8105  -28.5095   28.0049 N   0  0  0  0  0  0  0  0  0  0  0  0
  1  2  1  0  0  0  0
  1  7  1  0  0  0  0
  2  3  1  0  0  0  0
  2  4  2  0  0  0  0
  4  5  1  0  0  0  0
  5  6  2  0  0  0  0
  5 11  1  0  0  0  0
  6  7  1  0  0  0  0
  6  9  1  0  0  0  0
  7  8  2  0  0  0  0
  9 10  2  0  0  0  0
 10 11  1  0  0  0  0
M  END
>  <CHROM.1>
-3.84421897,-29.71857156,27.68621981,2.81620425,0.41347382,1.05761345

>  <Name>
ligand

>  <RI>
0

>  <Rbt.Current_Directory>
/home/itssahil/PROJECTS/Mol_Feturizer/New_Systems/rnas/4LVW

>  <Rbt.Executable>
rbdock ($Id: //depot/dev/client3/rdock/2013.1/src/exe/rbdock.cxx#4 $)

>  <Rbt.Library>
libRbt.so (2013.1, Build901 2013/11/27)

>  <Rbt.Parameter_File>
/export/apps/rDock/src/rDock_2013.1_src/data/scripts/dock_solv.prm

>  <Rbt.Receptor>
prm/blind_docking_60.prm

>  <SCORE>
-13.2524

>  <SCORE.INTER>
-13.2524

>  <SCORE.INTER.CONST>
1

>  <SCORE.INTER.POLAR>
0

>  <SCORE.INTER.ROT>
0

>  <SCORE.INTER.SOLV>
7.8254

>  <SCORE.INTER.VDW>
-15.0434

>  <SCORE.INTER.norm>
-1.20476

>  <SCORE.INTRA>
0

>  <SCORE.INTRA.DIHEDRAL>
0

>  <SCORE.INTRA.DIHEDRAL.0>
0

>  <SCORE.INTRA.POLAR>
0

>  <SCORE.INTRA.POLAR.0>
0

>  <SCORE.INTRA.REPUL>
0

>  <SCORE.INTRA.REPUL.0>
0

>  <SCORE.INTRA.SOLV>
0

>  <SCORE.INTRA.SOLV.lig_0>
-29.307

>  <SCORE.INTRA.VDW>
0

>  <SCORE.INTRA.VDW.0>
0

>  <SCORE.INTRA.norm>
0

>  <SCORE.RESTR>
0

>  <SCORE.RESTR.CAVITY>
0

>  <SCORE.RESTR.norm>
0

>  <SCORE.SYSTEM>
0

>  <SCORE.SYSTEM.CONST>
0

>  <SCORE.SYSTEM.DIHEDRAL>
0

>  <SCORE.SYSTEM.SOLV>
0

>  <SCORE.SYSTEM.norm>
0

>  <SCORE.heavy>
11

>  <SCORE.norm>
-1.20476

>  <RMSD>
11.369

$$$$
ligand
 OpenBabel11021811503D
libRbt.so/2013.1/901 2013/11/27
 11 12  0  0  0  0  0  0  0  0999 V2000
   -4.0763  -28.9100   28.9418 N   0  0  0  0  0  0  0  0  0  0  0  0
   -5.2395  -29.5387   28.6969 C   0  0  0  0  0  0  0  0  0  0  0  0
   -6.3563  -29.3535   29.5663 N   0  0  0  0  0  0  0  0  0  0  0  0
   -5.4027  -30.3447   27.6435 N   0  0  0  0  0  0  0  0  0  0  0  0
   -4.3715  -30.5832   26.7669 C   0  0  0  0  0  0  0  0  0  0  0  0
   -3.1637  -29.9561   26.9834 C   0  0  0  0  0  0  0  0  0  0  0  0
   -3.0258  -29.0887   28.1051 C   0  0  0  0  0  0  0  0  0  0  0  0
   -1.8228  -28.4593   28.3352 O   0  0  0  0  0  0  0  0  0  0  0  0
   -2.2968  -30.3743   25.9242 C   0  0  0  0  0  0  0  0  0  0  0  0
   -3.0427  -31.2483   25.1212 C   0  0  0  0  0  0  0  0  0  0  0  0
   -4.2734  -31.3628   25.6362 N   0  0  0  0  0  0  0  0  0  0  0  0
  1  2  1  0  0  0  0
  1  7  1  0  0  0  0
  2  3  1  0  0  0  0
  2  4  2  0  0  0  0
  4  5  1  0  0  0  0
  5  6  2  0  0  0  0
  5 11  1  0  0  0  0
  6  7  1  0  0  0  0
  6  9  1  0  0  0  0
  7  8  2  0  0  0  0
  9 10  2  0  0  0  0
 10 11  1  0  0  0  0
M  END
>  <CHROM.1>
-3.91925027,-29.89189339,27.48293026,-2.11286215,-0.30787561,-2.19381311

>  <Name>
ligand

>  <RI>
0

>  <Rbt.Current_Directory>
/home/itssahil/PROJECTS/Mol_Feturizer/New_Systems/rnas/4LVW

>  <Rbt.Executable>
rbdock ($Id: //depot/dev/client3/rdock/2013.1/src/exe/rbdock.cxx#4 $)

>  <Rbt.Library>
libRbt.so (2013.1, Build901 2013/11/27)

>  <Rbt.Parameter_File>
/export/apps/rDock/src/rDock_2013.1_src/data/scripts/dock_solv.prm

>  <Rbt.Receptor>
prm/blind_docking_80.prm

>  <SCORE>
-14.2737

>  <SCORE.INTER>
-14.2737

>  <SCORE.INTER.CONST>
1

>  <SCORE.INTER.POLAR>
0

>  <SCORE.INTER.ROT>
0

>  <SCORE.INTER.SOLV>
7.63429

>  <SCORE.INTER.VDW>
-15.6606

>  <SCORE.INTER.norm>
-1.29761

>  <SCORE.INTRA>
0

>  <SCORE.INTRA.DIHEDRAL>
0

>  <SCORE.INTRA.DIHEDRAL.0>
0

>  <SCORE.INTRA.POLAR>
0

>  <SCORE.INTRA.POLAR.0>
0

>  <SCORE.INTRA.REPUL>
0

>  <SCORE.INTRA.REPUL.0>
0

>  <SCORE.INTRA.SOLV>
0

>  <SCORE.INTRA.SOLV.lig_0>
-29.307

>  <SCORE.INTRA.VDW>
0

>  <SCORE.INTRA.VDW.0>
0

>  <SCORE.INTRA.norm>
0

>  <SCORE.RESTR>
0

>  <SCORE.RESTR.CAVITY>
0

>  <SCORE.RESTR.norm>
0

>  <SCORE.SYSTEM>
0

>  <SCORE.SYSTEM.CONST>
0

>  <SCORE.SYSTEM.DIHEDRAL>
0

>  <SCORE.SYSTEM.SOLV>
0

>  <SCORE.SYSTEM.norm>
0

>  <SCORE.heavy>
11

>  <SCORE.norm>
-1.29761

>  <RMSD>
11.369

$$$$
ligand
 OpenBabel11021811503D
libRbt.so/2013.1/901 2013/11/27
 11 12  0  0  0  0  0  0  0  0999 V2000
   -5.4338  -30.4620   27.7953 N   0  0  0  0  0  0  0  0  0  0  0  0
   -5.1793  -29.7264   28.8918 C   0  0  0  0  0  0  0  0  0  0  0  0
   -6.1480  -29.6292   29.9357 N   0  0  0  0  0  0  0  0  0  0  0  0
   -4.0261  -29.0712   29.0552 N   0  0  0  0  0  0  0  0  0  0  0  0
   -3.0483  -29.1058   28.0902 C   0  0  0  0  0  0  0  0  0  0  0  0
   -3.2712  -29.8500   26.9520 C   0  0  0  0  0  0  0  0  0  0  0  0
   -4.5033  -30.5518   26.8146 C   0  0  0  0  0  0  0  0  0  0  0  0
   -4.7404  -31.2956   25.6802 O   0  0  0  0  0  0  0  0  0  0  0  0
   -2.0973  -29.7137   26.1449 C   0  0  0  0  0  0  0  0  0  0  0  0
   -1.2232  -28.8766   26.8522 C   0  0  0  0  0  0  0  0  0  0  0  0
   -1.8037  -28.5230   28.0058 N   0  0  0  0  0  0  0  0  0  0  0  0
  1  2  1  0  0  0  0
  1  7  1  0  0  0  0
  2  3  1  0  0  0  0
  2  4  2  0  0  0  0
  4  5  1  0  0  0  0
  5  6  2  0  0  0  0
  5 11  1  0  0  0  0
  6  7  1  0  0  0  0
  6  9  1  0  0  0  0
  7  8  2  0  0  0  0
  9 10  2  0  0  0  0
 10 11  1  0  0  0  0
M  END
>  <CHROM.1>
-3.82952813,-29.73751392,27.65919885,2.82631700,0.41311073,1.06279930

>  <Name>
ligand

>  <RI>
0

>  <Rbt.Current_Directory>
/home/itssahil/PROJECTS/Mol_Feturizer/New_Systems/rnas/4LVW

>  <Rbt.Executable>
rbdock ($Id: //depot/dev/client3/rdock/2013.1/src/exe/rbdock.cxx#4 $)

>  <Rbt.Library>
libRbt.so (2013.1, Build901 2013/11/27)

>  <Rbt.Parameter_File>
/export/apps/rDock/src/rDock_2013.1_src/data/scripts/dock_solv.prm

>  <Rbt.Receptor>
prm/blind_docking_100.prm

>  <SCORE>
-13.2583

>  <SCORE.INTER>
-13.2583

>  <SCORE.INTER.CONST>
1

>  <SCORE.INTER.POLAR>
0

>  <SCORE.INTER.ROT>
0

>  <SCORE.INTER.SOLV>
7.95193

>  <SCORE.INTER.VDW>
-15.0895

>  <SCORE.INTER.norm>
-1.2053

>  <SCORE.INTRA>
0

>  <SCORE.INTRA.DIHEDRAL>
0

>  <SCORE.INTRA.DIHEDRAL.0>
0

>  <SCORE.INTRA.POLAR>
0

>  <SCORE.INTRA.POLAR.0>
0

>  <SCORE.INTRA.REPUL>
0

>  <SCORE.INTRA.REPUL.0>
0

>  <SCORE.INTRA.SOLV>
0

>  <SCORE.INTRA.SOLV.lig_0>
-29.307

>  <SCORE.INTRA.VDW>
0

>  <SCORE.INTRA.VDW.0>
0

>  <SCORE.INTRA.norm>
0

>  <SCORE.RESTR>
0

>  <SCORE.RESTR.CAVITY>
0

>  <SCORE.RESTR.norm>
0

>  <SCORE.SYSTEM>
0

>  <SCORE.SYSTEM.CONST>
0

>  <SCORE.SYSTEM.DIHEDRAL>
0

>  <SCORE.SYSTEM.SOLV>
0

>  <SCORE.SYSTEM.norm>
0

>  <SCORE.heavy>
11

>  <SCORE.norm>
-1.2053

>  <RMSD>
11.371

$$$$
ligand
 OpenBabel11021811503D
libRbt.so/2013.1/901 2013/11/27
 11 12  0  0  0  0  0  0  0  0999 V2000
   -5.4309  -30.4397   27.7742 N   0  0  0  0  0  0  0  0  0  0  0  0
   -5.1851  -29.7139   28.8792 C   0  0  0  0  0  0  0  0  0  0  0  0
   -6.1744  -29.5999   29.9018 N   0  0  0  0  0  0  0  0  0  0  0  0
   -4.0221  -29.0841   29.0707 N   0  0  0  0  0  0  0  0  0  0  0  0
   -3.0241  -29.1360   28.1274 C   0  0  0  0  0  0  0  0  0  0  0  0
   -3.2375  -29.8708   26.9815 C   0  0  0  0  0  0  0  0  0  0  0  0
   -4.4810  -30.5457   26.8139 C   0  0  0  0  0  0  0  0  0  0  0  0
   -4.7087  -31.2798   25.6713 O   0  0  0  0  0  0  0  0  0  0  0  0
   -2.0434  -29.7567   26.2010 C   0  0  0  0  0  0  0  0  0  0  0  0
   -1.1675  -28.9411   26.9310 C   0  0  0  0  0  0  0  0  0  0  0  0
   -1.7658  -28.5796   28.0730 N   0  0  0  0  0  0  0  0  0  0  0  0
  1  2  1  0  0  0  0
  1  7  1  0  0  0  0
  2  3  1  0  0  0  0
  2  4  2  0  0  0  0
  4  5  1  0  0  0  0
  5  6  2  0  0  0  0
  5 11  1  0  0  0  0
  6  7  1  0  0  0  0
  6  9  1  0  0  0  0
  7  8  2  0  0  0  0
  9 10  2  0  0  0  0
 10 11  1  0  0  0  0
M  END
>  <CHROM.1>
-3.80891679,-29.74914841,27.67659210,2.83601620,0.38369034,1.06308395

>  <Name>
ligand

>  <RI>
0

>  <Rbt.Current_Directory>
/home/itssahil/PROJECTS/Mol_Feturizer/New_Systems/rnas/4LVW

>  <Rbt.Executable>
rbdock ($Id: //depot/dev/client3/rdock/2013.1/src/exe/rbdock.cxx#4 $)

>  <Rbt.Library>
libRbt.so (2013.1, Build901 2013/11/27)

>  <Rbt.Parameter_File>
/export/apps/rDock/src/rDock_2013.1_src/data/scripts/dock_solv.prm

>  <Rbt.Receptor>
prm/blind_docking_80.prm

>  <SCORE>
-13.1777

>  <SCORE.INTER>
-13.1777

>  <SCORE.INTER.CONST>
1

>  <SCORE.INTER.POLAR>
0

>  <SCORE.INTER.ROT>
0

>  <SCORE.INTER.SOLV>
7.9388

>  <SCORE.INTER.VDW>
-15.0314

>  <SCORE.INTER.norm>
-1.19798

>  <SCORE.INTRA>
0

>  <SCORE.INTRA.DIHEDRAL>
0

>  <SCORE.INTRA.DIHEDRAL.0>
0

>  <SCORE.INTRA.POLAR>
0

>  <SCORE.INTRA.POLAR.0>
0

>  <SCORE.INTRA.REPUL>
0

>  <SCORE.INTRA.REPUL.0>
0

>  <SCORE.INTRA.SOLV>
0

>  <SCORE.INTRA.SOLV.lig_0>
-29.307

>  <SCORE.INTRA.VDW>
0

>  <SCORE.INTRA.VDW.0>
0

>  <SCORE.INTRA.norm>
0

>  <SCORE.RESTR>
0

>  <SCORE.RESTR.CAVITY>
0

>  <SCORE.RESTR.norm>
0

>  <SCORE.SYSTEM>
0

>  <SCORE.SYSTEM.CONST>
0

>  <SCORE.SYSTEM.DIHEDRAL>
0

>  <SCORE.SYSTEM.SOLV>
0

>  <SCORE.SYSTEM.norm>
0

>  <SCORE.heavy>
11

>  <SCORE.norm>
-1.19798

>  <RMSD>
11.375

$$$$
ligand
 OpenBabel11021811503D
libRbt.so/2013.1/901 2013/11/27
 11 12  0  0  0  0  0  0  0  0999 V2000
   -5.4405  -30.4757   27.8068 N   0  0  0  0  0  0  0  0  0  0  0  0
   -5.1688  -29.7376   28.8975 C   0  0  0  0  0  0  0  0  0  0  0  0
   -6.1186  -29.6426   29.9588 N   0  0  0  0  0  0  0  0  0  0  0  0
   -4.0153  -29.0778   29.0389 N   0  0  0  0  0  0  0  0  0  0  0  0
   -3.0552  -29.1100   28.0563 C   0  0  0  0  0  0  0  0  0  0  0  0
   -3.2960  -29.8566   26.9233 C   0  0  0  0  0  0  0  0  0  0  0  0
   -4.5278  -30.5633   26.8094 C   0  0  0  0  0  0  0  0  0  0  0  0
   -4.7827  -31.3095   25.6805 O   0  0  0  0  0  0  0  0  0  0  0  0
   -2.1376  -29.7170   26.0947 C   0  0  0  0  0  0  0  0  0  0  0  0
   -1.2539  -28.8756   26.7848 C   0  0  0  0  0  0  0  0  0  0  0  0
   -1.8146  -28.5226   27.9484 N   0  0  0  0  0  0  0  0  0  0  0  0
  1  2  1  0  0  0  0
  1  7  1  0  0  0  0
  2  3  1  0  0  0  0
  2  4  2  0  0  0  0
  4  5  1  0  0  0  0
  5  6  2  0  0  0  0
  5 11  1  0  0  0  0
  6  7  1  0  0  0  0
  6  9  1  0  0  0  0
  7  8  2  0  0  0  0
  9 10  2  0  0  0  0
 10 11  1  0  0  0  0
M  END
>  <CHROM.1>
-3.84178109,-29.74525913,27.64043992,2.81082152,0.42529119,1.06777357

>  <Name>
ligand

>  <RI>
0

>  <Rbt.Current_Directory>
/home/itssahil/PROJECTS/Mol_Feturizer/New_Systems/rnas/4LVW

>  <Rbt.Executable>
rbdock ($Id: //depot/dev/client3/rdock/2013.1/src/exe/rbdock.cxx#4 $)

>  <Rbt.Library>
libRbt.so (2013.1, Build901 2013/11/27)

>  <Rbt.Parameter_File>
/export/apps/rDock/src/rDock_2013.1_src/data/scripts/dock_solv.prm

>  <Rbt.Receptor>
prm/blind_docking_60.prm

>  <SCORE>
-13.2309

>  <SCORE.INTER>
-13.2309

>  <SCORE.INTER.CONST>
1

>  <SCORE.INTER.POLAR>
0

>  <SCORE.INTER.ROT>
0

>  <SCORE.INTER.SOLV>
7.93654

>  <SCORE.INTER.VDW>
-15.0661

>  <SCORE.INTER.norm>
-1.20281

>  <SCORE.INTRA>
0

>  <SCORE.INTRA.DIHEDRAL>
0

>  <SCORE.INTRA.DIHEDRAL.0>
0

>  <SCORE.INTRA.POLAR>
0

>  <SCORE.INTRA.POLAR.0>
0

>  <SCORE.INTRA.REPUL>
0

>  <SCORE.INTRA.REPUL.0>
0

>  <SCORE.INTRA.SOLV>
0

>  <SCORE.INTRA.SOLV.lig_0>
-29.307

>  <SCORE.INTRA.VDW>
0

>  <SCORE.INTRA.VDW.0>
0

>  <SCORE.INTRA.norm>
0

>  <SCORE.RESTR>
0

>  <SCORE.RESTR.CAVITY>
0

>  <SCORE.RESTR.norm>
0

>  <SCORE.SYSTEM>
0

>  <SCORE.SYSTEM.CONST>
0

>  <SCORE.SYSTEM.DIHEDRAL>
0

>  <SCORE.SYSTEM.SOLV>
0

>  <SCORE.SYSTEM.norm>
0

>  <SCORE.heavy>
11

>  <SCORE.norm>
-1.20281

>  <RMSD>
11.379

$$$$
ligand
 OpenBabel11021811503D
libRbt.so/2013.1/901 2013/11/27
 11 12  0  0  0  0  0  0  0  0999 V2000
   -4.0925  -28.9403   28.9378 N   0  0  0  0  0  0  0  0  0  0  0  0
   -5.2510  -29.5733   28.6824 C   0  0  0  0  0  0  0  0  0  0  0  0
   -6.3727  -29.4016   29.5484 N   0  0  0  0  0  0  0  0  0  0  0  0
   -5.4051  -30.3711   27.6215 N   0  0  0  0  0  0  0  0  0  0  0  0
   -4.3689  -30.5965   26.7475 C   0  0  0  0  0  0  0  0  0  0  0  0
   -3.1655  -29.9647   26.9746 C   0  0  0  0  0  0  0  0  0  0  0  0
   -3.0373  -29.1061   28.1043 C   0  0  0  0  0  0  0  0  0  0  0  0
   -1.8389  -28.4721   28.3451 O   0  0  0  0  0  0  0  0  0  0  0  0
   -2.2917  -30.3690   25.9158 C   0  0  0  0  0  0  0  0  0  0  0  0
   -3.0292  -31.2402   25.1021 C   0  0  0  0  0  0  0  0  0  0  0  0
   -4.2615  -31.3658   25.6106 N   0  0  0  0  0  0  0  0  0  0  0  0
  1  2  1  0  0  0  0
  1  7  1  0  0  0  0
  2  3  1  0  0  0  0
  2  4  2  0  0  0  0
  4  5  1  0  0  0  0
  5  6  2  0  0  0  0
  5 11  1  0  0  0  0
  6  7  1  0  0  0  0
  6  9  1  0  0  0  0
  7  8  2  0  0  0  0
  9 10  2  0  0  0  0
 10 11  1  0  0  0  0
M  END
>  <CHROM.1>
-3.92357206,-29.90883887,27.47135855,-2.11999782,-0.30979817,-2.18746261

>  <Name>
ligand

>  <RI>
0

>  <Rbt.Current_Directory>
/home/itssahil/PROJECTS/Mol_Feturizer/New_Systems/rnas/4LVW

>  <Rbt.Executable>
rbdock ($Id: //depot/dev/client3/rdock/2013.1/src/exe/rbdock.cxx#4 $)

>  <Rbt.Library>
libRbt.so (2013.1, Build901 2013/11/27)

>  <Rbt.Parameter_File>
/export/apps/rDock/src/rDock_2013.1_src/data/scripts/dock_solv.prm

>  <Rbt.Receptor>
prm/blind_docking_100.prm

>  <SCORE>
-14.3076

>  <SCORE.INTER>
-14.3076

>  <SCORE.INTER.CONST>
1

>  <SCORE.INTER.POLAR>
0

>  <SCORE.INTER.ROT>
0

>  <SCORE.INTER.SOLV>
7.66959

>  <SCORE.INTER.VDW>
-15.6949

>  <SCORE.INTER.norm>
-1.30069

>  <SCORE.INTRA>
0

>  <SCORE.INTRA.DIHEDRAL>
0

>  <SCORE.INTRA.DIHEDRAL.0>
0

>  <SCORE.INTRA.POLAR>
0

>  <SCORE.INTRA.POLAR.0>
0

>  <SCORE.INTRA.REPUL>
0

>  <SCORE.INTRA.REPUL.0>
0

>  <SCORE.INTRA.SOLV>
0

>  <SCORE.INTRA.SOLV.lig_0>
-29.307

>  <SCORE.INTRA.VDW>
0

>  <SCORE.INTRA.VDW.0>
0

>  <SCORE.INTRA.norm>
0

>  <SCORE.RESTR>
0

>  <SCORE.RESTR.CAVITY>
0

>  <SCORE.RESTR.norm>
0

>  <SCORE.SYSTEM>
0

>  <SCORE.SYSTEM.CONST>
0

>  <SCORE.SYSTEM.DIHEDRAL>
0

>  <SCORE.SYSTEM.SOLV>
0

>  <SCORE.SYSTEM.norm>
0

>  <SCORE.heavy>
11

>  <SCORE.norm>
-1.30069

>  <RMSD>
11.380

$$$$
ligand
 OpenBabel11021811503D
libRbt.so/2013.1/901 2013/11/27
 11 12  0  0  0  0  0  0  0  0999 V2000
   -5.4735  -30.4379   27.8179 N   0  0  0  0  0  0  0  0  0  0  0  0
   -5.2138  -29.6973   28.9099 C   0  0  0  0  0  0  0  0  0  0  0  0
   -6.1824  -29.5856   29.9523 N   0  0  0  0  0  0  0  0  0  0  0  0
   -4.0554  -29.0505   29.0699 N   0  0  0  0  0  0  0  0  0  0  0  0
   -3.0773  -29.0992   28.1059 C   0  0  0  0  0  0  0  0  0  0  0  0
   -3.3053  -29.8488   26.9724 C   0  0  0  0  0  0  0  0  0  0  0  0
   -4.5431  -30.5415   26.8385 C   0  0  0  0  0  0  0  0  0  0  0  0
   -4.7853  -31.2905   25.7087 O   0  0  0  0  0  0  0  0  0  0  0  0
   -2.1298  -29.7272   26.1652 C   0  0  0  0  0  0  0  0  0  0  0  0
   -1.2494  -28.8926   26.8679 C   0  0  0  0  0  0  0  0  0  0  0  0
   -1.8279  -28.5270   28.0188 N   0  0  0  0  0  0  0  0  0  0  0  0
  1  2  1  0  0  0  0
  1  7  1  0  0  0  0
  2  3  1  0  0  0  0
  2  4  2  0  0  0  0
  4  5  1  0  0  0  0
  5  6  2  0  0  0  0
  5 11  1  0  0  0  0
  6  7  1  0  0  0  0
  6  9  1  0  0  0  0
  7  8  2  0  0  0  0
  9 10  2  0  0  0  0
 10 11  1  0  0  0  0
M  END
>  <CHROM.1>
-3.86328090,-29.72726029,27.67836138,2.82270265,0.40567433,1.05785542

>  <Name>
ligand

>  <RI>
0

>  <Rbt.Current_Directory>
/home/itssahil/PROJECTS/Mol_Feturizer/New_Systems/rnas/4LVW

>  <Rbt.Executable>
rbdock ($Id: //depot/dev/client3/rdock/2013.1/src/exe/rbdock.cxx#4 $)

>  <Rbt.Library>
libRbt.so (2013.1, Build901 2013/11/27)

>  <Rbt.Parameter_File>
/export/apps/rDock/src/rDock_2013.1_src/data/scripts/dock_solv.prm

>  <Rbt.Receptor>
prm/blind_docking_80.prm

>  <SCORE>
-13.263

>  <SCORE.INTER>
-13.263

>  <SCORE.INTER.CONST>
1

>  <SCORE.INTER.POLAR>
0

>  <SCORE.INTER.ROT>
0

>  <SCORE.INTER.SOLV>
7.8799

>  <SCORE.INTER.VDW>
-15.0687

>  <SCORE.INTER.norm>
-1.20573

>  <SCORE.INTRA>
0

>  <SCORE.INTRA.DIHEDRAL>
0

>  <SCORE.INTRA.DIHEDRAL.0>
0

>  <SCORE.INTRA.POLAR>
0

>  <SCORE.INTRA.POLAR.0>
0

>  <SCORE.INTRA.REPUL>
0

>  <SCORE.INTRA.REPUL.0>
0

>  <SCORE.INTRA.SOLV>
0

>  <SCORE.INTRA.SOLV.lig_0>
-29.307

>  <SCORE.INTRA.VDW>
0

>  <SCORE.INTRA.VDW.0>
0

>  <SCORE.INTRA.norm>
0

>  <SCORE.RESTR>
0

>  <SCORE.RESTR.CAVITY>
0

>  <SCORE.RESTR.norm>
0

>  <SCORE.SYSTEM>
0

>  <SCORE.SYSTEM.CONST>
0

>  <SCORE.SYSTEM.DIHEDRAL>
0

>  <SCORE.SYSTEM.SOLV>
0

>  <SCORE.SYSTEM.norm>
0

>  <SCORE.heavy>
11

>  <SCORE.norm>
-1.20573

>  <RMSD>
11.384

$$$$
ligand
 OpenBabel11021811503D
libRbt.so/2013.1/901 2013/11/27
 11 12  0  0  0  0  0  0  0  0999 V2000
   -5.4566  -30.4543   27.8144 N   0  0  0  0  0  0  0  0  0  0  0  0
   -5.1997  -29.7145   28.9075 C   0  0  0  0  0  0  0  0  0  0  0  0
   -6.1689  -29.6076   29.9499 N   0  0  0  0  0  0  0  0  0  0  0  0
   -4.0435  -29.0641   29.0688 N   0  0  0  0  0  0  0  0  0  0  0  0
   -3.0649  -29.1081   28.1049 C   0  0  0  0  0  0  0  0  0  0  0  0
   -3.2903  -29.8568   26.9702 C   0  0  0  0  0  0  0  0  0  0  0  0
   -4.5257  -30.5534   26.8351 C   0  0  0  0  0  0  0  0  0  0  0  0
   -4.7652  -31.3016   25.7041 O   0  0  0  0  0  0  0  0  0  0  0  0
   -2.1149  -29.7301   26.1636 C   0  0  0  0  0  0  0  0  0  0  0  0
   -1.2375  -28.8937   26.8676 C   0  0  0  0  0  0  0  0  0  0  0  0
   -1.8175  -28.5317   28.0189 N   0  0  0  0  0  0  0  0  0  0  0  0
  1  2  1  0  0  0  0
  1  7  1  0  0  0  0
  2  3  1  0  0  0  0
  2  4  2  0  0  0  0
  4  5  1  0  0  0  0
  5  6  2  0  0  0  0
  5 11  1  0  0  0  0
  6  7  1  0  0  0  0
  6  9  1  0  0  0  0
  7  8  2  0  0  0  0
  9 10  2  0  0  0  0
 10 11  1  0  0  0  0
M  END
>  <CHROM.1>
-3.84877666,-29.73817668,27.67628410,2.82468884,0.40844145,1.05854639

>  <Name>
ligand

>  <RI>
0

>  <Rbt.Current_Directory>
/home/itssahil/PROJECTS/Mol_Feturizer/New_Systems/rnas/4LVW

>  <Rbt.Executable>
rbdock ($Id: //depot/dev/client3/rdock/2013.1/src/exe/rbdock.cxx#4 $)

>  <Rbt.Library>
libRbt.so (2013.1, Build901 2013/11/27)

>  <Rbt.Parameter_File>
/export/apps/rDock/src/rDock_2013.1_src/data/scripts/dock_solv.prm

>  <Rbt.Receptor>
prm/blind_docking_100.prm

>  <SCORE>
-13.2549

>  <SCORE.INTER>
-13.2549

>  <SCORE.INTER.CONST>
1

>  <SCORE.INTER.POLAR>
0

>  <SCORE.INTER.ROT>
0

>  <SCORE.INTER.SOLV>
7.92552

>  <SCORE.INTER.VDW>
-15.0784

>  <SCORE.INTER.norm>
-1.20499

>  <SCORE.INTRA>
0

>  <SCORE.INTRA.DIHEDRAL>
0

>  <SCORE.INTRA.DIHEDRAL.0>
0

>  <SCORE.INTRA.POLAR>
0

>  <SCORE.INTRA.POLAR.0>
0

>  <SCORE.INTRA.REPUL>
0

>  <SCORE.INTRA.REPUL.0>
0

>  <SCORE.INTRA.SOLV>
0

>  <SCORE.INTRA.SOLV.lig_0>
-29.307

>  <SCORE.INTRA.VDW>
0

>  <SCORE.INTRA.VDW.0>
0

>  <SCORE.INTRA.norm>
0

>  <SCORE.RESTR>
0

>  <SCORE.RESTR.CAVITY>
0

>  <SCORE.RESTR.norm>
0

>  <SCORE.SYSTEM>
0

>  <SCORE.SYSTEM.CONST>
0

>  <SCORE.SYSTEM.DIHEDRAL>
0

>  <SCORE.SYSTEM.SOLV>
0

>  <SCORE.SYSTEM.norm>
0

>  <SCORE.heavy>
11

>  <SCORE.norm>
-1.20499

>  <RMSD>
11.385

$$$$
ligand
 OpenBabel11021811503D
libRbt.so/2013.1/901 2013/11/27
 11 12  0  0  0  0  0  0  0  0999 V2000
   -5.4663  -30.4442   27.8158 N   0  0  0  0  0  0  0  0  0  0  0  0
   -5.2091  -29.7018   28.9072 C   0  0  0  0  0  0  0  0  0  0  0  0
   -6.1796  -29.5894   29.9478 N   0  0  0  0  0  0  0  0  0  0  0  0
   -4.0516  -29.0536   29.0682 N   0  0  0  0  0  0  0  0  0  0  0  0
   -3.0718  -29.1029   28.1059 C   0  0  0  0  0  0  0  0  0  0  0  0
   -3.2973  -29.8543   26.9731 C   0  0  0  0  0  0  0  0  0  0  0  0
   -4.5341  -30.5484   26.8382 C   0  0  0  0  0  0  0  0  0  0  0  0
   -4.7738  -31.2993   25.7091 O   0  0  0  0  0  0  0  0  0  0  0  0
   -2.1205  -29.7329   26.1678 C   0  0  0  0  0  0  0  0  0  0  0  0
   -1.2421  -28.8965   26.8706 C   0  0  0  0  0  0  0  0  0  0  0  0
   -1.8228  -28.5297   28.0200 N   0  0  0  0  0  0  0  0  0  0  0  0
  1  2  1  0  0  0  0
  1  7  1  0  0  0  0
  2  3  1  0  0  0  0
  2  4  2  0  0  0  0
  4  5  1  0  0  0  0
  5  6  2  0  0  0  0
  5 11  1  0  0  0  0
  6  7  1  0  0  0  0
  6  9  1  0  0  0  0
  7  8  2  0  0  0  0
  9 10  2  0  0  0  0
 10 11  1  0  0  0  0
M  END
>  <CHROM.1>
-3.85650146,-29.73228427,27.67796679,2.82478241,0.40564393,1.05554853

>  <Name>
ligand

>  <RI>
0

>  <Rbt.Current_Directory>
/home/itssahil/PROJECTS/Mol_Feturizer/New_Systems/rnas/4LVW

>  <Rbt.Executable>
rbdock ($Id: //depot/dev/client3/rdock/2013.1/src/exe/rbdock.cxx#4 $)

>  <Rbt.Library>
libRbt.so (2013.1, Build901 2013/11/27)

>  <Rbt.Parameter_File>
/export/apps/rDock/src/rDock_2013.1_src/data/scripts/dock_solv.prm

>  <Rbt.Receptor>
prm/blind_docking_60.prm

>  <SCORE>
-13.265

>  <SCORE.INTER>
-13.265

>  <SCORE.INTER.CONST>
1

>  <SCORE.INTER.POLAR>
0

>  <SCORE.INTER.ROT>
0

>  <SCORE.INTER.SOLV>
7.89461

>  <SCORE.INTER.VDW>
-15.0748

>  <SCORE.INTER.norm>
-1.20591

>  <SCORE.INTRA>
0

>  <SCORE.INTRA.DIHEDRAL>
0

>  <SCORE.INTRA.DIHEDRAL.0>
0

>  <SCORE.INTRA.POLAR>
0

>  <SCORE.INTRA.POLAR.0>
0

>  <SCORE.INTRA.REPUL>
0

>  <SCORE.INTRA.REPUL.0>
0

>  <SCORE.INTRA.SOLV>
0

>  <SCORE.INTRA.SOLV.lig_0>
-29.307

>  <SCORE.INTRA.VDW>
0

>  <SCORE.INTRA.VDW.0>
0

>  <SCORE.INTRA.norm>
0

>  <SCORE.RESTR>
0

>  <SCORE.RESTR.CAVITY>
0

>  <SCORE.RESTR.norm>
0

>  <SCORE.SYSTEM>
0

>  <SCORE.SYSTEM.CONST>
0

>  <SCORE.SYSTEM.DIHEDRAL>
0

>  <SCORE.SYSTEM.SOLV>
0

>  <SCORE.SYSTEM.norm>
0

>  <SCORE.heavy>
11

>  <SCORE.norm>
-1.20591

>  <RMSD>
11.385

$$$$
ligand
 OpenBabel11021811503D
libRbt.so/2013.1/901 2013/11/27
 11 12  0  0  0  0  0  0  0  0999 V2000
   -5.4704  -30.4400   27.8161 N   0  0  0  0  0  0  0  0  0  0  0  0
   -5.2102  -29.6982   28.9071 C   0  0  0  0  0  0  0  0  0  0  0  0
   -6.1792  -29.5835   29.9489 N   0  0  0  0  0  0  0  0  0  0  0  0
   -4.0509  -29.0529   29.0668 N   0  0  0  0  0  0  0  0  0  0  0  0
   -3.0723  -29.1045   28.1034 C   0  0  0  0  0  0  0  0  0  0  0  0
   -3.3009  -29.8555   26.9709 C   0  0  0  0  0  0  0  0  0  0  0  0
   -4.5396  -30.5465   26.8374 C   0  0  0  0  0  0  0  0  0  0  0  0
   -4.7824  -31.2969   25.7086 O   0  0  0  0  0  0  0  0  0  0  0  0
   -2.1247  -29.7369   26.1643 C   0  0  0  0  0  0  0  0  0  0  0  0
   -1.2435  -28.9026   26.8661 C   0  0  0  0  0  0  0  0  0  0  0  0
   -1.8220  -28.5344   28.0161 N   0  0  0  0  0  0  0  0  0  0  0  0
  1  2  1  0  0  0  0
  1  7  1  0  0  0  0
  2  3  1  0  0  0  0
  2  4  2  0  0  0  0
  4  5  1  0  0  0  0
  5  6  2  0  0  0  0
  5 11  1  0  0  0  0
  6  7  1  0  0  0  0
  6  9  1  0  0  0  0
  7  8  2  0  0  0  0
  9 10  2  0  0  0  0
 10 11  1  0  0  0  0
M  END
>  <CHROM.1>
-3.85904683,-29.73206702,27.67642372,2.82241679,0.40409111,1.05644383

>  <Name>
ligand

>  <RI>
0

>  <Rbt.Current_Directory>
/home/itssahil/PROJECTS/Mol_Feturizer/New_Systems/rnas/4LVW

>  <Rbt.Executable>
rbdock ($Id: //depot/dev/client3/rdock/2013.1/src/exe/rbdock.cxx#4 $)

>  <Rbt.Library>
libRbt.so (2013.1, Build901 2013/11/27)

>  <Rbt.Parameter_File>
/export/apps/rDock/src/rDock_2013.1_src/data/scripts/dock_solv.prm

>  <Rbt.Receptor>
prm/blind_docking_60.prm

>  <SCORE>
-13.2648

>  <SCORE.INTER>
-13.2648

>  <SCORE.INTER.CONST>
1

>  <SCORE.INTER.POLAR>
0

>  <SCORE.INTER.ROT>
0

>  <SCORE.INTER.SOLV>
7.878

>  <SCORE.INTER.VDW>
-15.0692

>  <SCORE.INTER.norm>
-1.20589

>  <SCORE.INTRA>
0

>  <SCORE.INTRA.DIHEDRAL>
0

>  <SCORE.INTRA.DIHEDRAL.0>
0

>  <SCORE.INTRA.POLAR>
0

>  <SCORE.INTRA.POLAR.0>
0

>  <SCORE.INTRA.REPUL>
0

>  <SCORE.INTRA.REPUL.0>
0

>  <SCORE.INTRA.SOLV>
0

>  <SCORE.INTRA.SOLV.lig_0>
-29.307

>  <SCORE.INTRA.VDW>
0

>  <SCORE.INTRA.VDW.0>
0

>  <SCORE.INTRA.norm>
0

>  <SCORE.RESTR>
0

>  <SCORE.RESTR.CAVITY>
0

>  <SCORE.RESTR.norm>
0

>  <SCORE.SYSTEM>
0

>  <SCORE.SYSTEM.CONST>
0

>  <SCORE.SYSTEM.DIHEDRAL>
0

>  <SCORE.SYSTEM.SOLV>
0

>  <SCORE.SYSTEM.norm>
0

>  <SCORE.heavy>
11

>  <SCORE.norm>
-1.20589

>  <RMSD>
11.385

$$$$
ligand
 OpenBabel11021811503D
libRbt.so/2013.1/901 2013/11/27
 11 12  0  0  0  0  0  0  0  0999 V2000
   -4.1046  -28.9414   28.9215 N   0  0  0  0  0  0  0  0  0  0  0  0
   -5.2634  -29.5708   28.6582 C   0  0  0  0  0  0  0  0  0  0  0  0
   -6.3927  -29.3895   29.5122 N   0  0  0  0  0  0  0  0  0  0  0  0
   -5.4106  -30.3737   27.6001 N   0  0  0  0  0  0  0  0  0  0  0  0
   -4.3669  -30.6082   26.7376 C   0  0  0  0  0  0  0  0  0  0  0  0
   -3.1630  -29.9804   26.9731 C   0  0  0  0  0  0  0  0  0  0  0  0
   -3.0421  -29.1163   28.0993 C   0  0  0  0  0  0  0  0  0  0  0  0
   -1.8433  -28.4862   28.3484 O   0  0  0  0  0  0  0  0  0  0  0  0
   -2.2806  -30.3942   25.9251 C   0  0  0  0  0  0  0  0  0  0  0  0
   -3.0140  -31.2666   25.1088 C   0  0  0  0  0  0  0  0  0  0  0  0
   -4.2517  -31.3842   25.6060 N   0  0  0  0  0  0  0  0  0  0  0  0
  1  2  1  0  0  0  0
  1  7  1  0  0  0  0
  2  3  1  0  0  0  0
  2  4  2  0  0  0  0
  4  5  1  0  0  0  0
  5  6  2  0  0  0  0
  5 11  1  0  0  0  0
  6  7  1  0  0  0  0
  6  9  1  0  0  0  0
  7  8  2  0  0  0  0
  9 10  2  0  0  0  0
 10 11  1  0  0  0  0
M  END
>  <CHROM.1>
-3.92564467,-29.91858987,27.46204052,-2.12568464,-0.30057005,-2.19455852

>  <Name>
ligand

>  <RI>
0

>  <Rbt.Current_Directory>
/home/itssahil/PROJECTS/Mol_Feturizer/New_Systems/rnas/4LVW

>  <Rbt.Executable>
rbdock ($Id: //depot/dev/client3/rdock/2013.1/src/exe/rbdock.cxx#4 $)

>  <Rbt.Library>
libRbt.so (2013.1, Build901 2013/11/27)

>  <Rbt.Parameter_File>
/export/apps/rDock/src/rDock_2013.1_src/data/scripts/dock_solv.prm

>  <Rbt.Receptor>
prm/blind_docking_100.prm

>  <SCORE>
-14.2834

>  <SCORE.INTER>
-14.2834

>  <SCORE.INTER.CONST>
1

>  <SCORE.INTER.POLAR>
0

>  <SCORE.INTER.ROT>
0

>  <SCORE.INTER.SOLV>
7.6833

>  <SCORE.INTER.VDW>
-15.6834

>  <SCORE.INTER.norm>
-1.29849

>  <SCORE.INTRA>
0

>  <SCORE.INTRA.DIHEDRAL>
0

>  <SCORE.INTRA.DIHEDRAL.0>
0

>  <SCORE.INTRA.POLAR>
0

>  <SCORE.INTRA.POLAR.0>
0

>  <SCORE.INTRA.REPUL>
0

>  <SCORE.INTRA.REPUL.0>
0

>  <SCORE.INTRA.SOLV>
0

>  <SCORE.INTRA.SOLV.lig_0>
-29.307

>  <SCORE.INTRA.VDW>
0

>  <SCORE.INTRA.VDW.0>
0

>  <SCORE.INTRA.norm>
0

>  <SCORE.RESTR>
0

>  <SCORE.RESTR.CAVITY>
0

>  <SCORE.RESTR.norm>
0

>  <SCORE.SYSTEM>
0

>  <SCORE.SYSTEM.CONST>
0

>  <SCORE.SYSTEM.DIHEDRAL>
0

>  <SCORE.SYSTEM.SOLV>
0

>  <SCORE.SYSTEM.norm>
0

>  <SCORE.heavy>
11

>  <SCORE.norm>
-1.29849

>  <RMSD>
11.387

$$$$
ligand
 OpenBabel11021811503D
libRbt.so/2013.1/901 2013/11/27
 11 12  0  0  0  0  0  0  0  0999 V2000
   -5.4694  -30.4448   27.8196 N   0  0  0  0  0  0  0  0  0  0  0  0
   -5.2129  -29.7039   28.9120 C   0  0  0  0  0  0  0  0  0  0  0  0
   -6.1842  -29.5922   29.9519 N   0  0  0  0  0  0  0  0  0  0  0  0
   -4.0552  -29.0566   29.0749 N   0  0  0  0  0  0  0  0  0  0  0  0
   -3.0744  -29.1052   28.1135 C   0  0  0  0  0  0  0  0  0  0  0  0
   -3.2993  -29.8552   26.9796 C   0  0  0  0  0  0  0  0  0  0  0  0
   -4.5364  -30.5484   26.8427 C   0  0  0  0  0  0  0  0  0  0  0  0
   -4.7755  -31.2979   25.7124 O   0  0  0  0  0  0  0  0  0  0  0  0
   -2.1217  -29.7334   26.1755 C   0  0  0  0  0  0  0  0  0  0  0  0
   -1.2434  -28.8984   26.8802 C   0  0  0  0  0  0  0  0  0  0  0  0
   -1.8251  -28.5326   28.0295 N   0  0  0  0  0  0  0  0  0  0  0  0
  1  2  1  0  0  0  0
  1  7  1  0  0  0  0
  2  3  1  0  0  0  0
  2  4  2  0  0  0  0
  4  5  1  0  0  0  0
  5  6  2  0  0  0  0
  5 11  1  0  0  0  0
  6  7  1  0  0  0  0
  6  9  1  0  0  0  0
  7  8  2  0  0  0  0
  9 10  2  0  0  0  0
 10 11  1  0  0  0  0
M  END
>  <CHROM.1>
-3.85911242,-29.73369393,27.68408050,2.82537997,0.40469414,1.05650530

>  <Name>
ligand

>  <RI>
0

>  <Rbt.Current_Directory>
/home/itssahil/PROJECTS/Mol_Feturizer/New_Systems/rnas/4LVW

>  <Rbt.Executable>
rbdock ($Id: //depot/dev/client3/rdock/2013.1/src/exe/rbdock.cxx#4 $)

>  <Rbt.Library>
libRbt.so (2013.1, Build901 2013/11/27)

>  <Rbt.Parameter_File>
/export/apps/rDock/src/rDock_2013.1_src/data/scripts/dock_solv.prm

>  <Rbt.Receptor>
prm/blind_docking_60.prm

>  <SCORE>
-13.264

>  <SCORE.INTER>
-13.264

>  <SCORE.INTER.CONST>
1

>  <SCORE.INTER.POLAR>
0

>  <SCORE.INTER.ROT>
0

>  <SCORE.INTER.SOLV>
7.90425

>  <SCORE.INTER.VDW>
-15.0774

>  <SCORE.INTER.norm>
-1.20582

>  <SCORE.INTRA>
0

>  <SCORE.INTRA.DIHEDRAL>
0

>  <SCORE.INTRA.DIHEDRAL.0>
0

>  <SCORE.INTRA.POLAR>
0

>  <SCORE.INTRA.POLAR.0>
0

>  <SCORE.INTRA.REPUL>
0

>  <SCORE.INTRA.REPUL.0>
0

>  <SCORE.INTRA.SOLV>
0

>  <SCORE.INTRA.SOLV.lig_0>
-29.307

>  <SCORE.INTRA.VDW>
0

>  <SCORE.INTRA.VDW.0>
0

>  <SCORE.INTRA.norm>
0

>  <SCORE.RESTR>
0

>  <SCORE.RESTR.CAVITY>
0

>  <SCORE.RESTR.norm>
0

>  <SCORE.SYSTEM>
0

>  <SCORE.SYSTEM.CONST>
0

>  <SCORE.SYSTEM.DIHEDRAL>
0

>  <SCORE.SYSTEM.SOLV>
0

>  <SCORE.SYSTEM.norm>
0

>  <SCORE.heavy>
11

>  <SCORE.norm>
-1.20582

>  <RMSD>
11.388

$$$$
ligand
 OpenBabel11021811503D
libRbt.so/2013.1/901 2013/11/27
 11 12  0  0  0  0  0  0  0  0999 V2000
   -3.8607  -28.8340   29.2655 N   0  0  0  0  0  0  0  0  0  0  0  0
   -5.1247  -29.2924   29.2413 C   0  0  0  0  0  0  0  0  0  0  0  0
   -6.0280  -28.9727   30.2993 N   0  0  0  0  0  0  0  0  0  0  0  0
   -5.5869  -30.0476   28.2404 N   0  0  0  0  0  0  0  0  0  0  0  0
   -4.7756  -30.4082   27.1914 C   0  0  0  0  0  0  0  0  0  0  0  0
   -3.4737  -29.9571   27.1795 C   0  0  0  0  0  0  0  0  0  0  0  0
   -3.0151  -29.1388   28.2518 C   0  0  0  0  0  0  0  0  0  0  0  0
   -1.7150  -28.6850   28.2542 O   0  0  0  0  0  0  0  0  0  0  0  0
   -2.8804  -30.4694   25.9821 C   0  0  0  0  0  0  0  0  0  0  0  0
   -3.8737  -31.2170   25.3344 C   0  0  0  0  0  0  0  0  0  0  0  0
   -4.9939  -31.1716   26.0665 N   0  0  0  0  0  0  0  0  0  0  0  0
  1  2  1  0  0  0  0
  1  7  1  0  0  0  0
  2  3  1  0  0  0  0
  2  4  2  0  0  0  0
  4  5  1  0  0  0  0
  5  6  2  0  0  0  0
  5 11  1  0  0  0  0
  6  7  1  0  0  0  0
  6  9  1  0  0  0  0
  7  8  2  0  0  0  0
  9 10  2  0  0  0  0
 10 11  1  0  0  0  0
M  END
>  <CHROM.1>
-4.10930702,-29.79954097,27.80844215,-1.87172499,-0.29327583,-2.11523025

>  <Name>
ligand

>  <RI>
0

>  <Rbt.Current_Directory>
/home/itssahil/PROJECTS/Mol_Feturizer/New_Systems/rnas/4LVW

>  <Rbt.Executable>
rbdock ($Id: //depot/dev/client3/rdock/2013.1/src/exe/rbdock.cxx#4 $)

>  <Rbt.Library>
libRbt.so (2013.1, Build901 2013/11/27)

>  <Rbt.Parameter_File>
/export/apps/rDock/src/rDock_2013.1_src/data/scripts/dock_solv.prm

>  <Rbt.Receptor>
prm/blind_docking_80.prm

>  <SCORE>
-14.1842

>  <SCORE.INTER>
-14.1842

>  <SCORE.INTER.CONST>
1

>  <SCORE.INTER.POLAR>
0

>  <SCORE.INTER.ROT>
0

>  <SCORE.INTER.SOLV>
7.28593

>  <SCORE.INTER.VDW>
-15.4848

>  <SCORE.INTER.norm>
-1.28947

>  <SCORE.INTRA>
0

>  <SCORE.INTRA.DIHEDRAL>
0

>  <SCORE.INTRA.DIHEDRAL.0>
0

>  <SCORE.INTRA.POLAR>
0

>  <SCORE.INTRA.POLAR.0>
0

>  <SCORE.INTRA.REPUL>
0

>  <SCORE.INTRA.REPUL.0>
0

>  <SCORE.INTRA.SOLV>
0

>  <SCORE.INTRA.SOLV.lig_0>
-29.307

>  <SCORE.INTRA.VDW>
0

>  <SCORE.INTRA.VDW.0>
0

>  <SCORE.INTRA.norm>
0

>  <SCORE.RESTR>
0

>  <SCORE.RESTR.CAVITY>
0

>  <SCORE.RESTR.norm>
0

>  <SCORE.SYSTEM>
0

>  <SCORE.SYSTEM.CONST>
0

>  <SCORE.SYSTEM.DIHEDRAL>
0

>  <SCORE.SYSTEM.SOLV>
0

>  <SCORE.SYSTEM.norm>
0

>  <SCORE.heavy>
11

>  <SCORE.norm>
-1.28947

>  <RMSD>
11.526

$$$$
ligand
 OpenBabel11021811503D
libRbt.so/2013.1/901 2013/11/27
 11 12  0  0  0  0  0  0  0  0999 V2000
   -6.0226  -29.6551   28.8870 N   0  0  0  0  0  0  0  0  0  0  0  0
   -5.4153  -28.8625   29.7877 C   0  0  0  0  0  0  0  0  0  0  0  0
   -6.1379  -28.3647   30.9135 N   0  0  0  0  0  0  0  0  0  0  0  0
   -4.1291  -28.5172   29.6763 N   0  0  0  0  0  0  0  0  0  0  0  0
   -3.3693  -28.9462   28.6147 C   0  0  0  0  0  0  0  0  0  0  0  0
   -3.9556  -29.7613   27.6710 C   0  0  0  0  0  0  0  0  0  0  0  0
   -5.3239  -30.1267   27.8264 C   0  0  0  0  0  0  0  0  0  0  0  0
   -5.9230  -30.9371   26.8881 O   0  0  0  0  0  0  0  0  0  0  0  0
   -2.9405  -30.0562   26.7062 C   0  0  0  0  0  0  0  0  0  0  0  0
   -1.7840  -29.3856   27.1281 C   0  0  0  0  0  0  0  0  0  0  0  0
   -2.0557  -28.7296   28.2633 N   0  0  0  0  0  0  0  0  0  0  0  0
  1  2  1  0  0  0  0
  1  7  1  0  0  0  0
  2  3  1  0  0  0  0
  2  4  2  0  0  0  0
  4  5  1  0  0  0  0
  5  6  2  0  0  0  0
  5 11  1  0  0  0  0
  6  7  1  0  0  0  0
  6  9  1  0  0  0  0
  7  8  2  0  0  0  0
  9 10  2  0  0  0  0
 10 11  1  0  0  0  0
M  END
>  <CHROM.1>
-4.34053367,-29.40541909,28.41235315,2.54593181,0.27410571,0.99011286

>  <Name>
ligand

>  <RI>
0

>  <Rbt.Current_Directory>
/home/itssahil/PROJECTS/Mol_Feturizer/New_Systems/rnas/4LVW

>  <Rbt.Executable>
rbdock ($Id: //depot/dev/client3/rdock/2013.1/src/exe/rbdock.cxx#4 $)

>  <Rbt.Library>
libRbt.so (2013.1, Build901 2013/11/27)

>  <Rbt.Parameter_File>
/export/apps/rDock/src/rDock_2013.1_src/data/scripts/dock_solv.prm

>  <Rbt.Receptor>
prm/blind_docking_100.prm

>  <SCORE>
-12.7899

>  <SCORE.INTER>
-12.7899

>  <SCORE.INTER.CONST>
1

>  <SCORE.INTER.POLAR>
0

>  <SCORE.INTER.ROT>
0

>  <SCORE.INTER.SOLV>
6.31938

>  <SCORE.INTER.VDW>
-14.2331

>  <SCORE.INTER.norm>
-1.16272

>  <SCORE.INTRA>
0

>  <SCORE.INTRA.DIHEDRAL>
0

>  <SCORE.INTRA.DIHEDRAL.0>
0

>  <SCORE.INTRA.POLAR>
0

>  <SCORE.INTRA.POLAR.0>
0

>  <SCORE.INTRA.REPUL>
0

>  <SCORE.INTRA.REPUL.0>
0

>  <SCORE.INTRA.SOLV>
0

>  <SCORE.INTRA.SOLV.lig_0>
-29.307

>  <SCORE.INTRA.VDW>
0

>  <SCORE.INTRA.VDW.0>
0

>  <SCORE.INTRA.norm>
0

>  <SCORE.RESTR>
4.78794e-06

>  <SCORE.RESTR.CAVITY>
4.78794e-06

>  <SCORE.RESTR.norm>
4.35267e-07

>  <SCORE.SYSTEM>
0

>  <SCORE.SYSTEM.CONST>
0

>  <SCORE.SYSTEM.DIHEDRAL>
0

>  <SCORE.SYSTEM.SOLV>
0

>  <SCORE.SYSTEM.norm>
0

>  <SCORE.heavy>
11

>  <SCORE.norm>
-1.16272

>  <RMSD>
11.583

$$$$
ligand
 OpenBabel11021811503D
libRbt.so/2013.1/901 2013/11/27
 11 12  0  0  0  0  0  0  0  0999 V2000
   -6.0248  -29.6512   28.8853 N   0  0  0  0  0  0  0  0  0  0  0  0
   -5.4141  -28.8615   29.7862 C   0  0  0  0  0  0  0  0  0  0  0  0
   -6.1353  -28.3591   30.9109 N   0  0  0  0  0  0  0  0  0  0  0  0
   -4.1260  -28.5234   29.6761 N   0  0  0  0  0  0  0  0  0  0  0  0
   -3.3673  -28.9572   28.6156 C   0  0  0  0  0  0  0  0  0  0  0  0
   -3.9570  -29.7696   27.6717 C   0  0  0  0  0  0  0  0  0  0  0  0
   -5.3275  -30.1272   27.8257 C   0  0  0  0  0  0  0  0  0  0  0  0
   -5.9300  -30.9349   26.8872 O   0  0  0  0  0  0  0  0  0  0  0  0
   -2.9424  -30.0706   26.7083 C   0  0  0  0  0  0  0  0  0  0  0  0
   -1.7827  -29.4063   27.1311 C   0  0  0  0  0  0  0  0  0  0  0  0
   -2.0521  -28.7481   28.2656 N   0  0  0  0  0  0  0  0  0  0  0  0
  1  2  1  0  0  0  0
  1  7  1  0  0  0  0
  2  3  1  0  0  0  0
  2  4  2  0  0  0  0
  4  5  1  0  0  0  0
  5  6  2  0  0  0  0
  5 11  1  0  0  0  0
  6  7  1  0  0  0  0
  6  9  1  0  0  0  0
  7  8  2  0  0  0  0
  9 10  2  0  0  0  0
 10 11  1  0  0  0  0
M  END
>  <CHROM.1>
-4.34083401,-29.41113648,28.41242104,2.54377406,0.26882170,0.99013729

>  <Name>
ligand

>  <RI>
0

>  <Rbt.Current_Directory>
/home/itssahil/PROJECTS/Mol_Feturizer/New_Systems/rnas/4LVW

>  <Rbt.Executable>
rbdock ($Id: //depot/dev/client3/rdock/2013.1/src/exe/rbdock.cxx#4 $)

>  <Rbt.Library>
libRbt.so (2013.1, Build901 2013/11/27)

>  <Rbt.Parameter_File>
/export/apps/rDock/src/rDock_2013.1_src/data/scripts/dock_solv.prm

>  <Rbt.Receptor>
prm/blind_docking_80.prm

>  <SCORE>
-12.7913

>  <SCORE.INTER>
-12.7915

>  <SCORE.INTER.CONST>
1

>  <SCORE.INTER.POLAR>
0

>  <SCORE.INTER.ROT>
0

>  <SCORE.INTER.SOLV>
6.30795

>  <SCORE.INTER.VDW>
-14.2303

>  <SCORE.INTER.norm>
-1.16286

>  <SCORE.INTRA>
0

>  <SCORE.INTRA.DIHEDRAL>
0

>  <SCORE.INTRA.DIHEDRAL.0>
0

>  <SCORE.INTRA.POLAR>
0

>  <SCORE.INTRA.POLAR.0>
0

>  <SCORE.INTRA.REPUL>
0

>  <SCORE.INTRA.REPUL.0>
0

>  <SCORE.INTRA.SOLV>
0

>  <SCORE.INTRA.SOLV.lig_0>
-29.307

>  <SCORE.INTRA.VDW>
0

>  <SCORE.INTRA.VDW.0>
0

>  <SCORE.INTRA.norm>
0

>  <SCORE.RESTR>
0.000196006

>  <SCORE.RESTR.CAVITY>
0.000196006

>  <SCORE.RESTR.norm>
1.78187e-05

>  <SCORE.SYSTEM>
0

>  <SCORE.SYSTEM.CONST>
0

>  <SCORE.SYSTEM.DIHEDRAL>
0

>  <SCORE.SYSTEM.SOLV>
0

>  <SCORE.SYSTEM.norm>
0

>  <SCORE.heavy>
11

>  <SCORE.norm>
-1.16285

>  <RMSD>
11.588

$$$$
ligand
 OpenBabel11021811503D
libRbt.so/2013.1/901 2013/11/27
 11 12  0  0  0  0  0  0  0  0999 V2000
   -2.4628  -29.1616   28.2372 N   0  0  0  0  0  0  0  0  0  0  0  0
   -1.6920  -29.5515   27.2066 C   0  0  0  0  0  0  0  0  0  0  0  0
   -0.3076  -29.2053   27.1703 N   0  0  0  0  0  0  0  0  0  0  0  0
   -2.1757  -30.2741   26.1919 N   0  0  0  0  0  0  0  0  0  0  0  0
   -3.5004  -30.6370   26.1483 C   0  0  0  0  0  0  0  0  0  0  0  0
   -4.3226  -30.2573   27.1868 C   0  0  0  0  0  0  0  0  0  0  0  0
   -3.7738  -29.5024   28.2632 C   0  0  0  0  0  0  0  0  0  0  0  0
   -4.5856  -29.1129   29.3051 O   0  0  0  0  0  0  0  0  0  0  0  0
   -5.6213  -30.7766   26.8836 C   0  0  0  0  0  0  0  0  0  0  0  0
   -5.5059  -31.4449   25.6567 C   0  0  0  0  0  0  0  0  0  0  0  0
   -4.2394  -31.3517   25.2323 N   0  0  0  0  0  0  0  0  0  0  0  0
  1  2  1  0  0  0  0
  1  7  1  0  0  0  0
  2  3  1  0  0  0  0
  2  4  2  0  0  0  0
  4  5  1  0  0  0  0
  5  6  2  0  0  0  0
  5 11  1  0  0  0  0
  6  7  1  0  0  0  0
  6  9  1  0  0  0  0
  7  8  2  0  0  0  0
  9 10  2  0  0  0  0
 10 11  1  0  0  0  0
M  END
>  <CHROM.1>
-3.43728615,-30.08165980,27.08780441,0.52041933,0.22488929,1.05032924

>  <Name>
ligand

>  <RI>
0

>  <Rbt.Current_Directory>
/home/itssahil/PROJECTS/Mol_Feturizer/New_Systems/rnas/4LVW

>  <Rbt.Executable>
rbdock ($Id: //depot/dev/client3/rdock/2013.1/src/exe/rbdock.cxx#4 $)

>  <Rbt.Library>
libRbt.so (2013.1, Build901 2013/11/27)

>  <Rbt.Parameter_File>
/export/apps/rDock/src/rDock_2013.1_src/data/scripts/dock_solv.prm

>  <Rbt.Receptor>
prm/blind_docking_100.prm

>  <SCORE>
-13.7199

>  <SCORE.INTER>
-13.8228

>  <SCORE.INTER.CONST>
1

>  <SCORE.INTER.POLAR>
0

>  <SCORE.INTER.ROT>
0

>  <SCORE.INTER.SOLV>
10.2638

>  <SCORE.INTER.VDW>
-16.2365

>  <SCORE.INTER.norm>
-1.25662

>  <SCORE.INTRA>
0

>  <SCORE.INTRA.DIHEDRAL>
0

>  <SCORE.INTRA.DIHEDRAL.0>
0

>  <SCORE.INTRA.POLAR>
0

>  <SCORE.INTRA.POLAR.0>
0

>  <SCORE.INTRA.REPUL>
0

>  <SCORE.INTRA.REPUL.0>
0

>  <SCORE.INTRA.SOLV>
0

>  <SCORE.INTRA.SOLV.lig_0>
-29.307

>  <SCORE.INTRA.VDW>
0

>  <SCORE.INTRA.VDW.0>
0

>  <SCORE.INTRA.norm>
0

>  <SCORE.RESTR>
0.102891

>  <SCORE.RESTR.CAVITY>
0.102891

>  <SCORE.RESTR.norm>
0.00935374

>  <SCORE.SYSTEM>
0

>  <SCORE.SYSTEM.CONST>
0

>  <SCORE.SYSTEM.DIHEDRAL>
0

>  <SCORE.SYSTEM.SOLV>
0

>  <SCORE.SYSTEM.norm>
0

>  <SCORE.heavy>
11

>  <SCORE.norm>
-1.24727

>  <RMSD>
11.618

$$$$
ligand
 OpenBabel11021811503D
libRbt.so/2013.1/901 2013/11/27
 11 12  0  0  0  0  0  0  0  0999 V2000
   -2.4686  -29.1535   28.2310 N   0  0  0  0  0  0  0  0  0  0  0  0
   -1.6961  -29.5571   27.2070 C   0  0  0  0  0  0  0  0  0  0  0  0
   -0.3100  -29.2181   27.1720 N   0  0  0  0  0  0  0  0  0  0  0  0
   -2.1800  -30.2873   26.1978 N   0  0  0  0  0  0  0  0  0  0  0  0
   -3.5063  -30.6442   26.1532 C   0  0  0  0  0  0  0  0  0  0  0  0
   -4.3301  -30.2504   27.1851 C   0  0  0  0  0  0  0  0  0  0  0  0
   -3.7813  -29.4877   28.2560 C   0  0  0  0  0  0  0  0  0  0  0  0
   -4.5947  -29.0840   29.2912 O   0  0  0  0  0  0  0  0  0  0  0  0
   -5.6303  -30.7664   26.8826 C   0  0  0  0  0  0  0  0  0  0  0  0
   -5.5140  -31.4472   25.6627 C   0  0  0  0  0  0  0  0  0  0  0  0
   -4.2456  -31.3643   25.2417 N   0  0  0  0  0  0  0  0  0  0  0  0
  1  2  1  0  0  0  0
  1  7  1  0  0  0  0
  2  3  1  0  0  0  0
  2  4  2  0  0  0  0
  4  5  1  0  0  0  0
  5  6  2  0  0  0  0
  5 11  1  0  0  0  0
  6  7  1  0  0  0  0
  6  9  1  0  0  0  0
  7  8  2  0  0  0  0
  9 10  2  0  0  0  0
 10 11  1  0  0  0  0
M  END
>  <CHROM.1>
-3.44361547,-30.08001089,27.08743317,0.52092715,0.21899515,1.04041003

>  <Name>
ligand

>  <RI>
0

>  <Rbt.Current_Directory>
/home/itssahil/PROJECTS/Mol_Feturizer/New_Systems/rnas/4LVW

>  <Rbt.Executable>
rbdock ($Id: //depot/dev/client3/rdock/2013.1/src/exe/rbdock.cxx#4 $)

>  <Rbt.Library>
libRbt.so (2013.1, Build901 2013/11/27)

>  <Rbt.Parameter_File>
/export/apps/rDock/src/rDock_2013.1_src/data/scripts/dock_solv.prm

>  <Rbt.Receptor>
prm/blind_docking_60.prm

>  <SCORE>
-13.7617

>  <SCORE.INTER>
-13.8739

>  <SCORE.INTER.CONST>
1

>  <SCORE.INTER.POLAR>
0

>  <SCORE.INTER.ROT>
0

>  <SCORE.INTER.SOLV>
10.2607

>  <SCORE.INTER.VDW>
-16.2695

>  <SCORE.INTER.norm>
-1.26127

>  <SCORE.INTRA>
0

>  <SCORE.INTRA.DIHEDRAL>
0

>  <SCORE.INTRA.DIHEDRAL.0>
0

>  <SCORE.INTRA.POLAR>
0

>  <SCORE.INTRA.POLAR.0>
0

>  <SCORE.INTRA.REPUL>
0

>  <SCORE.INTRA.REPUL.0>
0

>  <SCORE.INTRA.SOLV>
0

>  <SCORE.INTRA.SOLV.lig_0>
-29.307

>  <SCORE.INTRA.VDW>
0

>  <SCORE.INTRA.VDW.0>
0

>  <SCORE.INTRA.norm>
0

>  <SCORE.RESTR>
0.112201

>  <SCORE.RESTR.CAVITY>
0.112201

>  <SCORE.RESTR.norm>
0.0102001

>  <SCORE.SYSTEM>
0

>  <SCORE.SYSTEM.CONST>
0

>  <SCORE.SYSTEM.DIHEDRAL>
0

>  <SCORE.SYSTEM.SOLV>
0

>  <SCORE.SYSTEM.norm>
0

>  <SCORE.heavy>
11

>  <SCORE.norm>
-1.25107

>  <RMSD>
11.620

$$$$
ligand
 OpenBabel11021811503D
libRbt.so/2013.1/901 2013/11/27
 11 12  0  0  0  0  0  0  0  0999 V2000
   -2.4676  -29.1569   28.2492 N   0  0  0  0  0  0  0  0  0  0  0  0
   -1.6922  -29.5533   27.2245 C   0  0  0  0  0  0  0  0  0  0  0  0
   -0.3070  -29.2100   27.1936 N   0  0  0  0  0  0  0  0  0  0  0  0
   -2.1722  -30.2799   26.2109 N   0  0  0  0  0  0  0  0  0  0  0  0
   -3.4973  -30.6405   26.1623 C   0  0  0  0  0  0  0  0  0  0  0  0
   -4.3241  -30.2541   27.1947 C   0  0  0  0  0  0  0  0  0  0  0  0
   -3.7793  -29.4951   28.2702 C   0  0  0  0  0  0  0  0  0  0  0  0
   -4.5957  -29.0989   29.3060 O   0  0  0  0  0  0  0  0  0  0  0  0
   -5.6222  -30.7724   26.8874 C   0  0  0  0  0  0  0  0  0  0  0  0
   -5.5019  -31.4469   25.6643 C   0  0  0  0  0  0  0  0  0  0  0  0
   -4.2330  -31.3582   25.2460 N   0  0  0  0  0  0  0  0  0  0  0  0
  1  2  1  0  0  0  0
  1  7  1  0  0  0  0
  2  3  1  0  0  0  0
  2  4  2  0  0  0  0
  4  5  1  0  0  0  0
  5  6  2  0  0  0  0
  5 11  1  0  0  0  0
  6  7  1  0  0  0  0
  6  9  1  0  0  0  0
  7  8  2  0  0  0  0
  9 10  2  0  0  0  0
 10 11  1  0  0  0  0
M  END
>  <CHROM.1>
-3.43793119,-30.08065594,27.09937471,0.52396068,0.22065345,1.04467337

>  <Name>
ligand

>  <RI>
0

>  <Rbt.Current_Directory>
/home/itssahil/PROJECTS/Mol_Feturizer/New_Systems/rnas/4LVW

>  <Rbt.Executable>
rbdock ($Id: //depot/dev/client3/rdock/2013.1/src/exe/rbdock.cxx#4 $)

>  <Rbt.Library>
libRbt.so (2013.1, Build901 2013/11/27)

>  <Rbt.Parameter_File>
/export/apps/rDock/src/rDock_2013.1_src/data/scripts/dock_solv.prm

>  <Rbt.Receptor>
prm/blind_docking_60.prm

>  <SCORE>
-13.7102

>  <SCORE.INTER>
-13.8117

>  <SCORE.INTER.CONST>
1

>  <SCORE.INTER.POLAR>
0

>  <SCORE.INTER.ROT>
0

>  <SCORE.INTER.SOLV>
10.2832

>  <SCORE.INTER.VDW>
-16.2356

>  <SCORE.INTER.norm>
-1.25561

>  <SCORE.INTRA>
0

>  <SCORE.INTRA.DIHEDRAL>
0

>  <SCORE.INTRA.DIHEDRAL.0>
0

>  <SCORE.INTRA.POLAR>
0

>  <SCORE.INTRA.POLAR.0>
0

>  <SCORE.INTRA.REPUL>
0

>  <SCORE.INTRA.REPUL.0>
0

>  <SCORE.INTRA.SOLV>
0

>  <SCORE.INTRA.SOLV.lig_0>
-29.307

>  <SCORE.INTRA.VDW>
0

>  <SCORE.INTRA.VDW.0>
0

>  <SCORE.INTRA.norm>
0

>  <SCORE.RESTR>
0.101566

>  <SCORE.RESTR.CAVITY>
0.101566

>  <SCORE.RESTR.norm>
0.00923323

>  <SCORE.SYSTEM>
0

>  <SCORE.SYSTEM.CONST>
0

>  <SCORE.SYSTEM.DIHEDRAL>
0

>  <SCORE.SYSTEM.SOLV>
0

>  <SCORE.SYSTEM.norm>
0

>  <SCORE.heavy>
11

>  <SCORE.norm>
-1.24638

>  <RMSD>
11.620

$$$$
ligand
 OpenBabel11021811503D
libRbt.so/2013.1/901 2013/11/27
 11 12  0  0  0  0  0  0  0  0999 V2000
   -2.4946  -29.1540   28.1846 N   0  0  0  0  0  0  0  0  0  0  0  0
   -1.7091  -29.5592   27.1711 C   0  0  0  0  0  0  0  0  0  0  0  0
   -0.3259  -29.2079   27.1460 N   0  0  0  0  0  0  0  0  0  0  0  0
   -2.1769  -30.3023   26.1638 N   0  0  0  0  0  0  0  0  0  0  0  0
   -3.4995  -30.6716   26.1100 C   0  0  0  0  0  0  0  0  0  0  0  0
   -4.3364  -30.2766   27.1309 C   0  0  0  0  0  0  0  0  0  0  0  0
   -3.8044  -29.4999   28.2003 C   0  0  0  0  0  0  0  0  0  0  0  0
   -4.6310  -29.0949   29.2245 O   0  0  0  0  0  0  0  0  0  0  0  0
   -5.6290  -30.8069   26.8208 C   0  0  0  0  0  0  0  0  0  0  0  0
   -5.4953  -31.4968   25.6079 C   0  0  0  0  0  0  0  0  0  0  0  0
   -4.2238  -31.4060   25.1979 N   0  0  0  0  0  0  0  0  0  0  0  0
  1  2  1  0  0  0  0
  1  7  1  0  0  0  0
  2  3  1  0  0  0  0
  2  4  2  0  0  0  0
  4  5  1  0  0  0  0
  5  6  2  0  0  0  0
  5 11  1  0  0  0  0
  6  7  1  0  0  0  0
  6  9  1  0  0  0  0
  7  8  2  0  0  0  0
  9 10  2  0  0  0  0
 10 11  1  0  0  0  0
M  END
>  <CHROM.1>
-3.45061541,-30.09895413,27.03994353,0.53381264,0.22204821,1.02913488

>  <Name>
ligand

>  <RI>
0

>  <Rbt.Current_Directory>
/home/itssahil/PROJECTS/Mol_Feturizer/New_Systems/rnas/4LVW

>  <Rbt.Executable>
rbdock ($Id: //depot/dev/client3/rdock/2013.1/src/exe/rbdock.cxx#4 $)

>  <Rbt.Library>
libRbt.so (2013.1, Build901 2013/11/27)

>  <Rbt.Parameter_File>
/export/apps/rDock/src/rDock_2013.1_src/data/scripts/dock_solv.prm

>  <Rbt.Receptor>
prm/blind_docking_100.prm

>  <SCORE>
-13.6291

>  <SCORE.INTER>
-13.6997

>  <SCORE.INTER.CONST>
1

>  <SCORE.INTER.POLAR>
0

>  <SCORE.INTER.ROT>
0

>  <SCORE.INTER.SOLV>
10.2286

>  <SCORE.INTER.VDW>
-16.1427

>  <SCORE.INTER.norm>
-1.24543

>  <SCORE.INTRA>
0

>  <SCORE.INTRA.DIHEDRAL>
0

>  <SCORE.INTRA.DIHEDRAL.0>
0

>  <SCORE.INTRA.POLAR>
0

>  <SCORE.INTRA.POLAR.0>
0

>  <SCORE.INTRA.REPUL>
0

>  <SCORE.INTRA.REPUL.0>
0

>  <SCORE.INTRA.SOLV>
0

>  <SCORE.INTRA.SOLV.lig_0>
-29.307

>  <SCORE.INTRA.VDW>
0

>  <SCORE.INTRA.VDW.0>
0

>  <SCORE.INTRA.norm>
0

>  <SCORE.RESTR>
0.0706519

>  <SCORE.RESTR.CAVITY>
0.0706519

>  <SCORE.RESTR.norm>
0.0064229

>  <SCORE.SYSTEM>
0

>  <SCORE.SYSTEM.CONST>
0

>  <SCORE.SYSTEM.DIHEDRAL>
0

>  <SCORE.SYSTEM.SOLV>
0

>  <SCORE.SYSTEM.norm>
0

>  <SCORE.heavy>
11

>  <SCORE.norm>
-1.23901

>  <RMSD>
11.631

$$$$
ligand
 OpenBabel11021811503D
libRbt.so/2013.1/901 2013/11/27
 11 12  0  0  0  0  0  0  0  0999 V2000
    2.0728  -25.8355   15.1829 N   0  0  0  0  0  0  0  0  0  0  0  0
    1.0018  -26.6122   15.4234 C   0  0  0  0  0  0  0  0  0  0  0  0
   -0.3072  -26.1641   15.0726 N   0  0  0  0  0  0  0  0  0  0  0  0
    1.1125  -27.8201   15.9842 N   0  0  0  0  0  0  0  0  0  0  0  0
    2.3370  -28.3173   16.3610 C   0  0  0  0  0  0  0  0  0  0  0  0
    3.4590  -27.5513   16.1300 C   0  0  0  0  0  0  0  0  0  0  0  0
    3.3107  -26.2751   15.5143 C   0  0  0  0  0  0  0  0  0  0  0  0
    4.4235  -25.4979   15.2820 O   0  0  0  0  0  0  0  0  0  0  0  0
    4.5728  -28.3145   16.6045 C   0  0  0  0  0  0  0  0  0  0  0  0
    4.0483  -29.5131   17.1078 C   0  0  0  0  0  0  0  0  0  0  0  0
    2.7180  -29.4987   16.9567 N   0  0  0  0  0  0  0  0  0  0  0  0
  1  2  1  0  0  0  0
  1  7  1  0  0  0  0
  2  3  1  0  0  0  0
  2  4  2  0  0  0  0
  4  5  1  0  0  0  0
  5  6  2  0  0  0  0
  5 11  1  0  0  0  0
  6  7  1  0  0  0  0
  6  9  1  0  0  0  0
  7  8  2  0  0  0  0
  9 10  2  0  0  0  0
 10 11  1  0  0  0  0
M  END
>  <CHROM.1>
2.59638368,-27.34343128,15.93728703,-2.32111437,0.09971301,2.70665562

>  <Name>
ligand

>  <RI>
0

>  <Rbt.Current_Directory>
/home/itssahil/PROJECTS/Mol_Feturizer/New_Systems/rnas/4LVW

>  <Rbt.Executable>
rbdock ($Id: //depot/dev/client3/rdock/2013.1/src/exe/rbdock.cxx#4 $)

>  <Rbt.Library>
libRbt.so (2013.1, Build901 2013/11/27)

>  <Rbt.Parameter_File>
/export/apps/rDock/src/rDock_2013.1_src/data/scripts/dock_solv.prm

>  <Rbt.Receptor>
prm/blind_docking_40.prm

>  <SCORE>
-6.7507

>  <SCORE.INTER>
-6.7507

>  <SCORE.INTER.CONST>
1

>  <SCORE.INTER.POLAR>
0

>  <SCORE.INTER.ROT>
0

>  <SCORE.INTER.SOLV>
11.2162

>  <SCORE.INTER.VDW>
-11.8392

>  <SCORE.INTER.norm>
-0.6137

>  <SCORE.INTRA>
0

>  <SCORE.INTRA.DIHEDRAL>
0

>  <SCORE.INTRA.DIHEDRAL.0>
0

>  <SCORE.INTRA.POLAR>
0

>  <SCORE.INTRA.POLAR.0>
0

>  <SCORE.INTRA.REPUL>
0

>  <SCORE.INTRA.REPUL.0>
0

>  <SCORE.INTRA.SOLV>
0

>  <SCORE.INTRA.SOLV.lig_0>
-29.307

>  <SCORE.INTRA.VDW>
0

>  <SCORE.INTRA.VDW.0>
0

>  <SCORE.INTRA.norm>
0

>  <SCORE.RESTR>
0

>  <SCORE.RESTR.CAVITY>
0

>  <SCORE.RESTR.norm>
0

>  <SCORE.SYSTEM>
0

>  <SCORE.SYSTEM.CONST>
0

>  <SCORE.SYSTEM.DIHEDRAL>
0

>  <SCORE.SYSTEM.SOLV>
0

>  <SCORE.SYSTEM.norm>
0

>  <SCORE.heavy>
11

>  <SCORE.norm>
-0.6137

>  <RMSD>
11.632

$$$$
ligand
 OpenBabel11021811503D
libRbt.so/2013.1/901 2013/11/27
 11 12  0  0  0  0  0  0  0  0999 V2000
   -2.4856  -29.1656   28.1879 N   0  0  0  0  0  0  0  0  0  0  0  0
   -1.7045  -29.5676   27.1698 C   0  0  0  0  0  0  0  0  0  0  0  0
   -0.3213  -29.2165   27.1400 N   0  0  0  0  0  0  0  0  0  0  0  0
   -2.1768  -30.3073   26.1620 N   0  0  0  0  0  0  0  0  0  0  0  0
   -3.4996  -30.6762   26.1126 C   0  0  0  0  0  0  0  0  0  0  0  0
   -4.3321  -30.2844   27.1384 C   0  0  0  0  0  0  0  0  0  0  0  0
   -3.7954  -29.5113   28.2080 C   0  0  0  0  0  0  0  0  0  0  0  0
   -4.6176  -29.1096   29.2371 O   0  0  0  0  0  0  0  0  0  0  0  0
   -5.6261  -30.8135   26.8320 C   0  0  0  0  0  0  0  0  0  0  0  0
   -5.4977  -31.4994   25.6163 C   0  0  0  0  0  0  0  0  0  0  0  0
   -4.2279  -31.4075   25.2012 N   0  0  0  0  0  0  0  0  0  0  0  0
  1  2  1  0  0  0  0
  1  7  1  0  0  0  0
  2  3  1  0  0  0  0
  2  4  2  0  0  0  0
  4  5  1  0  0  0  0
  5  6  2  0  0  0  0
  5 11  1  0  0  0  0
  6  7  1  0  0  0  0
  6  9  1  0  0  0  0
  7  8  2  0  0  0  0
  9 10  2  0  0  0  0
 10 11  1  0  0  0  0
M  END
>  <CHROM.1>
-3.44666106,-30.10664232,27.04425697,0.52998209,0.22407679,1.03328290

>  <Name>
ligand

>  <RI>
0

>  <Rbt.Current_Directory>
/home/itssahil/PROJECTS/Mol_Feturizer/New_Systems/rnas/4LVW

>  <Rbt.Executable>
rbdock ($Id: //depot/dev/client3/rdock/2013.1/src/exe/rbdock.cxx#4 $)

>  <Rbt.Library>
libRbt.so (2013.1, Build901 2013/11/27)

>  <Rbt.Parameter_File>
/export/apps/rDock/src/rDock_2013.1_src/data/scripts/dock_solv.prm

>  <Rbt.Receptor>
prm/blind_docking_100.prm

>  <SCORE>
-13.6392

>  <SCORE.INTER>
-13.7075

>  <SCORE.INTER.CONST>
1

>  <SCORE.INTER.POLAR>
0

>  <SCORE.INTER.ROT>
0

>  <SCORE.INTER.SOLV>
10.2247

>  <SCORE.INTER.VDW>
-16.1466

>  <SCORE.INTER.norm>
-1.24613

>  <SCORE.INTRA>
0

>  <SCORE.INTRA.DIHEDRAL>
0

>  <SCORE.INTRA.DIHEDRAL.0>
0

>  <SCORE.INTRA.POLAR>
0

>  <SCORE.INTRA.POLAR.0>
0

>  <SCORE.INTRA.REPUL>
0

>  <SCORE.INTRA.REPUL.0>
0

>  <SCORE.INTRA.SOLV>
0

>  <SCORE.INTRA.SOLV.lig_0>
-29.307

>  <SCORE.INTRA.VDW>
0

>  <SCORE.INTRA.VDW.0>
0

>  <SCORE.INTRA.norm>
0

>  <SCORE.RESTR>
0.0683228

>  <SCORE.RESTR.CAVITY>
0.0683228

>  <SCORE.RESTR.norm>
0.00621117

>  <SCORE.SYSTEM>
0

>  <SCORE.SYSTEM.CONST>
0

>  <SCORE.SYSTEM.DIHEDRAL>
0

>  <SCORE.SYSTEM.SOLV>
0

>  <SCORE.SYSTEM.norm>
0

>  <SCORE.heavy>
11

>  <SCORE.norm>
-1.23992

>  <RMSD>
11.636

$$$$
ligand
 OpenBabel11021811503D
libRbt.so/2013.1/901 2013/11/27
 11 12  0  0  0  0  0  0  0  0999 V2000
   -4.1567  -28.8776   29.2857 N   0  0  0  0  0  0  0  0  0  0  0  0
   -5.4100  -29.3511   29.1704 C   0  0  0  0  0  0  0  0  0  0  0  0
   -6.3911  -29.0433   30.1604 N   0  0  0  0  0  0  0  0  0  0  0  0
   -5.7896  -30.1109   28.1386 N   0  0  0  0  0  0  0  0  0  0  0  0
   -4.9005  -30.4607   27.1509 C   0  0  0  0  0  0  0  0  0  0  0  0
   -3.6066  -29.9940   27.2330 C   0  0  0  0  0  0  0  0  0  0  0  0
   -3.2365  -29.1713   28.3357 C   0  0  0  0  0  0  0  0  0  0  0  0
   -1.9455  -28.7020   28.4319 O   0  0  0  0  0  0  0  0  0  0  0  0
   -2.9223  -30.4980   26.0815 C   0  0  0  0  0  0  0  0  0  0  0  0
   -3.8573  -31.2568   25.3637 C   0  0  0  0  0  0  0  0  0  0  0  0
   -5.0278  -31.2256   26.0131 N   0  0  0  0  0  0  0  0  0  0  0  0
  1  2  1  0  0  0  0
  1  7  1  0  0  0  0
  2  3  1  0  0  0  0
  2  4  2  0  0  0  0
  4  5  1  0  0  0  0
  5  6  2  0  0  0  0
  5 11  1  0  0  0  0
  6  7  1  0  0  0  0
  6  9  1  0  0  0  0
  7  8  2  0  0  0  0
  9 10  2  0  0  0  0
 10 11  1  0  0  0  0
M  END
>  <CHROM.1>
-4.28786144,-29.84469067,27.81444935,-1.94222762,-0.26549342,-2.13417380

>  <Name>
ligand

>  <RI>
0

>  <Rbt.Current_Directory>
/home/itssahil/PROJECTS/Mol_Feturizer/New_Systems/rnas/4LVW

>  <Rbt.Executable>
rbdock ($Id: //depot/dev/client3/rdock/2013.1/src/exe/rbdock.cxx#4 $)

>  <Rbt.Library>
libRbt.so (2013.1, Build901 2013/11/27)

>  <Rbt.Parameter_File>
/export/apps/rDock/src/rDock_2013.1_src/data/scripts/dock_solv.prm

>  <Rbt.Receptor>
prm/blind_docking_100.prm

>  <SCORE>
-14.2691

>  <SCORE.INTER>
-14.2691

>  <SCORE.INTER.CONST>
1

>  <SCORE.INTER.POLAR>
0

>  <SCORE.INTER.ROT>
0

>  <SCORE.INTER.SOLV>
7.03982

>  <SCORE.INTER.VDW>
-15.4593

>  <SCORE.INTER.norm>
-1.29719

>  <SCORE.INTRA>
0

>  <SCORE.INTRA.DIHEDRAL>
0

>  <SCORE.INTRA.DIHEDRAL.0>
0

>  <SCORE.INTRA.POLAR>
0

>  <SCORE.INTRA.POLAR.0>
0

>  <SCORE.INTRA.REPUL>
0

>  <SCORE.INTRA.REPUL.0>
0

>  <SCORE.INTRA.SOLV>
0

>  <SCORE.INTRA.SOLV.lig_0>
-29.307

>  <SCORE.INTRA.VDW>
0

>  <SCORE.INTRA.VDW.0>
0

>  <SCORE.INTRA.norm>
0

>  <SCORE.RESTR>
0

>  <SCORE.RESTR.CAVITY>
0

>  <SCORE.RESTR.norm>
0

>  <SCORE.SYSTEM>
0

>  <SCORE.SYSTEM.CONST>
0

>  <SCORE.SYSTEM.DIHEDRAL>
0

>  <SCORE.SYSTEM.SOLV>
0

>  <SCORE.SYSTEM.norm>
0

>  <SCORE.heavy>
11

>  <SCORE.norm>
-1.29719

>  <RMSD>
11.640

$$$$
ligand
 OpenBabel11021811503D
libRbt.so/2013.1/901 2013/11/27
 11 12  0  0  0  0  0  0  0  0999 V2000
   -2.4256  -29.2251   28.2550 N   0  0  0  0  0  0  0  0  0  0  0  0
   -1.6569  -29.6333   27.2301 C   0  0  0  0  0  0  0  0  0  0  0  0
   -0.2651  -29.3176   27.2022 N   0  0  0  0  0  0  0  0  0  0  0  0
   -2.1497  -30.3468   26.2133 N   0  0  0  0  0  0  0  0  0  0  0  0
   -3.4818  -30.6807   26.1616 C   0  0  0  0  0  0  0  0  0  0  0  0
   -4.3022  -30.2815   27.1942 C   0  0  0  0  0  0  0  0  0  0  0  0
   -3.7439  -29.5371   28.2731 C   0  0  0  0  0  0  0  0  0  0  0  0
   -4.5537  -29.1283   29.3091 O   0  0  0  0  0  0  0  0  0  0  0  0
   -5.6099  -30.7728   26.8833 C   0  0  0  0  0  0  0  0  0  0  0  0
   -5.5012  -31.4453   25.6581 C   0  0  0  0  0  0  0  0  0  0  0  0
   -4.2302  -31.3806   25.2419 N   0  0  0  0  0  0  0  0  0  0  0  0
  1  2  1  0  0  0  0
  1  7  1  0  0  0  0
  2  3  1  0  0  0  0
  2  4  2  0  0  0  0
  4  5  1  0  0  0  0
  5  6  2  0  0  0  0
  5 11  1  0  0  0  0
  6  7  1  0  0  0  0
  6  9  1  0  0  0  0
  7  8  2  0  0  0  0
  9 10  2  0  0  0  0
 10 11  1  0  0  0  0
M  END
>  <CHROM.1>
-3.41256281,-30.12542669,27.10069881,0.51502347,0.20269124,1.04996725

>  <Name>
ligand

>  <RI>
0

>  <Rbt.Current_Directory>
/home/itssahil/PROJECTS/Mol_Feturizer/New_Systems/rnas/4LVW

>  <Rbt.Executable>
rbdock ($Id: //depot/dev/client3/rdock/2013.1/src/exe/rbdock.cxx#4 $)

>  <Rbt.Library>
libRbt.so (2013.1, Build901 2013/11/27)

>  <Rbt.Parameter_File>
/export/apps/rDock/src/rDock_2013.1_src/data/scripts/dock_solv.prm

>  <Rbt.Receptor>
prm/blind_docking_100.prm

>  <SCORE>
-13.6782

>  <SCORE.INTER>
-13.7797

>  <SCORE.INTER.CONST>
1

>  <SCORE.INTER.POLAR>
0

>  <SCORE.INTER.ROT>
0

>  <SCORE.INTER.SOLV>
10.2425

>  <SCORE.INTER.VDW>
-16.2006

>  <SCORE.INTER.norm>
-1.2527

>  <SCORE.INTRA>
0

>  <SCORE.INTRA.DIHEDRAL>
0

>  <SCORE.INTRA.DIHEDRAL.0>
0

>  <SCORE.INTRA.POLAR>
0

>  <SCORE.INTRA.POLAR.0>
0

>  <SCORE.INTRA.REPUL>
0

>  <SCORE.INTRA.REPUL.0>
0

>  <SCORE.INTRA.SOLV>
0

>  <SCORE.INTRA.SOLV.lig_0>
-29.307

>  <SCORE.INTRA.VDW>
0

>  <SCORE.INTRA.VDW.0>
0

>  <SCORE.INTRA.norm>
0

>  <SCORE.RESTR>
0.101517

>  <SCORE.RESTR.CAVITY>
0.101517

>  <SCORE.RESTR.norm>
0.00922885

>  <SCORE.SYSTEM>
0

>  <SCORE.SYSTEM.CONST>
0

>  <SCORE.SYSTEM.DIHEDRAL>
0

>  <SCORE.SYSTEM.SOLV>
0

>  <SCORE.SYSTEM.norm>
0

>  <SCORE.heavy>
11

>  <SCORE.norm>
-1.24347

>  <RMSD>
11.644

$$$$
ligand
 OpenBabel11021811503D
libRbt.so/2013.1/901 2013/11/27
 11 12  0  0  0  0  0  0  0  0999 V2000
   -2.5280  -29.1735   28.2804 N   0  0  0  0  0  0  0  0  0  0  0  0
   -1.7277  -29.5601   27.2713 C   0  0  0  0  0  0  0  0  0  0  0  0
   -0.3463  -29.2006   27.2684 N   0  0  0  0  0  0  0  0  0  0  0  0
   -2.1786  -30.2916   26.2479 N   0  0  0  0  0  0  0  0  0  0  0  0
   -3.4982  -30.6676   26.1725 C   0  0  0  0  0  0  0  0  0  0  0  0
   -4.3500  -30.2916   27.1883 C   0  0  0  0  0  0  0  0  0  0  0  0
   -3.8359  -29.5270   28.2749 C   0  0  0  0  0  0  0  0  0  0  0  0
   -4.6775  -29.1411   29.2943 O   0  0  0  0  0  0  0  0  0  0  0  0
   -5.6355  -30.8249   26.8547 C   0  0  0  0  0  0  0  0  0  0  0  0
   -5.4827  -31.4971   25.6340 C   0  0  0  0  0  0  0  0  0  0  0  0
   -4.2068  -31.3933   25.2413 N   0  0  0  0  0  0  0  0  0  0  0  0
  1  2  1  0  0  0  0
  1  7  1  0  0  0  0
  2  3  1  0  0  0  0
  2  4  2  0  0  0  0
  4  5  1  0  0  0  0
  5  6  2  0  0  0  0
  5 11  1  0  0  0  0
  6  7  1  0  0  0  0
  6  9  1  0  0  0  0
  7  8  2  0  0  0  0
  9 10  2  0  0  0  0
 10 11  1  0  0  0  0
M  END
>  <CHROM.1>
-3.46420909,-30.10778137,27.11087517,0.54780481,0.22062911,1.04001302

>  <Name>
ligand

>  <RI>
0

>  <Rbt.Current_Directory>
/home/itssahil/PROJECTS/Mol_Feturizer/New_Systems/rnas/4LVW

>  <Rbt.Executable>
rbdock ($Id: //depot/dev/client3/rdock/2013.1/src/exe/rbdock.cxx#4 $)

>  <Rbt.Library>
libRbt.so (2013.1, Build901 2013/11/27)

>  <Rbt.Parameter_File>
/export/apps/rDock/src/rDock_2013.1_src/data/scripts/dock_solv.prm

>  <Rbt.Receptor>
prm/blind_docking_60.prm

>  <SCORE>
-13.5731

>  <SCORE.INTER>
-13.6361

>  <SCORE.INTER.CONST>
1

>  <SCORE.INTER.POLAR>
0

>  <SCORE.INTER.ROT>
0

>  <SCORE.INTER.SOLV>
10.3553

>  <SCORE.INTER.VDW>
-16.1425

>  <SCORE.INTER.norm>
-1.23965

>  <SCORE.INTRA>
0

>  <SCORE.INTRA.DIHEDRAL>
0

>  <SCORE.INTRA.DIHEDRAL.0>
0

>  <SCORE.INTRA.POLAR>
0

>  <SCORE.INTRA.POLAR.0>
0

>  <SCORE.INTRA.REPUL>
0

>  <SCORE.INTRA.REPUL.0>
0

>  <SCORE.INTRA.SOLV>
0

>  <SCORE.INTRA.SOLV.lig_0>
-29.307

>  <SCORE.INTRA.VDW>
0

>  <SCORE.INTRA.VDW.0>
0

>  <SCORE.INTRA.norm>
0

>  <SCORE.RESTR>
0.0630068

>  <SCORE.RESTR.CAVITY>
0.0630068

>  <SCORE.RESTR.norm>
0.00572789

>  <SCORE.SYSTEM>
0

>  <SCORE.SYSTEM.CONST>
0

>  <SCORE.SYSTEM.DIHEDRAL>
0

>  <SCORE.SYSTEM.SOLV>
0

>  <SCORE.SYSTEM.norm>
0

>  <SCORE.heavy>
11

>  <SCORE.norm>
-1.23392

>  <RMSD>
11.654

$$$$
ligand
 OpenBabel11021811503D
libRbt.so/2013.1/901 2013/11/27
 11 12  0  0  0  0  0  0  0  0999 V2000
   -2.5157  -29.1878   28.2963 N   0  0  0  0  0  0  0  0  0  0  0  0
   -1.7270  -29.5837   27.2816 C   0  0  0  0  0  0  0  0  0  0  0  0
   -0.3395  -29.2489   27.2738 N   0  0  0  0  0  0  0  0  0  0  0  0
   -2.1958  -30.3022   26.2569 N   0  0  0  0  0  0  0  0  0  0  0  0
   -3.5222  -30.6542   26.1860 C   0  0  0  0  0  0  0  0  0  0  0  0
   -4.3624  -30.2680   27.2076 C   0  0  0  0  0  0  0  0  0  0  0  0
   -3.8297  -29.5179   28.2953 C   0  0  0  0  0  0  0  0  0  0  0  0
   -4.6594  -29.1219   29.3205 O   0  0  0  0  0  0  0  0  0  0  0  0
   -5.6588  -30.7766   26.8776 C   0  0  0  0  0  0  0  0  0  0  0  0
   -5.5237  -31.4455   25.6531 C   0  0  0  0  0  0  0  0  0  0  0  0
   -4.2480  -31.3627   25.2548 N   0  0  0  0  0  0  0  0  0  0  0  0
  1  2  1  0  0  0  0
  1  7  1  0  0  0  0
  2  3  1  0  0  0  0
  2  4  2  0  0  0  0
  4  5  1  0  0  0  0
  5  6  2  0  0  0  0
  5 11  1  0  0  0  0
  6  7  1  0  0  0  0
  6  9  1  0  0  0  0
  7  8  2  0  0  0  0
  9 10  2  0  0  0  0
 10 11  1  0  0  0  0
M  END
>  <CHROM.1>
-3.47383313,-30.09958170,27.12681164,0.53444268,0.20757835,1.04761131

>  <Name>
ligand

>  <RI>
0

>  <Rbt.Current_Directory>
/home/itssahil/PROJECTS/Mol_Feturizer/New_Systems/rnas/4LVW

>  <Rbt.Executable>
rbdock ($Id: //depot/dev/client3/rdock/2013.1/src/exe/rbdock.cxx#4 $)

>  <Rbt.Library>
libRbt.so (2013.1, Build901 2013/11/27)

>  <Rbt.Parameter_File>
/export/apps/rDock/src/rDock_2013.1_src/data/scripts/dock_solv.prm

>  <Rbt.Receptor>
prm/blind_docking_80.prm

>  <SCORE>
-13.7887

>  <SCORE.INTER>
-13.9031

>  <SCORE.INTER.CONST>
1

>  <SCORE.INTER.POLAR>
0

>  <SCORE.INTER.ROT>
0

>  <SCORE.INTER.SOLV>
10.3111

>  <SCORE.INTER.VDW>
-16.3057

>  <SCORE.INTER.norm>
-1.26392

>  <SCORE.INTRA>
0

>  <SCORE.INTRA.DIHEDRAL>
0

>  <SCORE.INTRA.DIHEDRAL.0>
0

>  <SCORE.INTRA.POLAR>
0

>  <SCORE.INTRA.POLAR.0>
0

>  <SCORE.INTRA.REPUL>
0

>  <SCORE.INTRA.REPUL.0>
0

>  <SCORE.INTRA.SOLV>
0

>  <SCORE.INTRA.SOLV.lig_0>
-29.307

>  <SCORE.INTRA.VDW>
0

>  <SCORE.INTRA.VDW.0>
0

>  <SCORE.INTRA.norm>
0

>  <SCORE.RESTR>
0.114337

>  <SCORE.RESTR.CAVITY>
0.114337

>  <SCORE.RESTR.norm>
0.0103943

>  <SCORE.SYSTEM>
0

>  <SCORE.SYSTEM.CONST>
0

>  <SCORE.SYSTEM.DIHEDRAL>
0

>  <SCORE.SYSTEM.SOLV>
0

>  <SCORE.SYSTEM.norm>
0

>  <SCORE.heavy>
11

>  <SCORE.norm>
-1.25352

>  <RMSD>
11.655

$$$$
ligand
 OpenBabel11021811503D
libRbt.so/2013.1/901 2013/11/27
 11 12  0  0  0  0  0  0  0  0999 V2000
   -2.5250  -29.1880   28.2613 N   0  0  0  0  0  0  0  0  0  0  0  0
   -1.7300  -29.5764   27.2486 C   0  0  0  0  0  0  0  0  0  0  0  0
   -0.3475  -29.2215   27.2403 N   0  0  0  0  0  0  0  0  0  0  0  0
   -2.1876  -30.3057   26.2266 N   0  0  0  0  0  0  0  0  0  0  0  0
   -3.5087  -30.6773   26.1563 C   0  0  0  0  0  0  0  0  0  0  0  0
   -4.3551  -30.2993   27.1758 C   0  0  0  0  0  0  0  0  0  0  0  0
   -3.8340  -29.5372   28.2609 C   0  0  0  0  0  0  0  0  0  0  0  0
   -4.6702  -29.1493   29.2840 O   0  0  0  0  0  0  0  0  0  0  0  0
   -5.6437  -30.8281   26.8471 C   0  0  0  0  0  0  0  0  0  0  0  0
   -5.4982  -31.4998   25.6253 C   0  0  0  0  0  0  0  0  0  0  0  0
   -4.2235  -31.4000   25.2275 N   0  0  0  0  0  0  0  0  0  0  0  0
  1  2  1  0  0  0  0
  1  7  1  0  0  0  0
  2  3  1  0  0  0  0
  2  4  2  0  0  0  0
  4  5  1  0  0  0  0
  5  6  2  0  0  0  0
  5 11  1  0  0  0  0
  6  7  1  0  0  0  0
  6  9  1  0  0  0  0
  7  8  2  0  0  0  0
  9 10  2  0  0  0  0
 10 11  1  0  0  0  0
M  END
>  <CHROM.1>
-3.46902826,-30.11831406,27.09490372,0.54247669,0.21985880,1.04193235

>  <Name>
ligand

>  <RI>
0

>  <Rbt.Current_Directory>
/home/itssahil/PROJECTS/Mol_Feturizer/New_Systems/rnas/4LVW

>  <Rbt.Executable>
rbdock ($Id: //depot/dev/client3/rdock/2013.1/src/exe/rbdock.cxx#4 $)

>  <Rbt.Library>
libRbt.so (2013.1, Build901 2013/11/27)

>  <Rbt.Parameter_File>
/export/apps/rDock/src/rDock_2013.1_src/data/scripts/dock_solv.prm

>  <Rbt.Receptor>
prm/blind_docking_100.prm

>  <SCORE>
-13.5929

>  <SCORE.INTER>
-13.6557

>  <SCORE.INTER.CONST>
1

>  <SCORE.INTER.POLAR>
0

>  <SCORE.INTER.ROT>
0

>  <SCORE.INTER.SOLV>
10.2875

>  <SCORE.INTER.VDW>
-16.1329

>  <SCORE.INTER.norm>
-1.24143

>  <SCORE.INTRA>
0

>  <SCORE.INTRA.DIHEDRAL>
0

>  <SCORE.INTRA.DIHEDRAL.0>
0

>  <SCORE.INTRA.POLAR>
0

>  <SCORE.INTRA.POLAR.0>
0

>  <SCORE.INTRA.REPUL>
0

>  <SCORE.INTRA.REPUL.0>
0

>  <SCORE.INTRA.SOLV>
0

>  <SCORE.INTRA.SOLV.lig_0>
-29.307

>  <SCORE.INTRA.VDW>
0

>  <SCORE.INTRA.VDW.0>
0

>  <SCORE.INTRA.norm>
0

>  <SCORE.RESTR>
0.0627916

>  <SCORE.RESTR.CAVITY>
0.0627916

>  <SCORE.RESTR.norm>
0.00570832

>  <SCORE.SYSTEM>
0

>  <SCORE.SYSTEM.CONST>
0

>  <SCORE.SYSTEM.DIHEDRAL>
0

>  <SCORE.SYSTEM.SOLV>
0

>  <SCORE.SYSTEM.norm>
0

>  <SCORE.heavy>
11

>  <SCORE.norm>
-1.23572

>  <RMSD>
11.662

$$$$
ligand
 OpenBabel11021811503D
libRbt.so/2013.1/901 2013/11/27
 11 12  0  0  0  0  0  0  0  0999 V2000
   -2.5233  -29.1969   28.2710 N   0  0  0  0  0  0  0  0  0  0  0  0
   -1.7265  -29.5921   27.2625 C   0  0  0  0  0  0  0  0  0  0  0  0
   -0.3416  -29.2467   27.2599 N   0  0  0  0  0  0  0  0  0  0  0  0
   -2.1844  -30.3196   26.2393 N   0  0  0  0  0  0  0  0  0  0  0  0
   -3.5078  -30.6823   26.1636 C   0  0  0  0  0  0  0  0  0  0  0  0
   -4.3562  -30.2971   27.1788 C   0  0  0  0  0  0  0  0  0  0  0  0
   -3.8347  -29.5371   28.2652 C   0  0  0  0  0  0  0  0  0  0  0  0
   -4.6728  -29.1421   29.2840 O   0  0  0  0  0  0  0  0  0  0  0  0
   -5.6469  -30.8175   26.8449 C   0  0  0  0  0  0  0  0  0  0  0  0
   -5.5004  -31.4919   25.6247 C   0  0  0  0  0  0  0  0  0  0  0  0
   -4.2234  -31.4013   25.2325 N   0  0  0  0  0  0  0  0  0  0  0  0
  1  2  1  0  0  0  0
  1  7  1  0  0  0  0
  2  3  1  0  0  0  0
  2  4  2  0  0  0  0
  4  5  1  0  0  0  0
  5  6  2  0  0  0  0
  5 11  1  0  0  0  0
  6  7  1  0  0  0  0
  6  9  1  0  0  0  0
  7  8  2  0  0  0  0
  9 10  2  0  0  0  0
 10 11  1  0  0  0  0
M  END
>  <CHROM.1>
-3.46848169,-30.12228799,27.10162508,0.54290673,0.21166933,1.04049890

>  <Name>
ligand

>  <RI>
0

>  <Rbt.Current_Directory>
/home/itssahil/PROJECTS/Mol_Feturizer/New_Systems/rnas/4LVW

>  <Rbt.Executable>
rbdock ($Id: //depot/dev/client3/rdock/2013.1/src/exe/rbdock.cxx#4 $)

>  <Rbt.Library>
libRbt.so (2013.1, Build901 2013/11/27)

>  <Rbt.Parameter_File>
/export/apps/rDock/src/rDock_2013.1_src/data/scripts/dock_solv.prm

>  <Rbt.Receptor>
prm/blind_docking_80.prm

>  <SCORE>
-13.6031

>  <SCORE.INTER>
-13.6727

>  <SCORE.INTER.CONST>
1

>  <SCORE.INTER.POLAR>
0

>  <SCORE.INTER.ROT>
0

>  <SCORE.INTER.SOLV>
10.2906

>  <SCORE.INTER.VDW>
-16.1453

>  <SCORE.INTER.norm>
-1.24297

>  <SCORE.INTRA>
0

>  <SCORE.INTRA.DIHEDRAL>
0

>  <SCORE.INTRA.DIHEDRAL.0>
0

>  <SCORE.INTRA.POLAR>
0

>  <SCORE.INTRA.POLAR.0>
0

>  <SCORE.INTRA.REPUL>
0

>  <SCORE.INTRA.REPUL.0>
0

>  <SCORE.INTRA.SOLV>
0

>  <SCORE.INTRA.SOLV.lig_0>
-29.307

>  <SCORE.INTRA.VDW>
0

>  <SCORE.INTRA.VDW.0>
0

>  <SCORE.INTRA.norm>
0

>  <SCORE.RESTR>
0.0696352

>  <SCORE.RESTR.CAVITY>
0.0696352

>  <SCORE.RESTR.norm>
0.00633048

>  <SCORE.SYSTEM>
0

>  <SCORE.SYSTEM.CONST>
0

>  <SCORE.SYSTEM.DIHEDRAL>
0

>  <SCORE.SYSTEM.SOLV>
0

>  <SCORE.SYSTEM.norm>
0

>  <SCORE.heavy>
11

>  <SCORE.norm>
-1.23664

>  <RMSD>
11.666

$$$$
ligand
 OpenBabel11021811503D
libRbt.so/2013.1/901 2013/11/27
 11 12  0  0  0  0  0  0  0  0999 V2000
   -4.3304  -28.9524   29.2221 N   0  0  0  0  0  0  0  0  0  0  0  0
   -5.5809  -29.4206   29.0622 C   0  0  0  0  0  0  0  0  0  0  0  0
   -6.5922  -29.1186   30.0231 N   0  0  0  0  0  0  0  0  0  0  0  0
   -5.9295  -30.1696   28.0118 N   0  0  0  0  0  0  0  0  0  0  0  0
   -5.0103  -30.5132   27.0499 C   0  0  0  0  0  0  0  0  0  0  0  0
   -3.7182  -30.0517   27.1777 C   0  0  0  0  0  0  0  0  0  0  0  0
   -3.3812  -29.2405   28.2994 C   0  0  0  0  0  0  0  0  0  0  0  0
   -2.0925  -28.7763   28.4413 O   0  0  0  0  0  0  0  0  0  0  0  0
   -2.9989  -30.5474   26.0441 C   0  0  0  0  0  0  0  0  0  0  0  0
   -3.9126  -31.2964   25.2897 C   0  0  0  0  0  0  0  0  0  0  0  0
   -5.1033  -31.2672   25.9015 N   0  0  0  0  0  0  0  0  0  0  0  0
  1  2  1  0  0  0  0
  1  7  1  0  0  0  0
  2  3  1  0  0  0  0
  2  4  2  0  0  0  0
  4  5  1  0  0  0  0
  5  6  2  0  0  0  0
  5 11  1  0  0  0  0
  6  7  1  0  0  0  0
  6  9  1  0  0  0  0
  7  8  2  0  0  0  0
  9 10  2  0  0  0  0
 10 11  1  0  0  0  0
M  END
>  <CHROM.1>
-4.41729079,-29.90544845,27.73842728,-1.96849951,-0.24567848,-2.13155229

>  <Name>
ligand

>  <RI>
0

>  <Rbt.Current_Directory>
/home/itssahil/PROJECTS/Mol_Feturizer/New_Systems/rnas/4LVW

>  <Rbt.Executable>
rbdock ($Id: //depot/dev/client3/rdock/2013.1/src/exe/rbdock.cxx#4 $)

>  <Rbt.Library>
libRbt.so (2013.1, Build901 2013/11/27)

>  <Rbt.Parameter_File>
/export/apps/rDock/src/rDock_2013.1_src/data/scripts/dock_solv.prm

>  <Rbt.Receptor>
prm/blind_docking_60.prm

>  <SCORE>
-14.3456

>  <SCORE.INTER>
-14.3456

>  <SCORE.INTER.CONST>
1

>  <SCORE.INTER.POLAR>
0

>  <SCORE.INTER.ROT>
0

>  <SCORE.INTER.SOLV>
7.11542

>  <SCORE.INTER.VDW>
-15.5355

>  <SCORE.INTER.norm>
-1.30414

>  <SCORE.INTRA>
0

>  <SCORE.INTRA.DIHEDRAL>
0

>  <SCORE.INTRA.DIHEDRAL.0>
0

>  <SCORE.INTRA.POLAR>
0

>  <SCORE.INTRA.POLAR.0>
0

>  <SCORE.INTRA.REPUL>
0

>  <SCORE.INTRA.REPUL.0>
0

>  <SCORE.INTRA.SOLV>
0

>  <SCORE.INTRA.SOLV.lig_0>
-29.307

>  <SCORE.INTRA.VDW>
0

>  <SCORE.INTRA.VDW.0>
0

>  <SCORE.INTRA.norm>
0

>  <SCORE.RESTR>
0

>  <SCORE.RESTR.CAVITY>
0

>  <SCORE.RESTR.norm>
0

>  <SCORE.SYSTEM>
0

>  <SCORE.SYSTEM.CONST>
0

>  <SCORE.SYSTEM.DIHEDRAL>
0

>  <SCORE.SYSTEM.SOLV>
0

>  <SCORE.SYSTEM.norm>
0

>  <SCORE.heavy>
11

>  <SCORE.norm>
-1.30414

>  <RMSD>
11.733

$$$$
ligand
 OpenBabel11021811503D
libRbt.so/2013.1/901 2013/11/27
 11 12  0  0  0  0  0  0  0  0999 V2000
   -4.3282  -28.9475   29.2142 N   0  0  0  0  0  0  0  0  0  0  0  0
   -5.5786  -29.4173   29.0590 C   0  0  0  0  0  0  0  0  0  0  0  0
   -6.5877  -29.1134   30.0216 N   0  0  0  0  0  0  0  0  0  0  0  0
   -5.9293  -30.1697   28.0117 N   0  0  0  0  0  0  0  0  0  0  0  0
   -5.0123  -30.5154   27.0484 C   0  0  0  0  0  0  0  0  0  0  0  0
   -3.7203  -30.0523   27.1715 C   0  0  0  0  0  0  0  0  0  0  0  0
   -3.3811  -29.2374   28.2898 C   0  0  0  0  0  0  0  0  0  0  0  0
   -2.0924  -28.7717   28.4270 O   0  0  0  0  0  0  0  0  0  0  0  0
   -3.0035  -30.5508   26.0375 C   0  0  0  0  0  0  0  0  0  0  0  0
   -3.9185  -31.3029   25.2877 C   0  0  0  0  0  0  0  0  0  0  0  0
   -5.1076  -31.2730   25.9026 N   0  0  0  0  0  0  0  0  0  0  0  0
  1  2  1  0  0  0  0
  1  7  1  0  0  0  0
  2  3  1  0  0  0  0
  2  4  2  0  0  0  0
  4  5  1  0  0  0  0
  5  6  2  0  0  0  0
  5 11  1  0  0  0  0
  6  7  1  0  0  0  0
  6  9  1  0  0  0  0
  7  8  2  0  0  0  0
  9 10  2  0  0  0  0
 10 11  1  0  0  0  0
M  END
>  <CHROM.1>
-4.41805391,-29.90505771,27.73359494,-1.96672213,-0.24785426,-2.13410921

>  <Name>
ligand

>  <RI>
0

>  <Rbt.Current_Directory>
/home/itssahil/PROJECTS/Mol_Feturizer/New_Systems/rnas/4LVW

>  <Rbt.Executable>
rbdock ($Id: //depot/dev/client3/rdock/2013.1/src/exe/rbdock.cxx#4 $)

>  <Rbt.Library>
libRbt.so (2013.1, Build901 2013/11/27)

>  <Rbt.Parameter_File>
/export/apps/rDock/src/rDock_2013.1_src/data/scripts/dock_solv.prm

>  <Rbt.Receptor>
prm/blind_docking_80.prm

>  <SCORE>
-14.3455

>  <SCORE.INTER>
-14.3455

>  <SCORE.INTER.CONST>
1

>  <SCORE.INTER.POLAR>
0

>  <SCORE.INTER.ROT>
0

>  <SCORE.INTER.SOLV>
7.11021

>  <SCORE.INTER.VDW>
-15.5338

>  <SCORE.INTER.norm>
-1.30414

>  <SCORE.INTRA>
0

>  <SCORE.INTRA.DIHEDRAL>
0

>  <SCORE.INTRA.DIHEDRAL.0>
0

>  <SCORE.INTRA.POLAR>
0

>  <SCORE.INTRA.POLAR.0>
0

>  <SCORE.INTRA.REPUL>
0

>  <SCORE.INTRA.REPUL.0>
0

>  <SCORE.INTRA.SOLV>
0

>  <SCORE.INTRA.SOLV.lig_0>
-29.307

>  <SCORE.INTRA.VDW>
0

>  <SCORE.INTRA.VDW.0>
0

>  <SCORE.INTRA.norm>
0

>  <SCORE.RESTR>
0

>  <SCORE.RESTR.CAVITY>
0

>  <SCORE.RESTR.norm>
0

>  <SCORE.SYSTEM>
0

>  <SCORE.SYSTEM.CONST>
0

>  <SCORE.SYSTEM.DIHEDRAL>
0

>  <SCORE.SYSTEM.SOLV>
0

>  <SCORE.SYSTEM.norm>
0

>  <SCORE.heavy>
11

>  <SCORE.norm>
-1.30414

>  <RMSD>
11.733

$$$$
ligand
 OpenBabel11021811503D
libRbt.so/2013.1/901 2013/11/27
 11 12  0  0  0  0  0  0  0  0999 V2000
   -4.3263  -28.9441   29.2002 N   0  0  0  0  0  0  0  0  0  0  0  0
   -5.5770  -29.4141   29.0479 C   0  0  0  0  0  0  0  0  0  0  0  0
   -6.5853  -29.1056   30.0100 N   0  0  0  0  0  0  0  0  0  0  0  0
   -5.9287  -30.1709   28.0042 N   0  0  0  0  0  0  0  0  0  0  0  0
   -5.0125  -30.5211   27.0417 C   0  0  0  0  0  0  0  0  0  0  0  0
   -3.7203  -30.0579   27.1619 C   0  0  0  0  0  0  0  0  0  0  0  0
   -3.3799  -29.2384   28.2764 C   0  0  0  0  0  0  0  0  0  0  0  0
   -2.0910  -28.7726   28.4107 O   0  0  0  0  0  0  0  0  0  0  0  0
   -3.0045  -30.5615   26.0295 C   0  0  0  0  0  0  0  0  0  0  0  0
   -3.9203  -31.3165   25.2836 C   0  0  0  0  0  0  0  0  0  0  0  0
   -5.1090  -31.2835   25.8992 N   0  0  0  0  0  0  0  0  0  0  0  0
  1  2  1  0  0  0  0
  1  7  1  0  0  0  0
  2  3  1  0  0  0  0
  2  4  2  0  0  0  0
  4  5  1  0  0  0  0
  5  6  2  0  0  0  0
  5 11  1  0  0  0  0
  6  7  1  0  0  0  0
  6  9  1  0  0  0  0
  7  8  2  0  0  0  0
  9 10  2  0  0  0  0
 10 11  1  0  0  0  0
M  END
>  <CHROM.1>
-4.41757697,-29.90799185,27.72382104,-1.96588533,-0.24790656,-2.13820270

>  <Name>
ligand

>  <RI>
0

>  <Rbt.Current_Directory>
/home/itssahil/PROJECTS/Mol_Feturizer/New_Systems/rnas/4LVW

>  <Rbt.Executable>
rbdock ($Id: //depot/dev/client3/rdock/2013.1/src/exe/rbdock.cxx#4 $)

>  <Rbt.Library>
libRbt.so (2013.1, Build901 2013/11/27)

>  <Rbt.Parameter_File>
/export/apps/rDock/src/rDock_2013.1_src/data/scripts/dock_solv.prm

>  <Rbt.Receptor>
prm/blind_docking_100.prm

>  <SCORE>
-14.3735

>  <SCORE.INTER>
-14.3735

>  <SCORE.INTER.CONST>
1

>  <SCORE.INTER.POLAR>
0

>  <SCORE.INTER.ROT>
0

>  <SCORE.INTER.SOLV>
7.11595

>  <SCORE.INTER.VDW>
-15.5543

>  <SCORE.INTER.norm>
-1.30668

>  <SCORE.INTRA>
0

>  <SCORE.INTRA.DIHEDRAL>
0

>  <SCORE.INTRA.DIHEDRAL.0>
0

>  <SCORE.INTRA.POLAR>
0

>  <SCORE.INTRA.POLAR.0>
0

>  <SCORE.INTRA.REPUL>
0

>  <SCORE.INTRA.REPUL.0>
0

>  <SCORE.INTRA.SOLV>
0

>  <SCORE.INTRA.SOLV.lig_0>
-29.307

>  <SCORE.INTRA.VDW>
0

>  <SCORE.INTRA.VDW.0>
0

>  <SCORE.INTRA.norm>
0

>  <SCORE.RESTR>
0

>  <SCORE.RESTR.CAVITY>
0

>  <SCORE.RESTR.norm>
0

>  <SCORE.SYSTEM>
0

>  <SCORE.SYSTEM.CONST>
0

>  <SCORE.SYSTEM.DIHEDRAL>
0

>  <SCORE.SYSTEM.SOLV>
0

>  <SCORE.SYSTEM.norm>
0

>  <SCORE.heavy>
11

>  <SCORE.norm>
-1.30668

>  <RMSD>
11.734

$$$$
ligand
 OpenBabel11021811503D
libRbt.so/2013.1/901 2013/11/27
 11 12  0  0  0  0  0  0  0  0999 V2000
   -4.3361  -28.9600   29.2340 N   0  0  0  0  0  0  0  0  0  0  0  0
   -5.5887  -29.4201   29.0675 C   0  0  0  0  0  0  0  0  0  0  0  0
   -6.6025  -29.1138   30.0245 N   0  0  0  0  0  0  0  0  0  0  0  0
   -5.9372  -30.1647   28.0140 N   0  0  0  0  0  0  0  0  0  0  0  0
   -5.0158  -30.5120   27.0554 C   0  0  0  0  0  0  0  0  0  0  0  0
   -3.7215  -30.0587   27.1901 C   0  0  0  0  0  0  0  0  0  0  0  0
   -3.3845  -29.2519   28.3149 C   0  0  0  0  0  0  0  0  0  0  0  0
   -2.0936  -28.7961   28.4636 O   0  0  0  0  0  0  0  0  0  0  0  0
   -3.0001  -30.5565   26.0587 C   0  0  0  0  0  0  0  0  0  0  0  0
   -3.9151  -31.2982   25.2986 C   0  0  0  0  0  0  0  0  0  0  0  0
   -5.1083  -31.2630   25.9051 N   0  0  0  0  0  0  0  0  0  0  0  0
  1  2  1  0  0  0  0
  1  7  1  0  0  0  0
  2  3  1  0  0  0  0
  2  4  2  0  0  0  0
  4  5  1  0  0  0  0
  5  6  2  0  0  0  0
  5 11  1  0  0  0  0
  6  7  1  0  0  0  0
  6  9  1  0  0  0  0
  7  8  2  0  0  0  0
  9 10  2  0  0  0  0
 10 11  1  0  0  0  0
M  END
>  <CHROM.1>
-4.42217037,-29.90933248,27.74792753,-1.96905118,-0.23804242,-2.12957006

>  <Name>
ligand

>  <RI>
0

>  <Rbt.Current_Directory>
/home/itssahil/PROJECTS/Mol_Feturizer/New_Systems/rnas/4LVW

>  <Rbt.Executable>
rbdock ($Id: //depot/dev/client3/rdock/2013.1/src/exe/rbdock.cxx#4 $)

>  <Rbt.Library>
libRbt.so (2013.1, Build901 2013/11/27)

>  <Rbt.Parameter_File>
/export/apps/rDock/src/rDock_2013.1_src/data/scripts/dock_solv.prm

>  <Rbt.Receptor>
prm/blind_docking_100.prm

>  <SCORE>
-14.3638

>  <SCORE.INTER>
-14.3638

>  <SCORE.INTER.CONST>
1

>  <SCORE.INTER.POLAR>
0

>  <SCORE.INTER.ROT>
0

>  <SCORE.INTER.SOLV>
7.11676

>  <SCORE.INTER.VDW>
-15.5481

>  <SCORE.INTER.norm>
-1.3058

>  <SCORE.INTRA>
0

>  <SCORE.INTRA.DIHEDRAL>
0

>  <SCORE.INTRA.DIHEDRAL.0>
0

>  <SCORE.INTRA.POLAR>
0

>  <SCORE.INTRA.POLAR.0>
0

>  <SCORE.INTRA.REPUL>
0

>  <SCORE.INTRA.REPUL.0>
0

>  <SCORE.INTRA.SOLV>
0

>  <SCORE.INTRA.SOLV.lig_0>
-29.307

>  <SCORE.INTRA.VDW>
0

>  <SCORE.INTRA.VDW.0>
0

>  <SCORE.INTRA.norm>
0

>  <SCORE.RESTR>
0

>  <SCORE.RESTR.CAVITY>
0

>  <SCORE.RESTR.norm>
0

>  <SCORE.SYSTEM>
0

>  <SCORE.SYSTEM.CONST>
0

>  <SCORE.SYSTEM.DIHEDRAL>
0

>  <SCORE.SYSTEM.SOLV>
0

>  <SCORE.SYSTEM.norm>
0

>  <SCORE.heavy>
11

>  <SCORE.norm>
-1.3058

>  <RMSD>
11.741

$$$$
ligand
 OpenBabel11021811503D
libRbt.so/2013.1/901 2013/11/27
 11 12  0  0  0  0  0  0  0  0999 V2000
   -4.3365  -28.9526   29.2260 N   0  0  0  0  0  0  0  0  0  0  0  0
   -5.5928  -29.4000   29.0535 C   0  0  0  0  0  0  0  0  0  0  0  0
   -6.6100  -29.0764   30.0012 N   0  0  0  0  0  0  0  0  0  0  0  0
   -5.9421  -30.1475   28.0022 N   0  0  0  0  0  0  0  0  0  0  0  0
   -5.0178  -30.5111   27.0526 C   0  0  0  0  0  0  0  0  0  0  0  0
   -3.7195  -30.0712   27.1936 C   0  0  0  0  0  0  0  0  0  0  0  0
   -3.3817  -29.2609   28.3156 C   0  0  0  0  0  0  0  0  0  0  0  0
   -2.0869  -28.8184   28.4706 O   0  0  0  0  0  0  0  0  0  0  0  0
   -2.9957  -30.5842   26.0706 C   0  0  0  0  0  0  0  0  0  0  0  0
   -3.9134  -31.3208   25.3087 C   0  0  0  0  0  0  0  0  0  0  0  0
   -5.1104  -31.2685   25.9064 N   0  0  0  0  0  0  0  0  0  0  0  0
  1  2  1  0  0  0  0
  1  7  1  0  0  0  0
  2  3  1  0  0  0  0
  2  4  2  0  0  0  0
  4  5  1  0  0  0  0
  5  6  2  0  0  0  0
  5 11  1  0  0  0  0
  6  7  1  0  0  0  0
  6  9  1  0  0  0  0
  7  8  2  0  0  0  0
  9 10  2  0  0  0  0
 10 11  1  0  0  0  0
M  END
>  <CHROM.1>
-4.42247739,-29.91056234,27.74544125,-1.96921800,-0.22493387,-2.13606227

>  <Name>
ligand

>  <RI>
0

>  <Rbt.Current_Directory>
/home/itssahil/PROJECTS/Mol_Feturizer/New_Systems/rnas/4LVW

>  <Rbt.Executable>
rbdock ($Id: //depot/dev/client3/rdock/2013.1/src/exe/rbdock.cxx#4 $)

>  <Rbt.Library>
libRbt.so (2013.1, Build901 2013/11/27)

>  <Rbt.Parameter_File>
/export/apps/rDock/src/rDock_2013.1_src/data/scripts/dock_solv.prm

>  <Rbt.Receptor>
prm/blind_docking_60.prm

>  <SCORE>
-14.323

>  <SCORE.INTER>
-14.323

>  <SCORE.INTER.CONST>
1

>  <SCORE.INTER.POLAR>
0

>  <SCORE.INTER.ROT>
0

>  <SCORE.INTER.SOLV>
7.13378

>  <SCORE.INTER.VDW>
-15.5266

>  <SCORE.INTER.norm>
-1.30209

>  <SCORE.INTRA>
0

>  <SCORE.INTRA.DIHEDRAL>
0

>  <SCORE.INTRA.DIHEDRAL.0>
0

>  <SCORE.INTRA.POLAR>
0

>  <SCORE.INTRA.POLAR.0>
0

>  <SCORE.INTRA.REPUL>
0

>  <SCORE.INTRA.REPUL.0>
0

>  <SCORE.INTRA.SOLV>
0

>  <SCORE.INTRA.SOLV.lig_0>
-29.307

>  <SCORE.INTRA.VDW>
0

>  <SCORE.INTRA.VDW.0>
0

>  <SCORE.INTRA.norm>
0

>  <SCORE.RESTR>
0

>  <SCORE.RESTR.CAVITY>
0

>  <SCORE.RESTR.norm>
0

>  <SCORE.SYSTEM>
0

>  <SCORE.SYSTEM.CONST>
0

>  <SCORE.SYSTEM.DIHEDRAL>
0

>  <SCORE.SYSTEM.SOLV>
0

>  <SCORE.SYSTEM.norm>
0

>  <SCORE.heavy>
11

>  <SCORE.norm>
-1.30209

>  <RMSD>
11.742

$$$$
ligand
 OpenBabel11021811503D
libRbt.so/2013.1/901 2013/11/27
 11 12  0  0  0  0  0  0  0  0999 V2000
   -4.3283  -28.9618   29.2198 N   0  0  0  0  0  0  0  0  0  0  0  0
   -5.5827  -29.4176   29.0555 C   0  0  0  0  0  0  0  0  0  0  0  0
   -6.5952  -29.1027   30.0111 N   0  0  0  0  0  0  0  0  0  0  0  0
   -5.9343  -30.1659   28.0056 N   0  0  0  0  0  0  0  0  0  0  0  0
   -5.0143  -30.5215   27.0487 C   0  0  0  0  0  0  0  0  0  0  0  0
   -3.7182  -30.0728   27.1811 C   0  0  0  0  0  0  0  0  0  0  0  0
   -3.3779  -29.2620   28.3021 C   0  0  0  0  0  0  0  0  0  0  0  0
   -2.0852  -28.8106   28.4486 O   0  0  0  0  0  0  0  0  0  0  0  0
   -2.9989  -30.5788   26.0521 C   0  0  0  0  0  0  0  0  0  0  0  0
   -3.9168  -31.3206   25.2956 C   0  0  0  0  0  0  0  0  0  0  0  0
   -5.1099  -31.2776   25.9020 N   0  0  0  0  0  0  0  0  0  0  0  0
  1  2  1  0  0  0  0
  1  7  1  0  0  0  0
  2  3  1  0  0  0  0
  2  4  2  0  0  0  0
  4  5  1  0  0  0  0
  5  6  2  0  0  0  0
  5 11  1  0  0  0  0
  6  7  1  0  0  0  0
  6  9  1  0  0  0  0
  7  8  2  0  0  0  0
  9 10  2  0  0  0  0
 10 11  1  0  0  0  0
M  END
>  <CHROM.1>
-4.41823848,-29.91791181,27.73828162,-1.96682524,-0.23467030,-2.13384836

>  <Name>
ligand

>  <RI>
0

>  <Rbt.Current_Directory>
/home/itssahil/PROJECTS/Mol_Feturizer/New_Systems/rnas/4LVW

>  <Rbt.Executable>
rbdock ($Id: //depot/dev/client3/rdock/2013.1/src/exe/rbdock.cxx#4 $)

>  <Rbt.Library>
libRbt.so (2013.1, Build901 2013/11/27)

>  <Rbt.Parameter_File>
/export/apps/rDock/src/rDock_2013.1_src/data/scripts/dock_solv.prm

>  <Rbt.Receptor>
prm/blind_docking_100.prm

>  <SCORE>
-14.4021

>  <SCORE.INTER>
-14.4021

>  <SCORE.INTER.CONST>
1

>  <SCORE.INTER.POLAR>
0

>  <SCORE.INTER.ROT>
0

>  <SCORE.INTER.SOLV>
7.12579

>  <SCORE.INTER.VDW>
-15.5767

>  <SCORE.INTER.norm>
-1.30928

>  <SCORE.INTRA>
0

>  <SCORE.INTRA.DIHEDRAL>
0

>  <SCORE.INTRA.DIHEDRAL.0>
0

>  <SCORE.INTRA.POLAR>
0

>  <SCORE.INTRA.POLAR.0>
0

>  <SCORE.INTRA.REPUL>
0

>  <SCORE.INTRA.REPUL.0>
0

>  <SCORE.INTRA.SOLV>
0

>  <SCORE.INTRA.SOLV.lig_0>
-29.307

>  <SCORE.INTRA.VDW>
0

>  <SCORE.INTRA.VDW.0>
0

>  <SCORE.INTRA.norm>
0

>  <SCORE.RESTR>
0

>  <SCORE.RESTR.CAVITY>
0

>  <SCORE.RESTR.norm>
0

>  <SCORE.SYSTEM>
0

>  <SCORE.SYSTEM.CONST>
0

>  <SCORE.SYSTEM.DIHEDRAL>
0

>  <SCORE.SYSTEM.SOLV>
0

>  <SCORE.SYSTEM.norm>
0

>  <SCORE.heavy>
11

>  <SCORE.norm>
-1.30928

>  <RMSD>
11.744

$$$$
ligand
 OpenBabel11021811503D
libRbt.so/2013.1/901 2013/11/27
 11 12  0  0  0  0  0  0  0  0999 V2000
   -4.3299  -28.9609   29.2167 N   0  0  0  0  0  0  0  0  0  0  0  0
   -5.5843  -29.4163   29.0515 C   0  0  0  0  0  0  0  0  0  0  0  0
   -6.5976  -29.1006   30.0060 N   0  0  0  0  0  0  0  0  0  0  0  0
   -5.9352  -30.1649   28.0016 N   0  0  0  0  0  0  0  0  0  0  0  0
   -5.0145  -30.5214   27.0458 C   0  0  0  0  0  0  0  0  0  0  0  0
   -3.7184  -30.0731   27.1791 C   0  0  0  0  0  0  0  0  0  0  0  0
   -3.3788  -29.2619   28.3000 C   0  0  0  0  0  0  0  0  0  0  0  0
   -2.0860  -28.8110   28.4475 O   0  0  0  0  0  0  0  0  0  0  0  0
   -2.9983  -30.5800   26.0510 C   0  0  0  0  0  0  0  0  0  0  0  0
   -3.9158  -31.3217   25.2940 C   0  0  0  0  0  0  0  0  0  0  0  0
   -5.1094  -31.2780   25.8993 N   0  0  0  0  0  0  0  0  0  0  0  0
  1  2  1  0  0  0  0
  1  7  1  0  0  0  0
  2  3  1  0  0  0  0
  2  4  2  0  0  0  0
  4  5  1  0  0  0  0
  5  6  2  0  0  0  0
  5 11  1  0  0  0  0
  6  7  1  0  0  0  0
  6  9  1  0  0  0  0
  7  8  2  0  0  0  0
  9 10  2  0  0  0  0
 10 11  1  0  0  0  0
M  END
>  <CHROM.1>
-4.41885340,-29.91769775,27.73559886,-1.96738117,-0.23384412,-2.13444069

>  <Name>
ligand

>  <RI>
0

>  <Rbt.Current_Directory>
/home/itssahil/PROJECTS/Mol_Feturizer/New_Systems/rnas/4LVW

>  <Rbt.Executable>
rbdock ($Id: //depot/dev/client3/rdock/2013.1/src/exe/rbdock.cxx#4 $)

>  <Rbt.Library>
libRbt.so (2013.1, Build901 2013/11/27)

>  <Rbt.Parameter_File>
/export/apps/rDock/src/rDock_2013.1_src/data/scripts/dock_solv.prm

>  <Rbt.Receptor>
prm/blind_docking_80.prm

>  <SCORE>
-14.3982

>  <SCORE.INTER>
-14.3982

>  <SCORE.INTER.CONST>
1

>  <SCORE.INTER.POLAR>
0

>  <SCORE.INTER.ROT>
0

>  <SCORE.INTER.SOLV>
7.13026

>  <SCORE.INTER.VDW>
-15.5755

>  <SCORE.INTER.norm>
-1.30892

>  <SCORE.INTRA>
0

>  <SCORE.INTRA.DIHEDRAL>
0

>  <SCORE.INTRA.DIHEDRAL.0>
0

>  <SCORE.INTRA.POLAR>
0

>  <SCORE.INTRA.POLAR.0>
0

>  <SCORE.INTRA.REPUL>
0

>  <SCORE.INTRA.REPUL.0>
0

>  <SCORE.INTRA.SOLV>
0

>  <SCORE.INTRA.SOLV.lig_0>
-29.307

>  <SCORE.INTRA.VDW>
0

>  <SCORE.INTRA.VDW.0>
0

>  <SCORE.INTRA.norm>
0

>  <SCORE.RESTR>
0

>  <SCORE.RESTR.CAVITY>
0

>  <SCORE.RESTR.norm>
0

>  <SCORE.SYSTEM>
0

>  <SCORE.SYSTEM.CONST>
0

>  <SCORE.SYSTEM.DIHEDRAL>
0

>  <SCORE.SYSTEM.SOLV>
0

>  <SCORE.SYSTEM.norm>
0

>  <SCORE.heavy>
11

>  <SCORE.norm>
-1.30892

>  <RMSD>
11.744

$$$$
ligand
 OpenBabel11021811503D
libRbt.so/2013.1/901 2013/11/27
 11 12  0  0  0  0  0  0  0  0999 V2000
   -4.3395  -28.9593   29.2281 N   0  0  0  0  0  0  0  0  0  0  0  0
   -5.5947  -29.4101   29.0563 C   0  0  0  0  0  0  0  0  0  0  0  0
   -6.6114  -29.0920   30.0063 N   0  0  0  0  0  0  0  0  0  0  0  0
   -5.9431  -30.1562   28.0039 N   0  0  0  0  0  0  0  0  0  0  0  0
   -5.0191  -30.5147   27.0520 C   0  0  0  0  0  0  0  0  0  0  0  0
   -3.7220  -30.0711   27.1921 C   0  0  0  0  0  0  0  0  0  0  0  0
   -3.3850  -29.2625   28.3156 C   0  0  0  0  0  0  0  0  0  0  0  0
   -2.0914  -28.8162   28.4698 O   0  0  0  0  0  0  0  0  0  0  0  0
   -2.9983  -30.5792   26.0668 C   0  0  0  0  0  0  0  0  0  0  0  0
   -3.9148  -31.3168   25.3045 C   0  0  0  0  0  0  0  0  0  0  0  0
   -5.1111  -31.2696   25.9041 N   0  0  0  0  0  0  0  0  0  0  0  0
  1  2  1  0  0  0  0
  1  7  1  0  0  0  0
  2  3  1  0  0  0  0
  2  4  2  0  0  0  0
  4  5  1  0  0  0  0
  5  6  2  0  0  0  0
  5 11  1  0  0  0  0
  6  7  1  0  0  0  0
  6  9  1  0  0  0  0
  7  8  2  0  0  0  0
  9 10  2  0  0  0  0
 10 11  1  0  0  0  0
M  END
>  <CHROM.1>
-4.42465149,-29.91394765,27.74539752,-1.96964942,-0.22834294,-2.13375686

>  <Name>
ligand

>  <RI>
0

>  <Rbt.Current_Directory>
/home/itssahil/PROJECTS/Mol_Feturizer/New_Systems/rnas/4LVW

>  <Rbt.Executable>
rbdock ($Id: //depot/dev/client3/rdock/2013.1/src/exe/rbdock.cxx#4 $)

>  <Rbt.Library>
libRbt.so (2013.1, Build901 2013/11/27)

>  <Rbt.Parameter_File>
/export/apps/rDock/src/rDock_2013.1_src/data/scripts/dock_solv.prm

>  <Rbt.Receptor>
prm/blind_docking_60.prm

>  <SCORE>
-14.3828

>  <SCORE.INTER>
-14.3828

>  <SCORE.INTER.CONST>
1

>  <SCORE.INTER.POLAR>
0

>  <SCORE.INTER.ROT>
0

>  <SCORE.INTER.SOLV>
7.13228

>  <SCORE.INTER.VDW>
-15.5659

>  <SCORE.INTER.norm>
-1.30753

>  <SCORE.INTRA>
0

>  <SCORE.INTRA.DIHEDRAL>
0

>  <SCORE.INTRA.DIHEDRAL.0>
0

>  <SCORE.INTRA.POLAR>
0

>  <SCORE.INTRA.POLAR.0>
0

>  <SCORE.INTRA.REPUL>
0

>  <SCORE.INTRA.REPUL.0>
0

>  <SCORE.INTRA.SOLV>
0

>  <SCORE.INTRA.SOLV.lig_0>
-29.307

>  <SCORE.INTRA.VDW>
0

>  <SCORE.INTRA.VDW.0>
0

>  <SCORE.INTRA.norm>
0

>  <SCORE.RESTR>
0

>  <SCORE.RESTR.CAVITY>
0

>  <SCORE.RESTR.norm>
0

>  <SCORE.SYSTEM>
0

>  <SCORE.SYSTEM.CONST>
0

>  <SCORE.SYSTEM.DIHEDRAL>
0

>  <SCORE.SYSTEM.SOLV>
0

>  <SCORE.SYSTEM.norm>
0

>  <SCORE.heavy>
11

>  <SCORE.norm>
-1.30753

>  <RMSD>
11.745

$$$$
ligand
 OpenBabel11021811503D
libRbt.so/2013.1/901 2013/11/27
 11 12  0  0  0  0  0  0  0  0999 V2000
   -4.3405  -28.9578   29.2281 N   0  0  0  0  0  0  0  0  0  0  0  0
   -5.5953  -29.4098   29.0569 C   0  0  0  0  0  0  0  0  0  0  0  0
   -6.6120  -29.0924   30.0072 N   0  0  0  0  0  0  0  0  0  0  0  0
   -5.9435  -30.1564   28.0046 N   0  0  0  0  0  0  0  0  0  0  0  0
   -5.0194  -30.5142   27.0525 C   0  0  0  0  0  0  0  0  0  0  0  0
   -3.7227  -30.0694   27.1921 C   0  0  0  0  0  0  0  0  0  0  0  0
   -3.3861  -29.2603   28.3154 C   0  0  0  0  0  0  0  0  0  0  0  0
   -2.0928  -28.8129   28.4690 O   0  0  0  0  0  0  0  0  0  0  0  0
   -2.9989  -30.5770   26.0667 C   0  0  0  0  0  0  0  0  0  0  0  0
   -3.9150  -31.3156   25.3048 C   0  0  0  0  0  0  0  0  0  0  0  0
   -5.1111  -31.2694   25.9048 N   0  0  0  0  0  0  0  0  0  0  0  0
  1  2  1  0  0  0  0
  1  7  1  0  0  0  0
  2  3  1  0  0  0  0
  2  4  2  0  0  0  0
  4  5  1  0  0  0  0
  5  6  2  0  0  0  0
  5 11  1  0  0  0  0
  6  7  1  0  0  0  0
  6  9  1  0  0  0  0
  7  8  2  0  0  0  0
  9 10  2  0  0  0  0
 10 11  1  0  0  0  0
M  END
>  <CHROM.1>
-4.42529764,-29.91279744,27.74560550,-1.96984209,-0.22928293,-2.13397431

>  <Name>
ligand

>  <RI>
0

>  <Rbt.Current_Directory>
/home/itssahil/PROJECTS/Mol_Feturizer/New_Systems/rnas/4LVW

>  <Rbt.Executable>
rbdock ($Id: //depot/dev/client3/rdock/2013.1/src/exe/rbdock.cxx#4 $)

>  <Rbt.Library>
libRbt.so (2013.1, Build901 2013/11/27)

>  <Rbt.Parameter_File>
/export/apps/rDock/src/rDock_2013.1_src/data/scripts/dock_solv.prm

>  <Rbt.Receptor>
prm/blind_docking_80.prm

>  <SCORE>
-14.3845

>  <SCORE.INTER>
-14.3845

>  <SCORE.INTER.CONST>
1

>  <SCORE.INTER.POLAR>
0

>  <SCORE.INTER.ROT>
0

>  <SCORE.INTER.SOLV>
7.13079

>  <SCORE.INTER.VDW>
-15.5666

>  <SCORE.INTER.norm>
-1.30768

>  <SCORE.INTRA>
0

>  <SCORE.INTRA.DIHEDRAL>
0

>  <SCORE.INTRA.DIHEDRAL.0>
0

>  <SCORE.INTRA.POLAR>
0

>  <SCORE.INTRA.POLAR.0>
0

>  <SCORE.INTRA.REPUL>
0

>  <SCORE.INTRA.REPUL.0>
0

>  <SCORE.INTRA.SOLV>
0

>  <SCORE.INTRA.SOLV.lig_0>
-29.307

>  <SCORE.INTRA.VDW>
0

>  <SCORE.INTRA.VDW.0>
0

>  <SCORE.INTRA.norm>
0

>  <SCORE.RESTR>
0

>  <SCORE.RESTR.CAVITY>
0

>  <SCORE.RESTR.norm>
0

>  <SCORE.SYSTEM>
0

>  <SCORE.SYSTEM.CONST>
0

>  <SCORE.SYSTEM.DIHEDRAL>
0

>  <SCORE.SYSTEM.SOLV>
0

>  <SCORE.SYSTEM.norm>
0

>  <SCORE.heavy>
11

>  <SCORE.norm>
-1.30768

>  <RMSD>
11.745

$$$$
ligand
 OpenBabel11021811503D
libRbt.so/2013.1/901 2013/11/27
 11 12  0  0  0  0  0  0  0  0999 V2000
   -4.3281  -28.9653   29.2217 N   0  0  0  0  0  0  0  0  0  0  0  0
   -5.5829  -29.4190   29.0546 C   0  0  0  0  0  0  0  0  0  0  0  0
   -6.5968  -29.1029   30.0083 N   0  0  0  0  0  0  0  0  0  0  0  0
   -5.9336  -30.1660   28.0036 N   0  0  0  0  0  0  0  0  0  0  0  0
   -5.0122  -30.5226   27.0483 C   0  0  0  0  0  0  0  0  0  0  0  0
   -3.7157  -30.0761   27.1836 C   0  0  0  0  0  0  0  0  0  0  0  0
   -3.3763  -29.2665   28.3057 C   0  0  0  0  0  0  0  0  0  0  0  0
   -2.0831  -28.8174   28.4551 O   0  0  0  0  0  0  0  0  0  0  0  0
   -2.9950  -30.5828   26.0558 C   0  0  0  0  0  0  0  0  0  0  0  0
   -3.9126  -31.3225   25.2970 C   0  0  0  0  0  0  0  0  0  0  0  0
   -5.1068  -31.2779   25.9010 N   0  0  0  0  0  0  0  0  0  0  0  0
  1  2  1  0  0  0  0
  1  7  1  0  0  0  0
  2  3  1  0  0  0  0
  2  4  2  0  0  0  0
  4  5  1  0  0  0  0
  5  6  2  0  0  0  0
  5 11  1  0  0  0  0
  6  7  1  0  0  0  0
  6  9  1  0  0  0  0
  7  8  2  0  0  0  0
  9 10  2  0  0  0  0
 10 11  1  0  0  0  0
M  END
>  <CHROM.1>
-4.41658726,-29.92042706,27.73945486,-1.96765917,-0.23218398,-2.13346603

>  <Name>
ligand

>  <RI>
0

>  <Rbt.Current_Directory>
/home/itssahil/PROJECTS/Mol_Feturizer/New_Systems/rnas/4LVW

>  <Rbt.Executable>
rbdock ($Id: //depot/dev/client3/rdock/2013.1/src/exe/rbdock.cxx#4 $)

>  <Rbt.Library>
libRbt.so (2013.1, Build901 2013/11/27)

>  <Rbt.Parameter_File>
/export/apps/rDock/src/rDock_2013.1_src/data/scripts/dock_solv.prm

>  <Rbt.Receptor>
prm/blind_docking_80.prm

>  <SCORE>
-14.3975

>  <SCORE.INTER>
-14.3975

>  <SCORE.INTER.CONST>
1

>  <SCORE.INTER.POLAR>
0

>  <SCORE.INTER.ROT>
0

>  <SCORE.INTER.SOLV>
7.13268

>  <SCORE.INTER.VDW>
-15.5759

>  <SCORE.INTER.norm>
-1.30887

>  <SCORE.INTRA>
0

>  <SCORE.INTRA.DIHEDRAL>
0

>  <SCORE.INTRA.DIHEDRAL.0>
0

>  <SCORE.INTRA.POLAR>
0

>  <SCORE.INTRA.POLAR.0>
0

>  <SCORE.INTRA.REPUL>
0

>  <SCORE.INTRA.REPUL.0>
0

>  <SCORE.INTRA.SOLV>
0

>  <SCORE.INTRA.SOLV.lig_0>
-29.307

>  <SCORE.INTRA.VDW>
0

>  <SCORE.INTRA.VDW.0>
0

>  <SCORE.INTRA.norm>
0

>  <SCORE.RESTR>
0

>  <SCORE.RESTR.CAVITY>
0

>  <SCORE.RESTR.norm>
0

>  <SCORE.SYSTEM>
0

>  <SCORE.SYSTEM.CONST>
0

>  <SCORE.SYSTEM.DIHEDRAL>
0

>  <SCORE.SYSTEM.SOLV>
0

>  <SCORE.SYSTEM.norm>
0

>  <SCORE.heavy>
11

>  <SCORE.norm>
-1.30887

>  <RMSD>
11.745

$$$$
ligand
 OpenBabel11021811503D
libRbt.so/2013.1/901 2013/11/27
 11 12  0  0  0  0  0  0  0  0999 V2000
   -4.3284  -28.9696   29.2271 N   0  0  0  0  0  0  0  0  0  0  0  0
   -5.5835  -29.4214   29.0573 C   0  0  0  0  0  0  0  0  0  0  0  0
   -6.5986  -29.1054   30.0097 N   0  0  0  0  0  0  0  0  0  0  0  0
   -5.9335  -30.1664   28.0045 N   0  0  0  0  0  0  0  0  0  0  0  0
   -5.0110  -30.5229   27.0503 C   0  0  0  0  0  0  0  0  0  0  0  0
   -3.7141  -30.0783   27.1884 C   0  0  0  0  0  0  0  0  0  0  0  0
   -3.3755  -29.2708   28.3123 C   0  0  0  0  0  0  0  0  0  0  0  0
   -2.0820  -28.8237   28.4644 O   0  0  0  0  0  0  0  0  0  0  0  0
   -2.9922  -30.5843   26.0610 C   0  0  0  0  0  0  0  0  0  0  0  0
   -3.9095  -31.3217   25.2996 C   0  0  0  0  0  0  0  0  0  0  0  0
   -5.1047  -31.2764   25.9017 N   0  0  0  0  0  0  0  0  0  0  0  0
  1  2  1  0  0  0  0
  1  7  1  0  0  0  0
  2  3  1  0  0  0  0
  2  4  2  0  0  0  0
  4  5  1  0  0  0  0
  5  6  2  0  0  0  0
  5 11  1  0  0  0  0
  6  7  1  0  0  0  0
  6  9  1  0  0  0  0
  7  8  2  0  0  0  0
  9 10  2  0  0  0  0
 10 11  1  0  0  0  0
M  END
>  <CHROM.1>
-4.41571181,-29.92249335,27.74329934,-1.96837104,-0.23015173,-2.13216813

>  <Name>
ligand

>  <RI>
0

>  <Rbt.Current_Directory>
/home/itssahil/PROJECTS/Mol_Feturizer/New_Systems/rnas/4LVW

>  <Rbt.Executable>
rbdock ($Id: //depot/dev/client3/rdock/2013.1/src/exe/rbdock.cxx#4 $)

>  <Rbt.Library>
libRbt.so (2013.1, Build901 2013/11/27)

>  <Rbt.Parameter_File>
/export/apps/rDock/src/rDock_2013.1_src/data/scripts/dock_solv.prm

>  <Rbt.Receptor>
prm/blind_docking_80.prm

>  <SCORE>
-14.3947

>  <SCORE.INTER>
-14.3947

>  <SCORE.INTER.CONST>
1

>  <SCORE.INTER.POLAR>
0

>  <SCORE.INTER.ROT>
0

>  <SCORE.INTER.SOLV>
7.13601

>  <SCORE.INTER.VDW>
-15.5751

>  <SCORE.INTER.norm>
-1.30861

>  <SCORE.INTRA>
0

>  <SCORE.INTRA.DIHEDRAL>
0

>  <SCORE.INTRA.DIHEDRAL.0>
0

>  <SCORE.INTRA.POLAR>
0

>  <SCORE.INTRA.POLAR.0>
0

>  <SCORE.INTRA.REPUL>
0

>  <SCORE.INTRA.REPUL.0>
0

>  <SCORE.INTRA.SOLV>
0

>  <SCORE.INTRA.SOLV.lig_0>
-29.307

>  <SCORE.INTRA.VDW>
0

>  <SCORE.INTRA.VDW.0>
0

>  <SCORE.INTRA.norm>
0

>  <SCORE.RESTR>
0

>  <SCORE.RESTR.CAVITY>
0

>  <SCORE.RESTR.norm>
0

>  <SCORE.SYSTEM>
0

>  <SCORE.SYSTEM.CONST>
0

>  <SCORE.SYSTEM.DIHEDRAL>
0

>  <SCORE.SYSTEM.SOLV>
0

>  <SCORE.SYSTEM.norm>
0

>  <SCORE.heavy>
11

>  <SCORE.norm>
-1.30861

>  <RMSD>
11.747

$$$$
ligand
 OpenBabel11021811503D
libRbt.so/2013.1/901 2013/11/27
 11 12  0  0  0  0  0  0  0  0999 V2000
   -4.3477  -28.9634   29.2345 N   0  0  0  0  0  0  0  0  0  0  0  0
   -5.5996  -29.4244   29.0657 C   0  0  0  0  0  0  0  0  0  0  0  0
   -6.6156  -29.1179   30.0202 N   0  0  0  0  0  0  0  0  0  0  0  0
   -5.9453  -30.1703   28.0122 N   0  0  0  0  0  0  0  0  0  0  0  0
   -5.0216  -30.5180   27.0560 C   0  0  0  0  0  0  0  0  0  0  0  0
   -3.7279  -30.0638   27.1930 C   0  0  0  0  0  0  0  0  0  0  0  0
   -3.3938  -29.2557   28.3178 C   0  0  0  0  0  0  0  0  0  0  0  0
   -2.1036  -28.7989   28.4688 O   0  0  0  0  0  0  0  0  0  0  0  0
   -3.0038  -30.5622   26.0637 C   0  0  0  0  0  0  0  0  0  0  0  0
   -3.9166  -31.3053   25.3023 C   0  0  0  0  0  0  0  0  0  0  0  0
   -5.1111  -31.2702   25.9062 N   0  0  0  0  0  0  0  0  0  0  0  0
  1  2  1  0  0  0  0
  1  7  1  0  0  0  0
  2  3  1  0  0  0  0
  2  4  2  0  0  0  0
  4  5  1  0  0  0  0
  5  6  2  0  0  0  0
  5 11  1  0  0  0  0
  6  7  1  0  0  0  0
  6  9  1  0  0  0  0
  7  8  2  0  0  0  0
  9 10  2  0  0  0  0
 10 11  1  0  0  0  0
M  END
>  <CHROM.1>
-4.42987469,-29.91429573,27.74917720,-1.97129250,-0.23742041,-2.13109966

>  <Name>
ligand

>  <RI>
0

>  <Rbt.Current_Directory>
/home/itssahil/PROJECTS/Mol_Feturizer/New_Systems/rnas/4LVW

>  <Rbt.Executable>
rbdock ($Id: //depot/dev/client3/rdock/2013.1/src/exe/rbdock.cxx#4 $)

>  <Rbt.Library>
libRbt.so (2013.1, Build901 2013/11/27)

>  <Rbt.Parameter_File>
/export/apps/rDock/src/rDock_2013.1_src/data/scripts/dock_solv.prm

>  <Rbt.Receptor>
prm/blind_docking_60.prm

>  <SCORE>
-14.3588

>  <SCORE.INTER>
-14.3588

>  <SCORE.INTER.CONST>
1

>  <SCORE.INTER.POLAR>
0

>  <SCORE.INTER.ROT>
0

>  <SCORE.INTER.SOLV>
7.12236

>  <SCORE.INTER.VDW>
-15.5467

>  <SCORE.INTER.norm>
-1.30535

>  <SCORE.INTRA>
0

>  <SCORE.INTRA.DIHEDRAL>
0

>  <SCORE.INTRA.DIHEDRAL.0>
0

>  <SCORE.INTRA.POLAR>
0

>  <SCORE.INTRA.POLAR.0>
0

>  <SCORE.INTRA.REPUL>
0

>  <SCORE.INTRA.REPUL.0>
0

>  <SCORE.INTRA.SOLV>
0

>  <SCORE.INTRA.SOLV.lig_0>
-29.307

>  <SCORE.INTRA.VDW>
0

>  <SCORE.INTRA.VDW.0>
0

>  <SCORE.INTRA.norm>
0

>  <SCORE.RESTR>
0

>  <SCORE.RESTR.CAVITY>
0

>  <SCORE.RESTR.norm>
0

>  <SCORE.SYSTEM>
0

>  <SCORE.SYSTEM.CONST>
0

>  <SCORE.SYSTEM.DIHEDRAL>
0

>  <SCORE.SYSTEM.SOLV>
0

>  <SCORE.SYSTEM.norm>
0

>  <SCORE.heavy>
11

>  <SCORE.norm>
-1.30535

>  <RMSD>
11.749

$$$$
ligand
 OpenBabel11021811503D
libRbt.so/2013.1/901 2013/11/27
 11 12  0  0  0  0  0  0  0  0999 V2000
   -4.3237  -28.9800   29.2387 N   0  0  0  0  0  0  0  0  0  0  0  0
   -5.5793  -29.4315   29.0713 C   0  0  0  0  0  0  0  0  0  0  0  0
   -6.5909  -29.1210   30.0293 N   0  0  0  0  0  0  0  0  0  0  0  0
   -5.9328  -30.1711   28.0160 N   0  0  0  0  0  0  0  0  0  0  0  0
   -5.0139  -30.5221   27.0564 C   0  0  0  0  0  0  0  0  0  0  0  0
   -3.7166  -30.0775   27.1919 C   0  0  0  0  0  0  0  0  0  0  0  0
   -3.3742  -29.2758   28.3187 C   0  0  0  0  0  0  0  0  0  0  0  0
   -2.0803  -28.8288   28.4683 O   0  0  0  0  0  0  0  0  0  0  0  0
   -2.9988  -30.5772   26.0591 C   0  0  0  0  0  0  0  0  0  0  0  0
   -3.9186  -31.3111   25.2974 C   0  0  0  0  0  0  0  0  0  0  0  0
   -5.1115  -31.2696   25.9042 N   0  0  0  0  0  0  0  0  0  0  0  0
  1  2  1  0  0  0  0
  1  7  1  0  0  0  0
  2  3  1  0  0  0  0
  2  4  2  0  0  0  0
  4  5  1  0  0  0  0
  5  6  2  0  0  0  0
  5 11  1  0  0  0  0
  6  7  1  0  0  0  0
  6  9  1  0  0  0  0
  7  8  2  0  0  0  0
  9 10  2  0  0  0  0
 10 11  1  0  0  0  0
M  END
>  <CHROM.1>
-4.41622598,-29.92501806,27.75029320,-1.96534401,-0.23260911,-2.12620623

>  <Name>
ligand

>  <RI>
0

>  <Rbt.Current_Directory>
/home/itssahil/PROJECTS/Mol_Feturizer/New_Systems/rnas/4LVW

>  <Rbt.Executable>
rbdock ($Id: //depot/dev/client3/rdock/2013.1/src/exe/rbdock.cxx#4 $)

>  <Rbt.Library>
libRbt.so (2013.1, Build901 2013/11/27)

>  <Rbt.Parameter_File>
/export/apps/rDock/src/rDock_2013.1_src/data/scripts/dock_solv.prm

>  <Rbt.Receptor>
prm/blind_docking_60.prm

>  <SCORE>
-14.357

>  <SCORE.INTER>
-14.357

>  <SCORE.INTER.CONST>
1

>  <SCORE.INTER.POLAR>
0

>  <SCORE.INTER.ROT>
0

>  <SCORE.INTER.SOLV>
7.11837

>  <SCORE.INTER.VDW>
-15.5441

>  <SCORE.INTER.norm>
-1.30518

>  <SCORE.INTRA>
0

>  <SCORE.INTRA.DIHEDRAL>
0

>  <SCORE.INTRA.DIHEDRAL.0>
0

>  <SCORE.INTRA.POLAR>
0

>  <SCORE.INTRA.POLAR.0>
0

>  <SCORE.INTRA.REPUL>
0

>  <SCORE.INTRA.REPUL.0>
0

>  <SCORE.INTRA.SOLV>
0

>  <SCORE.INTRA.SOLV.lig_0>
-29.307

>  <SCORE.INTRA.VDW>
0

>  <SCORE.INTRA.VDW.0>
0

>  <SCORE.INTRA.norm>
0

>  <SCORE.RESTR>
0

>  <SCORE.RESTR.CAVITY>
0

>  <SCORE.RESTR.norm>
0

>  <SCORE.SYSTEM>
0

>  <SCORE.SYSTEM.CONST>
0

>  <SCORE.SYSTEM.DIHEDRAL>
0

>  <SCORE.SYSTEM.SOLV>
0

>  <SCORE.SYSTEM.norm>
0

>  <SCORE.heavy>
11

>  <SCORE.norm>
-1.30518

>  <RMSD>
11.751

$$$$
ligand
 OpenBabel11021811503D
libRbt.so/2013.1/901 2013/11/27
 11 12  0  0  0  0  0  0  0  0999 V2000
   -4.3097  -28.9864   29.2285 N   0  0  0  0  0  0  0  0  0  0  0  0
   -5.5651  -29.4413   29.0693 C   0  0  0  0  0  0  0  0  0  0  0  0
   -6.5714  -29.1332   30.0336 N   0  0  0  0  0  0  0  0  0  0  0  0
   -5.9235  -30.1822   28.0164 N   0  0  0  0  0  0  0  0  0  0  0  0
   -5.0097  -30.5309   27.0511 C   0  0  0  0  0  0  0  0  0  0  0  0
   -3.7128  -30.0829   27.1781 C   0  0  0  0  0  0  0  0  0  0  0  0
   -3.3653  -29.2800   28.3025 C   0  0  0  0  0  0  0  0  0  0  0  0
   -2.0717  -28.8295   28.4437 O   0  0  0  0  0  0  0  0  0  0  0  0
   -3.0009  -30.5810   26.0409 C   0  0  0  0  0  0  0  0  0  0  0  0
   -3.9237  -31.3176   25.2853 C   0  0  0  0  0  0  0  0  0  0  0  0
   -5.1128  -31.2790   25.8997 N   0  0  0  0  0  0  0  0  0  0  0  0
  1  2  1  0  0  0  0
  1  7  1  0  0  0  0
  2  3  1  0  0  0  0
  2  4  2  0  0  0  0
  4  5  1  0  0  0  0
  5  6  2  0  0  0  0
  5 11  1  0  0  0  0
  6  7  1  0  0  0  0
  6  9  1  0  0  0  0
  7  8  2  0  0  0  0
  9 10  2  0  0  0  0
 10 11  1  0  0  0  0
M  END
>  <CHROM.1>
-4.40924027,-29.93211305,27.74095706,-1.96116732,-0.23824978,-2.12551285

>  <Name>
ligand

>  <RI>
0

>  <Rbt.Current_Directory>
/home/itssahil/PROJECTS/Mol_Feturizer/New_Systems/rnas/4LVW

>  <Rbt.Executable>
rbdock ($Id: //depot/dev/client3/rdock/2013.1/src/exe/rbdock.cxx#4 $)

>  <Rbt.Library>
libRbt.so (2013.1, Build901 2013/11/27)

>  <Rbt.Parameter_File>
/export/apps/rDock/src/rDock_2013.1_src/data/scripts/dock_solv.prm

>  <Rbt.Receptor>
prm/blind_docking_60.prm

>  <SCORE>
-14.3298

>  <SCORE.INTER>
-14.33

>  <SCORE.INTER.CONST>
1

>  <SCORE.INTER.POLAR>
0

>  <SCORE.INTER.ROT>
0

>  <SCORE.INTER.SOLV>
7.11035

>  <SCORE.INTER.VDW>
-15.5234

>  <SCORE.INTER.norm>
-1.30273

>  <SCORE.INTRA>
0

>  <SCORE.INTRA.DIHEDRAL>
0

>  <SCORE.INTRA.DIHEDRAL.0>
0

>  <SCORE.INTRA.POLAR>
0

>  <SCORE.INTRA.POLAR.0>
0

>  <SCORE.INTRA.REPUL>
0

>  <SCORE.INTRA.REPUL.0>
0

>  <SCORE.INTRA.SOLV>
0

>  <SCORE.INTRA.SOLV.lig_0>
-29.307

>  <SCORE.INTRA.VDW>
0

>  <SCORE.INTRA.VDW.0>
0

>  <SCORE.INTRA.norm>
0

>  <SCORE.RESTR>
0.000163284

>  <SCORE.RESTR.CAVITY>
0.000163284

>  <SCORE.RESTR.norm>
1.4844e-05

>  <SCORE.SYSTEM>
0

>  <SCORE.SYSTEM.CONST>
0

>  <SCORE.SYSTEM.DIHEDRAL>
0

>  <SCORE.SYSTEM.SOLV>
0

>  <SCORE.SYSTEM.norm>
0

>  <SCORE.heavy>
11

>  <SCORE.norm>
-1.30271

>  <RMSD>
11.752

$$$$
ligand
 OpenBabel11021811503D
libRbt.so/2013.1/901 2013/11/27
 11 12  0  0  0  0  0  0  0  0999 V2000
   -4.3377  -28.9781   29.2516 N   0  0  0  0  0  0  0  0  0  0  0  0
   -5.5915  -29.4329   29.0799 C   0  0  0  0  0  0  0  0  0  0  0  0
   -6.6064  -29.1279   30.0361 N   0  0  0  0  0  0  0  0  0  0  0  0
   -5.9402  -30.1710   28.0218 N   0  0  0  0  0  0  0  0  0  0  0  0
   -5.0178  -30.5167   27.0637 C   0  0  0  0  0  0  0  0  0  0  0  0
   -3.7222  -30.0687   27.2036 C   0  0  0  0  0  0  0  0  0  0  0  0
   -3.3850  -29.2688   28.3332 C   0  0  0  0  0  0  0  0  0  0  0  0
   -2.0929  -28.8182   28.4872 O   0  0  0  0  0  0  0  0  0  0  0  0
   -3.0000  -30.5633   26.0713 C   0  0  0  0  0  0  0  0  0  0  0  0
   -3.9158  -31.2980   25.3054 C   0  0  0  0  0  0  0  0  0  0  0  0
   -5.1103  -31.2616   25.9093 N   0  0  0  0  0  0  0  0  0  0  0  0
  1  2  1  0  0  0  0
  1  7  1  0  0  0  0
  2  3  1  0  0  0  0
  2  4  2  0  0  0  0
  4  5  1  0  0  0  0
  5  6  2  0  0  0  0
  5 11  1  0  0  0  0
  6  7  1  0  0  0  0
  6  9  1  0  0  0  0
  7  8  2  0  0  0  0
  9 10  2  0  0  0  0
 10 11  1  0  0  0  0
M  END
>  <CHROM.1>
-4.42366943,-29.91964681,27.76054840,-1.96915220,-0.23385060,-2.12456801

>  <Name>
ligand

>  <RI>
0

>  <Rbt.Current_Directory>
/home/itssahil/PROJECTS/Mol_Feturizer/New_Systems/rnas/4LVW

>  <Rbt.Executable>
rbdock ($Id: //depot/dev/client3/rdock/2013.1/src/exe/rbdock.cxx#4 $)

>  <Rbt.Library>
libRbt.so (2013.1, Build901 2013/11/27)

>  <Rbt.Parameter_File>
/export/apps/rDock/src/rDock_2013.1_src/data/scripts/dock_solv.prm

>  <Rbt.Receptor>
prm/blind_docking_80.prm

>  <SCORE>
-14.3886

>  <SCORE.INTER>
-14.3886

>  <SCORE.INTER.CONST>
1

>  <SCORE.INTER.POLAR>
0

>  <SCORE.INTER.ROT>
0

>  <SCORE.INTER.SOLV>
7.11581

>  <SCORE.INTER.VDW>
-15.5643

>  <SCORE.INTER.norm>
-1.30805

>  <SCORE.INTRA>
0

>  <SCORE.INTRA.DIHEDRAL>
0

>  <SCORE.INTRA.DIHEDRAL.0>
0

>  <SCORE.INTRA.POLAR>
0

>  <SCORE.INTRA.POLAR.0>
0

>  <SCORE.INTRA.REPUL>
0

>  <SCORE.INTRA.REPUL.0>
0

>  <SCORE.INTRA.SOLV>
0

>  <SCORE.INTRA.SOLV.lig_0>
-29.307

>  <SCORE.INTRA.VDW>
0

>  <SCORE.INTRA.VDW.0>
0

>  <SCORE.INTRA.norm>
0

>  <SCORE.RESTR>
0

>  <SCORE.RESTR.CAVITY>
0

>  <SCORE.RESTR.norm>
0

>  <SCORE.SYSTEM>
0

>  <SCORE.SYSTEM.CONST>
0

>  <SCORE.SYSTEM.DIHEDRAL>
0

>  <SCORE.SYSTEM.SOLV>
0

>  <SCORE.SYSTEM.norm>
0

>  <SCORE.heavy>
11

>  <SCORE.norm>
-1.30805

>  <RMSD>
11.752

$$$$
ligand
 OpenBabel11021811503D
libRbt.so/2013.1/901 2013/11/27
 11 12  0  0  0  0  0  0  0  0999 V2000
   -4.3440  -28.9893   29.2964 N   0  0  0  0  0  0  0  0  0  0  0  0
   -5.6018  -29.4243   29.1044 C   0  0  0  0  0  0  0  0  0  0  0  0
   -6.6242  -29.1150   30.0513 N   0  0  0  0  0  0  0  0  0  0  0  0
   -5.9478  -30.1460   28.0342 N   0  0  0  0  0  0  0  0  0  0  0  0
   -5.0185  -30.4947   27.0838 C   0  0  0  0  0  0  0  0  0  0  0  0
   -3.7186  -30.0668   27.2444 C   0  0  0  0  0  0  0  0  0  0  0  0
   -3.3841  -29.2838   28.3867 C   0  0  0  0  0  0  0  0  0  0  0  0
   -2.0878  -28.8534   28.5614 O   0  0  0  0  0  0  0  0  0  0  0  0
   -2.9895  -30.5596   26.1159 C   0  0  0  0  0  0  0  0  0  0  0  0
   -3.9060  -31.2730   25.3309 C   0  0  0  0  0  0  0  0  0  0  0  0
   -5.1072  -31.2259   25.9205 N   0  0  0  0  0  0  0  0  0  0  0  0
  1  2  1  0  0  0  0
  1  7  1  0  0  0  0
  2  3  1  0  0  0  0
  2  4  2  0  0  0  0
  4  5  1  0  0  0  0
  5  6  2  0  0  0  0
  5 11  1  0  0  0  0
  6  7  1  0  0  0  0
  6  9  1  0  0  0  0
  7  8  2  0  0  0  0
  9 10  2  0  0  0  0
 10 11  1  0  0  0  0
M  END
>  <CHROM.1>
-4.42472486,-29.91365044,27.79433545,-1.97234424,-0.21526635,-2.11457242

>  <Name>
ligand

>  <RI>
0

>  <Rbt.Current_Directory>
/home/itssahil/PROJECTS/Mol_Feturizer/New_Systems/rnas/4LVW

>  <Rbt.Executable>
rbdock ($Id: //depot/dev/client3/rdock/2013.1/src/exe/rbdock.cxx#4 $)

>  <Rbt.Library>
libRbt.so (2013.1, Build901 2013/11/27)

>  <Rbt.Parameter_File>
/export/apps/rDock/src/rDock_2013.1_src/data/scripts/dock_solv.prm

>  <Rbt.Receptor>
prm/blind_docking_60.prm

>  <SCORE>
-14.2381

>  <SCORE.INTER>
-14.2381

>  <SCORE.INTER.CONST>
1

>  <SCORE.INTER.POLAR>
0

>  <SCORE.INTER.ROT>
0

>  <SCORE.INTER.SOLV>
7.12538

>  <SCORE.INTER.VDW>
-15.4672

>  <SCORE.INTER.norm>
-1.29438

>  <SCORE.INTRA>
0

>  <SCORE.INTRA.DIHEDRAL>
0

>  <SCORE.INTRA.DIHEDRAL.0>
0

>  <SCORE.INTRA.POLAR>
0

>  <SCORE.INTRA.POLAR.0>
0

>  <SCORE.INTRA.REPUL>
0

>  <SCORE.INTRA.REPUL.0>
0

>  <SCORE.INTRA.SOLV>
0

>  <SCORE.INTRA.SOLV.lig_0>
-29.307

>  <SCORE.INTRA.VDW>
0

>  <SCORE.INTRA.VDW.0>
0

>  <SCORE.INTRA.norm>
0

>  <SCORE.RESTR>
0

>  <SCORE.RESTR.CAVITY>
0

>  <SCORE.RESTR.norm>
0

>  <SCORE.SYSTEM>
0

>  <SCORE.SYSTEM.CONST>
0

>  <SCORE.SYSTEM.DIHEDRAL>
0

>  <SCORE.SYSTEM.SOLV>
0

>  <SCORE.SYSTEM.norm>
0

>  <SCORE.heavy>
11

>  <SCORE.norm>
-1.29438

>  <RMSD>
11.753

$$$$
ligand
 OpenBabel11021811503D
libRbt.so/2013.1/901 2013/11/27
 11 12  0  0  0  0  0  0  0  0999 V2000
    4.8187  -27.8868   16.3831 N   0  0  0  0  0  0  0  0  0  0  0  0
    3.9251  -28.7873   16.8289 C   0  0  0  0  0  0  0  0  0  0  0  0
    4.3657  -29.9801   17.4775 N   0  0  0  0  0  0  0  0  0  0  0  0
    2.6078  -28.6067   16.6947 N   0  0  0  0  0  0  0  0  0  0  0  0
    2.1054  -27.4898   16.0713 C   0  0  0  0  0  0  0  0  0  0  0  0
    2.9895  -26.5429   15.6016 C   0  0  0  0  0  0  0  0  0  0  0  0
    4.3875  -26.7554   15.7752 C   0  0  0  0  0  0  0  0  0  0  0  0
    5.2818  -25.8190   15.3066 O   0  0  0  0  0  0  0  0  0  0  0  0
    2.1958  -25.5029   15.0215 C   0  0  0  0  0  0  0  0  0  0  0  0
    0.8577  -25.8926   15.1721 C   0  0  0  0  0  0  0  0  0  0  0  0
    0.8210  -27.0763   15.7969 N   0  0  0  0  0  0  0  0  0  0  0  0
  1  2  1  0  0  0  0
  1  7  1  0  0  0  0
  2  3  1  0  0  0  0
  2  4  2  0  0  0  0
  4  5  1  0  0  0  0
  5  6  2  0  0  0  0
  5 11  1  0  0  0  0
  6  7  1  0  0  0  0
  6  9  1  0  0  0  0
  7  8  2  0  0  0  0
  9 10  2  0  0  0  0
 10 11  1  0  0  0  0
M  END
>  <CHROM.1>
3.18469041,-27.32257109,16.02415542,-0.83510532,-0.03427573,-0.48813904

>  <Name>
ligand

>  <RI>
0

>  <Rbt.Current_Directory>
/home/itssahil/PROJECTS/Mol_Feturizer/New_Systems/rnas/4LVW

>  <Rbt.Executable>
rbdock ($Id: //depot/dev/client3/rdock/2013.1/src/exe/rbdock.cxx#4 $)

>  <Rbt.Library>
libRbt.so (2013.1, Build901 2013/11/27)

>  <Rbt.Parameter_File>
/export/apps/rDock/src/rDock_2013.1_src/data/scripts/dock_solv.prm

>  <Rbt.Receptor>
prm/blind_docking_40.prm

>  <SCORE>
-8.69737

>  <SCORE.INTER>
-8.69737

>  <SCORE.INTER.CONST>
1

>  <SCORE.INTER.POLAR>
0

>  <SCORE.INTER.ROT>
0

>  <SCORE.INTER.SOLV>
5.60644

>  <SCORE.INTER.VDW>
-11.2671

>  <SCORE.INTER.norm>
-0.79067

>  <SCORE.INTRA>
0

>  <SCORE.INTRA.DIHEDRAL>
0

>  <SCORE.INTRA.DIHEDRAL.0>
0

>  <SCORE.INTRA.POLAR>
0

>  <SCORE.INTRA.POLAR.0>
0

>  <SCORE.INTRA.REPUL>
0

>  <SCORE.INTRA.REPUL.0>
0

>  <SCORE.INTRA.SOLV>
0

>  <SCORE.INTRA.SOLV.lig_0>
-29.307

>  <SCORE.INTRA.VDW>
0

>  <SCORE.INTRA.VDW.0>
0

>  <SCORE.INTRA.norm>
0

>  <SCORE.RESTR>
0

>  <SCORE.RESTR.CAVITY>
0

>  <SCORE.RESTR.norm>
0

>  <SCORE.SYSTEM>
0

>  <SCORE.SYSTEM.CONST>
0

>  <SCORE.SYSTEM.DIHEDRAL>
0

>  <SCORE.SYSTEM.SOLV>
0

>  <SCORE.SYSTEM.norm>
0

>  <SCORE.heavy>
11

>  <SCORE.norm>
-0.79067

>  <RMSD>
11.755

$$$$
ligand
 OpenBabel11021811503D
libRbt.so/2013.1/901 2013/11/27
 11 12  0  0  0  0  0  0  0  0999 V2000
   -4.3627  -28.9866   29.2624 N   0  0  0  0  0  0  0  0  0  0  0  0
   -5.6183  -29.4293   29.0729 C   0  0  0  0  0  0  0  0  0  0  0  0
   -6.6436  -29.1145   30.0147 N   0  0  0  0  0  0  0  0  0  0  0  0
   -5.9591  -30.1639   28.0099 N   0  0  0  0  0  0  0  0  0  0  0  0
   -5.0266  -30.5185   27.0648 C   0  0  0  0  0  0  0  0  0  0  0  0
   -3.7289  -30.0830   27.2231 C   0  0  0  0  0  0  0  0  0  0  0  0
   -3.3999  -29.2865   28.3576 C   0  0  0  0  0  0  0  0  0  0  0  0
   -2.1058  -28.8485   28.5299 O   0  0  0  0  0  0  0  0  0  0  0  0
   -2.9956  -30.5846   26.1011 C   0  0  0  0  0  0  0  0  0  0  0  0
   -3.9075  -31.3104   25.3221 C   0  0  0  0  0  0  0  0  0  0  0  0
   -5.1100  -31.2624   25.9091 N   0  0  0  0  0  0  0  0  0  0  0  0
  1  2  1  0  0  0  0
  1  7  1  0  0  0  0
  2  3  1  0  0  0  0
  2  4  2  0  0  0  0
  4  5  1  0  0  0  0
  5  6  2  0  0  0  0
  5 11  1  0  0  0  0
  6  7  1  0  0  0  0
  6  9  1  0  0  0  0
  7  8  2  0  0  0  0
  9 10  2  0  0  0  0
 10 11  1  0  0  0  0
M  END
>  <CHROM.1>
-4.43666245,-29.92725507,27.77012293,-1.97625780,-0.21815414,-2.12604083

>  <Name>
ligand

>  <RI>
0

>  <Rbt.Current_Directory>
/home/itssahil/PROJECTS/Mol_Feturizer/New_Systems/rnas/4LVW

>  <Rbt.Executable>
rbdock ($Id: //depot/dev/client3/rdock/2013.1/src/exe/rbdock.cxx#4 $)

>  <Rbt.Library>
libRbt.so (2013.1, Build901 2013/11/27)

>  <Rbt.Parameter_File>
/export/apps/rDock/src/rDock_2013.1_src/data/scripts/dock_solv.prm

>  <Rbt.Receptor>
prm/blind_docking_80.prm

>  <SCORE>
-14.3336

>  <SCORE.INTER>
-14.3336

>  <SCORE.INTER.CONST>
1

>  <SCORE.INTER.POLAR>
0

>  <SCORE.INTER.ROT>
0

>  <SCORE.INTER.SOLV>
7.15329

>  <SCORE.INTER.VDW>
-15.5402

>  <SCORE.INTER.norm>
-1.30305

>  <SCORE.INTRA>
0

>  <SCORE.INTRA.DIHEDRAL>
0

>  <SCORE.INTRA.DIHEDRAL.0>
0

>  <SCORE.INTRA.POLAR>
0

>  <SCORE.INTRA.POLAR.0>
0

>  <SCORE.INTRA.REPUL>
0

>  <SCORE.INTRA.REPUL.0>
0

>  <SCORE.INTRA.SOLV>
0

>  <SCORE.INTRA.SOLV.lig_0>
-29.307

>  <SCORE.INTRA.VDW>
0

>  <SCORE.INTRA.VDW.0>
0

>  <SCORE.INTRA.norm>
0

>  <SCORE.RESTR>
0

>  <SCORE.RESTR.CAVITY>
0

>  <SCORE.RESTR.norm>
0

>  <SCORE.SYSTEM>
0

>  <SCORE.SYSTEM.CONST>
0

>  <SCORE.SYSTEM.DIHEDRAL>
0

>  <SCORE.SYSTEM.SOLV>
0

>  <SCORE.SYSTEM.norm>
0

>  <SCORE.heavy>
11

>  <SCORE.norm>
-1.30305

>  <RMSD>
11.765

$$$$
ligand
 OpenBabel11021811503D
libRbt.so/2013.1/901 2013/11/27
 11 12  0  0  0  0  0  0  0  0999 V2000
    3.7574  -27.2824   16.0726 N   0  0  0  0  0  0  0  0  0  0  0  0
    3.1143  -28.3878   16.4882 C   0  0  0  0  0  0  0  0  0  0  0  0
    3.8464  -29.4885   17.0267 N   0  0  0  0  0  0  0  0  0  0  0  0
    1.7843  -28.5014   16.4246 N   0  0  0  0  0  0  0  0  0  0  0  0
    1.0103  -27.4901   15.9081 C   0  0  0  0  0  0  0  0  0  0  0  0
    1.6326  -26.3403   15.4727 C   0  0  0  0  0  0  0  0  0  0  0  0
    3.0505  -26.2418   15.5697 C   0  0  0  0  0  0  0  0  0  0  0  0
    3.6851  -25.0999   15.1341 O   0  0  0  0  0  0  0  0  0  0  0  0
    0.5948  -25.4722   15.0062 C   0  0  0  0  0  0  0  0  0  0  0  0
   -0.6119  -26.1629   15.1848 C   0  0  0  0  0  0  0  0  0  0  0  0
   -0.3476  -27.3612   15.7207 N   0  0  0  0  0  0  0  0  0  0  0  0
  1  2  1  0  0  0  0
  1  7  1  0  0  0  0
  2  3  1  0  0  0  0
  2  4  2  0  0  0  0
  4  5  1  0  0  0  0
  5  6  2  0  0  0  0
  5 11  1  0  0  0  0
  6  7  1  0  0  0  0
  6  9  1  0  0  0  0
  7  8  2  0  0  0  0
  9 10  2  0  0  0  0
 10 11  1  0  0  0  0
M  END
>  <CHROM.1>
2.02073531,-27.08065453,15.82725319,-0.60837829,-0.08600016,-0.40481979

>  <Name>
ligand

>  <RI>
0

>  <Rbt.Current_Directory>
/home/itssahil/PROJECTS/Mol_Feturizer/New_Systems/rnas/4LVW

>  <Rbt.Executable>
rbdock ($Id: //depot/dev/client3/rdock/2013.1/src/exe/rbdock.cxx#4 $)

>  <Rbt.Library>
libRbt.so (2013.1, Build901 2013/11/27)

>  <Rbt.Parameter_File>
/export/apps/rDock/src/rDock_2013.1_src/data/scripts/dock_solv.prm

>  <Rbt.Receptor>
prm/blind_docking_40.prm

>  <SCORE>
-9.11124

>  <SCORE.INTER>
-9.12211

>  <SCORE.INTER.CONST>
1

>  <SCORE.INTER.POLAR>
0

>  <SCORE.INTER.ROT>
0

>  <SCORE.INTER.SOLV>
6.85889

>  <SCORE.INTER.VDW>
-11.9677

>  <SCORE.INTER.norm>
-0.829282

>  <SCORE.INTRA>
0

>  <SCORE.INTRA.DIHEDRAL>
0

>  <SCORE.INTRA.DIHEDRAL.0>
0

>  <SCORE.INTRA.POLAR>
0

>  <SCORE.INTRA.POLAR.0>
0

>  <SCORE.INTRA.REPUL>
0

>  <SCORE.INTRA.REPUL.0>
0

>  <SCORE.INTRA.SOLV>
0

>  <SCORE.INTRA.SOLV.lig_0>
-29.307

>  <SCORE.INTRA.VDW>
0

>  <SCORE.INTRA.VDW.0>
0

>  <SCORE.INTRA.norm>
0

>  <SCORE.RESTR>
0.010869

>  <SCORE.RESTR.CAVITY>
0.010869

>  <SCORE.RESTR.norm>
0.00098809

>  <SCORE.SYSTEM>
0

>  <SCORE.SYSTEM.CONST>
0

>  <SCORE.SYSTEM.DIHEDRAL>
0

>  <SCORE.SYSTEM.SOLV>
0

>  <SCORE.SYSTEM.norm>
0

>  <SCORE.heavy>
11

>  <SCORE.norm>
-0.828294

>  <RMSD>
11.767

$$$$
ligand
 OpenBabel11021811503D
libRbt.so/2013.1/901 2013/11/27
 11 12  0  0  0  0  0  0  0  0999 V2000
    3.7392  -27.2802   16.0413 N   0  0  0  0  0  0  0  0  0  0  0  0
    3.0930  -28.3777   16.4729 C   0  0  0  0  0  0  0  0  0  0  0  0
    3.8230  -29.4767   17.0177 N   0  0  0  0  0  0  0  0  0  0  0  0
    1.7620  -28.4846   16.4198 N   0  0  0  0  0  0  0  0  0  0  0  0
    0.9899  -27.4746   15.8983 C   0  0  0  0  0  0  0  0  0  0  0  0
    1.6152  -26.3328   15.4465 C   0  0  0  0  0  0  0  0  0  0  0  0
    3.0343  -26.2410   15.5326 C   0  0  0  0  0  0  0  0  0  0  0  0
    3.6720  -25.1073   15.0805 O   0  0  0  0  0  0  0  0  0  0  0  0
    0.5789  -25.4639   14.9783 C   0  0  0  0  0  0  0  0  0  0  0  0
   -0.6302  -26.1461   15.1725 C   0  0  0  0  0  0  0  0  0  0  0  0
   -0.3686  -27.3401   15.7191 N   0  0  0  0  0  0  0  0  0  0  0  0
  1  2  1  0  0  0  0
  1  7  1  0  0  0  0
  2  3  1  0  0  0  0
  2  4  2  0  0  0  0
  4  5  1  0  0  0  0
  5  6  2  0  0  0  0
  5 11  1  0  0  0  0
  6  7  1  0  0  0  0
  6  9  1  0  0  0  0
  7  8  2  0  0  0  0
  9 10  2  0  0  0  0
 10 11  1  0  0  0  0
M  END
>  <CHROM.1>
2.00191329,-27.07148808,15.80606166,-0.61056914,-0.07736119,-0.41543930

>  <Name>
ligand

>  <RI>
0

>  <Rbt.Current_Directory>
/home/itssahil/PROJECTS/Mol_Feturizer/New_Systems/rnas/4LVW

>  <Rbt.Executable>
rbdock ($Id: //depot/dev/client3/rdock/2013.1/src/exe/rbdock.cxx#4 $)

>  <Rbt.Library>
libRbt.so (2013.1, Build901 2013/11/27)

>  <Rbt.Parameter_File>
/export/apps/rDock/src/rDock_2013.1_src/data/scripts/dock_solv.prm

>  <Rbt.Receptor>
prm/blind_docking_40.prm

>  <SCORE>
-9.13749

>  <SCORE.INTER>
-9.14739

>  <SCORE.INTER.CONST>
1

>  <SCORE.INTER.POLAR>
0

>  <SCORE.INTER.ROT>
0

>  <SCORE.INTER.SOLV>
6.78999

>  <SCORE.INTER.VDW>
-11.9616

>  <SCORE.INTER.norm>
-0.831581

>  <SCORE.INTRA>
0

>  <SCORE.INTRA.DIHEDRAL>
0

>  <SCORE.INTRA.DIHEDRAL.0>
0

>  <SCORE.INTRA.POLAR>
0

>  <SCORE.INTRA.POLAR.0>
0

>  <SCORE.INTRA.REPUL>
0

>  <SCORE.INTRA.REPUL.0>
0

>  <SCORE.INTRA.SOLV>
0

>  <SCORE.INTRA.SOLV.lig_0>
-29.307

>  <SCORE.INTRA.VDW>
0

>  <SCORE.INTRA.VDW.0>
0

>  <SCORE.INTRA.norm>
0

>  <SCORE.RESTR>
0.00989964

>  <SCORE.RESTR.CAVITY>
0.00989964

>  <SCORE.RESTR.norm>
0.000899967

>  <SCORE.SYSTEM>
0

>  <SCORE.SYSTEM.CONST>
0

>  <SCORE.SYSTEM.DIHEDRAL>
0

>  <SCORE.SYSTEM.SOLV>
0

>  <SCORE.SYSTEM.norm>
0

>  <SCORE.heavy>
11

>  <SCORE.norm>
-0.830681

>  <RMSD>
11.780

$$$$
ligand
 OpenBabel11021811503D
libRbt.so/2013.1/901 2013/11/27
 11 12  0  0  0  0  0  0  0  0999 V2000
   -2.2962  -30.8542   25.6714 N   0  0  0  0  0  0  0  0  0  0  0  0
   -1.3537  -30.2474   26.4141 C   0  0  0  0  0  0  0  0  0  0  0  0
    0.0071  -30.2362   25.9836 N   0  0  0  0  0  0  0  0  0  0  0  0
   -1.6437  -29.6317   27.5642 N   0  0  0  0  0  0  0  0  0  0  0  0
   -2.9283  -29.6089   28.0518 C   0  0  0  0  0  0  0  0  0  0  0  0
   -3.9228  -30.2190   27.3186 C   0  0  0  0  0  0  0  0  0  0  0  0
   -3.5855  -30.8519   26.0876 C   0  0  0  0  0  0  0  0  0  0  0  0
   -4.5692  -31.4690   25.3474 O   0  0  0  0  0  0  0  0  0  0  0  0
   -5.1378  -30.0288   28.0506 C   0  0  0  0  0  0  0  0  0  0  0  0
   -4.7985  -29.3088   29.2045 C   0  0  0  0  0  0  0  0  0  0  0  0
   -3.4814  -29.0680   29.1908 N   0  0  0  0  0  0  0  0  0  0  0  0
  1  2  1  0  0  0  0
  1  7  1  0  0  0  0
  2  3  1  0  0  0  0
  2  4  2  0  0  0  0
  4  5  1  0  0  0  0
  5  6  2  0  0  0  0
  5 11  1  0  0  0  0
  6  7  1  0  0  0  0
  6  9  1  0  0  0  0
  7  8  2  0  0  0  0
  9 10  2  0  0  0  0
 10 11  1  0  0  0  0
M  END
>  <CHROM.1>
-3.03910373,-30.16478493,27.11700818,0.68265058,-0.16395745,-2.09029014

>  <Name>
ligand

>  <RI>
0

>  <Rbt.Current_Directory>
/home/itssahil/PROJECTS/Mol_Feturizer/New_Systems/rnas/4LVW

>  <Rbt.Executable>
rbdock ($Id: //depot/dev/client3/rdock/2013.1/src/exe/rbdock.cxx#4 $)

>  <Rbt.Library>
libRbt.so (2013.1, Build901 2013/11/27)

>  <Rbt.Parameter_File>
/export/apps/rDock/src/rDock_2013.1_src/data/scripts/dock_solv.prm

>  <Rbt.Receptor>
prm/blind_docking_80.prm

>  <SCORE>
-13.5228

>  <SCORE.INTER>
-13.5228

>  <SCORE.INTER.CONST>
1

>  <SCORE.INTER.POLAR>
0

>  <SCORE.INTER.ROT>
0

>  <SCORE.INTER.SOLV>
9.68803

>  <SCORE.INTER.VDW>
-15.8445

>  <SCORE.INTER.norm>
-1.22935

>  <SCORE.INTRA>
0

>  <SCORE.INTRA.DIHEDRAL>
0

>  <SCORE.INTRA.DIHEDRAL.0>
0

>  <SCORE.INTRA.POLAR>
0

>  <SCORE.INTRA.POLAR.0>
0

>  <SCORE.INTRA.REPUL>
0

>  <SCORE.INTRA.REPUL.0>
0

>  <SCORE.INTRA.SOLV>
0

>  <SCORE.INTRA.SOLV.lig_0>
-29.307

>  <SCORE.INTRA.VDW>
0

>  <SCORE.INTRA.VDW.0>
0

>  <SCORE.INTRA.norm>
0

>  <SCORE.RESTR>
0

>  <SCORE.RESTR.CAVITY>
0

>  <SCORE.RESTR.norm>
0

>  <SCORE.SYSTEM>
0

>  <SCORE.SYSTEM.CONST>
0

>  <SCORE.SYSTEM.DIHEDRAL>
0

>  <SCORE.SYSTEM.SOLV>
0

>  <SCORE.SYSTEM.norm>
0

>  <SCORE.heavy>
11

>  <SCORE.norm>
-1.22935

>  <RMSD>
11.782

$$$$
ligand
 OpenBabel11021811503D
libRbt.so/2013.1/901 2013/11/27
 11 12  0  0  0  0  0  0  0  0999 V2000
   -2.2945  -30.8512   25.6706 N   0  0  0  0  0  0  0  0  0  0  0  0
   -1.3543  -30.2437   26.4157 C   0  0  0  0  0  0  0  0  0  0  0  0
    0.0073  -30.2300   25.9877 N   0  0  0  0  0  0  0  0  0  0  0  0
   -1.6474  -29.6295   27.5658 N   0  0  0  0  0  0  0  0  0  0  0  0
   -2.9329  -29.6091   28.0510 C   0  0  0  0  0  0  0  0  0  0  0  0
   -3.9251  -30.2200   27.3154 C   0  0  0  0  0  0  0  0  0  0  0  0
   -3.5846  -30.8513   26.0845 C   0  0  0  0  0  0  0  0  0  0  0  0
   -4.5659  -31.4692   25.3418 O   0  0  0  0  0  0  0  0  0  0  0  0
   -5.1418  -30.0324   28.0453 C   0  0  0  0  0  0  0  0  0  0  0  0
   -4.8057  -29.3129   29.2005 C   0  0  0  0  0  0  0  0  0  0  0  0
   -3.4889  -29.0701   29.1895 N   0  0  0  0  0  0  0  0  0  0  0  0
  1  2  1  0  0  0  0
  1  7  1  0  0  0  0
  2  3  1  0  0  0  0
  2  4  2  0  0  0  0
  4  5  1  0  0  0  0
  5  6  2  0  0  0  0
  5 11  1  0  0  0  0
  6  7  1  0  0  0  0
  6  9  1  0  0  0  0
  7  8  2  0  0  0  0
  9 10  2  0  0  0  0
 10 11  1  0  0  0  0
M  END
>  <CHROM.1>
-3.04112724,-30.16430207,27.11552468,0.68025401,-0.16434998,-2.08973548

>  <Name>
ligand

>  <RI>
0

>  <Rbt.Current_Directory>
/home/itssahil/PROJECTS/Mol_Feturizer/New_Systems/rnas/4LVW

>  <Rbt.Executable>
rbdock ($Id: //depot/dev/client3/rdock/2013.1/src/exe/rbdock.cxx#4 $)

>  <Rbt.Library>
libRbt.so (2013.1, Build901 2013/11/27)

>  <Rbt.Parameter_File>
/export/apps/rDock/src/rDock_2013.1_src/data/scripts/dock_solv.prm

>  <Rbt.Receptor>
prm/blind_docking_100.prm

>  <SCORE>
-13.5226

>  <SCORE.INTER>
-13.5226

>  <SCORE.INTER.CONST>
1

>  <SCORE.INTER.POLAR>
0

>  <SCORE.INTER.ROT>
0

>  <SCORE.INTER.SOLV>
9.69127

>  <SCORE.INTER.VDW>
-15.8455

>  <SCORE.INTER.norm>
-1.22933

>  <SCORE.INTRA>
0

>  <SCORE.INTRA.DIHEDRAL>
0

>  <SCORE.INTRA.DIHEDRAL.0>
0

>  <SCORE.INTRA.POLAR>
0

>  <SCORE.INTRA.POLAR.0>
0

>  <SCORE.INTRA.REPUL>
0

>  <SCORE.INTRA.REPUL.0>
0

>  <SCORE.INTRA.SOLV>
0

>  <SCORE.INTRA.SOLV.lig_0>
-29.307

>  <SCORE.INTRA.VDW>
0

>  <SCORE.INTRA.VDW.0>
0

>  <SCORE.INTRA.norm>
0

>  <SCORE.RESTR>
0

>  <SCORE.RESTR.CAVITY>
0

>  <SCORE.RESTR.norm>
0

>  <SCORE.SYSTEM>
0

>  <SCORE.SYSTEM.CONST>
0

>  <SCORE.SYSTEM.DIHEDRAL>
0

>  <SCORE.SYSTEM.SOLV>
0

>  <SCORE.SYSTEM.norm>
0

>  <SCORE.heavy>
11

>  <SCORE.norm>
-1.22933

>  <RMSD>
11.783

$$$$
ligand
 OpenBabel11021811503D
libRbt.so/2013.1/901 2013/11/27
 11 12  0  0  0  0  0  0  0  0999 V2000
   -2.2986  -30.8525   25.6813 N   0  0  0  0  0  0  0  0  0  0  0  0
   -1.3561  -30.2510   26.4285 C   0  0  0  0  0  0  0  0  0  0  0  0
    0.0062  -30.2443   26.0025 N   0  0  0  0  0  0  0  0  0  0  0  0
   -1.6475  -29.6366   27.5789 N   0  0  0  0  0  0  0  0  0  0  0  0
   -2.9336  -29.6097   28.0623 C   0  0  0  0  0  0  0  0  0  0  0  0
   -3.9281  -30.2143   27.3244 C   0  0  0  0  0  0  0  0  0  0  0  0
   -3.5892  -30.8460   26.0932 C   0  0  0  0  0  0  0  0  0  0  0  0
   -4.5728  -31.4576   25.3484 O   0  0  0  0  0  0  0  0  0  0  0  0
   -5.1448  -30.0209   28.0528 C   0  0  0  0  0  0  0  0  0  0  0  0
   -4.8065  -29.3046   29.2093 C   0  0  0  0  0  0  0  0  0  0  0  0
   -3.4884  -29.0690   29.2006 N   0  0  0  0  0  0  0  0  0  0  0  0
  1  2  1  0  0  0  0
  1  7  1  0  0  0  0
  2  3  1  0  0  0  0
  2  4  2  0  0  0  0
  4  5  1  0  0  0  0
  5  6  2  0  0  0  0
  5 11  1  0  0  0  0
  6  7  1  0  0  0  0
  6  9  1  0  0  0  0
  7  8  2  0  0  0  0
  9 10  2  0  0  0  0
 10 11  1  0  0  0  0
M  END
>  <CHROM.1>
-3.04351962,-30.16319284,27.12593740,0.68169793,-0.15884595,-2.08831773

>  <Name>
ligand

>  <RI>
0

>  <Rbt.Current_Directory>
/home/itssahil/PROJECTS/Mol_Feturizer/New_Systems/rnas/4LVW

>  <Rbt.Executable>
rbdock ($Id: //depot/dev/client3/rdock/2013.1/src/exe/rbdock.cxx#4 $)

>  <Rbt.Library>
libRbt.so (2013.1, Build901 2013/11/27)

>  <Rbt.Parameter_File>
/export/apps/rDock/src/rDock_2013.1_src/data/scripts/dock_solv.prm

>  <Rbt.Receptor>
prm/blind_docking_60.prm

>  <SCORE>
-13.4921

>  <SCORE.INTER>
-13.4921

>  <SCORE.INTER.CONST>
1

>  <SCORE.INTER.POLAR>
0

>  <SCORE.INTER.ROT>
0

>  <SCORE.INTER.SOLV>
9.66865

>  <SCORE.INTER.VDW>
-15.8176

>  <SCORE.INTER.norm>
-1.22655

>  <SCORE.INTRA>
0

>  <SCORE.INTRA.DIHEDRAL>
0

>  <SCORE.INTRA.DIHEDRAL.0>
0

>  <SCORE.INTRA.POLAR>
0

>  <SCORE.INTRA.POLAR.0>
0

>  <SCORE.INTRA.REPUL>
0

>  <SCORE.INTRA.REPUL.0>
0

>  <SCORE.INTRA.SOLV>
0

>  <SCORE.INTRA.SOLV.lig_0>
-29.307

>  <SCORE.INTRA.VDW>
0

>  <SCORE.INTRA.VDW.0>
0

>  <SCORE.INTRA.norm>
0

>  <SCORE.RESTR>
0

>  <SCORE.RESTR.CAVITY>
0

>  <SCORE.RESTR.norm>
0

>  <SCORE.SYSTEM>
0

>  <SCORE.SYSTEM.CONST>
0

>  <SCORE.SYSTEM.DIHEDRAL>
0

>  <SCORE.SYSTEM.SOLV>
0

>  <SCORE.SYSTEM.norm>
0

>  <SCORE.heavy>
11

>  <SCORE.norm>
-1.22655

>  <RMSD>
11.784

$$$$
ligand
 OpenBabel11021811503D
libRbt.so/2013.1/901 2013/11/27
 11 12  0  0  0  0  0  0  0  0999 V2000
   -2.3024  -30.8492   25.6842 N   0  0  0  0  0  0  0  0  0  0  0  0
   -1.3589  -30.2496   26.4317 C   0  0  0  0  0  0  0  0  0  0  0  0
    0.0028  -30.2418   26.0039 N   0  0  0  0  0  0  0  0  0  0  0  0
   -1.6487  -29.6382   27.5841 N   0  0  0  0  0  0  0  0  0  0  0  0
   -2.9342  -29.6126   28.0693 C   0  0  0  0  0  0  0  0  0  0  0  0
   -3.9297  -30.2152   27.3313 C   0  0  0  0  0  0  0  0  0  0  0  0
   -3.5925  -30.8437   26.0980 C   0  0  0  0  0  0  0  0  0  0  0  0
   -4.5771  -31.4534   25.3530 O   0  0  0  0  0  0  0  0  0  0  0  0
   -5.1453  -30.0237   28.0618 C   0  0  0  0  0  0  0  0  0  0  0  0
   -4.8054  -29.3105   29.2197 C   0  0  0  0  0  0  0  0  0  0  0  0
   -3.4874  -29.0748   29.2098 N   0  0  0  0  0  0  0  0  0  0  0  0
  1  2  1  0  0  0  0
  1  7  1  0  0  0  0
  2  3  1  0  0  0  0
  2  4  2  0  0  0  0
  4  5  1  0  0  0  0
  5  6  2  0  0  0  0
  5 11  1  0  0  0  0
  6  7  1  0  0  0  0
  6  9  1  0  0  0  0
  7  8  2  0  0  0  0
  9 10  2  0  0  0  0
 10 11  1  0  0  0  0
M  END
>  <CHROM.1>
-3.04535798,-30.16361465,27.13167125,0.68291337,-0.15953569,-2.08553637

>  <Name>
ligand

>  <RI>
0

>  <Rbt.Current_Directory>
/home/itssahil/PROJECTS/Mol_Feturizer/New_Systems/rnas/4LVW

>  <Rbt.Executable>
rbdock ($Id: //depot/dev/client3/rdock/2013.1/src/exe/rbdock.cxx#4 $)

>  <Rbt.Library>
libRbt.so (2013.1, Build901 2013/11/27)

>  <Rbt.Parameter_File>
/export/apps/rDock/src/rDock_2013.1_src/data/scripts/dock_solv.prm

>  <Rbt.Receptor>
prm/blind_docking_80.prm

>  <SCORE>
-13.4912

>  <SCORE.INTER>
-13.4912

>  <SCORE.INTER.CONST>
1

>  <SCORE.INTER.POLAR>
0

>  <SCORE.INTER.ROT>
0

>  <SCORE.INTER.SOLV>
9.66573

>  <SCORE.INTER.VDW>
-15.8161

>  <SCORE.INTER.norm>
-1.22648

>  <SCORE.INTRA>
0

>  <SCORE.INTRA.DIHEDRAL>
0

>  <SCORE.INTRA.DIHEDRAL.0>
0

>  <SCORE.INTRA.POLAR>
0

>  <SCORE.INTRA.POLAR.0>
0

>  <SCORE.INTRA.REPUL>
0

>  <SCORE.INTRA.REPUL.0>
0

>  <SCORE.INTRA.SOLV>
0

>  <SCORE.INTRA.SOLV.lig_0>
-29.307

>  <SCORE.INTRA.VDW>
0

>  <SCORE.INTRA.VDW.0>
0

>  <SCORE.INTRA.norm>
0

>  <SCORE.RESTR>
0

>  <SCORE.RESTR.CAVITY>
0

>  <SCORE.RESTR.norm>
0

>  <SCORE.SYSTEM>
0

>  <SCORE.SYSTEM.CONST>
0

>  <SCORE.SYSTEM.DIHEDRAL>
0

>  <SCORE.SYSTEM.SOLV>
0

>  <SCORE.SYSTEM.norm>
0

>  <SCORE.heavy>
11

>  <SCORE.norm>
-1.22648

>  <RMSD>
11.787

$$$$
ligand
 OpenBabel11021811503D
libRbt.so/2013.1/901 2013/11/27
 11 12  0  0  0  0  0  0  0  0999 V2000
   -2.3041  -30.8539   25.6844 N   0  0  0  0  0  0  0  0  0  0  0  0
   -1.3621  -30.2496   26.4299 C   0  0  0  0  0  0  0  0  0  0  0  0
   -0.0002  -30.2407   26.0025 N   0  0  0  0  0  0  0  0  0  0  0  0
   -1.6535  -29.6342   27.5797 N   0  0  0  0  0  0  0  0  0  0  0  0
   -2.9392  -29.6093   28.0644 C   0  0  0  0  0  0  0  0  0  0  0  0
   -3.9332  -30.2168   27.3284 C   0  0  0  0  0  0  0  0  0  0  0  0
   -3.5943  -30.8494   26.0977 C   0  0  0  0  0  0  0  0  0  0  0  0
   -4.5775  -31.4640   25.3547 O   0  0  0  0  0  0  0  0  0  0  0  0
   -5.1495  -30.0248   28.0577 C   0  0  0  0  0  0  0  0  0  0  0  0
   -4.8115  -29.3064   29.2129 C   0  0  0  0  0  0  0  0  0  0  0  0
   -3.4939  -29.0682   29.2025 N   0  0  0  0  0  0  0  0  0  0  0  0
  1  2  1  0  0  0  0
  1  7  1  0  0  0  0
  2  3  1  0  0  0  0
  2  4  2  0  0  0  0
  4  5  1  0  0  0  0
  5  6  2  0  0  0  0
  5 11  1  0  0  0  0
  6  7  1  0  0  0  0
  6  9  1  0  0  0  0
  7  8  2  0  0  0  0
  9 10  2  0  0  0  0
 10 11  1  0  0  0  0
M  END
>  <CHROM.1>
-3.04892808,-30.16418198,27.12889202,0.68160261,-0.16109155,-2.08966366

>  <Name>
ligand

>  <RI>
0

>  <Rbt.Current_Directory>
/home/itssahil/PROJECTS/Mol_Feturizer/New_Systems/rnas/4LVW

>  <Rbt.Executable>
rbdock ($Id: //depot/dev/client3/rdock/2013.1/src/exe/rbdock.cxx#4 $)

>  <Rbt.Library>
libRbt.so (2013.1, Build901 2013/11/27)

>  <Rbt.Parameter_File>
/export/apps/rDock/src/rDock_2013.1_src/data/scripts/dock_solv.prm

>  <Rbt.Receptor>
prm/blind_docking_60.prm

>  <SCORE>
-13.4947

>  <SCORE.INTER>
-13.4947

>  <SCORE.INTER.CONST>
1

>  <SCORE.INTER.POLAR>
0

>  <SCORE.INTER.ROT>
0

>  <SCORE.INTER.SOLV>
9.66702

>  <SCORE.INTER.VDW>
-15.8188

>  <SCORE.INTER.norm>
-1.22679

>  <SCORE.INTRA>
0

>  <SCORE.INTRA.DIHEDRAL>
0

>  <SCORE.INTRA.DIHEDRAL.0>
0

>  <SCORE.INTRA.POLAR>
0

>  <SCORE.INTRA.POLAR.0>
0

>  <SCORE.INTRA.REPUL>
0

>  <SCORE.INTRA.REPUL.0>
0

>  <SCORE.INTRA.SOLV>
0

>  <SCORE.INTRA.SOLV.lig_0>
-29.307

>  <SCORE.INTRA.VDW>
0

>  <SCORE.INTRA.VDW.0>
0

>  <SCORE.INTRA.norm>
0

>  <SCORE.RESTR>
0

>  <SCORE.RESTR.CAVITY>
0

>  <SCORE.RESTR.norm>
0

>  <SCORE.SYSTEM>
0

>  <SCORE.SYSTEM.CONST>
0

>  <SCORE.SYSTEM.DIHEDRAL>
0

>  <SCORE.SYSTEM.SOLV>
0

>  <SCORE.SYSTEM.norm>
0

>  <SCORE.heavy>
11

>  <SCORE.norm>
-1.22679

>  <RMSD>
11.788

$$$$
ligand
 OpenBabel11021811503D
libRbt.so/2013.1/901 2013/11/27
 11 12  0  0  0  0  0  0  0  0999 V2000
   -2.3039  -30.8548   25.6854 N   0  0  0  0  0  0  0  0  0  0  0  0
   -1.3622  -30.2500   26.4309 C   0  0  0  0  0  0  0  0  0  0  0  0
   -0.0002  -30.2411   26.0039 N   0  0  0  0  0  0  0  0  0  0  0  0
   -1.6541  -29.6343   27.5805 N   0  0  0  0  0  0  0  0  0  0  0  0
   -2.9399  -29.6095   28.0648 C   0  0  0  0  0  0  0  0  0  0  0  0
   -3.9336  -30.2174   27.3287 C   0  0  0  0  0  0  0  0  0  0  0  0
   -3.5942  -30.8504   26.0983 C   0  0  0  0  0  0  0  0  0  0  0  0
   -4.5771  -31.4654   25.3553 O   0  0  0  0  0  0  0  0  0  0  0  0
   -5.1501  -30.0255   28.0576 C   0  0  0  0  0  0  0  0  0  0  0  0
   -4.8125  -29.3065   29.2127 C   0  0  0  0  0  0  0  0  0  0  0  0
   -3.4950  -29.0681   29.2026 N   0  0  0  0  0  0  0  0  0  0  0  0
  1  2  1  0  0  0  0
  1  7  1  0  0  0  0
  2  3  1  0  0  0  0
  2  4  2  0  0  0  0
  4  5  1  0  0  0  0
  5  6  2  0  0  0  0
  5 11  1  0  0  0  0
  6  7  1  0  0  0  0
  6  9  1  0  0  0  0
  7  8  2  0  0  0  0
  9 10  2  0  0  0  0
 10 11  1  0  0  0  0
M  END
>  <CHROM.1>
-3.04926735,-30.16472428,27.12944856,0.68126133,-0.16111732,-2.09005651

>  <Name>
ligand

>  <RI>
0

>  <Rbt.Current_Directory>
/home/itssahil/PROJECTS/Mol_Feturizer/New_Systems/rnas/4LVW

>  <Rbt.Executable>
rbdock ($Id: //depot/dev/client3/rdock/2013.1/src/exe/rbdock.cxx#4 $)

>  <Rbt.Library>
libRbt.so (2013.1, Build901 2013/11/27)

>  <Rbt.Parameter_File>
/export/apps/rDock/src/rDock_2013.1_src/data/scripts/dock_solv.prm

>  <Rbt.Receptor>
prm/blind_docking_60.prm

>  <SCORE>
-13.4945

>  <SCORE.INTER>
-13.4945

>  <SCORE.INTER.CONST>
1

>  <SCORE.INTER.POLAR>
0

>  <SCORE.INTER.ROT>
0

>  <SCORE.INTER.SOLV>
9.66804

>  <SCORE.INTER.VDW>
-15.819

>  <SCORE.INTER.norm>
-1.22677

>  <SCORE.INTRA>
0

>  <SCORE.INTRA.DIHEDRAL>
0

>  <SCORE.INTRA.DIHEDRAL.0>
0

>  <SCORE.INTRA.POLAR>
0

>  <SCORE.INTRA.POLAR.0>
0

>  <SCORE.INTRA.REPUL>
0

>  <SCORE.INTRA.REPUL.0>
0

>  <SCORE.INTRA.SOLV>
0

>  <SCORE.INTRA.SOLV.lig_0>
-29.307

>  <SCORE.INTRA.VDW>
0

>  <SCORE.INTRA.VDW.0>
0

>  <SCORE.INTRA.norm>
0

>  <SCORE.RESTR>
0

>  <SCORE.RESTR.CAVITY>
0

>  <SCORE.RESTR.norm>
0

>  <SCORE.SYSTEM>
0

>  <SCORE.SYSTEM.CONST>
0

>  <SCORE.SYSTEM.DIHEDRAL>
0

>  <SCORE.SYSTEM.SOLV>
0

>  <SCORE.SYSTEM.norm>
0

>  <SCORE.heavy>
11

>  <SCORE.norm>
-1.22677

>  <RMSD>
11.789

$$$$
ligand
 OpenBabel11021811503D
libRbt.so/2013.1/901 2013/11/27
 11 12  0  0  0  0  0  0  0  0999 V2000
   -2.3076  -30.8548   25.6895 N   0  0  0  0  0  0  0  0  0  0  0  0
   -1.3646  -30.2508   26.4339 C   0  0  0  0  0  0  0  0  0  0  0  0
   -0.0031  -30.2427   26.0050 N   0  0  0  0  0  0  0  0  0  0  0  0
   -1.6545  -29.6351   27.5839 N   0  0  0  0  0  0  0  0  0  0  0  0
   -2.9397  -29.6096   28.0699 C   0  0  0  0  0  0  0  0  0  0  0  0
   -3.9347  -30.2167   27.3351 C   0  0  0  0  0  0  0  0  0  0  0  0
   -3.5974  -30.8497   26.1041 C   0  0  0  0  0  0  0  0  0  0  0  0
   -4.5816  -31.4639   25.3622 O   0  0  0  0  0  0  0  0  0  0  0  0
   -5.1502  -30.0241   28.0656 C   0  0  0  0  0  0  0  0  0  0  0  0
   -4.8106  -29.3057   29.2204 C   0  0  0  0  0  0  0  0  0  0  0  0
   -3.4929  -29.0681   29.2086 N   0  0  0  0  0  0  0  0  0  0  0  0
  1  2  1  0  0  0  0
  1  7  1  0  0  0  0
  2  3  1  0  0  0  0
  2  4  2  0  0  0  0
  4  5  1  0  0  0  0
  5  6  2  0  0  0  0
  5 11  1  0  0  0  0
  6  7  1  0  0  0  0
  6  9  1  0  0  0  0
  7  8  2  0  0  0  0
  9 10  2  0  0  0  0
 10 11  1  0  0  0  0
M  END
>  <CHROM.1>
-3.05062534,-30.16457064,27.13464103,0.68275750,-0.16121429,-2.08960436

>  <Name>
ligand

>  <RI>
0

>  <Rbt.Current_Directory>
/home/itssahil/PROJECTS/Mol_Feturizer/New_Systems/rnas/4LVW

>  <Rbt.Executable>
rbdock ($Id: //depot/dev/client3/rdock/2013.1/src/exe/rbdock.cxx#4 $)

>  <Rbt.Library>
libRbt.so (2013.1, Build901 2013/11/27)

>  <Rbt.Parameter_File>
/export/apps/rDock/src/rDock_2013.1_src/data/scripts/dock_solv.prm

>  <Rbt.Receptor>
prm/blind_docking_80.prm

>  <SCORE>
-13.4939

>  <SCORE.INTER>
-13.4939

>  <SCORE.INTER.CONST>
1

>  <SCORE.INTER.POLAR>
0

>  <SCORE.INTER.ROT>
0

>  <SCORE.INTER.SOLV>
9.66323

>  <SCORE.INTER.VDW>
-15.817

>  <SCORE.INTER.norm>
-1.22672

>  <SCORE.INTRA>
0

>  <SCORE.INTRA.DIHEDRAL>
0

>  <SCORE.INTRA.DIHEDRAL.0>
0

>  <SCORE.INTRA.POLAR>
0

>  <SCORE.INTRA.POLAR.0>
0

>  <SCORE.INTRA.REPUL>
0

>  <SCORE.INTRA.REPUL.0>
0

>  <SCORE.INTRA.SOLV>
0

>  <SCORE.INTRA.SOLV.lig_0>
-29.307

>  <SCORE.INTRA.VDW>
0

>  <SCORE.INTRA.VDW.0>
0

>  <SCORE.INTRA.norm>
0

>  <SCORE.RESTR>
0

>  <SCORE.RESTR.CAVITY>
0

>  <SCORE.RESTR.norm>
0

>  <SCORE.SYSTEM>
0

>  <SCORE.SYSTEM.CONST>
0

>  <SCORE.SYSTEM.DIHEDRAL>
0

>  <SCORE.SYSTEM.SOLV>
0

>  <SCORE.SYSTEM.norm>
0

>  <SCORE.heavy>
11

>  <SCORE.norm>
-1.22672

>  <RMSD>
11.790

$$$$
ligand
 OpenBabel11021811503D
libRbt.so/2013.1/901 2013/11/27
 11 12  0  0  0  0  0  0  0  0999 V2000
    3.7197  -27.2888   16.0270 N   0  0  0  0  0  0  0  0  0  0  0  0
    3.0789  -28.3826   16.4755 C   0  0  0  0  0  0  0  0  0  0  0  0
    3.8145  -29.4709   17.0342 N   0  0  0  0  0  0  0  0  0  0  0  0
    1.7482  -28.4957   16.4270 N   0  0  0  0  0  0  0  0  0  0  0  0
    0.9709  -27.4962   15.8929 C   0  0  0  0  0  0  0  0  0  0  0  0
    1.5906  -26.3584   15.4235 C   0  0  0  0  0  0  0  0  0  0  0  0
    3.0096  -26.2598   15.5051 C   0  0  0  0  0  0  0  0  0  0  0  0
    3.6416  -25.1300   15.0357 O   0  0  0  0  0  0  0  0  0  0  0  0
    0.5498  -25.5004   14.9454 C   0  0  0  0  0  0  0  0  0  0  0  0
   -0.6561  -26.1846   15.1520 C   0  0  0  0  0  0  0  0  0  0  0  0
   -0.3886  -27.3697   15.7148 N   0  0  0  0  0  0  0  0  0  0  0  0
  1  2  1  0  0  0  0
  1  7  1  0  0  0  0
  2  3  1  0  0  0  0
  2  4  2  0  0  0  0
  4  5  1  0  0  0  0
  5  6  2  0  0  0  0
  5 11  1  0  0  0  0
  6  7  1  0  0  0  0
  6  9  1  0  0  0  0
  7  8  2  0  0  0  0
  9 10  2  0  0  0  0
 10 11  1  0  0  0  0
M  END
>  <CHROM.1>
1.98106987,-27.09040853,15.79267746,-0.60598973,-0.07700218,-0.42925606

>  <Name>
ligand

>  <RI>
0

>  <Rbt.Current_Directory>
/home/itssahil/PROJECTS/Mol_Feturizer/New_Systems/rnas/4LVW

>  <Rbt.Executable>
rbdock ($Id: //depot/dev/client3/rdock/2013.1/src/exe/rbdock.cxx#4 $)

>  <Rbt.Library>
libRbt.so (2013.1, Build901 2013/11/27)

>  <Rbt.Parameter_File>
/export/apps/rDock/src/rDock_2013.1_src/data/scripts/dock_solv.prm

>  <Rbt.Receptor>
prm/blind_docking_40.prm

>  <SCORE>
-9.23126

>  <SCORE.INTER>
-9.25472

>  <SCORE.INTER.CONST>
1

>  <SCORE.INTER.POLAR>
0

>  <SCORE.INTER.ROT>
0

>  <SCORE.INTER.SOLV>
6.72638

>  <SCORE.INTER.VDW>
-12.0119

>  <SCORE.INTER.norm>
-0.841338

>  <SCORE.INTRA>
0

>  <SCORE.INTRA.DIHEDRAL>
0

>  <SCORE.INTRA.DIHEDRAL.0>
0

>  <SCORE.INTRA.POLAR>
0

>  <SCORE.INTRA.POLAR.0>
0

>  <SCORE.INTRA.REPUL>
0

>  <SCORE.INTRA.REPUL.0>
0

>  <SCORE.INTRA.SOLV>
0

>  <SCORE.INTRA.SOLV.lig_0>
-29.307

>  <SCORE.INTRA.VDW>
0

>  <SCORE.INTRA.VDW.0>
0

>  <SCORE.INTRA.norm>
0

>  <SCORE.RESTR>
0.0234587

>  <SCORE.RESTR.CAVITY>
0.0234587

>  <SCORE.RESTR.norm>
0.00213261

>  <SCORE.SYSTEM>
0

>  <SCORE.SYSTEM.CONST>
0

>  <SCORE.SYSTEM.DIHEDRAL>
0

>  <SCORE.SYSTEM.SOLV>
0

>  <SCORE.SYSTEM.norm>
0

>  <SCORE.heavy>
11

>  <SCORE.norm>
-0.839205

>  <RMSD>
11.803

$$$$
ligand
 OpenBabel11021811503D
libRbt.so/2013.1/901 2013/11/27
 11 12  0  0  0  0  0  0  0  0999 V2000
    3.7067  -27.2979   16.0114 N   0  0  0  0  0  0  0  0  0  0  0  0
    3.0604  -28.3839   16.4709 C   0  0  0  0  0  0  0  0  0  0  0  0
    3.7910  -29.4735   17.0335 N   0  0  0  0  0  0  0  0  0  0  0  0
    1.7287  -28.4876   16.4301 N   0  0  0  0  0  0  0  0  0  0  0  0
    0.9558  -27.4863   15.8930 C   0  0  0  0  0  0  0  0  0  0  0  0
    1.5813  -26.3564   15.4124 C   0  0  0  0  0  0  0  0  0  0  0  0
    3.0013  -26.2674   15.4859 C   0  0  0  0  0  0  0  0  0  0  0  0
    3.6390  -25.1456   15.0052 O   0  0  0  0  0  0  0  0  0  0  0  0
    0.5442  -25.4942   14.9337 C   0  0  0  0  0  0  0  0  0  0  0  0
   -0.6656  -26.1682   15.1514 C   0  0  0  0  0  0  0  0  0  0  0  0
   -0.4036  -27.3512   15.7212 N   0  0  0  0  0  0  0  0  0  0  0  0
  1  2  1  0  0  0  0
  1  7  1  0  0  0  0
  2  3  1  0  0  0  0
  2  4  2  0  0  0  0
  4  5  1  0  0  0  0
  5  6  2  0  0  0  0
  5 11  1  0  0  0  0
  6  7  1  0  0  0  0
  6  9  1  0  0  0  0
  7  8  2  0  0  0  0
  9 10  2  0  0  0  0
 10 11  1  0  0  0  0
M  END
>  <CHROM.1>
1.96833283,-27.08855906,15.78471584,-0.61037094,-0.06920104,-0.43662713

>  <Name>
ligand

>  <RI>
0

>  <Rbt.Current_Directory>
/home/itssahil/PROJECTS/Mol_Feturizer/New_Systems/rnas/4LVW

>  <Rbt.Executable>
rbdock ($Id: //depot/dev/client3/rdock/2013.1/src/exe/rbdock.cxx#4 $)

>  <Rbt.Library>
libRbt.so (2013.1, Build901 2013/11/27)

>  <Rbt.Parameter_File>
/export/apps/rDock/src/rDock_2013.1_src/data/scripts/dock_solv.prm

>  <Rbt.Receptor>
prm/blind_docking_40.prm

>  <SCORE>
-9.21969

>  <SCORE.INTER>
-9.24514

>  <SCORE.INTER.CONST>
1

>  <SCORE.INTER.POLAR>
0

>  <SCORE.INTER.ROT>
0

>  <SCORE.INTER.SOLV>
6.71805

>  <SCORE.INTER.VDW>
-12.0028

>  <SCORE.INTER.norm>
-0.840467

>  <SCORE.INTRA>
0

>  <SCORE.INTRA.DIHEDRAL>
0

>  <SCORE.INTRA.DIHEDRAL.0>
0

>  <SCORE.INTRA.POLAR>
0

>  <SCORE.INTRA.POLAR.0>
0

>  <SCORE.INTRA.REPUL>
0

>  <SCORE.INTRA.REPUL.0>
0

>  <SCORE.INTRA.SOLV>
0

>  <SCORE.INTRA.SOLV.lig_0>
-29.307

>  <SCORE.INTRA.VDW>
0

>  <SCORE.INTRA.VDW.0>
0

>  <SCORE.INTRA.norm>
0

>  <SCORE.RESTR>
0.025449

>  <SCORE.RESTR.CAVITY>
0.025449

>  <SCORE.RESTR.norm>
0.00231354

>  <SCORE.SYSTEM>
0

>  <SCORE.SYSTEM.CONST>
0

>  <SCORE.SYSTEM.DIHEDRAL>
0

>  <SCORE.SYSTEM.SOLV>
0

>  <SCORE.SYSTEM.norm>
0

>  <SCORE.heavy>
11

>  <SCORE.norm>
-0.838154

>  <RMSD>
11.808

$$$$
ligand
 OpenBabel11021811503D
libRbt.so/2013.1/901 2013/11/27
 11 12  0  0  0  0  0  0  0  0999 V2000
    3.6560  -27.2894   15.9790 N   0  0  0  0  0  0  0  0  0  0  0  0
    3.0003  -28.3778   16.4191 C   0  0  0  0  0  0  0  0  0  0  0  0
    3.7216  -29.4844   16.9602 N   0  0  0  0  0  0  0  0  0  0  0  0
    1.6677  -28.4685   16.3781 N   0  0  0  0  0  0  0  0  0  0  0  0
    0.9034  -27.4503   15.8609 C   0  0  0  0  0  0  0  0  0  0  0  0
    1.5387  -26.3174   15.4007 C   0  0  0  0  0  0  0  0  0  0  0  0
    2.9595  -26.2429   15.4739 C   0  0  0  0  0  0  0  0  0  0  0  0
    3.6070  -25.1182   15.0134 O   0  0  0  0  0  0  0  0  0  0  0  0
    0.5090  -25.4369   14.9395 C   0  0  0  0  0  0  0  0  0  0  0  0
   -0.7066  -26.1037   15.1462 C   0  0  0  0  0  0  0  0  0  0  0  0
   -0.4549  -27.2996   15.6935 N   0  0  0  0  0  0  0  0  0  0  0  0
  1  2  1  0  0  0  0
  1  7  1  0  0  0  0
  2  3  1  0  0  0  0
  2  4  2  0  0  0  0
  4  5  1  0  0  0  0
  5  6  2  0  0  0  0
  5 11  1  0  0  0  0
  6  7  1  0  0  0  0
  6  9  1  0  0  0  0
  7  8  2  0  0  0  0
  9 10  2  0  0  0  0
 10 11  1  0  0  0  0
M  END
>  <CHROM.1>
1.91942234,-27.05992309,15.75867024,-0.61822538,-0.06424147,-0.41844316

>  <Name>
ligand

>  <RI>
0

>  <Rbt.Current_Directory>
/home/itssahil/PROJECTS/Mol_Feturizer/New_Systems/rnas/4LVW

>  <Rbt.Executable>
rbdock ($Id: //depot/dev/client3/rdock/2013.1/src/exe/rbdock.cxx#4 $)

>  <Rbt.Library>
libRbt.so (2013.1, Build901 2013/11/27)

>  <Rbt.Parameter_File>
/export/apps/rDock/src/rDock_2013.1_src/data/scripts/dock_solv.prm

>  <Rbt.Receptor>
prm/blind_docking_40.prm

>  <SCORE>
-9.11677

>  <SCORE.INTER>
-9.12224

>  <SCORE.INTER.CONST>
1

>  <SCORE.INTER.POLAR>
0

>  <SCORE.INTER.ROT>
0

>  <SCORE.INTER.SOLV>
6.84466

>  <SCORE.INTER.VDW>
-11.963

>  <SCORE.INTER.norm>
-0.829295

>  <SCORE.INTRA>
0

>  <SCORE.INTRA.DIHEDRAL>
0

>  <SCORE.INTRA.DIHEDRAL.0>
0

>  <SCORE.INTRA.POLAR>
0

>  <SCORE.INTRA.POLAR.0>
0

>  <SCORE.INTRA.REPUL>
0

>  <SCORE.INTRA.REPUL.0>
0

>  <SCORE.INTRA.SOLV>
0

>  <SCORE.INTRA.SOLV.lig_0>
-29.307

>  <SCORE.INTRA.VDW>
0

>  <SCORE.INTRA.VDW.0>
0

>  <SCORE.INTRA.norm>
0

>  <SCORE.RESTR>
0.00547591

>  <SCORE.RESTR.CAVITY>
0.00547591

>  <SCORE.RESTR.norm>
0.00049781

>  <SCORE.SYSTEM>
0

>  <SCORE.SYSTEM.CONST>
0

>  <SCORE.SYSTEM.DIHEDRAL>
0

>  <SCORE.SYSTEM.SOLV>
0

>  <SCORE.SYSTEM.norm>
0

>  <SCORE.heavy>
11

>  <SCORE.norm>
-0.828797

>  <RMSD>
11.812

$$$$
ligand
 OpenBabel11021811503D
libRbt.so/2013.1/901 2013/11/27
 11 12  0  0  0  0  0  0  0  0999 V2000
   -2.3975  -30.9292   25.6531 N   0  0  0  0  0  0  0  0  0  0  0  0
   -1.4132  -30.3599   26.3710 C   0  0  0  0  0  0  0  0  0  0  0  0
   -0.0628  -30.4125   25.9118 N   0  0  0  0  0  0  0  0  0  0  0  0
   -1.6508  -29.7238   27.5220 N   0  0  0  0  0  0  0  0  0  0  0  0
   -2.9224  -29.6403   28.0364 C   0  0  0  0  0  0  0  0  0  0  0  0
   -3.9585  -30.2104   27.3292 C   0  0  0  0  0  0  0  0  0  0  0  0
   -3.6762  -30.8664   26.0964 C   0  0  0  0  0  0  0  0  0  0  0  0
   -4.7020  -31.4441   25.3821 O   0  0  0  0  0  0  0  0  0  0  0  0
   -5.1479  -29.9611   28.0851 C   0  0  0  0  0  0  0  0  0  0  0  0
   -4.7523  -29.2489   29.2258 C   0  0  0  0  0  0  0  0  0  0  0  0
   -3.4264  -29.0673   29.1825 N   0  0  0  0  0  0  0  0  0  0  0  0
  1  2  1  0  0  0  0
  1  7  1  0  0  0  0
  2  3  1  0  0  0  0
  2  4  2  0  0  0  0
  4  5  1  0  0  0  0
  5  6  2  0  0  0  0
  5 11  1  0  0  0  0
  6  7  1  0  0  0  0
  6  9  1  0  0  0  0
  7  8  2  0  0  0  0
  9 10  2  0  0  0  0
 10 11  1  0  0  0  0
M  END
>  <CHROM.1>
-3.07782562,-30.19717969,27.10860321,0.72372431,-0.13582210,-2.09162167

>  <Name>
ligand

>  <RI>
0

>  <Rbt.Current_Directory>
/home/itssahil/PROJECTS/Mol_Feturizer/New_Systems/rnas/4LVW

>  <Rbt.Executable>
rbdock ($Id: //depot/dev/client3/rdock/2013.1/src/exe/rbdock.cxx#4 $)

>  <Rbt.Library>
libRbt.so (2013.1, Build901 2013/11/27)

>  <Rbt.Parameter_File>
/export/apps/rDock/src/rDock_2013.1_src/data/scripts/dock_solv.prm

>  <Rbt.Receptor>
prm/blind_docking_60.prm

>  <SCORE>
-13.3816

>  <SCORE.INTER>
-13.3816

>  <SCORE.INTER.CONST>
1

>  <SCORE.INTER.POLAR>
0

>  <SCORE.INTER.ROT>
0

>  <SCORE.INTER.SOLV>
9.50316

>  <SCORE.INTER.VDW>
-15.6888

>  <SCORE.INTER.norm>
-1.21651

>  <SCORE.INTRA>
0

>  <SCORE.INTRA.DIHEDRAL>
0

>  <SCORE.INTRA.DIHEDRAL.0>
0

>  <SCORE.INTRA.POLAR>
0

>  <SCORE.INTRA.POLAR.0>
0

>  <SCORE.INTRA.REPUL>
0

>  <SCORE.INTRA.REPUL.0>
0

>  <SCORE.INTRA.SOLV>
0

>  <SCORE.INTRA.SOLV.lig_0>
-29.307

>  <SCORE.INTRA.VDW>
0

>  <SCORE.INTRA.VDW.0>
0

>  <SCORE.INTRA.norm>
0

>  <SCORE.RESTR>
0

>  <SCORE.RESTR.CAVITY>
0

>  <SCORE.RESTR.norm>
0

>  <SCORE.SYSTEM>
0

>  <SCORE.SYSTEM.CONST>
0

>  <SCORE.SYSTEM.DIHEDRAL>
0

>  <SCORE.SYSTEM.SOLV>
0

>  <SCORE.SYSTEM.norm>
0

>  <SCORE.heavy>
11

>  <SCORE.norm>
-1.21651

>  <RMSD>
11.817

$$$$
ligand
 OpenBabel11021811503D
libRbt.so/2013.1/901 2013/11/27
 11 12  0  0  0  0  0  0  0  0999 V2000
    4.1629  -27.5981   16.1386 N   0  0  0  0  0  0  0  0  0  0  0  0
    3.4549  -28.6630   16.5543 C   0  0  0  0  0  0  0  0  0  0  0  0
    4.1200  -29.8059   17.0918 N   0  0  0  0  0  0  0  0  0  0  0  0
    2.1204  -28.6965   16.4918 N   0  0  0  0  0  0  0  0  0  0  0  0
    1.4082  -27.6403   15.9764 C   0  0  0  0  0  0  0  0  0  0  0  0
    2.0980  -26.5298   15.5408 C   0  0  0  0  0  0  0  0  0  0  0  0
    3.5194  -26.5167   15.6366 C   0  0  0  0  0  0  0  0  0  0  0  0
    4.2210  -25.4149   15.2008 O   0  0  0  0  0  0  0  0  0  0  0  0
    1.1139  -25.6007   15.0755 C   0  0  0  0  0  0  0  0  0  0  0  0
   -0.1320  -26.2178   15.2549 C   0  0  0  0  0  0  0  0  0  0  0  0
    0.0602  -27.4299   15.7902 N   0  0  0  0  0  0  0  0  0  0  0  0
  1  2  1  0  0  0  0
  1  7  1  0  0  0  0
  2  3  1  0  0  0  0
  2  4  2  0  0  0  0
  4  5  1  0  0  0  0
  5  6  2  0  0  0  0
  5 11  1  0  0  0  0
  6  7  1  0  0  0  0
  6  9  1  0  0  0  0
  7  8  2  0  0  0  0
  9 10  2  0  0  0  0
 10 11  1  0  0  0  0
M  END
>  <CHROM.1>
2.44125914,-27.29227000,15.89477434,-0.66341077,-0.06142511,-0.40853107

>  <Name>
ligand

>  <RI>
0

>  <Rbt.Current_Directory>
/home/itssahil/PROJECTS/Mol_Feturizer/New_Systems/rnas/4LVW

>  <Rbt.Executable>
rbdock ($Id: //depot/dev/client3/rdock/2013.1/src/exe/rbdock.cxx#4 $)

>  <Rbt.Library>
libRbt.so (2013.1, Build901 2013/11/27)

>  <Rbt.Parameter_File>
/export/apps/rDock/src/rDock_2013.1_src/data/scripts/dock_solv.prm

>  <Rbt.Receptor>
prm/blind_docking_40.prm

>  <SCORE>
-8.98627

>  <SCORE.INTER>
-8.98627

>  <SCORE.INTER.CONST>
1

>  <SCORE.INTER.POLAR>
0

>  <SCORE.INTER.ROT>
0

>  <SCORE.INTER.SOLV>
6.39288

>  <SCORE.INTER.VDW>
-11.7218

>  <SCORE.INTER.norm>
-0.816934

>  <SCORE.INTRA>
0

>  <SCORE.INTRA.DIHEDRAL>
0

>  <SCORE.INTRA.DIHEDRAL.0>
0

>  <SCORE.INTRA.POLAR>
0

>  <SCORE.INTRA.POLAR.0>
0

>  <SCORE.INTRA.REPUL>
0

>  <SCORE.INTRA.REPUL.0>
0

>  <SCORE.INTRA.SOLV>
0

>  <SCORE.INTRA.SOLV.lig_0>
-29.307

>  <SCORE.INTRA.VDW>
0

>  <SCORE.INTRA.VDW.0>
0

>  <SCORE.INTRA.norm>
0

>  <SCORE.RESTR>
0

>  <SCORE.RESTR.CAVITY>
0

>  <SCORE.RESTR.norm>
0

>  <SCORE.SYSTEM>
0

>  <SCORE.SYSTEM.CONST>
0

>  <SCORE.SYSTEM.DIHEDRAL>
0

>  <SCORE.SYSTEM.SOLV>
0

>  <SCORE.SYSTEM.norm>
0

>  <SCORE.heavy>
11

>  <SCORE.norm>
-0.816934

>  <RMSD>
11.828

$$$$
ligand
 OpenBabel11021811503D
libRbt.so/2013.1/901 2013/11/27
 11 12  0  0  0  0  0  0  0  0999 V2000
   -5.7645  -30.4841   27.5570 N   0  0  0  0  0  0  0  0  0  0  0  0
   -5.2198  -29.8365   28.6020 C   0  0  0  0  0  0  0  0  0  0  0  0
   -6.0305  -29.4442   29.7093 N   0  0  0  0  0  0  0  0  0  0  0  0
   -3.9171  -29.5430   28.6545 N   0  0  0  0  0  0  0  0  0  0  0  0
   -3.0731  -29.8768   27.6227 C   0  0  0  0  0  0  0  0  0  0  0  0
   -3.5935  -30.5425   26.5342 C   0  0  0  0  0  0  0  0  0  0  0  0
   -4.9829  -30.8572   26.5151 C   0  0  0  0  0  0  0  0  0  0  0  0
   -5.5165  -31.5183   25.4314 O   0  0  0  0  0  0  0  0  0  0  0  0
   -2.5002  -30.7674   25.6385 C   0  0  0  0  0  0  0  0  0  0  0  0
   -1.3668  -30.2096   26.2463 C   0  0  0  0  0  0  0  0  0  0  0  0
   -1.7243  -29.6832   27.4245 N   0  0  0  0  0  0  0  0  0  0  0  0
  1  2  1  0  0  0  0
  1  7  1  0  0  0  0
  2  3  1  0  0  0  0
  2  4  2  0  0  0  0
  4  5  1  0  0  0  0
  5  6  2  0  0  0  0
  5 11  1  0  0  0  0
  6  7  1  0  0  0  0
  6  9  1  0  0  0  0
  7  8  2  0  0  0  0
  9 10  2  0  0  0  0
 10 11  1  0  0  0  0
M  END
>  <CHROM.1>
-4.03597632,-30.26063414,27.27529231,2.60895437,0.18907310,1.09924528

>  <Name>
ligand

>  <RI>
0

>  <Rbt.Current_Directory>
/home/itssahil/PROJECTS/Mol_Feturizer/New_Systems/rnas/4LVW

>  <Rbt.Executable>
rbdock ($Id: //depot/dev/client3/rdock/2013.1/src/exe/rbdock.cxx#4 $)

>  <Rbt.Library>
libRbt.so (2013.1, Build901 2013/11/27)

>  <Rbt.Parameter_File>
/export/apps/rDock/src/rDock_2013.1_src/data/scripts/dock_solv.prm

>  <Rbt.Receptor>
prm/blind_docking_60.prm

>  <SCORE>
-13.2202

>  <SCORE.INTER>
-13.2539

>  <SCORE.INTER.CONST>
1

>  <SCORE.INTER.POLAR>
0

>  <SCORE.INTER.ROT>
0

>  <SCORE.INTER.SOLV>
8.10681

>  <SCORE.INTER.VDW>
-15.1382

>  <SCORE.INTER.norm>
-1.2049

>  <SCORE.INTRA>
0

>  <SCORE.INTRA.DIHEDRAL>
0

>  <SCORE.INTRA.DIHEDRAL.0>
0

>  <SCORE.INTRA.POLAR>
0

>  <SCORE.INTRA.POLAR.0>
0

>  <SCORE.INTRA.REPUL>
0

>  <SCORE.INTRA.REPUL.0>
0

>  <SCORE.INTRA.SOLV>
0

>  <SCORE.INTRA.SOLV.lig_0>
-29.307

>  <SCORE.INTRA.VDW>
0

>  <SCORE.INTRA.VDW.0>
0

>  <SCORE.INTRA.norm>
0

>  <SCORE.RESTR>
0.0337039

>  <SCORE.RESTR.CAVITY>
0.0337039

>  <SCORE.RESTR.norm>
0.00306399

>  <SCORE.SYSTEM>
0

>  <SCORE.SYSTEM.CONST>
0

>  <SCORE.SYSTEM.DIHEDRAL>
0

>  <SCORE.SYSTEM.SOLV>
0

>  <SCORE.SYSTEM.norm>
0

>  <SCORE.heavy>
11

>  <SCORE.norm>
-1.20184

>  <RMSD>
11.832

$$$$
ligand
 OpenBabel11021811503D
libRbt.so/2013.1/901 2013/11/27
 11 12  0  0  0  0  0  0  0  0999 V2000
   -5.7562  -30.4962   27.5513 N   0  0  0  0  0  0  0  0  0  0  0  0
   -5.2148  -29.8487   28.5982 C   0  0  0  0  0  0  0  0  0  0  0  0
   -6.0283  -29.4609   29.7052 N   0  0  0  0  0  0  0  0  0  0  0  0
   -3.9132  -29.5511   28.6529 N   0  0  0  0  0  0  0  0  0  0  0  0
   -3.0668  -29.8804   27.6215 C   0  0  0  0  0  0  0  0  0  0  0  0
   -3.5838  -30.5458   26.5312 C   0  0  0  0  0  0  0  0  0  0  0  0
   -4.9721  -30.8649   26.5098 C   0  0  0  0  0  0  0  0  0  0  0  0
   -5.5022  -31.5257   25.4242 O   0  0  0  0  0  0  0  0  0  0  0  0
   -2.4886  -30.7655   25.6365 C   0  0  0  0  0  0  0  0  0  0  0  0
   -1.3578  -30.2052   26.2467 C   0  0  0  0  0  0  0  0  0  0  0  0
   -1.7185  -29.6821   27.4254 N   0  0  0  0  0  0  0  0  0  0  0  0
  1  2  1  0  0  0  0
  1  7  1  0  0  0  0
  2  3  1  0  0  0  0
  2  4  2  0  0  0  0
  4  5  1  0  0  0  0
  5  6  2  0  0  0  0
  5 11  1  0  0  0  0
  6  7  1  0  0  0  0
  6  9  1  0  0  0  0
  7  8  2  0  0  0  0
  9 10  2  0  0  0  0
 10 11  1  0  0  0  0
M  END
>  <CHROM.1>
-4.02804437,-30.26662945,27.27222825,2.61157634,0.19134773,1.10053495

>  <Name>
ligand

>  <RI>
0

>  <Rbt.Current_Directory>
/home/itssahil/PROJECTS/Mol_Feturizer/New_Systems/rnas/4LVW

>  <Rbt.Executable>
rbdock ($Id: //depot/dev/client3/rdock/2013.1/src/exe/rbdock.cxx#4 $)

>  <Rbt.Library>
libRbt.so (2013.1, Build901 2013/11/27)

>  <Rbt.Parameter_File>
/export/apps/rDock/src/rDock_2013.1_src/data/scripts/dock_solv.prm

>  <Rbt.Receptor>
prm/blind_docking_80.prm

>  <SCORE>
-13.1538

>  <SCORE.INTER>
-13.1789

>  <SCORE.INTER.CONST>
1

>  <SCORE.INTER.POLAR>
0

>  <SCORE.INTER.ROT>
0

>  <SCORE.INTER.SOLV>
8.12348

>  <SCORE.INTER.VDW>
-15.0938

>  <SCORE.INTER.norm>
-1.19808

>  <SCORE.INTRA>
0

>  <SCORE.INTRA.DIHEDRAL>
0

>  <SCORE.INTRA.DIHEDRAL.0>
0

>  <SCORE.INTRA.POLAR>
0

>  <SCORE.INTRA.POLAR.0>
0

>  <SCORE.INTRA.REPUL>
0

>  <SCORE.INTRA.REPUL.0>
0

>  <SCORE.INTRA.SOLV>
0

>  <SCORE.INTRA.SOLV.lig_0>
-29.307

>  <SCORE.INTRA.VDW>
0

>  <SCORE.INTRA.VDW.0>
0

>  <SCORE.INTRA.norm>
0

>  <SCORE.RESTR>
0.0250605

>  <SCORE.RESTR.CAVITY>
0.0250605

>  <SCORE.RESTR.norm>
0.00227822

>  <SCORE.SYSTEM>
0

>  <SCORE.SYSTEM.CONST>
0

>  <SCORE.SYSTEM.DIHEDRAL>
0

>  <SCORE.SYSTEM.SOLV>
0

>  <SCORE.SYSTEM.norm>
0

>  <SCORE.heavy>
11

>  <SCORE.norm>
-1.1958

>  <RMSD>
11.833

$$$$
ligand
 OpenBabel11021811503D
libRbt.so/2013.1/901 2013/11/27
 11 12  0  0  0  0  0  0  0  0999 V2000
   -5.7566  -30.4998   27.5571 N   0  0  0  0  0  0  0  0  0  0  0  0
   -5.2126  -29.8588   28.6066 C   0  0  0  0  0  0  0  0  0  0  0  0
   -6.0232  -29.4783   29.7182 N   0  0  0  0  0  0  0  0  0  0  0  0
   -3.9109  -29.5612   28.6596 N   0  0  0  0  0  0  0  0  0  0  0  0
   -3.0673  -29.8836   27.6239 C   0  0  0  0  0  0  0  0  0  0  0  0
   -3.5870  -30.5422   26.5308 C   0  0  0  0  0  0  0  0  0  0  0  0
   -4.9752  -30.8617   26.5112 C   0  0  0  0  0  0  0  0  0  0  0  0
   -5.5080  -31.5158   25.4228 O   0  0  0  0  0  0  0  0  0  0  0  0
   -2.4942  -30.7560   25.6317 C   0  0  0  0  0  0  0  0  0  0  0  0
   -1.3619  -30.1991   26.2425 C   0  0  0  0  0  0  0  0  0  0  0  0
   -1.7195  -29.6837   27.4254 N   0  0  0  0  0  0  0  0  0  0  0  0
  1  2  1  0  0  0  0
  1  7  1  0  0  0  0
  2  3  1  0  0  0  0
  2  4  2  0  0  0  0
  4  5  1  0  0  0  0
  5  6  2  0  0  0  0
  5 11  1  0  0  0  0
  6  7  1  0  0  0  0
  6  9  1  0  0  0  0
  7  8  2  0  0  0  0
  9 10  2  0  0  0  0
 10 11  1  0  0  0  0
M  END
>  <CHROM.1>
-4.02930424,-30.26794652,27.27480876,2.60925706,0.19285143,1.10732349

>  <Name>
ligand

>  <RI>
0

>  <Rbt.Current_Directory>
/home/itssahil/PROJECTS/Mol_Feturizer/New_Systems/rnas/4LVW

>  <Rbt.Executable>
rbdock ($Id: //depot/dev/client3/rdock/2013.1/src/exe/rbdock.cxx#4 $)

>  <Rbt.Library>
libRbt.so (2013.1, Build901 2013/11/27)

>  <Rbt.Parameter_File>
/export/apps/rDock/src/rDock_2013.1_src/data/scripts/dock_solv.prm

>  <Rbt.Receptor>
prm/blind_docking_80.prm

>  <SCORE>
-13.218

>  <SCORE.INTER>
-13.2466

>  <SCORE.INTER.CONST>
1

>  <SCORE.INTER.POLAR>
0

>  <SCORE.INTER.ROT>
0

>  <SCORE.INTER.SOLV>
8.11957

>  <SCORE.INTER.VDW>
-15.1376

>  <SCORE.INTER.norm>
-1.20423

>  <SCORE.INTRA>
0

>  <SCORE.INTRA.DIHEDRAL>
0

>  <SCORE.INTRA.DIHEDRAL.0>
0

>  <SCORE.INTRA.POLAR>
0

>  <SCORE.INTRA.POLAR.0>
0

>  <SCORE.INTRA.REPUL>
0

>  <SCORE.INTRA.REPUL.0>
0

>  <SCORE.INTRA.SOLV>
0

>  <SCORE.INTRA.SOLV.lig_0>
-29.307

>  <SCORE.INTRA.VDW>
0

>  <SCORE.INTRA.VDW.0>
0

>  <SCORE.INTRA.norm>
0

>  <SCORE.RESTR>
0.0285389

>  <SCORE.RESTR.CAVITY>
0.0285389

>  <SCORE.RESTR.norm>
0.00259445

>  <SCORE.SYSTEM>
0

>  <SCORE.SYSTEM.CONST>
0

>  <SCORE.SYSTEM.DIHEDRAL>
0

>  <SCORE.SYSTEM.SOLV>
0

>  <SCORE.SYSTEM.norm>
0

>  <SCORE.heavy>
11

>  <SCORE.norm>
-1.20164

>  <RMSD>
11.835

$$$$
ligand
 OpenBabel11021811503D
libRbt.so/2013.1/901 2013/11/27
 11 12  0  0  0  0  0  0  0  0999 V2000
   -5.7894  -30.4987   27.5486 N   0  0  0  0  0  0  0  0  0  0  0  0
   -5.2642  -29.8496   28.6028 C   0  0  0  0  0  0  0  0  0  0  0  0
   -6.0924  -29.4712   29.7021 N   0  0  0  0  0  0  0  0  0  0  0  0
   -3.9657  -29.5417   28.6718 N   0  0  0  0  0  0  0  0  0  0  0  0
   -3.1059  -29.8616   27.6486 C   0  0  0  0  0  0  0  0  0  0  0  0
   -3.6060  -30.5282   26.5513 C   0  0  0  0  0  0  0  0  0  0  0  0
   -4.9914  -30.8584   26.5145 C   0  0  0  0  0  0  0  0  0  0  0  0
   -5.5048  -31.5207   25.4217 O   0  0  0  0  0  0  0  0  0  0  0  0
   -2.4998  -30.7369   25.6676 C   0  0  0  0  0  0  0  0  0  0  0  0
   -1.3800  -30.1691   26.2911 C   0  0  0  0  0  0  0  0  0  0  0  0
   -1.7572  -29.6520   27.4672 N   0  0  0  0  0  0  0  0  0  0  0  0
  1  2  1  0  0  0  0
  1  7  1  0  0  0  0
  2  3  1  0  0  0  0
  2  4  2  0  0  0  0
  4  5  1  0  0  0  0
  5  6  2  0  0  0  0
  5 11  1  0  0  0  0
  6  7  1  0  0  0  0
  6  9  1  0  0  0  0
  7  8  2  0  0  0  0
  9 10  2  0  0  0  0
 10 11  1  0  0  0  0
M  END
>  <CHROM.1>
-4.06028226,-30.25458932,27.28831268,2.62482258,0.19375153,1.10052872

>  <Name>
ligand

>  <RI>
0

>  <Rbt.Current_Directory>
/home/itssahil/PROJECTS/Mol_Feturizer/New_Systems/rnas/4LVW

>  <Rbt.Executable>
rbdock ($Id: //depot/dev/client3/rdock/2013.1/src/exe/rbdock.cxx#4 $)

>  <Rbt.Library>
libRbt.so (2013.1, Build901 2013/11/27)

>  <Rbt.Parameter_File>
/export/apps/rDock/src/rDock_2013.1_src/data/scripts/dock_solv.prm

>  <Rbt.Receptor>
prm/blind_docking_100.prm

>  <SCORE>
-13.2236

>  <SCORE.INTER>
-13.2587

>  <SCORE.INTER.CONST>
1

>  <SCORE.INTER.POLAR>
0

>  <SCORE.INTER.ROT>
0

>  <SCORE.INTER.SOLV>
8.15687

>  <SCORE.INTER.VDW>
-15.1581

>  <SCORE.INTER.norm>
-1.20533

>  <SCORE.INTRA>
0

>  <SCORE.INTRA.DIHEDRAL>
0

>  <SCORE.INTRA.DIHEDRAL.0>
0

>  <SCORE.INTRA.POLAR>
0

>  <SCORE.INTRA.POLAR.0>
0

>  <SCORE.INTRA.REPUL>
0

>  <SCORE.INTRA.REPUL.0>
0

>  <SCORE.INTRA.SOLV>
0

>  <SCORE.INTRA.SOLV.lig_0>
-29.307

>  <SCORE.INTRA.VDW>
0

>  <SCORE.INTRA.VDW.0>
0

>  <SCORE.INTRA.norm>
0

>  <SCORE.RESTR>
0.0350864

>  <SCORE.RESTR.CAVITY>
0.0350864

>  <SCORE.RESTR.norm>
0.00318967

>  <SCORE.SYSTEM>
0

>  <SCORE.SYSTEM.CONST>
0

>  <SCORE.SYSTEM.DIHEDRAL>
0

>  <SCORE.SYSTEM.SOLV>
0

>  <SCORE.SYSTEM.norm>
0

>  <SCORE.heavy>
11

>  <SCORE.norm>
-1.20214

>  <RMSD>
11.842

$$$$
ligand
 OpenBabel11021811503D
libRbt.so/2013.1/901 2013/11/27
 11 12  0  0  0  0  0  0  0  0999 V2000
    3.6628  -27.3096   15.9145 N   0  0  0  0  0  0  0  0  0  0  0  0
    3.0127  -28.3861   16.3908 C   0  0  0  0  0  0  0  0  0  0  0  0
    3.7413  -29.4848   16.9380 N   0  0  0  0  0  0  0  0  0  0  0  0
    1.6791  -28.4716   16.3811 N   0  0  0  0  0  0  0  0  0  0  0  0
    0.9076  -27.4606   15.8605 C   0  0  0  0  0  0  0  0  0  0  0  0
    1.5370  -26.3400   15.3637 C   0  0  0  0  0  0  0  0  0  0  0  0
    2.9594  -26.2703   15.4040 C   0  0  0  0  0  0  0  0  0  0  0  0
    3.6010  -25.1579   14.9068 O   0  0  0  0  0  0  0  0  0  0  0  0
    0.5009  -25.4643   14.9077 C   0  0  0  0  0  0  0  0  0  0  0  0
   -0.7125  -26.1214   15.1546 C   0  0  0  0  0  0  0  0  0  0  0  0
   -0.4535  -27.3072   15.7201 N   0  0  0  0  0  0  0  0  0  0  0  0
  1  2  1  0  0  0  0
  1  7  1  0  0  0  0
  2  3  1  0  0  0  0
  2  4  2  0  0  0  0
  4  5  1  0  0  0  0
  5  6  2  0  0  0  0
  5 11  1  0  0  0  0
  6  7  1  0  0  0  0
  6  9  1  0  0  0  0
  7  8  2  0  0  0  0
  9 10  2  0  0  0  0
 10 11  1  0  0  0  0
M  END
>  <CHROM.1>
1.92267156,-27.07684665,15.72801730,-0.61287454,-0.04236662,-0.43823572

>  <Name>
ligand

>  <RI>
0

>  <Rbt.Current_Directory>
/home/itssahil/PROJECTS/Mol_Feturizer/New_Systems/rnas/4LVW

>  <Rbt.Executable>
rbdock ($Id: //depot/dev/client3/rdock/2013.1/src/exe/rbdock.cxx#4 $)

>  <Rbt.Library>
libRbt.so (2013.1, Build901 2013/11/27)

>  <Rbt.Parameter_File>
/export/apps/rDock/src/rDock_2013.1_src/data/scripts/dock_solv.prm

>  <Rbt.Receptor>
prm/blind_docking_40.prm

>  <SCORE>
-9.18522

>  <SCORE.INTER>
-9.20786

>  <SCORE.INTER.CONST>
1

>  <SCORE.INTER.POLAR>
0

>  <SCORE.INTER.ROT>
0

>  <SCORE.INTER.SOLV>
6.58928

>  <SCORE.INTER.VDW>
-11.935

>  <SCORE.INTER.norm>
-0.837078

>  <SCORE.INTRA>
0

>  <SCORE.INTRA.DIHEDRAL>
0

>  <SCORE.INTRA.DIHEDRAL.0>
0

>  <SCORE.INTRA.POLAR>
0

>  <SCORE.INTRA.POLAR.0>
0

>  <SCORE.INTRA.REPUL>
0

>  <SCORE.INTRA.REPUL.0>
0

>  <SCORE.INTRA.SOLV>
0

>  <SCORE.INTRA.SOLV.lig_0>
-29.307

>  <SCORE.INTRA.VDW>
0

>  <SCORE.INTRA.VDW.0>
0

>  <SCORE.INTRA.norm>
0

>  <SCORE.RESTR>
0.0226405

>  <SCORE.RESTR.CAVITY>
0.0226405

>  <SCORE.RESTR.norm>
0.00205823

>  <SCORE.SYSTEM>
0

>  <SCORE.SYSTEM.CONST>
0

>  <SCORE.SYSTEM.DIHEDRAL>
0

>  <SCORE.SYSTEM.SOLV>
0

>  <SCORE.SYSTEM.norm>
0

>  <SCORE.heavy>
11

>  <SCORE.norm>
-0.83502

>  <RMSD>
11.849

$$$$
ligand
 OpenBabel11021811503D
libRbt.so/2013.1/901 2013/11/27
 11 12  0  0  0  0  0  0  0  0999 V2000
    3.9725  -27.4715   16.0594 N   0  0  0  0  0  0  0  0  0  0  0  0
    3.3667  -28.5887   16.4988 C   0  0  0  0  0  0  0  0  0  0  0  0
    4.1396  -29.6758   17.0070 N   0  0  0  0  0  0  0  0  0  0  0  0
    2.0375  -28.7269   16.4874 N   0  0  0  0  0  0  0  0  0  0  0  0
    1.2254  -27.7299   16.0028 C   0  0  0  0  0  0  0  0  0  0  0  0
    1.8087  -26.5687   15.5444 C   0  0  0  0  0  0  0  0  0  0  0  0
    3.2273  -26.4440   15.5858 C   0  0  0  0  0  0  0  0  0  0  0  0
    3.8231  -25.2905   15.1267 O   0  0  0  0  0  0  0  0  0  0  0  0
    0.7376  -25.7197   15.1200 C   0  0  0  0  0  0  0  0  0  0  0  0
   -0.4482  -26.4326   15.3451 C   0  0  0  0  0  0  0  0  0  0  0  0
   -0.1411  -27.6259   15.8691 N   0  0  0  0  0  0  0  0  0  0  0  0
  1  2  1  0  0  0  0
  1  7  1  0  0  0  0
  2  3  1  0  0  0  0
  2  4  2  0  0  0  0
  4  5  1  0  0  0  0
  5  6  2  0  0  0  0
  5 11  1  0  0  0  0
  6  7  1  0  0  0  0
  6  9  1  0  0  0  0
  7  8  2  0  0  0  0
  9 10  2  0  0  0  0
 10 11  1  0  0  0  0
M  END
>  <CHROM.1>
2.22406459,-27.30177810,15.88270418,-0.57589471,-0.05708184,-0.40184487

>  <Name>
ligand

>  <RI>
0

>  <Rbt.Current_Directory>
/home/itssahil/PROJECTS/Mol_Feturizer/New_Systems/rnas/4LVW

>  <Rbt.Executable>
rbdock ($Id: //depot/dev/client3/rdock/2013.1/src/exe/rbdock.cxx#4 $)

>  <Rbt.Library>
libRbt.so (2013.1, Build901 2013/11/27)

>  <Rbt.Parameter_File>
/export/apps/rDock/src/rDock_2013.1_src/data/scripts/dock_solv.prm

>  <Rbt.Receptor>
prm/blind_docking_40.prm

>  <SCORE>
-9.05922

>  <SCORE.INTER>
-9.05922

>  <SCORE.INTER.CONST>
1

>  <SCORE.INTER.POLAR>
0

>  <SCORE.INTER.ROT>
0

>  <SCORE.INTER.SOLV>
6.30486

>  <SCORE.INTER.VDW>
-11.7411

>  <SCORE.INTER.norm>
-0.823565

>  <SCORE.INTRA>
0

>  <SCORE.INTRA.DIHEDRAL>
0

>  <SCORE.INTRA.DIHEDRAL.0>
0

>  <SCORE.INTRA.POLAR>
0

>  <SCORE.INTRA.POLAR.0>
0

>  <SCORE.INTRA.REPUL>
0

>  <SCORE.INTRA.REPUL.0>
0

>  <SCORE.INTRA.SOLV>
0

>  <SCORE.INTRA.SOLV.lig_0>
-29.307

>  <SCORE.INTRA.VDW>
0

>  <SCORE.INTRA.VDW.0>
0

>  <SCORE.INTRA.norm>
0

>  <SCORE.RESTR>
0

>  <SCORE.RESTR.CAVITY>
0

>  <SCORE.RESTR.norm>
0

>  <SCORE.SYSTEM>
0

>  <SCORE.SYSTEM.CONST>
0

>  <SCORE.SYSTEM.DIHEDRAL>
0

>  <SCORE.SYSTEM.SOLV>
0

>  <SCORE.SYSTEM.norm>
0

>  <SCORE.heavy>
11

>  <SCORE.norm>
-0.823565

>  <RMSD>
11.858

$$$$
ligand
 OpenBabel11021811503D
libRbt.so/2013.1/901 2013/11/27
 11 12  0  0  0  0  0  0  0  0999 V2000
    4.0026  -27.4903   16.0696 N   0  0  0  0  0  0  0  0  0  0  0  0
    3.3698  -28.5836   16.5305 C   0  0  0  0  0  0  0  0  0  0  0  0
    4.1150  -29.6708   17.0783 N   0  0  0  0  0  0  0  0  0  0  0  0
    2.0385  -28.6970   16.5048 N   0  0  0  0  0  0  0  0  0  0  0  0
    1.2520  -27.6985   15.9825 C   0  0  0  0  0  0  0  0  0  0  0  0
    1.8633  -26.5613   15.5010 C   0  0  0  0  0  0  0  0  0  0  0  0
    3.2834  -26.4622   15.5583 C   0  0  0  0  0  0  0  0  0  0  0  0
    3.9071  -25.3330   15.0765 O   0  0  0  0  0  0  0  0  0  0  0  0
    0.8143  -25.7042   15.0394 C   0  0  0  0  0  0  0  0  0  0  0  0
   -0.3878  -26.3884   15.2675 C   0  0  0  0  0  0  0  0  0  0  0  0
   -0.1104  -27.5726   15.8274 N   0  0  0  0  0  0  0  0  0  0  0  0
  1  2  1  0  0  0  0
  1  7  1  0  0  0  0
  2  3  1  0  0  0  0
  2  4  2  0  0  0  0
  4  5  1  0  0  0  0
  5  6  2  0  0  0  0
  5 11  1  0  0  0  0
  6  7  1  0  0  0  0
  6  9  1  0  0  0  0
  7  8  2  0  0  0  0
  9 10  2  0  0  0  0
 10 11  1  0  0  0  0
M  END
>  <CHROM.1>
2.26015583,-27.29262961,15.86455486,-0.59866448,-0.06163895,-0.43022752

>  <Name>
ligand

>  <RI>
0

>  <Rbt.Current_Directory>
/home/itssahil/PROJECTS/Mol_Feturizer/New_Systems/rnas/4LVW

>  <Rbt.Executable>
rbdock ($Id: //depot/dev/client3/rdock/2013.1/src/exe/rbdock.cxx#4 $)

>  <Rbt.Library>
libRbt.so (2013.1, Build901 2013/11/27)

>  <Rbt.Parameter_File>
/export/apps/rDock/src/rDock_2013.1_src/data/scripts/dock_solv.prm

>  <Rbt.Receptor>
prm/blind_docking_40.prm

>  <SCORE>
-9.00938

>  <SCORE.INTER>
-9.00938

>  <SCORE.INTER.CONST>
1

>  <SCORE.INTER.POLAR>
0

>  <SCORE.INTER.ROT>
0

>  <SCORE.INTER.SOLV>
6.233

>  <SCORE.INTER.VDW>
-11.6839

>  <SCORE.INTER.norm>
-0.819035

>  <SCORE.INTRA>
0

>  <SCORE.INTRA.DIHEDRAL>
0

>  <SCORE.INTRA.DIHEDRAL.0>
0

>  <SCORE.INTRA.POLAR>
0

>  <SCORE.INTRA.POLAR.0>
0

>  <SCORE.INTRA.REPUL>
0

>  <SCORE.INTRA.REPUL.0>
0

>  <SCORE.INTRA.SOLV>
0

>  <SCORE.INTRA.SOLV.lig_0>
-29.307

>  <SCORE.INTRA.VDW>
0

>  <SCORE.INTRA.VDW.0>
0

>  <SCORE.INTRA.norm>
0

>  <SCORE.RESTR>
0

>  <SCORE.RESTR.CAVITY>
0

>  <SCORE.RESTR.norm>
0

>  <SCORE.SYSTEM>
0

>  <SCORE.SYSTEM.CONST>
0

>  <SCORE.SYSTEM.DIHEDRAL>
0

>  <SCORE.SYSTEM.SOLV>
0

>  <SCORE.SYSTEM.norm>
0

>  <SCORE.heavy>
11

>  <SCORE.norm>
-0.819035

>  <RMSD>
11.863

$$$$
ligand
 OpenBabel11021811503D
libRbt.so/2013.1/901 2013/11/27
 11 12  0  0  0  0  0  0  0  0999 V2000
    3.9614  -27.4648   16.0354 N   0  0  0  0  0  0  0  0  0  0  0  0
    3.3552  -28.5804   16.4785 C   0  0  0  0  0  0  0  0  0  0  0  0
    4.1278  -29.6664   16.9895 N   0  0  0  0  0  0  0  0  0  0  0  0
    2.0260  -28.7178   16.4685 N   0  0  0  0  0  0  0  0  0  0  0  0
    1.2141  -27.7218   15.9814 C   0  0  0  0  0  0  0  0  0  0  0  0
    1.7977  -26.5623   15.5191 C   0  0  0  0  0  0  0  0  0  0  0  0
    3.2164  -26.4383   15.5592 C   0  0  0  0  0  0  0  0  0  0  0  0
    3.8126  -25.2865   15.0962 O   0  0  0  0  0  0  0  0  0  0  0  0
    0.7268  -25.7139   15.0929 C   0  0  0  0  0  0  0  0  0  0  0  0
   -0.4592  -26.4255   15.3210 C   0  0  0  0  0  0  0  0  0  0  0  0
   -0.1524  -27.6174   15.8483 N   0  0  0  0  0  0  0  0  0  0  0  0
  1  2  1  0  0  0  0
  1  7  1  0  0  0  0
  2  3  1  0  0  0  0
  2  4  2  0  0  0  0
  4  5  1  0  0  0  0
  5  6  2  0  0  0  0
  5 11  1  0  0  0  0
  6  7  1  0  0  0  0
  6  9  1  0  0  0  0
  7  8  2  0  0  0  0
  9 10  2  0  0  0  0
 10 11  1  0  0  0  0
M  END
>  <CHROM.1>
2.21292728,-27.29460669,15.85937182,-0.57616161,-0.05622630,-0.40485496

>  <Name>
ligand

>  <RI>
0

>  <Rbt.Current_Directory>
/home/itssahil/PROJECTS/Mol_Feturizer/New_Systems/rnas/4LVW

>  <Rbt.Executable>
rbdock ($Id: //depot/dev/client3/rdock/2013.1/src/exe/rbdock.cxx#4 $)

>  <Rbt.Library>
libRbt.so (2013.1, Build901 2013/11/27)

>  <Rbt.Parameter_File>
/export/apps/rDock/src/rDock_2013.1_src/data/scripts/dock_solv.prm

>  <Rbt.Receptor>
prm/blind_docking_40.prm

>  <SCORE>
-9.08345

>  <SCORE.INTER>
-9.08345

>  <SCORE.INTER.CONST>
1

>  <SCORE.INTER.POLAR>
0

>  <SCORE.INTER.ROT>
0

>  <SCORE.INTER.SOLV>
6.27583

>  <SCORE.INTER.VDW>
-11.7476

>  <SCORE.INTER.norm>
-0.825768

>  <SCORE.INTRA>
0

>  <SCORE.INTRA.DIHEDRAL>
0

>  <SCORE.INTRA.DIHEDRAL.0>
0

>  <SCORE.INTRA.POLAR>
0

>  <SCORE.INTRA.POLAR.0>
0

>  <SCORE.INTRA.REPUL>
0

>  <SCORE.INTRA.REPUL.0>
0

>  <SCORE.INTRA.SOLV>
0

>  <SCORE.INTRA.SOLV.lig_0>
-29.307

>  <SCORE.INTRA.VDW>
0

>  <SCORE.INTRA.VDW.0>
0

>  <SCORE.INTRA.norm>
0

>  <SCORE.RESTR>
0

>  <SCORE.RESTR.CAVITY>
0

>  <SCORE.RESTR.norm>
0

>  <SCORE.SYSTEM>
0

>  <SCORE.SYSTEM.CONST>
0

>  <SCORE.SYSTEM.DIHEDRAL>
0

>  <SCORE.SYSTEM.SOLV>
0

>  <SCORE.SYSTEM.norm>
0

>  <SCORE.heavy>
11

>  <SCORE.norm>
-0.825768

>  <RMSD>
11.872

$$$$
ligand
 OpenBabel11021811503D
libRbt.so/2013.1/901 2013/11/27
 11 12  0  0  0  0  0  0  0  0999 V2000
    3.9659  -27.4683   16.0280 N   0  0  0  0  0  0  0  0  0  0  0  0
    3.3600  -28.5820   16.4763 C   0  0  0  0  0  0  0  0  0  0  0  0
    4.1332  -29.6678   16.9868 N   0  0  0  0  0  0  0  0  0  0  0  0
    2.0306  -28.7176   16.4719 N   0  0  0  0  0  0  0  0  0  0  0  0
    1.2180  -27.7217   15.9856 C   0  0  0  0  0  0  0  0  0  0  0  0
    1.8014  -26.5641   15.5182 C   0  0  0  0  0  0  0  0  0  0  0  0
    3.2204  -26.4420   15.5523 C   0  0  0  0  0  0  0  0  0  0  0  0
    3.8162  -25.2921   15.0841 O   0  0  0  0  0  0  0  0  0  0  0  0
    0.7299  -25.7154   15.0941 C   0  0  0  0  0  0  0  0  0  0  0  0
   -0.4562  -26.4249   15.3287 C   0  0  0  0  0  0  0  0  0  0  0  0
   -0.1489  -27.6159   15.8577 N   0  0  0  0  0  0  0  0  0  0  0  0
  1  2  1  0  0  0  0
  1  7  1  0  0  0  0
  2  3  1  0  0  0  0
  2  4  2  0  0  0  0
  4  5  1  0  0  0  0
  5  6  2  0  0  0  0
  5 11  1  0  0  0  0
  6  7  1  0  0  0  0
  6  9  1  0  0  0  0
  7  8  2  0  0  0  0
  9 10  2  0  0  0  0
 10 11  1  0  0  0  0
M  END
>  <CHROM.1>
2.21695474,-27.29621208,15.85855726,-0.57580360,-0.05203315,-0.40728629

>  <Name>
ligand

>  <RI>
0

>  <Rbt.Current_Directory>
/home/itssahil/PROJECTS/Mol_Feturizer/New_Systems/rnas/4LVW

>  <Rbt.Executable>
rbdock ($Id: //depot/dev/client3/rdock/2013.1/src/exe/rbdock.cxx#4 $)

>  <Rbt.Library>
libRbt.so (2013.1, Build901 2013/11/27)

>  <Rbt.Parameter_File>
/export/apps/rDock/src/rDock_2013.1_src/data/scripts/dock_solv.prm

>  <Rbt.Receptor>
prm/blind_docking_40.prm

>  <SCORE>
-9.087

>  <SCORE.INTER>
-9.087

>  <SCORE.INTER.CONST>
1

>  <SCORE.INTER.POLAR>
0

>  <SCORE.INTER.ROT>
0

>  <SCORE.INTER.SOLV>
6.24756

>  <SCORE.INTER.VDW>
-11.7405

>  <SCORE.INTER.norm>
-0.826091

>  <SCORE.INTRA>
0

>  <SCORE.INTRA.DIHEDRAL>
0

>  <SCORE.INTRA.DIHEDRAL.0>
0

>  <SCORE.INTRA.POLAR>
0

>  <SCORE.INTRA.POLAR.0>
0

>  <SCORE.INTRA.REPUL>
0

>  <SCORE.INTRA.REPUL.0>
0

>  <SCORE.INTRA.SOLV>
0

>  <SCORE.INTRA.SOLV.lig_0>
-29.307

>  <SCORE.INTRA.VDW>
0

>  <SCORE.INTRA.VDW.0>
0

>  <SCORE.INTRA.norm>
0

>  <SCORE.RESTR>
0

>  <SCORE.RESTR.CAVITY>
0

>  <SCORE.RESTR.norm>
0

>  <SCORE.SYSTEM>
0

>  <SCORE.SYSTEM.CONST>
0

>  <SCORE.SYSTEM.DIHEDRAL>
0

>  <SCORE.SYSTEM.SOLV>
0

>  <SCORE.SYSTEM.norm>
0

>  <SCORE.heavy>
11

>  <SCORE.norm>
-0.826091

>  <RMSD>
11.874

$$$$
ligand
 OpenBabel11021811503D
libRbt.so/2013.1/901 2013/11/27
 11 12  0  0  0  0  0  0  0  0999 V2000
    3.9771  -27.4022   15.9705 N   0  0  0  0  0  0  0  0  0  0  0  0
    3.3888  -28.5265   16.4155 C   0  0  0  0  0  0  0  0  0  0  0  0
    4.1796  -29.6071   16.9099 N   0  0  0  0  0  0  0  0  0  0  0  0
    2.0610  -28.6780   16.4226 N   0  0  0  0  0  0  0  0  0  0  0  0
    1.2322  -27.6880   15.9520 C   0  0  0  0  0  0  0  0  0  0  0  0
    1.7973  -26.5199   15.4884 C   0  0  0  0  0  0  0  0  0  0  0  0
    3.2150  -26.3811   15.5100 C   0  0  0  0  0  0  0  0  0  0  0  0
    3.7927  -25.2206   15.0455 O   0  0  0  0  0  0  0  0  0  0  0  0
    0.7118  -25.6807   15.0814 C   0  0  0  0  0  0  0  0  0  0  0  0
   -0.4635  -26.4060   15.3214 C   0  0  0  0  0  0  0  0  0  0  0  0
   -0.1370  -27.5975   15.8379 N   0  0  0  0  0  0  0  0  0  0  0  0
  1  2  1  0  0  0  0
  1  7  1  0  0  0  0
  2  3  1  0  0  0  0
  2  4  2  0  0  0  0
  4  5  1  0  0  0  0
  5  6  2  0  0  0  0
  5 11  1  0  0  0  0
  6  7  1  0  0  0  0
  6  9  1  0  0  0  0
  7  8  2  0  0  0  0
  9 10  2  0  0  0  0
 10 11  1  0  0  0  0
M  END
>  <CHROM.1>
2.22472806,-27.24962866,15.81893363,-0.56113147,-0.04794047,-0.39857470

>  <Name>
ligand

>  <RI>
0

>  <Rbt.Current_Directory>
/home/itssahil/PROJECTS/Mol_Feturizer/New_Systems/rnas/4LVW

>  <Rbt.Executable>
rbdock ($Id: //depot/dev/client3/rdock/2013.1/src/exe/rbdock.cxx#4 $)

>  <Rbt.Library>
libRbt.so (2013.1, Build901 2013/11/27)

>  <Rbt.Parameter_File>
/export/apps/rDock/src/rDock_2013.1_src/data/scripts/dock_solv.prm

>  <Rbt.Receptor>
prm/blind_docking_40.prm

>  <SCORE>
-9.01417

>  <SCORE.INTER>
-9.01417

>  <SCORE.INTER.CONST>
1

>  <SCORE.INTER.POLAR>
0

>  <SCORE.INTER.ROT>
0

>  <SCORE.INTER.SOLV>
6.18725

>  <SCORE.INTER.VDW>
-11.6719

>  <SCORE.INTER.norm>
-0.81947

>  <SCORE.INTRA>
0

>  <SCORE.INTRA.DIHEDRAL>
0

>  <SCORE.INTRA.DIHEDRAL.0>
0

>  <SCORE.INTRA.POLAR>
0

>  <SCORE.INTRA.POLAR.0>
0

>  <SCORE.INTRA.REPUL>
0

>  <SCORE.INTRA.REPUL.0>
0

>  <SCORE.INTRA.SOLV>
0

>  <SCORE.INTRA.SOLV.lig_0>
-29.307

>  <SCORE.INTRA.VDW>
0

>  <SCORE.INTRA.VDW.0>
0

>  <SCORE.INTRA.norm>
0

>  <SCORE.RESTR>
0

>  <SCORE.RESTR.CAVITY>
0

>  <SCORE.RESTR.norm>
0

>  <SCORE.SYSTEM>
0

>  <SCORE.SYSTEM.CONST>
0

>  <SCORE.SYSTEM.DIHEDRAL>
0

>  <SCORE.SYSTEM.SOLV>
0

>  <SCORE.SYSTEM.norm>
0

>  <SCORE.heavy>
11

>  <SCORE.norm>
-0.81947

>  <RMSD>
11.882

$$$$
ligand
 OpenBabel11021811503D
libRbt.so/2013.1/901 2013/11/27
 11 12  0  0  0  0  0  0  0  0999 V2000
    3.9573  -27.3896   15.9634 N   0  0  0  0  0  0  0  0  0  0  0  0
    3.3949  -28.5231   16.4183 C   0  0  0  0  0  0  0  0  0  0  0  0
    4.2109  -29.5867   16.9084 N   0  0  0  0  0  0  0  0  0  0  0  0
    2.0704  -28.6995   16.4393 N   0  0  0  0  0  0  0  0  0  0  0  0
    1.2182  -27.7271   15.9738 C   0  0  0  0  0  0  0  0  0  0  0  0
    1.7565  -26.5503   15.5003 C   0  0  0  0  0  0  0  0  0  0  0  0
    3.1715  -26.3847   15.5071 C   0  0  0  0  0  0  0  0  0  0  0  0
    3.7224  -25.2152   15.0327 O   0  0  0  0  0  0  0  0  0  0  0  0
    0.6513  -25.7332   15.1014 C   0  0  0  0  0  0  0  0  0  0  0  0
   -0.5076  -26.4797   15.3559 C   0  0  0  0  0  0  0  0  0  0  0  0
   -0.1535  -27.6629   15.8732 N   0  0  0  0  0  0  0  0  0  0  0  0
  1  2  1  0  0  0  0
  1  7  1  0  0  0  0
  2  3  1  0  0  0  0
  2  4  2  0  0  0  0
  4  5  1  0  0  0  0
  5  6  2  0  0  0  0
  5 11  1  0  0  0  0
  6  7  1  0  0  0  0
  6  9  1  0  0  0  0
  7  8  2  0  0  0  0
  9 10  2  0  0  0  0
 10 11  1  0  0  0  0
M  END
>  <CHROM.1>
2.20095981,-27.27061404,15.82906503,-0.53978570,-0.04597857,-0.40117180

>  <Name>
ligand

>  <RI>
0

>  <Rbt.Current_Directory>
/home/itssahil/PROJECTS/Mol_Feturizer/New_Systems/rnas/4LVW

>  <Rbt.Executable>
rbdock ($Id: //depot/dev/client3/rdock/2013.1/src/exe/rbdock.cxx#4 $)

>  <Rbt.Library>
libRbt.so (2013.1, Build901 2013/11/27)

>  <Rbt.Parameter_File>
/export/apps/rDock/src/rDock_2013.1_src/data/scripts/dock_solv.prm

>  <Rbt.Receptor>
prm/blind_docking_40.prm

>  <SCORE>
-9.02403

>  <SCORE.INTER>
-9.02403

>  <SCORE.INTER.CONST>
1

>  <SCORE.INTER.POLAR>
0

>  <SCORE.INTER.ROT>
0

>  <SCORE.INTER.SOLV>
6.12765

>  <SCORE.INTER.VDW>
-11.6586

>  <SCORE.INTER.norm>
-0.820367

>  <SCORE.INTRA>
0

>  <SCORE.INTRA.DIHEDRAL>
0

>  <SCORE.INTRA.DIHEDRAL.0>
0

>  <SCORE.INTRA.POLAR>
0

>  <SCORE.INTRA.POLAR.0>
0

>  <SCORE.INTRA.REPUL>
0

>  <SCORE.INTRA.REPUL.0>
0

>  <SCORE.INTRA.SOLV>
0

>  <SCORE.INTRA.SOLV.lig_0>
-29.307

>  <SCORE.INTRA.VDW>
0

>  <SCORE.INTRA.VDW.0>
0

>  <SCORE.INTRA.norm>
0

>  <SCORE.RESTR>
0

>  <SCORE.RESTR.CAVITY>
0

>  <SCORE.RESTR.norm>
0

>  <SCORE.SYSTEM>
0

>  <SCORE.SYSTEM.CONST>
0

>  <SCORE.SYSTEM.DIHEDRAL>
0

>  <SCORE.SYSTEM.SOLV>
0

>  <SCORE.SYSTEM.norm>
0

>  <SCORE.heavy>
11

>  <SCORE.norm>
-0.820367

>  <RMSD>
11.891

$$$$
ligand
 OpenBabel11021811503D
libRbt.so/2013.1/901 2013/11/27
 11 12  0  0  0  0  0  0  0  0999 V2000
   -3.9163  -29.0714   29.2884 N   0  0  0  0  0  0  0  0  0  0  0  0
   -5.2358  -29.2819   29.4391 C   0  0  0  0  0  0  0  0  0  0  0  0
   -5.9181  -28.7865   30.5908 N   0  0  0  0  0  0  0  0  0  0  0  0
   -5.9572  -29.9454   28.5306 N   0  0  0  0  0  0  0  0  0  0  0  0
   -5.3710  -30.4633   27.4007 C   0  0  0  0  0  0  0  0  0  0  0  0
   -4.0205  -30.2675   27.2096 C   0  0  0  0  0  0  0  0  0  0  0  0
   -3.2816  -29.5408   28.1873 C   0  0  0  0  0  0  0  0  0  0  0  0
   -1.9305  -29.3419   28.0105 O   0  0  0  0  0  0  0  0  0  0  0  0
   -3.6942  -30.8946   25.9652 C   0  0  0  0  0  0  0  0  0  0  0  0
   -4.8853  -31.4463   25.4735 C   0  0  0  0  0  0  0  0  0  0  0  0
   -5.8724  -31.1823   26.3389 N   0  0  0  0  0  0  0  0  0  0  0  0
  1  2  1  0  0  0  0
  1  7  1  0  0  0  0
  2  3  1  0  0  0  0
  2  4  2  0  0  0  0
  4  5  1  0  0  0  0
  5  6  2  0  0  0  0
  5 11  1  0  0  0  0
  6  7  1  0  0  0  0
  6  9  1  0  0  0  0
  7  8  2  0  0  0  0
  9 10  2  0  0  0  0
 10 11  1  0  0  0  0
M  END
>  <CHROM.1>
-4.52822036,-29.98623353,27.90788640,-1.65811938,-0.19417131,-2.08554993

>  <Name>
ligand

>  <RI>
0

>  <Rbt.Current_Directory>
/home/itssahil/PROJECTS/Mol_Feturizer/New_Systems/rnas/4LVW

>  <Rbt.Executable>
rbdock ($Id: //depot/dev/client3/rdock/2013.1/src/exe/rbdock.cxx#4 $)

>  <Rbt.Library>
libRbt.so (2013.1, Build901 2013/11/27)

>  <Rbt.Parameter_File>
/export/apps/rDock/src/rDock_2013.1_src/data/scripts/dock_solv.prm

>  <Rbt.Receptor>
prm/blind_docking_100.prm

>  <SCORE>
-14.966

>  <SCORE.INTER>
-15.4157

>  <SCORE.INTER.CONST>
1

>  <SCORE.INTER.POLAR>
0

>  <SCORE.INTER.ROT>
0

>  <SCORE.INTER.SOLV>
6.95486

>  <SCORE.INTER.VDW>
-16.1954

>  <SCORE.INTER.norm>
-1.40142

>  <SCORE.INTRA>
0

>  <SCORE.INTRA.DIHEDRAL>
0

>  <SCORE.INTRA.DIHEDRAL.0>
0

>  <SCORE.INTRA.POLAR>
0

>  <SCORE.INTRA.POLAR.0>
0

>  <SCORE.INTRA.REPUL>
0

>  <SCORE.INTRA.REPUL.0>
0

>  <SCORE.INTRA.SOLV>
0

>  <SCORE.INTRA.SOLV.lig_0>
-29.307

>  <SCORE.INTRA.VDW>
0

>  <SCORE.INTRA.VDW.0>
0

>  <SCORE.INTRA.norm>
0

>  <SCORE.RESTR>
0.449716

>  <SCORE.RESTR.CAVITY>
0.449716

>  <SCORE.RESTR.norm>
0.0408833

>  <SCORE.SYSTEM>
0

>  <SCORE.SYSTEM.CONST>
0

>  <SCORE.SYSTEM.DIHEDRAL>
0

>  <SCORE.SYSTEM.SOLV>
0

>  <SCORE.SYSTEM.norm>
0

>  <SCORE.heavy>
11

>  <SCORE.norm>
-1.36054

>  <RMSD>
11.991

$$$$
ligand
 OpenBabel11021811503D
libRbt.so/2013.1/901 2013/11/27
 11 12  0  0  0  0  0  0  0  0999 V2000
   -2.6940  -30.5407   25.9164 N   0  0  0  0  0  0  0  0  0  0  0  0
   -1.9005  -29.8278   26.7351 C   0  0  0  0  0  0  0  0  0  0  0  0
   -0.5375  -29.5854   26.3873 N   0  0  0  0  0  0  0  0  0  0  0  0
   -2.3454  -29.3163   27.8867 N   0  0  0  0  0  0  0  0  0  0  0  0
   -3.6416  -29.5157   28.2972 C   0  0  0  0  0  0  0  0  0  0  0  0
   -4.4864  -30.2404   27.4848 C   0  0  0  0  0  0  0  0  0  0  0  0
   -3.9878  -30.7580   26.2546 C   0  0  0  0  0  0  0  0  0  0  0  0
   -4.8204  -31.4876   25.4356 O   0  0  0  0  0  0  0  0  0  0  0  0
   -5.7536  -30.2747   28.1490 C   0  0  0  0  0  0  0  0  0  0  0  0
   -5.5947  -29.5623   29.3458 C   0  0  0  0  0  0  0  0  0  0  0  0
   -4.3335  -29.1186   29.4195 N   0  0  0  0  0  0  0  0  0  0  0  0
  1  2  1  0  0  0  0
  1  7  1  0  0  0  0
  2  3  1  0  0  0  0
  2  4  2  0  0  0  0
  4  5  1  0  0  0  0
  5  6  2  0  0  0  0
  5 11  1  0  0  0  0
  6  7  1  0  0  0  0
  6  9  1  0  0  0  0
  7  8  2  0  0  0  0
  9 10  2  0  0  0  0
 10 11  1  0  0  0  0
M  END
>  <CHROM.1>
-3.61290171,-30.04019926,27.33841986,0.55245422,-0.27366111,-2.07859631

>  <Name>
ligand

>  <RI>
0

>  <Rbt.Current_Directory>
/home/itssahil/PROJECTS/Mol_Feturizer/New_Systems/rnas/4LVW

>  <Rbt.Executable>
rbdock ($Id: //depot/dev/client3/rdock/2013.1/src/exe/rbdock.cxx#4 $)

>  <Rbt.Library>
libRbt.so (2013.1, Build901 2013/11/27)

>  <Rbt.Parameter_File>
/export/apps/rDock/src/rDock_2013.1_src/data/scripts/dock_solv.prm

>  <Rbt.Receptor>
prm/blind_docking_100.prm

>  <SCORE>
-13.2907

>  <SCORE.INTER>
-13.2907

>  <SCORE.INTER.CONST>
1

>  <SCORE.INTER.POLAR>
0

>  <SCORE.INTER.ROT>
0

>  <SCORE.INTER.SOLV>
9.85521

>  <SCORE.INTER.VDW>
-15.7455

>  <SCORE.INTER.norm>
-1.20824

>  <SCORE.INTRA>
0

>  <SCORE.INTRA.DIHEDRAL>
0

>  <SCORE.INTRA.DIHEDRAL.0>
0

>  <SCORE.INTRA.POLAR>
0

>  <SCORE.INTRA.POLAR.0>
0

>  <SCORE.INTRA.REPUL>
0

>  <SCORE.INTRA.REPUL.0>
0

>  <SCORE.INTRA.SOLV>
0

>  <SCORE.INTRA.SOLV.lig_0>
-29.307

>  <SCORE.INTRA.VDW>
0

>  <SCORE.INTRA.VDW.0>
0

>  <SCORE.INTRA.norm>
0

>  <SCORE.RESTR>
0

>  <SCORE.RESTR.CAVITY>
0

>  <SCORE.RESTR.norm>
0

>  <SCORE.SYSTEM>
0

>  <SCORE.SYSTEM.CONST>
0

>  <SCORE.SYSTEM.DIHEDRAL>
0

>  <SCORE.SYSTEM.SOLV>
0

>  <SCORE.SYSTEM.norm>
0

>  <SCORE.heavy>
11

>  <SCORE.norm>
-1.20824

>  <RMSD>
12.001

$$$$
ligand
 OpenBabel11021811503D
libRbt.so/2013.1/901 2013/11/27
 11 12  0  0  0  0  0  0  0  0999 V2000
   -2.7061  -30.5100   25.9365 N   0  0  0  0  0  0  0  0  0  0  0  0
   -1.9283  -29.7745   26.7504 C   0  0  0  0  0  0  0  0  0  0  0  0
   -0.5735  -29.4974   26.3966 N   0  0  0  0  0  0  0  0  0  0  0  0
   -2.3819  -29.2720   27.9026 N   0  0  0  0  0  0  0  0  0  0  0  0
   -3.6708  -29.5043   28.3187 C   0  0  0  0  0  0  0  0  0  0  0  0
   -4.4995  -30.2528   27.5113 C   0  0  0  0  0  0  0  0  0  0  0  0
   -3.9924  -30.7602   26.2804 C   0  0  0  0  0  0  0  0  0  0  0  0
   -4.8088  -31.5133   25.4665 O   0  0  0  0  0  0  0  0  0  0  0  0
   -5.7627  -30.3186   28.1807 C   0  0  0  0  0  0  0  0  0  0  0  0
   -5.6179  -29.5994   29.3752 C   0  0  0  0  0  0  0  0  0  0  0  0
   -4.3684  -29.1227   29.4428 N   0  0  0  0  0  0  0  0  0  0  0  0
  1  2  1  0  0  0  0
  1  7  1  0  0  0  0
  2  3  1  0  0  0  0
  2  4  2  0  0  0  0
  4  5  1  0  0  0  0
  5  6  2  0  0  0  0
  5 11  1  0  0  0  0
  6  7  1  0  0  0  0
  6  9  1  0  0  0  0
  7  8  2  0  0  0  0
  9 10  2  0  0  0  0
 10 11  1  0  0  0  0
M  END
>  <CHROM.1>
-3.63213914,-30.03019207,27.36103099,0.54272550,-0.29843744,-2.08374775

>  <Name>
ligand

>  <RI>
0

>  <Rbt.Current_Directory>
/home/itssahil/PROJECTS/Mol_Feturizer/New_Systems/rnas/4LVW

>  <Rbt.Executable>
rbdock ($Id: //depot/dev/client3/rdock/2013.1/src/exe/rbdock.cxx#4 $)

>  <Rbt.Library>
libRbt.so (2013.1, Build901 2013/11/27)

>  <Rbt.Parameter_File>
/export/apps/rDock/src/rDock_2013.1_src/data/scripts/dock_solv.prm

>  <Rbt.Receptor>
prm/blind_docking_80.prm

>  <SCORE>
-13.3285

>  <SCORE.INTER>
-13.3285

>  <SCORE.INTER.CONST>
1

>  <SCORE.INTER.POLAR>
0

>  <SCORE.INTER.ROT>
0

>  <SCORE.INTER.SOLV>
9.93743

>  <SCORE.INTER.VDW>
-15.7981

>  <SCORE.INTER.norm>
-1.21168

>  <SCORE.INTRA>
0

>  <SCORE.INTRA.DIHEDRAL>
0

>  <SCORE.INTRA.DIHEDRAL.0>
0

>  <SCORE.INTRA.POLAR>
0

>  <SCORE.INTRA.POLAR.0>
0

>  <SCORE.INTRA.REPUL>
0

>  <SCORE.INTRA.REPUL.0>
0

>  <SCORE.INTRA.SOLV>
0

>  <SCORE.INTRA.SOLV.lig_0>
-29.307

>  <SCORE.INTRA.VDW>
0

>  <SCORE.INTRA.VDW.0>
0

>  <SCORE.INTRA.norm>
0

>  <SCORE.RESTR>
0

>  <SCORE.RESTR.CAVITY>
0

>  <SCORE.RESTR.norm>
0

>  <SCORE.SYSTEM>
0

>  <SCORE.SYSTEM.CONST>
0

>  <SCORE.SYSTEM.DIHEDRAL>
0

>  <SCORE.SYSTEM.SOLV>
0

>  <SCORE.SYSTEM.norm>
0

>  <SCORE.heavy>
11

>  <SCORE.norm>
-1.21168

>  <RMSD>
12.008

$$$$
ligand
 OpenBabel11021811503D
libRbt.so/2013.1/901 2013/11/27
 11 12  0  0  0  0  0  0  0  0999 V2000
   -2.7244  -30.4944   25.9568 N   0  0  0  0  0  0  0  0  0  0  0  0
   -1.9305  -29.7838   26.7771 C   0  0  0  0  0  0  0  0  0  0  0  0
   -0.5734  -29.5231   26.4198 N   0  0  0  0  0  0  0  0  0  0  0  0
   -2.3697  -29.2915   27.9393 N   0  0  0  0  0  0  0  0  0  0  0  0
   -3.6599  -29.5095   28.3592 C   0  0  0  0  0  0  0  0  0  0  0  0
   -4.5049  -30.2324   27.5455 C   0  0  0  0  0  0  0  0  0  0  0  0
   -4.0127  -30.7292   26.3042 C   0  0  0  0  0  0  0  0  0  0  0  0
   -4.8455  -31.4569   25.4838 O   0  0  0  0  0  0  0  0  0  0  0  0
   -5.7653  -30.2881   28.2210 C   0  0  0  0  0  0  0  0  0  0  0  0
   -5.6024  -29.5893   29.4252 C   0  0  0  0  0  0  0  0  0  0  0  0
   -4.3451  -29.1337   29.4928 N   0  0  0  0  0  0  0  0  0  0  0  0
  1  2  1  0  0  0  0
  1  7  1  0  0  0  0
  2  3  1  0  0  0  0
  2  4  2  0  0  0  0
  4  5  1  0  0  0  0
  5  6  2  0  0  0  0
  5 11  1  0  0  0  0
  6  7  1  0  0  0  0
  6  9  1  0  0  0  0
  7  8  2  0  0  0  0
  9 10  2  0  0  0  0
 10 11  1  0  0  0  0
M  END
>  <CHROM.1>
-3.63488177,-30.02143829,27.39357309,0.55589425,-0.28710342,-2.06494736

>  <Name>
ligand

>  <RI>
0

>  <Rbt.Current_Directory>
/home/itssahil/PROJECTS/Mol_Feturizer/New_Systems/rnas/4LVW

>  <Rbt.Executable>
rbdock ($Id: //depot/dev/client3/rdock/2013.1/src/exe/rbdock.cxx#4 $)

>  <Rbt.Library>
libRbt.so (2013.1, Build901 2013/11/27)

>  <Rbt.Parameter_File>
/export/apps/rDock/src/rDock_2013.1_src/data/scripts/dock_solv.prm

>  <Rbt.Receptor>
prm/blind_docking_80.prm

>  <SCORE>
-13.2923

>  <SCORE.INTER>
-13.2923

>  <SCORE.INTER.CONST>
1

>  <SCORE.INTER.POLAR>
0

>  <SCORE.INTER.ROT>
0

>  <SCORE.INTER.SOLV>
9.83058

>  <SCORE.INTER.VDW>
-15.7384

>  <SCORE.INTER.norm>
-1.20839

>  <SCORE.INTRA>
0

>  <SCORE.INTRA.DIHEDRAL>
0

>  <SCORE.INTRA.DIHEDRAL.0>
0

>  <SCORE.INTRA.POLAR>
0

>  <SCORE.INTRA.POLAR.0>
0

>  <SCORE.INTRA.REPUL>
0

>  <SCORE.INTRA.REPUL.0>
0

>  <SCORE.INTRA.SOLV>
0

>  <SCORE.INTRA.SOLV.lig_0>
-29.307

>  <SCORE.INTRA.VDW>
0

>  <SCORE.INTRA.VDW.0>
0

>  <SCORE.INTRA.norm>
0

>  <SCORE.RESTR>
0

>  <SCORE.RESTR.CAVITY>
0

>  <SCORE.RESTR.norm>
0

>  <SCORE.SYSTEM>
0

>  <SCORE.SYSTEM.CONST>
0

>  <SCORE.SYSTEM.DIHEDRAL>
0

>  <SCORE.SYSTEM.SOLV>
0

>  <SCORE.SYSTEM.norm>
0

>  <SCORE.heavy>
11

>  <SCORE.norm>
-1.20839

>  <RMSD>
12.009

$$$$
ligand
 OpenBabel11021811503D
libRbt.so/2013.1/901 2013/11/27
 11 12  0  0  0  0  0  0  0  0999 V2000
   -2.6978  -30.5241   25.9405 N   0  0  0  0  0  0  0  0  0  0  0  0
   -1.9157  -29.7940   26.7551 C   0  0  0  0  0  0  0  0  0  0  0  0
   -0.5594  -29.5243   26.4014 N   0  0  0  0  0  0  0  0  0  0  0  0
   -2.3662  -29.2901   27.9079 N   0  0  0  0  0  0  0  0  0  0  0  0
   -3.6564  -29.5155   28.3239 C   0  0  0  0  0  0  0  0  0  0  0  0
   -4.4895  -30.2584   27.5159 C   0  0  0  0  0  0  0  0  0  0  0  0
   -3.9855  -30.7673   26.2844 C   0  0  0  0  0  0  0  0  0  0  0  0
   -4.8063  -31.5149   25.4698 O   0  0  0  0  0  0  0  0  0  0  0  0
   -5.7530  -30.3177   28.1855 C   0  0  0  0  0  0  0  0  0  0  0  0
   -5.6038  -29.6005   29.3807 C   0  0  0  0  0  0  0  0  0  0  0  0
   -4.3516  -29.1311   29.4485 N   0  0  0  0  0  0  0  0  0  0  0  0
  1  2  1  0  0  0  0
  1  7  1  0  0  0  0
  2  3  1  0  0  0  0
  2  4  2  0  0  0  0
  4  5  1  0  0  0  0
  5  6  2  0  0  0  0
  5 11  1  0  0  0  0
  6  7  1  0  0  0  0
  6  9  1  0  0  0  0
  7  8  2  0  0  0  0
  9 10  2  0  0  0  0
 10 11  1  0  0  0  0
M  END
>  <CHROM.1>
-3.62089283,-30.04056759,27.36573747,0.54580542,-0.29352216,-2.08177633

>  <Name>
ligand

>  <RI>
0

>  <Rbt.Current_Directory>
/home/itssahil/PROJECTS/Mol_Feturizer/New_Systems/rnas/4LVW

>  <Rbt.Executable>
rbdock ($Id: //depot/dev/client3/rdock/2013.1/src/exe/rbdock.cxx#4 $)

>  <Rbt.Library>
libRbt.so (2013.1, Build901 2013/11/27)

>  <Rbt.Parameter_File>
/export/apps/rDock/src/rDock_2013.1_src/data/scripts/dock_solv.prm

>  <Rbt.Receptor>
prm/blind_docking_60.prm

>  <SCORE>
-13.3396

>  <SCORE.INTER>
-13.3396

>  <SCORE.INTER.CONST>
1

>  <SCORE.INTER.POLAR>
0

>  <SCORE.INTER.ROT>
0

>  <SCORE.INTER.SOLV>
9.90614

>  <SCORE.INTER.VDW>
-15.7951

>  <SCORE.INTER.norm>
-1.21269

>  <SCORE.INTRA>
0

>  <SCORE.INTRA.DIHEDRAL>
0

>  <SCORE.INTRA.DIHEDRAL.0>
0

>  <SCORE.INTRA.POLAR>
0

>  <SCORE.INTRA.POLAR.0>
0

>  <SCORE.INTRA.REPUL>
0

>  <SCORE.INTRA.REPUL.0>
0

>  <SCORE.INTRA.SOLV>
0

>  <SCORE.INTRA.SOLV.lig_0>
-29.307

>  <SCORE.INTRA.VDW>
0

>  <SCORE.INTRA.VDW.0>
0

>  <SCORE.INTRA.norm>
0

>  <SCORE.RESTR>
0

>  <SCORE.RESTR.CAVITY>
0

>  <SCORE.RESTR.norm>
0

>  <SCORE.SYSTEM>
0

>  <SCORE.SYSTEM.CONST>
0

>  <SCORE.SYSTEM.DIHEDRAL>
0

>  <SCORE.SYSTEM.SOLV>
0

>  <SCORE.SYSTEM.norm>
0

>  <SCORE.heavy>
11

>  <SCORE.norm>
-1.21269

>  <RMSD>
12.012

$$$$
ligand
 OpenBabel11021811503D
libRbt.so/2013.1/901 2013/11/27
 11 12  0  0  0  0  0  0  0  0999 V2000
   -6.1565  -21.5679   34.2559 N   0  0  0  0  0  0  0  0  0  0  0  0
   -5.0284  -22.0277   34.8254 C   0  0  0  0  0  0  0  0  0  0  0  0
   -4.4009  -21.2944   35.8770 N   0  0  0  0  0  0  0  0  0  0  0  0
   -4.4580  -23.1750   34.4455 N   0  0  0  0  0  0  0  0  0  0  0  0
   -4.9951  -23.9322   33.4323 C   0  0  0  0  0  0  0  0  0  0  0  0
   -6.1518  -23.4949   32.8243 C   0  0  0  0  0  0  0  0  0  0  0  0
   -6.7462  -22.2768   33.2633 C   0  0  0  0  0  0  0  0  0  0  0  0
   -7.8998  -21.8264   32.6611 O   0  0  0  0  0  0  0  0  0  0  0  0
   -6.4806  -24.4728   31.8325 C   0  0  0  0  0  0  0  0  0  0  0  0
   -5.4832  -25.4558   31.8971 C   0  0  0  0  0  0  0  0  0  0  0  0
   -4.6071  -25.1191   32.8521 N   0  0  0  0  0  0  0  0  0  0  0  0
  1  2  1  0  0  0  0
  1  7  1  0  0  0  0
  2  3  1  0  0  0  0
  2  4  2  0  0  0  0
  4  5  1  0  0  0  0
  5  6  2  0  0  0  0
  5 11  1  0  0  0  0
  6  7  1  0  0  0  0
  6  9  1  0  0  0  0
  7  8  2  0  0  0  0
  9 10  2  0  0  0  0
 10 11  1  0  0  0  0
M  END
>  <CHROM.1>
-5.69249407,-23.09278628,33.49648763,1.44251223,-0.57375565,0.64157967

>  <Name>
ligand

>  <RI>
0

>  <Rbt.Current_Directory>
/home/itssahil/PROJECTS/Mol_Feturizer/New_Systems/rnas/4LVW

>  <Rbt.Executable>
rbdock ($Id: //depot/dev/client3/rdock/2013.1/src/exe/rbdock.cxx#4 $)

>  <Rbt.Library>
libRbt.so (2013.1, Build901 2013/11/27)

>  <Rbt.Parameter_File>
/export/apps/rDock/src/rDock_2013.1_src/data/scripts/dock_solv.prm

>  <Rbt.Receptor>
prm/blind_docking_100.prm

>  <SCORE>
-7.99249

>  <SCORE.INTER>
-7.99249

>  <SCORE.INTER.CONST>
1

>  <SCORE.INTER.POLAR>
0

>  <SCORE.INTER.ROT>
0

>  <SCORE.INTER.SOLV>
3.36766

>  <SCORE.INTER.VDW>
-10.0509

>  <SCORE.INTER.norm>
-0.72659

>  <SCORE.INTRA>
0

>  <SCORE.INTRA.DIHEDRAL>
0

>  <SCORE.INTRA.DIHEDRAL.0>
0

>  <SCORE.INTRA.POLAR>
0

>  <SCORE.INTRA.POLAR.0>
0

>  <SCORE.INTRA.REPUL>
0

>  <SCORE.INTRA.REPUL.0>
0

>  <SCORE.INTRA.SOLV>
0

>  <SCORE.INTRA.SOLV.lig_0>
-29.307

>  <SCORE.INTRA.VDW>
0

>  <SCORE.INTRA.VDW.0>
0

>  <SCORE.INTRA.norm>
0

>  <SCORE.RESTR>
0

>  <SCORE.RESTR.CAVITY>
0

>  <SCORE.RESTR.norm>
0

>  <SCORE.SYSTEM>
0

>  <SCORE.SYSTEM.CONST>
0

>  <SCORE.SYSTEM.DIHEDRAL>
0

>  <SCORE.SYSTEM.SOLV>
0

>  <SCORE.SYSTEM.norm>
0

>  <SCORE.heavy>
11

>  <SCORE.norm>
-0.72659

>  <RMSD>
12.038

$$$$
ligand
 OpenBabel11021811503D
libRbt.so/2013.1/901 2013/11/27
 11 12  0  0  0  0  0  0  0  0999 V2000
   -6.5309  -29.2209   30.1338 N   0  0  0  0  0  0  0  0  0  0  0  0
   -5.7870  -28.2151   30.6270 C   0  0  0  0  0  0  0  0  0  0  0  0
   -6.3033  -27.3755   31.6595 N   0  0  0  0  0  0  0  0  0  0  0  0
   -4.5502  -27.9651   30.1869 N   0  0  0  0  0  0  0  0  0  0  0  0
   -3.9872  -28.7211   29.1870 C   0  0  0  0  0  0  0  0  0  0  0  0
   -4.7178  -29.7620   28.6565 C   0  0  0  0  0  0  0  0  0  0  0  0
   -6.0268  -30.0150   29.1586 C   0  0  0  0  0  0  0  0  0  0  0  0
   -6.7692  -31.0494   28.6341 O   0  0  0  0  0  0  0  0  0  0  0  0
   -3.8890  -30.3701   27.6607 C   0  0  0  0  0  0  0  0  0  0  0  0
   -2.6897  -29.6445   27.6443 C   0  0  0  0  0  0  0  0  0  0  0  0
   -2.7643  -28.6672   28.5564 N   0  0  0  0  0  0  0  0  0  0  0  0
  1  2  1  0  0  0  0
  1  7  1  0  0  0  0
  2  3  1  0  0  0  0
  2  4  2  0  0  0  0
  4  5  1  0  0  0  0
  5  6  2  0  0  0  0
  5 11  1  0  0  0  0
  6  7  1  0  0  0  0
  6  9  1  0  0  0  0
  7  8  2  0  0  0  0
  9 10  2  0  0  0  0
 10 11  1  0  0  0  0
M  END
>  <CHROM.1>
-4.96896650,-29.18554577,29.31150640,2.39364144,0.38908085,0.72967835

>  <Name>
ligand

>  <RI>
0

>  <Rbt.Current_Directory>
/home/itssahil/PROJECTS/Mol_Feturizer/New_Systems/rnas/4LVW

>  <Rbt.Executable>
rbdock ($Id: //depot/dev/client3/rdock/2013.1/src/exe/rbdock.cxx#4 $)

>  <Rbt.Library>
libRbt.so (2013.1, Build901 2013/11/27)

>  <Rbt.Parameter_File>
/export/apps/rDock/src/rDock_2013.1_src/data/scripts/dock_solv.prm

>  <Rbt.Receptor>
prm/blind_docking_80.prm

>  <SCORE>
-12.025

>  <SCORE.INTER>
-12.025

>  <SCORE.INTER.CONST>
1

>  <SCORE.INTER.POLAR>
0

>  <SCORE.INTER.ROT>
0

>  <SCORE.INTER.SOLV>
5.01381

>  <SCORE.INTER.VDW>
-13.2879

>  <SCORE.INTER.norm>
-1.09318

>  <SCORE.INTRA>
0

>  <SCORE.INTRA.DIHEDRAL>
0

>  <SCORE.INTRA.DIHEDRAL.0>
0

>  <SCORE.INTRA.POLAR>
0

>  <SCORE.INTRA.POLAR.0>
0

>  <SCORE.INTRA.REPUL>
0

>  <SCORE.INTRA.REPUL.0>
0

>  <SCORE.INTRA.SOLV>
0

>  <SCORE.INTRA.SOLV.lig_0>
-29.307

>  <SCORE.INTRA.VDW>
0

>  <SCORE.INTRA.VDW.0>
0

>  <SCORE.INTRA.norm>
0

>  <SCORE.RESTR>
0

>  <SCORE.RESTR.CAVITY>
0

>  <SCORE.RESTR.norm>
0

>  <SCORE.SYSTEM>
0

>  <SCORE.SYSTEM.CONST>
0

>  <SCORE.SYSTEM.DIHEDRAL>
0

>  <SCORE.SYSTEM.SOLV>
0

>  <SCORE.SYSTEM.norm>
0

>  <SCORE.heavy>
11

>  <SCORE.norm>
-1.09318

>  <RMSD>
12.064

$$$$
ligand
 OpenBabel11021811503D
libRbt.so/2013.1/901 2013/11/27
 11 12  0  0  0  0  0  0  0  0999 V2000
    5.1550  -28.2592   15.9310 N   0  0  0  0  0  0  0  0  0  0  0  0
    5.6965  -27.0953   15.5307 C   0  0  0  0  0  0  0  0  0  0  0  0
    7.0997  -26.9988   15.2871 N   0  0  0  0  0  0  0  0  0  0  0  0
    4.9585  -25.9980   15.3384 N   0  0  0  0  0  0  0  0  0  0  0  0
    3.6027  -26.0072   15.5628 C   0  0  0  0  0  0  0  0  0  0  0  0
    3.0103  -27.1818   15.9729 C   0  0  0  0  0  0  0  0  0  0  0  0
    3.8208  -28.3396   16.1522 C   0  0  0  0  0  0  0  0  0  0  0  0
    3.2419  -29.5186   16.5660 O   0  0  0  0  0  0  0  0  0  0  0  0
    1.6138  -26.9016   16.1129 C   0  0  0  0  0  0  0  0  0  0  0  0
    1.4438  -25.5506   15.7795 C   0  0  0  0  0  0  0  0  0  0  0  0
    2.6356  -25.0330   15.4560 N   0  0  0  0  0  0  0  0  0  0  0  0
  1  2  1  0  0  0  0
  1  7  1  0  0  0  0
  2  3  1  0  0  0  0
  2  4  2  0  0  0  0
  4  5  1  0  0  0  0
  5  6  2  0  0  0  0
  5 11  1  0  0  0  0
  6  7  1  0  0  0  0
  6  9  1  0  0  0  0
  7  8  2  0  0  0  0
  9 10  2  0  0  0  0
 10 11  1  0  0  0  0
M  END
>  <CHROM.1>
3.88883304,-27.03633684,15.79554110,0.31187134,-0.14974183,2.87840062

>  <Name>
ligand

>  <RI>
0

>  <Rbt.Current_Directory>
/home/itssahil/PROJECTS/Mol_Feturizer/New_Systems/rnas/4LVW

>  <Rbt.Executable>
rbdock ($Id: //depot/dev/client3/rdock/2013.1/src/exe/rbdock.cxx#4 $)

>  <Rbt.Library>
libRbt.so (2013.1, Build901 2013/11/27)

>  <Rbt.Parameter_File>
/export/apps/rDock/src/rDock_2013.1_src/data/scripts/dock_solv.prm

>  <Rbt.Receptor>
prm/blind_docking_80.prm

>  <SCORE>
-8.88229

>  <SCORE.INTER>
-8.88229

>  <SCORE.INTER.CONST>
1

>  <SCORE.INTER.POLAR>
0

>  <SCORE.INTER.ROT>
0

>  <SCORE.INTER.SOLV>
4.01824

>  <SCORE.INTER.VDW>
-10.8609

>  <SCORE.INTER.norm>
-0.807481

>  <SCORE.INTRA>
0

>  <SCORE.INTRA.DIHEDRAL>
0

>  <SCORE.INTRA.DIHEDRAL.0>
0

>  <SCORE.INTRA.POLAR>
0

>  <SCORE.INTRA.POLAR.0>
0

>  <SCORE.INTRA.REPUL>
0

>  <SCORE.INTRA.REPUL.0>
0

>  <SCORE.INTRA.SOLV>
0

>  <SCORE.INTRA.SOLV.lig_0>
-29.307

>  <SCORE.INTRA.VDW>
0

>  <SCORE.INTRA.VDW.0>
0

>  <SCORE.INTRA.norm>
0

>  <SCORE.RESTR>
0

>  <SCORE.RESTR.CAVITY>
0

>  <SCORE.RESTR.norm>
0

>  <SCORE.SYSTEM>
0

>  <SCORE.SYSTEM.CONST>
0

>  <SCORE.SYSTEM.DIHEDRAL>
0

>  <SCORE.SYSTEM.SOLV>
0

>  <SCORE.SYSTEM.norm>
0

>  <SCORE.heavy>
11

>  <SCORE.norm>
-0.807481

>  <RMSD>
12.064

$$$$
ligand
 OpenBabel11021811503D
libRbt.so/2013.1/901 2013/11/27
 11 12  0  0  0  0  0  0  0  0999 V2000
   -2.8724  -30.4320   25.9884 N   0  0  0  0  0  0  0  0  0  0  0  0
   -2.0848  -29.7014   26.7971 C   0  0  0  0  0  0  0  0  0  0  0  0
   -0.7444  -29.3950   26.4140 N   0  0  0  0  0  0  0  0  0  0  0  0
   -2.5154  -29.2306   27.9714 N   0  0  0  0  0  0  0  0  0  0  0  0
   -3.7891  -29.4924   28.4160 C   0  0  0  0  0  0  0  0  0  0  0  0
   -4.6271  -30.2370   27.6149 C   0  0  0  0  0  0  0  0  0  0  0  0
   -4.1451  -30.7101   26.3605 C   0  0  0  0  0  0  0  0  0  0  0  0
   -4.9710  -31.4591   25.5523 O   0  0  0  0  0  0  0  0  0  0  0  0
   -5.8710  -30.3373   28.3156 C   0  0  0  0  0  0  0  0  0  0  0  0
   -5.7056  -29.6410   29.5210 C   0  0  0  0  0  0  0  0  0  0  0  0
   -4.4624  -29.1458   29.5660 N   0  0  0  0  0  0  0  0  0  0  0  0
  1  2  1  0  0  0  0
  1  7  1  0  0  0  0
  2  3  1  0  0  0  0
  2  4  2  0  0  0  0
  4  5  1  0  0  0  0
  5  6  2  0  0  0  0
  5 11  1  0  0  0  0
  6  7  1  0  0  0  0
  6  9  1  0  0  0  0
  7  8  2  0  0  0  0
  9 10  2  0  0  0  0
 10 11  1  0  0  0  0
M  END
>  <CHROM.1>
-3.76764920,-29.99730429,27.44666397,0.55909099,-0.32501994,-2.05748291

>  <Name>
ligand

>  <RI>
0

>  <Rbt.Current_Directory>
/home/itssahil/PROJECTS/Mol_Feturizer/New_Systems/rnas/4LVW

>  <Rbt.Executable>
rbdock ($Id: //depot/dev/client3/rdock/2013.1/src/exe/rbdock.cxx#4 $)

>  <Rbt.Library>
libRbt.so (2013.1, Build901 2013/11/27)

>  <Rbt.Parameter_File>
/export/apps/rDock/src/rDock_2013.1_src/data/scripts/dock_solv.prm

>  <Rbt.Receptor>
prm/blind_docking_100.prm

>  <SCORE>
-13.3105

>  <SCORE.INTER>
-13.3105

>  <SCORE.INTER.CONST>
1

>  <SCORE.INTER.POLAR>
0

>  <SCORE.INTER.ROT>
0

>  <SCORE.INTER.SOLV>
9.79674

>  <SCORE.INTER.VDW>
-15.7392

>  <SCORE.INTER.norm>
-1.21004

>  <SCORE.INTRA>
0

>  <SCORE.INTRA.DIHEDRAL>
0

>  <SCORE.INTRA.DIHEDRAL.0>
0

>  <SCORE.INTRA.POLAR>
0

>  <SCORE.INTRA.POLAR.0>
0

>  <SCORE.INTRA.REPUL>
0

>  <SCORE.INTRA.REPUL.0>
0

>  <SCORE.INTRA.SOLV>
0

>  <SCORE.INTRA.SOLV.lig_0>
-29.307

>  <SCORE.INTRA.VDW>
0

>  <SCORE.INTRA.VDW.0>
0

>  <SCORE.INTRA.norm>
0

>  <SCORE.RESTR>
0

>  <SCORE.RESTR.CAVITY>
0

>  <SCORE.RESTR.norm>
0

>  <SCORE.SYSTEM>
0

>  <SCORE.SYSTEM.CONST>
0

>  <SCORE.SYSTEM.DIHEDRAL>
0

>  <SCORE.SYSTEM.SOLV>
0

>  <SCORE.SYSTEM.norm>
0

>  <SCORE.heavy>
11

>  <SCORE.norm>
-1.21004

>  <RMSD>
12.065

$$$$
ligand
 OpenBabel11021811503D
libRbt.so/2013.1/901 2013/11/27
 11 12  0  0  0  0  0  0  0  0999 V2000
   -2.8874  -30.4027   25.9871 N   0  0  0  0  0  0  0  0  0  0  0  0
   -2.1111  -29.6611   26.7968 C   0  0  0  0  0  0  0  0  0  0  0  0
   -0.7757  -29.3334   26.4139 N   0  0  0  0  0  0  0  0  0  0  0  0
   -2.5488  -29.1987   27.9718 N   0  0  0  0  0  0  0  0  0  0  0  0
   -3.8181  -29.4809   28.4162 C   0  0  0  0  0  0  0  0  0  0  0  0
   -4.6447  -30.2374   27.6141 C   0  0  0  0  0  0  0  0  0  0  0  0
   -4.1555  -30.7011   26.3590 C   0  0  0  0  0  0  0  0  0  0  0  0
   -4.9698  -31.4617   25.5498 O   0  0  0  0  0  0  0  0  0  0  0  0
   -5.8867  -30.3580   28.3149 C   0  0  0  0  0  0  0  0  0  0  0  0
   -5.7320  -29.6610   29.5213 C   0  0  0  0  0  0  0  0  0  0  0  0
   -4.4966  -29.1465   29.5668 N   0  0  0  0  0  0  0  0  0  0  0  0
  1  2  1  0  0  0  0
  1  7  1  0  0  0  0
  2  3  1  0  0  0  0
  2  4  2  0  0  0  0
  4  5  1  0  0  0  0
  5  6  2  0  0  0  0
  5 11  1  0  0  0  0
  6  7  1  0  0  0  0
  6  9  1  0  0  0  0
  7  8  2  0  0  0  0
  9 10  2  0  0  0  0
 10 11  1  0  0  0  0
M  END
>  <CHROM.1>
-3.78904421,-29.98408571,27.44616006,0.55153487,-0.33883523,-2.05851660

>  <Name>
ligand

>  <RI>
0

>  <Rbt.Current_Directory>
/home/itssahil/PROJECTS/Mol_Feturizer/New_Systems/rnas/4LVW

>  <Rbt.Executable>
rbdock ($Id: //depot/dev/client3/rdock/2013.1/src/exe/rbdock.cxx#4 $)

>  <Rbt.Library>
libRbt.so (2013.1, Build901 2013/11/27)

>  <Rbt.Parameter_File>
/export/apps/rDock/src/rDock_2013.1_src/data/scripts/dock_solv.prm

>  <Rbt.Receptor>
prm/blind_docking_100.prm

>  <SCORE>
-13.274

>  <SCORE.INTER>
-13.274

>  <SCORE.INTER.CONST>
1

>  <SCORE.INTER.POLAR>
0

>  <SCORE.INTER.ROT>
0

>  <SCORE.INTER.SOLV>
9.83707

>  <SCORE.INTER.VDW>
-15.7283

>  <SCORE.INTER.norm>
-1.20672

>  <SCORE.INTRA>
0

>  <SCORE.INTRA.DIHEDRAL>
0

>  <SCORE.INTRA.DIHEDRAL.0>
0

>  <SCORE.INTRA.POLAR>
0

>  <SCORE.INTRA.POLAR.0>
0

>  <SCORE.INTRA.REPUL>
0

>  <SCORE.INTRA.REPUL.0>
0

>  <SCORE.INTRA.SOLV>
0

>  <SCORE.INTRA.SOLV.lig_0>
-29.307

>  <SCORE.INTRA.VDW>
0

>  <SCORE.INTRA.VDW.0>
0

>  <SCORE.INTRA.norm>
0

>  <SCORE.RESTR>
0

>  <SCORE.RESTR.CAVITY>
0

>  <SCORE.RESTR.norm>
0

>  <SCORE.SYSTEM>
0

>  <SCORE.SYSTEM.CONST>
0

>  <SCORE.SYSTEM.DIHEDRAL>
0

>  <SCORE.SYSTEM.SOLV>
0

>  <SCORE.SYSTEM.norm>
0

>  <SCORE.heavy>
11

>  <SCORE.norm>
-1.20672

>  <RMSD>
12.066

$$$$
ligand
 OpenBabel11021811503D
libRbt.so/2013.1/901 2013/11/27
 11 12  0  0  0  0  0  0  0  0999 V2000
   -2.8992  -30.5214   25.9692 N   0  0  0  0  0  0  0  0  0  0  0  0
   -2.0856  -29.8027   26.7629 C   0  0  0  0  0  0  0  0  0  0  0  0
   -0.7405  -29.5375   26.3656 N   0  0  0  0  0  0  0  0  0  0  0  0
   -2.4938  -29.3064   27.9346 N   0  0  0  0  0  0  0  0  0  0  0  0
   -3.7705  -29.5283   28.3923 C   0  0  0  0  0  0  0  0  0  0  0  0
   -4.6348  -30.2595   27.6068 C   0  0  0  0  0  0  0  0  0  0  0  0
   -4.1759  -30.7604   26.3545 C   0  0  0  0  0  0  0  0  0  0  0  0
   -5.0282  -31.4964   25.5619 O   0  0  0  0  0  0  0  0  0  0  0  0
   -5.8752  -30.3176   28.3183 C   0  0  0  0  0  0  0  0  0  0  0  0
   -5.6814  -29.6117   29.5138 C   0  0  0  0  0  0  0  0  0  0  0  0
   -4.4249  -29.1498   29.5431 N   0  0  0  0  0  0  0  0  0  0  0  0
  1  2  1  0  0  0  0
  1  7  1  0  0  0  0
  2  3  1  0  0  0  0
  2  4  2  0  0  0  0
  4  5  1  0  0  0  0
  5  6  2  0  0  0  0
  5 11  1  0  0  0  0
  6  7  1  0  0  0  0
  6  9  1  0  0  0  0
  7  8  2  0  0  0  0
  9 10  2  0  0  0  0
 10 11  1  0  0  0  0
M  END
>  <CHROM.1>
-3.77053575,-30.04517206,27.42899922,0.57982412,-0.30486319,-2.06313559

>  <Name>
ligand

>  <RI>
0

>  <Rbt.Current_Directory>
/home/itssahil/PROJECTS/Mol_Feturizer/New_Systems/rnas/4LVW

>  <Rbt.Executable>
rbdock ($Id: //depot/dev/client3/rdock/2013.1/src/exe/rbdock.cxx#4 $)

>  <Rbt.Library>
libRbt.so (2013.1, Build901 2013/11/27)

>  <Rbt.Parameter_File>
/export/apps/rDock/src/rDock_2013.1_src/data/scripts/dock_solv.prm

>  <Rbt.Receptor>
prm/blind_docking_80.prm

>  <SCORE>
-13.317

>  <SCORE.INTER>
-13.317

>  <SCORE.INTER.CONST>
1

>  <SCORE.INTER.POLAR>
0

>  <SCORE.INTER.ROT>
0

>  <SCORE.INTER.SOLV>
9.63453

>  <SCORE.INTER.VDW>
-15.6895

>  <SCORE.INTER.norm>
-1.21064

>  <SCORE.INTRA>
0

>  <SCORE.INTRA.DIHEDRAL>
0

>  <SCORE.INTRA.DIHEDRAL.0>
0

>  <SCORE.INTRA.POLAR>
0

>  <SCORE.INTRA.POLAR.0>
0

>  <SCORE.INTRA.REPUL>
0

>  <SCORE.INTRA.REPUL.0>
0

>  <SCORE.INTRA.SOLV>
0

>  <SCORE.INTRA.SOLV.lig_0>
-29.307

>  <SCORE.INTRA.VDW>
0

>  <SCORE.INTRA.VDW.0>
0

>  <SCORE.INTRA.norm>
0

>  <SCORE.RESTR>
0

>  <SCORE.RESTR.CAVITY>
0

>  <SCORE.RESTR.norm>
0

>  <SCORE.SYSTEM>
0

>  <SCORE.SYSTEM.CONST>
0

>  <SCORE.SYSTEM.DIHEDRAL>
0

>  <SCORE.SYSTEM.SOLV>
0

>  <SCORE.SYSTEM.norm>
0

>  <SCORE.heavy>
11

>  <SCORE.norm>
-1.21064

>  <RMSD>
12.098

$$$$
ligand
 OpenBabel11021811503D
libRbt.so/2013.1/901 2013/11/27
 11 12  0  0  0  0  0  0  0  0999 V2000
   -2.9132  -30.5442   25.9341 N   0  0  0  0  0  0  0  0  0  0  0  0
   -2.0875  -29.8194   26.7093 C   0  0  0  0  0  0  0  0  0  0  0  0
   -0.7500  -29.5539   26.2873 N   0  0  0  0  0  0  0  0  0  0  0  0
   -2.4763  -29.3169   27.8850 N   0  0  0  0  0  0  0  0  0  0  0  0
   -3.7444  -29.5384   28.3660 C   0  0  0  0  0  0  0  0  0  0  0  0
   -4.6207  -30.2759   27.5999 C   0  0  0  0  0  0  0  0  0  0  0  0
   -4.1825  -30.7834   26.3428 C   0  0  0  0  0  0  0  0  0  0  0  0
   -5.0470  -31.5256   25.5694 O   0  0  0  0  0  0  0  0  0  0  0  0
   -5.8485  -30.3321   28.3331 C   0  0  0  0  0  0  0  0  0  0  0  0
   -5.6354  -29.6188   29.5209 C   0  0  0  0  0  0  0  0  0  0  0  0
   -4.3796  -29.1544   29.5257 N   0  0  0  0  0  0  0  0  0  0  0  0
  1  2  1  0  0  0  0
  1  7  1  0  0  0  0
  2  3  1  0  0  0  0
  2  4  2  0  0  0  0
  4  5  1  0  0  0  0
  5  6  2  0  0  0  0
  5 11  1  0  0  0  0
  6  7  1  0  0  0  0
  6  9  1  0  0  0  0
  7  8  2  0  0  0  0
  9 10  2  0  0  0  0
 10 11  1  0  0  0  0
M  END
>  <CHROM.1>
-3.76010793,-30.06102940,27.40591184,0.59486682,-0.31474826,-2.06444421

>  <Name>
ligand

>  <RI>
0

>  <Rbt.Current_Directory>
/home/itssahil/PROJECTS/Mol_Feturizer/New_Systems/rnas/4LVW

>  <Rbt.Executable>
rbdock ($Id: //depot/dev/client3/rdock/2013.1/src/exe/rbdock.cxx#4 $)

>  <Rbt.Library>
libRbt.so (2013.1, Build901 2013/11/27)

>  <Rbt.Parameter_File>
/export/apps/rDock/src/rDock_2013.1_src/data/scripts/dock_solv.prm

>  <Rbt.Receptor>
prm/blind_docking_80.prm

>  <SCORE>
-13.2946

>  <SCORE.INTER>
-13.2946

>  <SCORE.INTER.CONST>
1

>  <SCORE.INTER.POLAR>
0

>  <SCORE.INTER.ROT>
0

>  <SCORE.INTER.SOLV>
9.62019

>  <SCORE.INTER.VDW>
-15.6698

>  <SCORE.INTER.norm>
-1.2086

>  <SCORE.INTRA>
0

>  <SCORE.INTRA.DIHEDRAL>
0

>  <SCORE.INTRA.DIHEDRAL.0>
0

>  <SCORE.INTRA.POLAR>
0

>  <SCORE.INTRA.POLAR.0>
0

>  <SCORE.INTRA.REPUL>
0

>  <SCORE.INTRA.REPUL.0>
0

>  <SCORE.INTRA.SOLV>
0

>  <SCORE.INTRA.SOLV.lig_0>
-29.307

>  <SCORE.INTRA.VDW>
0

>  <SCORE.INTRA.VDW.0>
0

>  <SCORE.INTRA.norm>
0

>  <SCORE.RESTR>
0

>  <SCORE.RESTR.CAVITY>
0

>  <SCORE.RESTR.norm>
0

>  <SCORE.SYSTEM>
0

>  <SCORE.SYSTEM.CONST>
0

>  <SCORE.SYSTEM.DIHEDRAL>
0

>  <SCORE.SYSTEM.SOLV>
0

>  <SCORE.SYSTEM.norm>
0

>  <SCORE.heavy>
11

>  <SCORE.norm>
-1.2086

>  <RMSD>
12.099

$$$$
ligand
 OpenBabel11021811503D
libRbt.so/2013.1/901 2013/11/27
 11 12  0  0  0  0  0  0  0  0999 V2000
   -2.9133  -30.5371   25.9628 N   0  0  0  0  0  0  0  0  0  0  0  0
   -2.0911  -29.8347   26.7620 C   0  0  0  0  0  0  0  0  0  0  0  0
   -0.7425  -29.5839   26.3673 N   0  0  0  0  0  0  0  0  0  0  0  0
   -2.4936  -29.3415   27.9370 N   0  0  0  0  0  0  0  0  0  0  0  0
   -3.7732  -29.5502   28.3925 C   0  0  0  0  0  0  0  0  0  0  0  0
   -4.6464  -30.2646   27.6014 C   0  0  0  0  0  0  0  0  0  0  0  0
   -4.1932  -30.7625   26.3458 C   0  0  0  0  0  0  0  0  0  0  0  0
   -5.0545  -31.4817   25.5475 O   0  0  0  0  0  0  0  0  0  0  0  0
   -5.8878  -30.3118   28.3119 C   0  0  0  0  0  0  0  0  0  0  0  0
   -5.6856  -29.6171   29.5125 C   0  0  0  0  0  0  0  0  0  0  0  0
   -4.4234  -29.1716   29.5457 N   0  0  0  0  0  0  0  0  0  0  0  0
  1  2  1  0  0  0  0
  1  7  1  0  0  0  0
  2  3  1  0  0  0  0
  2  4  2  0  0  0  0
  4  5  1  0  0  0  0
  5  6  2  0  0  0  0
  5 11  1  0  0  0  0
  6  7  1  0  0  0  0
  6  9  1  0  0  0  0
  7  8  2  0  0  0  0
  9 10  2  0  0  0  0
 10 11  1  0  0  0  0
M  END
>  <CHROM.1>
-3.77933751,-30.06015210,27.42554866,0.58563464,-0.29325374,-2.05427770

>  <Name>
ligand

>  <RI>
0

>  <Rbt.Current_Directory>
/home/itssahil/PROJECTS/Mol_Feturizer/New_Systems/rnas/4LVW

>  <Rbt.Executable>
rbdock ($Id: //depot/dev/client3/rdock/2013.1/src/exe/rbdock.cxx#4 $)

>  <Rbt.Library>
libRbt.so (2013.1, Build901 2013/11/27)

>  <Rbt.Parameter_File>
/export/apps/rDock/src/rDock_2013.1_src/data/scripts/dock_solv.prm

>  <Rbt.Receptor>
prm/blind_docking_60.prm

>  <SCORE>
-13.3214

>  <SCORE.INTER>
-13.3214

>  <SCORE.INTER.CONST>
1

>  <SCORE.INTER.POLAR>
0

>  <SCORE.INTER.ROT>
0

>  <SCORE.INTER.SOLV>
9.55026

>  <SCORE.INTER.VDW>
-15.6644

>  <SCORE.INTER.norm>
-1.21104

>  <SCORE.INTRA>
0

>  <SCORE.INTRA.DIHEDRAL>
0

>  <SCORE.INTRA.DIHEDRAL.0>
0

>  <SCORE.INTRA.POLAR>
0

>  <SCORE.INTRA.POLAR.0>
0

>  <SCORE.INTRA.REPUL>
0

>  <SCORE.INTRA.REPUL.0>
0

>  <SCORE.INTRA.SOLV>
0

>  <SCORE.INTRA.SOLV.lig_0>
-29.307

>  <SCORE.INTRA.VDW>
0

>  <SCORE.INTRA.VDW.0>
0

>  <SCORE.INTRA.norm>
0

>  <SCORE.RESTR>
0

>  <SCORE.RESTR.CAVITY>
0

>  <SCORE.RESTR.norm>
0

>  <SCORE.SYSTEM>
0

>  <SCORE.SYSTEM.CONST>
0

>  <SCORE.SYSTEM.DIHEDRAL>
0

>  <SCORE.SYSTEM.SOLV>
0

>  <SCORE.SYSTEM.norm>
0

>  <SCORE.heavy>
11

>  <SCORE.norm>
-1.21104

>  <RMSD>
12.113

$$$$
ligand
 OpenBabel11021811503D
libRbt.so/2013.1/901 2013/11/27
 11 12  0  0  0  0  0  0  0  0999 V2000
   -2.8808  -30.5130   26.0177 N   0  0  0  0  0  0  0  0  0  0  0  0
   -2.0938  -29.7925   26.8360 C   0  0  0  0  0  0  0  0  0  0  0  0
   -0.7392  -29.5197   26.4778 N   0  0  0  0  0  0  0  0  0  0  0  0
   -2.5376  -29.3011   27.9968 N   0  0  0  0  0  0  0  0  0  0  0  0
   -3.8256  -29.5303   28.4174 C   0  0  0  0  0  0  0  0  0  0  0  0
   -4.6636  -30.2637   27.6059 C   0  0  0  0  0  0  0  0  0  0  0  0
   -4.1668  -30.7592   26.3660 C   0  0  0  0  0  0  0  0  0  0  0  0
   -4.9926  -31.4973   25.5477 O   0  0  0  0  0  0  0  0  0  0  0  0
   -5.9234  -30.3296   28.2817 C   0  0  0  0  0  0  0  0  0  0  0  0
   -5.7672  -29.6259   29.4839 C   0  0  0  0  0  0  0  0  0  0  0  0
   -4.5144  -29.1580   29.5501 N   0  0  0  0  0  0  0  0  0  0  0  0
  1  2  1  0  0  0  0
  1  7  1  0  0  0  0
  2  3  1  0  0  0  0
  2  4  2  0  0  0  0
  4  5  1  0  0  0  0
  5  6  2  0  0  0  0
  5 11  1  0  0  0  0
  6  7  1  0  0  0  0
  6  9  1  0  0  0  0
  7  8  2  0  0  0  0
  9 10  2  0  0  0  0
 10 11  1  0  0  0  0
M  END
>  <CHROM.1>
-3.79571982,-30.04476547,27.45329187,0.55117735,-0.29561842,-2.06912243

>  <Name>
ligand

>  <RI>
0

>  <Rbt.Current_Directory>
/home/itssahil/PROJECTS/Mol_Feturizer/New_Systems/rnas/4LVW

>  <Rbt.Executable>
rbdock ($Id: //depot/dev/client3/rdock/2013.1/src/exe/rbdock.cxx#4 $)

>  <Rbt.Library>
libRbt.so (2013.1, Build901 2013/11/27)

>  <Rbt.Parameter_File>
/export/apps/rDock/src/rDock_2013.1_src/data/scripts/dock_solv.prm

>  <Rbt.Receptor>
prm/blind_docking_60.prm

>  <SCORE>
-13.3032

>  <SCORE.INTER>
-13.3032

>  <SCORE.INTER.CONST>
1

>  <SCORE.INTER.POLAR>
0

>  <SCORE.INTER.ROT>
0

>  <SCORE.INTER.SOLV>
9.66657

>  <SCORE.INTER.VDW>
-15.691

>  <SCORE.INTER.norm>
-1.20938

>  <SCORE.INTRA>
0

>  <SCORE.INTRA.DIHEDRAL>
0

>  <SCORE.INTRA.DIHEDRAL.0>
0

>  <SCORE.INTRA.POLAR>
0

>  <SCORE.INTRA.POLAR.0>
0

>  <SCORE.INTRA.REPUL>
0

>  <SCORE.INTRA.REPUL.0>
0

>  <SCORE.INTRA.SOLV>
0

>  <SCORE.INTRA.SOLV.lig_0>
-29.307

>  <SCORE.INTRA.VDW>
0

>  <SCORE.INTRA.VDW.0>
0

>  <SCORE.INTRA.norm>
0

>  <SCORE.RESTR>
0

>  <SCORE.RESTR.CAVITY>
0

>  <SCORE.RESTR.norm>
0

>  <SCORE.SYSTEM>
0

>  <SCORE.SYSTEM.CONST>
0

>  <SCORE.SYSTEM.DIHEDRAL>
0

>  <SCORE.SYSTEM.SOLV>
0

>  <SCORE.SYSTEM.norm>
0

>  <SCORE.heavy>
11

>  <SCORE.norm>
-1.20938

>  <RMSD>
12.116

$$$$
ligand
 OpenBabel11021811503D
libRbt.so/2013.1/901 2013/11/27
 11 12  0  0  0  0  0  0  0  0999 V2000
    2.8033  -25.5857   15.7293 N   0  0  0  0  0  0  0  0  0  0  0  0
    3.1741  -26.0624   14.5278 C   0  0  0  0  0  0  0  0  0  0  0  0
    4.5499  -26.3189   14.2471 N   0  0  0  0  0  0  0  0  0  0  0  0
    2.2872  -26.3205   13.5620 N   0  0  0  0  0  0  0  0  0  0  0  0
    0.9459  -26.0888   13.7510 C   0  0  0  0  0  0  0  0  0  0  0  0
    0.5262  -25.6014   14.9696 C   0  0  0  0  0  0  0  0  0  0  0  0
    1.4935  -25.3528   15.9856 C   0  0  0  0  0  0  0  0  0  0  0  0
    1.0878  -24.8616   17.2064 O   0  0  0  0  0  0  0  0  0  0  0  0
   -0.8965  -25.4724   14.8840 C   0  0  0  0  0  0  0  0  0  0  0  0
   -1.2570  -25.8904   13.5954 C   0  0  0  0  0  0  0  0  0  0  0  0
   -0.1504  -26.2526   12.9342 N   0  0  0  0  0  0  0  0  0  0  0  0
  1  2  1  0  0  0  0
  1  7  1  0  0  0  0
  2  3  1  0  0  0  0
  2  4  2  0  0  0  0
  4  5  1  0  0  0  0
  5  6  2  0  0  0  0
  5 11  1  0  0  0  0
  6  7  1  0  0  0  0
  6  9  1  0  0  0  0
  7  8  2  0  0  0  0
  9 10  2  0  0  0  0
 10 11  1  0  0  0  0
M  END
>  <CHROM.1>
1.37557392,-25.79233317,14.71150915,0.17335234,-0.10719518,1.22556109

>  <Name>
ligand

>  <RI>
0

>  <Rbt.Current_Directory>
/home/itssahil/PROJECTS/Mol_Feturizer/New_Systems/rnas/4LVW

>  <Rbt.Executable>
rbdock ($Id: //depot/dev/client3/rdock/2013.1/src/exe/rbdock.cxx#4 $)

>  <Rbt.Library>
libRbt.so (2013.1, Build901 2013/11/27)

>  <Rbt.Parameter_File>
/export/apps/rDock/src/rDock_2013.1_src/data/scripts/dock_solv.prm

>  <Rbt.Receptor>
prm/blind_docking_40.prm

>  <SCORE>
-9.14258

>  <SCORE.INTER>
-9.14258

>  <SCORE.INTER.CONST>
1

>  <SCORE.INTER.POLAR>
0

>  <SCORE.INTER.ROT>
0

>  <SCORE.INTER.SOLV>
7.91785

>  <SCORE.INTER.VDW>
-12.3343

>  <SCORE.INTER.norm>
-0.831143

>  <SCORE.INTRA>
0

>  <SCORE.INTRA.DIHEDRAL>
0

>  <SCORE.INTRA.DIHEDRAL.0>
0

>  <SCORE.INTRA.POLAR>
0

>  <SCORE.INTRA.POLAR.0>
0

>  <SCORE.INTRA.REPUL>
0

>  <SCORE.INTRA.REPUL.0>
0

>  <SCORE.INTRA.SOLV>
0

>  <SCORE.INTRA.SOLV.lig_0>
-29.307

>  <SCORE.INTRA.VDW>
0

>  <SCORE.INTRA.VDW.0>
0

>  <SCORE.INTRA.norm>
0

>  <SCORE.RESTR>
0

>  <SCORE.RESTR.CAVITY>
0

>  <SCORE.RESTR.norm>
0

>  <SCORE.SYSTEM>
0

>  <SCORE.SYSTEM.CONST>
0

>  <SCORE.SYSTEM.DIHEDRAL>
0

>  <SCORE.SYSTEM.SOLV>
0

>  <SCORE.SYSTEM.norm>
0

>  <SCORE.heavy>
11

>  <SCORE.norm>
-0.831143

>  <RMSD>
12.117

$$$$
ligand
 OpenBabel11021811503D
libRbt.so/2013.1/901 2013/11/27
 11 12  0  0  0  0  0  0  0  0999 V2000
   -2.9491  -30.5743   25.9400 N   0  0  0  0  0  0  0  0  0  0  0  0
   -2.1064  -29.8884   26.7321 C   0  0  0  0  0  0  0  0  0  0  0  0
   -0.7581  -29.6592   26.3233 N   0  0  0  0  0  0  0  0  0  0  0  0
   -2.4875  -29.3923   27.9130 N   0  0  0  0  0  0  0  0  0  0  0  0
   -3.7654  -29.5807   28.3819 C   0  0  0  0  0  0  0  0  0  0  0  0
   -4.6592  -30.2778   27.5984 C   0  0  0  0  0  0  0  0  0  0  0  0
   -4.2284  -30.7793   26.3364 C   0  0  0  0  0  0  0  0  0  0  0  0
   -5.1104  -31.4813   25.5456 O   0  0  0  0  0  0  0  0  0  0  0  0
   -5.8934  -30.3063   28.3224 C   0  0  0  0  0  0  0  0  0  0  0  0
   -5.6663  -29.6188   29.5228 C   0  0  0  0  0  0  0  0  0  0  0  0
   -4.3964  -29.1948   29.5433 N   0  0  0  0  0  0  0  0  0  0  0  0
  1  2  1  0  0  0  0
  1  7  1  0  0  0  0
  2  3  1  0  0  0  0
  2  4  2  0  0  0  0
  4  5  1  0  0  0  0
  5  6  2  0  0  0  0
  5 11  1  0  0  0  0
  6  7  1  0  0  0  0
  6  9  1  0  0  0  0
  7  8  2  0  0  0  0
  9 10  2  0  0  0  0
 10 11  1  0  0  0  0
M  END
>  <CHROM.1>
-3.79082245,-30.08747206,27.41360450,0.60396367,-0.28332989,-2.04599971

>  <Name>
ligand

>  <RI>
0

>  <Rbt.Current_Directory>
/home/itssahil/PROJECTS/Mol_Feturizer/New_Systems/rnas/4LVW

>  <Rbt.Executable>
rbdock ($Id: //depot/dev/client3/rdock/2013.1/src/exe/rbdock.cxx#4 $)

>  <Rbt.Library>
libRbt.so (2013.1, Build901 2013/11/27)

>  <Rbt.Parameter_File>
/export/apps/rDock/src/rDock_2013.1_src/data/scripts/dock_solv.prm

>  <Rbt.Receptor>
prm/blind_docking_100.prm

>  <SCORE>
-13.3355

>  <SCORE.INTER>
-13.3355

>  <SCORE.INTER.CONST>
1

>  <SCORE.INTER.POLAR>
0

>  <SCORE.INTER.ROT>
0

>  <SCORE.INTER.SOLV>
9.40982

>  <SCORE.INTER.VDW>
-15.6269

>  <SCORE.INTER.norm>
-1.21232

>  <SCORE.INTRA>
0

>  <SCORE.INTRA.DIHEDRAL>
0

>  <SCORE.INTRA.DIHEDRAL.0>
0

>  <SCORE.INTRA.POLAR>
0

>  <SCORE.INTRA.POLAR.0>
0

>  <SCORE.INTRA.REPUL>
0

>  <SCORE.INTRA.REPUL.0>
0

>  <SCORE.INTRA.SOLV>
0

>  <SCORE.INTRA.SOLV.lig_0>
-29.307

>  <SCORE.INTRA.VDW>
0

>  <SCORE.INTRA.VDW.0>
0

>  <SCORE.INTRA.norm>
0

>  <SCORE.RESTR>
0

>  <SCORE.RESTR.CAVITY>
0

>  <SCORE.RESTR.norm>
0

>  <SCORE.SYSTEM>
0

>  <SCORE.SYSTEM.CONST>
0

>  <SCORE.SYSTEM.DIHEDRAL>
0

>  <SCORE.SYSTEM.SOLV>
0

>  <SCORE.SYSTEM.norm>
0

>  <SCORE.heavy>
11

>  <SCORE.norm>
-1.21232

>  <RMSD>
12.136

$$$$
ligand
 OpenBabel11021811503D
libRbt.so/2013.1/901 2013/11/27
 11 12  0  0  0  0  0  0  0  0999 V2000
   -3.1010  -30.6566   25.9111 N   0  0  0  0  0  0  0  0  0  0  0  0
   -2.2477  -29.9601   26.6826 C   0  0  0  0  0  0  0  0  0  0  0  0
   -0.8955  -29.7661   26.2686 N   0  0  0  0  0  0  0  0  0  0  0  0
   -2.6216  -29.4210   27.8468 N   0  0  0  0  0  0  0  0  0  0  0  0
   -3.9029  -29.5736   28.3196 C   0  0  0  0  0  0  0  0  0  0  0  0
   -4.8074  -30.2801   27.5571 C   0  0  0  0  0  0  0  0  0  0  0  0
   -4.3838  -30.8279   26.3120 C   0  0  0  0  0  0  0  0  0  0  0  0
   -5.2766  -31.5398   25.5424 O   0  0  0  0  0  0  0  0  0  0  0  0
   -6.0425  -30.2655   28.2800 C   0  0  0  0  0  0  0  0  0  0  0  0
   -5.8051  -29.5446   29.4585 C   0  0  0  0  0  0  0  0  0  0  0  0
   -4.5284  -29.1411   29.4675 N   0  0  0  0  0  0  0  0  0  0  0  0
  1  2  1  0  0  0  0
  1  7  1  0  0  0  0
  2  3  1  0  0  0  0
  2  4  2  0  0  0  0
  4  5  1  0  0  0  0
  5  6  2  0  0  0  0
  5 11  1  0  0  0  0
  6  7  1  0  0  0  0
  6  9  1  0  0  0  0
  7  8  2  0  0  0  0
  9 10  2  0  0  0  0
 10 11  1  0  0  0  0
M  END
>  <CHROM.1>
-3.93579808,-30.10994545,27.36762965,0.61099983,-0.26827553,-2.07546173

>  <Name>
ligand

>  <RI>
0

>  <Rbt.Current_Directory>
/home/itssahil/PROJECTS/Mol_Feturizer/New_Systems/rnas/4LVW

>  <Rbt.Executable>
rbdock ($Id: //depot/dev/client3/rdock/2013.1/src/exe/rbdock.cxx#4 $)

>  <Rbt.Library>
libRbt.so (2013.1, Build901 2013/11/27)

>  <Rbt.Parameter_File>
/export/apps/rDock/src/rDock_2013.1_src/data/scripts/dock_solv.prm

>  <Rbt.Receptor>
prm/blind_docking_80.prm

>  <SCORE>
-13.2573

>  <SCORE.INTER>
-13.2573

>  <SCORE.INTER.CONST>
1

>  <SCORE.INTER.POLAR>
0

>  <SCORE.INTER.ROT>
0

>  <SCORE.INTER.SOLV>
9.29272

>  <SCORE.INTER.VDW>
-15.5358

>  <SCORE.INTER.norm>
-1.20521

>  <SCORE.INTRA>
0

>  <SCORE.INTRA.DIHEDRAL>
0

>  <SCORE.INTRA.DIHEDRAL.0>
0

>  <SCORE.INTRA.POLAR>
0

>  <SCORE.INTRA.POLAR.0>
0

>  <SCORE.INTRA.REPUL>
0

>  <SCORE.INTRA.REPUL.0>
0

>  <SCORE.INTRA.SOLV>
0

>  <SCORE.INTRA.SOLV.lig_0>
-29.307

>  <SCORE.INTRA.VDW>
0

>  <SCORE.INTRA.VDW.0>
0

>  <SCORE.INTRA.norm>
0

>  <SCORE.RESTR>
0

>  <SCORE.RESTR.CAVITY>
0

>  <SCORE.RESTR.norm>
0

>  <SCORE.SYSTEM>
0

>  <SCORE.SYSTEM.CONST>
0

>  <SCORE.SYSTEM.DIHEDRAL>
0

>  <SCORE.SYSTEM.SOLV>
0

>  <SCORE.SYSTEM.norm>
0

>  <SCORE.heavy>
11

>  <SCORE.norm>
-1.20521

>  <RMSD>
12.212

$$$$
ligand
 OpenBabel11021811503D
libRbt.so/2013.1/901 2013/11/27
 11 12  0  0  0  0  0  0  0  0999 V2000
   -7.1484  -27.5533   30.3225 N   0  0  0  0  0  0  0  0  0  0  0  0
   -6.0140  -27.0651   30.8546 C   0  0  0  0  0  0  0  0  0  0  0  0
   -6.0600  -25.9746   31.7744 N   0  0  0  0  0  0  0  0  0  0  0  0
   -4.8145  -27.5742   30.5583 N   0  0  0  0  0  0  0  0  0  0  0  0
   -4.6861  -28.6170   29.6725 C   0  0  0  0  0  0  0  0  0  0  0  0
   -5.8260  -29.1456   29.1067 C   0  0  0  0  0  0  0  0  0  0  0  0
   -7.0919  -28.5931   29.4558 C   0  0  0  0  0  0  0  0  0  0  0  0
   -8.2383  -29.1093   28.8942 O   0  0  0  0  0  0  0  0  0  0  0  0
   -5.3955  -30.2086   28.2505 C   0  0  0  0  0  0  0  0  0  0  0  0
   -3.9977  -30.2556   28.3468 C   0  0  0  0  0  0  0  0  0  0  0  0
   -3.5916  -29.3025   29.1950 N   0  0  0  0  0  0  0  0  0  0  0  0
  1  2  1  0  0  0  0
  1  7  1  0  0  0  0
  2  3  1  0  0  0  0
  2  4  2  0  0  0  0
  4  5  1  0  0  0  0
  5  6  2  0  0  0  0
  5 11  1  0  0  0  0
  6  7  1  0  0  0  0
  6  9  1  0  0  0  0
  7  8  2  0  0  0  0
  9 10  2  0  0  0  0
 10 11  1  0  0  0  0
M  END
>  <CHROM.1>
-5.76751273,-28.45863678,29.69754688,2.02495079,-0.07688398,0.70433054

>  <Name>
ligand

>  <RI>
0

>  <Rbt.Current_Directory>
/home/itssahil/PROJECTS/Mol_Feturizer/New_Systems/rnas/4LVW

>  <Rbt.Executable>
rbdock ($Id: //depot/dev/client3/rdock/2013.1/src/exe/rbdock.cxx#4 $)

>  <Rbt.Library>
libRbt.so (2013.1, Build901 2013/11/27)

>  <Rbt.Parameter_File>
/export/apps/rDock/src/rDock_2013.1_src/data/scripts/dock_solv.prm

>  <Rbt.Receptor>
prm/blind_docking_80.prm

>  <SCORE>
-11.5096

>  <SCORE.INTER>
-11.5096

>  <SCORE.INTER.CONST>
1

>  <SCORE.INTER.POLAR>
0

>  <SCORE.INTER.ROT>
0

>  <SCORE.INTER.SOLV>
4.72248

>  <SCORE.INTER.VDW>
-12.8472

>  <SCORE.INTER.norm>
-1.04632

>  <SCORE.INTRA>
0

>  <SCORE.INTRA.DIHEDRAL>
0

>  <SCORE.INTRA.DIHEDRAL.0>
0

>  <SCORE.INTRA.POLAR>
0

>  <SCORE.INTRA.POLAR.0>
0

>  <SCORE.INTRA.REPUL>
0

>  <SCORE.INTRA.REPUL.0>
0

>  <SCORE.INTRA.SOLV>
0

>  <SCORE.INTRA.SOLV.lig_0>
-29.307

>  <SCORE.INTRA.VDW>
0

>  <SCORE.INTRA.VDW.0>
0

>  <SCORE.INTRA.norm>
0

>  <SCORE.RESTR>
0

>  <SCORE.RESTR.CAVITY>
0

>  <SCORE.RESTR.norm>
0

>  <SCORE.SYSTEM>
0

>  <SCORE.SYSTEM.CONST>
0

>  <SCORE.SYSTEM.DIHEDRAL>
0

>  <SCORE.SYSTEM.SOLV>
0

>  <SCORE.SYSTEM.norm>
0

>  <SCORE.heavy>
11

>  <SCORE.norm>
-1.04632

>  <RMSD>
12.281

$$$$
ligand
 OpenBabel11021811503D
libRbt.so/2013.1/901 2013/11/27
 11 12  0  0  0  0  0  0  0  0999 V2000
   -7.1944  -27.5746   30.3330 N   0  0  0  0  0  0  0  0  0  0  0  0
   -6.0455  -27.1027   30.8484 C   0  0  0  0  0  0  0  0  0  0  0  0
   -6.0655  -26.0394   31.8004 N   0  0  0  0  0  0  0  0  0  0  0  0
   -4.8550  -27.6035   30.5053 N   0  0  0  0  0  0  0  0  0  0  0  0
   -4.7518  -28.6201   29.5864 C   0  0  0  0  0  0  0  0  0  0  0  0
   -5.9070  -29.1315   29.0363 C   0  0  0  0  0  0  0  0  0  0  0  0
   -7.1624  -28.5888   29.4353 C   0  0  0  0  0  0  0  0  0  0  0  0
   -8.3242  -29.0880   28.8899 O   0  0  0  0  0  0  0  0  0  0  0  0
   -5.5010  -30.1693   28.1383 C   0  0  0  0  0  0  0  0  0  0  0  0
   -4.1012  -30.2197   28.1956 C   0  0  0  0  0  0  0  0  0  0  0  0
   -3.6713  -29.2919   29.0600 N   0  0  0  0  0  0  0  0  0  0  0  0
  1  2  1  0  0  0  0
  1  7  1  0  0  0  0
  2  3  1  0  0  0  0
  2  4  2  0  0  0  0
  4  5  1  0  0  0  0
  5  6  2  0  0  0  0
  5 11  1  0  0  0  0
  6  7  1  0  0  0  0
  6  9  1  0  0  0  0
  7  8  2  0  0  0  0
  9 10  2  0  0  0  0
 10 11  1  0  0  0  0
M  END
>  <CHROM.1>
-5.83190652,-28.46204954,29.64511046,2.00660563,-0.05720616,0.73219371

>  <Name>
ligand

>  <RI>
0

>  <Rbt.Current_Directory>
/home/itssahil/PROJECTS/Mol_Feturizer/New_Systems/rnas/4LVW

>  <Rbt.Executable>
rbdock ($Id: //depot/dev/client3/rdock/2013.1/src/exe/rbdock.cxx#4 $)

>  <Rbt.Library>
libRbt.so (2013.1, Build901 2013/11/27)

>  <Rbt.Parameter_File>
/export/apps/rDock/src/rDock_2013.1_src/data/scripts/dock_solv.prm

>  <Rbt.Receptor>
prm/blind_docking_80.prm

>  <SCORE>
-11.4177

>  <SCORE.INTER>
-11.4177

>  <SCORE.INTER.CONST>
1

>  <SCORE.INTER.POLAR>
0

>  <SCORE.INTER.ROT>
0

>  <SCORE.INTER.SOLV>
4.61791

>  <SCORE.INTER.VDW>
-12.7511

>  <SCORE.INTER.norm>
-1.03797

>  <SCORE.INTRA>
0

>  <SCORE.INTRA.DIHEDRAL>
0

>  <SCORE.INTRA.DIHEDRAL.0>
0

>  <SCORE.INTRA.POLAR>
0

>  <SCORE.INTRA.POLAR.0>
0

>  <SCORE.INTRA.REPUL>
0

>  <SCORE.INTRA.REPUL.0>
0

>  <SCORE.INTRA.SOLV>
0

>  <SCORE.INTRA.SOLV.lig_0>
-29.307

>  <SCORE.INTRA.VDW>
0

>  <SCORE.INTRA.VDW.0>
0

>  <SCORE.INTRA.norm>
0

>  <SCORE.RESTR>
0

>  <SCORE.RESTR.CAVITY>
0

>  <SCORE.RESTR.norm>
0

>  <SCORE.SYSTEM>
0

>  <SCORE.SYSTEM.CONST>
0

>  <SCORE.SYSTEM.DIHEDRAL>
0

>  <SCORE.SYSTEM.SOLV>
0

>  <SCORE.SYSTEM.norm>
0

>  <SCORE.heavy>
11

>  <SCORE.norm>
-1.03797

>  <RMSD>
12.301

$$$$
ligand
 OpenBabel11021811503D
libRbt.so/2013.1/901 2013/11/27
 11 12  0  0  0  0  0  0  0  0999 V2000
   -5.3442  -24.6925   32.4178 N   0  0  0  0  0  0  0  0  0  0  0  0
   -5.6018  -25.2705   33.6043 C   0  0  0  0  0  0  0  0  0  0  0  0
   -5.6525  -24.4834   34.7940 N   0  0  0  0  0  0  0  0  0  0  0  0
   -5.8257  -26.5828   33.7209 N   0  0  0  0  0  0  0  0  0  0  0  0
   -5.7826  -27.4095   32.6240 C   0  0  0  0  0  0  0  0  0  0  0  0
   -5.5226  -26.8544   31.3899 C   0  0  0  0  0  0  0  0  0  0  0  0
   -5.3055  -25.4496   31.2950 C   0  0  0  0  0  0  0  0  0  0  0  0
   -5.0404  -24.8830   30.0682 O   0  0  0  0  0  0  0  0  0  0  0  0
   -5.5517  -27.9323   30.4488 C   0  0  0  0  0  0  0  0  0  0  0  0
   -5.8259  -29.0944   31.1833 C   0  0  0  0  0  0  0  0  0  0  0  0
   -5.9592  -28.7668   32.4747 N   0  0  0  0  0  0  0  0  0  0  0  0
  1  2  1  0  0  0  0
  1  7  1  0  0  0  0
  2  3  1  0  0  0  0
  2  4  2  0  0  0  0
  4  5  1  0  0  0  0
  5  6  2  0  0  0  0
  5 11  1  0  0  0  0
  6  7  1  0  0  0  0
  6  9  1  0  0  0  0
  7  8  2  0  0  0  0
  9 10  2  0  0  0  0
 10 11  1  0  0  0  0
M  END
>  <CHROM.1>
-5.57414334,-26.42806518,32.18987187,-1.33152712,-1.36725471,-2.33435086

>  <Name>
ligand

>  <RI>
0

>  <Rbt.Current_Directory>
/home/itssahil/PROJECTS/Mol_Feturizer/New_Systems/rnas/4LVW

>  <Rbt.Executable>
rbdock ($Id: //depot/dev/client3/rdock/2013.1/src/exe/rbdock.cxx#4 $)

>  <Rbt.Library>
libRbt.so (2013.1, Build901 2013/11/27)

>  <Rbt.Parameter_File>
/export/apps/rDock/src/rDock_2013.1_src/data/scripts/dock_solv.prm

>  <Rbt.Receptor>
prm/blind_docking_100.prm

>  <SCORE>
-9.44731

>  <SCORE.INTER>
-9.44731

>  <SCORE.INTER.CONST>
1

>  <SCORE.INTER.POLAR>
0

>  <SCORE.INTER.ROT>
0

>  <SCORE.INTER.SOLV>
3.64285

>  <SCORE.INTER.VDW>
-11.1125

>  <SCORE.INTER.norm>
-0.858847

>  <SCORE.INTRA>
0

>  <SCORE.INTRA.DIHEDRAL>
0

>  <SCORE.INTRA.DIHEDRAL.0>
0

>  <SCORE.INTRA.POLAR>
0

>  <SCORE.INTRA.POLAR.0>
0

>  <SCORE.INTRA.REPUL>
0

>  <SCORE.INTRA.REPUL.0>
0

>  <SCORE.INTRA.SOLV>
0

>  <SCORE.INTRA.SOLV.lig_0>
-29.307

>  <SCORE.INTRA.VDW>
0

>  <SCORE.INTRA.VDW.0>
0

>  <SCORE.INTRA.norm>
0

>  <SCORE.RESTR>
0

>  <SCORE.RESTR.CAVITY>
0

>  <SCORE.RESTR.norm>
0

>  <SCORE.SYSTEM>
0

>  <SCORE.SYSTEM.CONST>
0

>  <SCORE.SYSTEM.DIHEDRAL>
0

>  <SCORE.SYSTEM.SOLV>
0

>  <SCORE.SYSTEM.norm>
0

>  <SCORE.heavy>
11

>  <SCORE.norm>
-0.858847

>  <RMSD>
12.304

$$$$
ligand
 OpenBabel11021811503D
libRbt.so/2013.1/901 2013/11/27
 11 12  0  0  0  0  0  0  0  0999 V2000
    3.9392  -28.5754   15.2992 N   0  0  0  0  0  0  0  0  0  0  0  0
    4.6371  -27.4273   15.3527 C   0  0  0  0  0  0  0  0  0  0  0  0
    6.0614  -27.4444   15.2607 N   0  0  0  0  0  0  0  0  0  0  0  0
    4.0400  -26.2390   15.4840 N   0  0  0  0  0  0  0  0  0  0  0  0
    2.6735  -26.1403   15.5907 C   0  0  0  0  0  0  0  0  0  0  0  0
    1.9230  -27.2948   15.5391 C   0  0  0  0  0  0  0  0  0  0  0  0
    2.5871  -28.5452   15.3807 C   0  0  0  0  0  0  0  0  0  0  0  0
    1.8492  -29.7068   15.3320 O   0  0  0  0  0  0  0  0  0  0  0  0
    0.5550  -26.8922   15.6602 C   0  0  0  0  0  0  0  0  0  0  0  0
    0.5608  -25.4961   15.7861 C   0  0  0  0  0  0  0  0  0  0  0  0
    1.8277  -25.0646   15.7441 N   0  0  0  0  0  0  0  0  0  0  0  0
  1  2  1  0  0  0  0
  1  7  1  0  0  0  0
  2  3  1  0  0  0  0
  2  4  2  0  0  0  0
  4  5  1  0  0  0  0
  5  6  2  0  0  0  0
  5 11  1  0  0  0  0
  6  7  1  0  0  0  0
  6  9  1  0  0  0  0
  7  8  2  0  0  0  0
  9 10  2  0  0  0  0
 10 11  1  0  0  0  0
M  END
>  <CHROM.1>
2.82616611,-27.21779348,15.48651906,0.43928211,-0.06433114,-3.05414914

>  <Name>
ligand

>  <RI>
0

>  <Rbt.Current_Directory>
/home/itssahil/PROJECTS/Mol_Feturizer/New_Systems/rnas/4LVW

>  <Rbt.Executable>
rbdock ($Id: //depot/dev/client3/rdock/2013.1/src/exe/rbdock.cxx#4 $)

>  <Rbt.Library>
libRbt.so (2013.1, Build901 2013/11/27)

>  <Rbt.Parameter_File>
/export/apps/rDock/src/rDock_2013.1_src/data/scripts/dock_solv.prm

>  <Rbt.Receptor>
prm/blind_docking_60.prm

>  <SCORE>
-9.53848

>  <SCORE.INTER>
-9.53848

>  <SCORE.INTER.CONST>
1

>  <SCORE.INTER.POLAR>
0

>  <SCORE.INTER.ROT>
0

>  <SCORE.INTER.SOLV>
4.45478

>  <SCORE.INTER.VDW>
-11.4439

>  <SCORE.INTER.norm>
-0.867135

>  <SCORE.INTRA>
0

>  <SCORE.INTRA.DIHEDRAL>
0

>  <SCORE.INTRA.DIHEDRAL.0>
0

>  <SCORE.INTRA.POLAR>
0

>  <SCORE.INTRA.POLAR.0>
0

>  <SCORE.INTRA.REPUL>
0

>  <SCORE.INTRA.REPUL.0>
0

>  <SCORE.INTRA.SOLV>
0

>  <SCORE.INTRA.SOLV.lig_0>
-29.307

>  <SCORE.INTRA.VDW>
0

>  <SCORE.INTRA.VDW.0>
0

>  <SCORE.INTRA.norm>
0

>  <SCORE.RESTR>
0

>  <SCORE.RESTR.CAVITY>
0

>  <SCORE.RESTR.norm>
0

>  <SCORE.SYSTEM>
0

>  <SCORE.SYSTEM.CONST>
0

>  <SCORE.SYSTEM.DIHEDRAL>
0

>  <SCORE.SYSTEM.SOLV>
0

>  <SCORE.SYSTEM.norm>
0

>  <SCORE.heavy>
11

>  <SCORE.norm>
-0.867135

>  <RMSD>
12.311

$$$$
ligand
 OpenBabel11021811503D
libRbt.so/2013.1/901 2013/11/27
 11 12  0  0  0  0  0  0  0  0999 V2000
    3.9349  -28.6071   15.2537 N   0  0  0  0  0  0  0  0  0  0  0  0
    4.6502  -27.4716   15.3381 C   0  0  0  0  0  0  0  0  0  0  0  0
    6.0740  -27.5076   15.2436 N   0  0  0  0  0  0  0  0  0  0  0  0
    4.0712  -26.2785   15.5033 N   0  0  0  0  0  0  0  0  0  0  0  0
    2.7064  -26.1623   15.6148 C   0  0  0  0  0  0  0  0  0  0  0  0
    1.9385  -27.3034   15.5321 C   0  0  0  0  0  0  0  0  0  0  0  0
    2.5835  -28.5588   15.3381 C   0  0  0  0  0  0  0  0  0  0  0  0
    1.8280  -29.7073   15.2582 O   0  0  0  0  0  0  0  0  0  0  0  0
    0.5769  -26.8838   15.6664 C   0  0  0  0  0  0  0  0  0  0  0  0
    0.6040  -25.4919   15.8311 C   0  0  0  0  0  0  0  0  0  0  0  0
    1.8772  -25.0786   15.7992 N   0  0  0  0  0  0  0  0  0  0  0  0
  1  2  1  0  0  0  0
  1  7  1  0  0  0  0
  2  3  1  0  0  0  0
  2  4  2  0  0  0  0
  4  5  1  0  0  0  0
  5  6  2  0  0  0  0
  5 11  1  0  0  0  0
  6  7  1  0  0  0  0
  6  9  1  0  0  0  0
  7  8  2  0  0  0  0
  9 10  2  0  0  0  0
 10 11  1  0  0  0  0
M  END
>  <CHROM.1>
2.84272277,-27.23859271,15.48042267,0.45446849,-0.06406649,-3.02534465

>  <Name>
ligand

>  <RI>
0

>  <Rbt.Current_Directory>
/home/itssahil/PROJECTS/Mol_Feturizer/New_Systems/rnas/4LVW

>  <Rbt.Executable>
rbdock ($Id: //depot/dev/client3/rdock/2013.1/src/exe/rbdock.cxx#4 $)

>  <Rbt.Library>
libRbt.so (2013.1, Build901 2013/11/27)

>  <Rbt.Parameter_File>
/export/apps/rDock/src/rDock_2013.1_src/data/scripts/dock_solv.prm

>  <Rbt.Receptor>
prm/blind_docking_40.prm

>  <SCORE>
-9.61966

>  <SCORE.INTER>
-9.61966

>  <SCORE.INTER.CONST>
1

>  <SCORE.INTER.POLAR>
0

>  <SCORE.INTER.ROT>
0

>  <SCORE.INTER.SOLV>
4.45909

>  <SCORE.INTER.VDW>
-11.4995

>  <SCORE.INTER.norm>
-0.874514

>  <SCORE.INTRA>
0

>  <SCORE.INTRA.DIHEDRAL>
0

>  <SCORE.INTRA.DIHEDRAL.0>
0

>  <SCORE.INTRA.POLAR>
0

>  <SCORE.INTRA.POLAR.0>
0

>  <SCORE.INTRA.REPUL>
0

>  <SCORE.INTRA.REPUL.0>
0

>  <SCORE.INTRA.SOLV>
0

>  <SCORE.INTRA.SOLV.lig_0>
-29.307

>  <SCORE.INTRA.VDW>
0

>  <SCORE.INTRA.VDW.0>
0

>  <SCORE.INTRA.norm>
0

>  <SCORE.RESTR>
0

>  <SCORE.RESTR.CAVITY>
0

>  <SCORE.RESTR.norm>
0

>  <SCORE.SYSTEM>
0

>  <SCORE.SYSTEM.CONST>
0

>  <SCORE.SYSTEM.DIHEDRAL>
0

>  <SCORE.SYSTEM.SOLV>
0

>  <SCORE.SYSTEM.norm>
0

>  <SCORE.heavy>
11

>  <SCORE.norm>
-0.874514

>  <RMSD>
12.329

$$$$
ligand
 OpenBabel11021811503D
libRbt.so/2013.1/901 2013/11/27
 11 12  0  0  0  0  0  0  0  0999 V2000
    3.9364  -28.6044   15.2491 N   0  0  0  0  0  0  0  0  0  0  0  0
    4.6502  -27.4674   15.3260 C   0  0  0  0  0  0  0  0  0  0  0  0
    6.0735  -27.5012   15.2239 N   0  0  0  0  0  0  0  0  0  0  0  0
    4.0700  -26.2748   15.4903 N   0  0  0  0  0  0  0  0  0  0  0  0
    2.7057  -26.1605   15.6087 C   0  0  0  0  0  0  0  0  0  0  0  0
    1.9393  -27.3032   15.5339 C   0  0  0  0  0  0  0  0  0  0  0  0
    2.5855  -28.5581   15.3405 C   0  0  0  0  0  0  0  0  0  0  0  0
    1.8315  -29.7082   15.2684 O   0  0  0  0  0  0  0  0  0  0  0  0
    0.5777  -26.8855   15.6742 C   0  0  0  0  0  0  0  0  0  0  0  0
    0.6033  -25.4931   15.8341 C   0  0  0  0  0  0  0  0  0  0  0  0
    1.8756  -25.0777   15.7941 N   0  0  0  0  0  0  0  0  0  0  0  0
  1  2  1  0  0  0  0
  1  7  1  0  0  0  0
  2  3  1  0  0  0  0
  2  4  2  0  0  0  0
  4  5  1  0  0  0  0
  5  6  2  0  0  0  0
  5 11  1  0  0  0  0
  6  7  1  0  0  0  0
  6  9  1  0  0  0  0
  7  8  2  0  0  0  0
  9 10  2  0  0  0  0
 10 11  1  0  0  0  0
M  END
>  <CHROM.1>
2.84312609,-27.23701563,15.47717541,0.45336328,-0.06957307,-3.02868629

>  <Name>
ligand

>  <RI>
0

>  <Rbt.Current_Directory>
/home/itssahil/PROJECTS/Mol_Feturizer/New_Systems/rnas/4LVW

>  <Rbt.Executable>
rbdock ($Id: //depot/dev/client3/rdock/2013.1/src/exe/rbdock.cxx#4 $)

>  <Rbt.Library>
libRbt.so (2013.1, Build901 2013/11/27)

>  <Rbt.Parameter_File>
/export/apps/rDock/src/rDock_2013.1_src/data/scripts/dock_solv.prm

>  <Rbt.Receptor>
prm/blind_docking_40.prm

>  <SCORE>
-9.61781

>  <SCORE.INTER>
-9.61781

>  <SCORE.INTER.CONST>
1

>  <SCORE.INTER.POLAR>
0

>  <SCORE.INTER.ROT>
0

>  <SCORE.INTER.SOLV>
4.40096

>  <SCORE.INTER.VDW>
-11.4789

>  <SCORE.INTER.norm>
-0.874347

>  <SCORE.INTRA>
0

>  <SCORE.INTRA.DIHEDRAL>
0

>  <SCORE.INTRA.DIHEDRAL.0>
0

>  <SCORE.INTRA.POLAR>
0

>  <SCORE.INTRA.POLAR.0>
0

>  <SCORE.INTRA.REPUL>
0

>  <SCORE.INTRA.REPUL.0>
0

>  <SCORE.INTRA.SOLV>
0

>  <SCORE.INTRA.SOLV.lig_0>
-29.307

>  <SCORE.INTRA.VDW>
0

>  <SCORE.INTRA.VDW.0>
0

>  <SCORE.INTRA.norm>
0

>  <SCORE.RESTR>
0

>  <SCORE.RESTR.CAVITY>
0

>  <SCORE.RESTR.norm>
0

>  <SCORE.SYSTEM>
0

>  <SCORE.SYSTEM.CONST>
0

>  <SCORE.SYSTEM.DIHEDRAL>
0

>  <SCORE.SYSTEM.SOLV>
0

>  <SCORE.SYSTEM.norm>
0

>  <SCORE.heavy>
11

>  <SCORE.norm>
-0.874347

>  <RMSD>
12.331

$$$$
ligand
 OpenBabel11021811503D
libRbt.so/2013.1/901 2013/11/27
 11 12  0  0  0  0  0  0  0  0999 V2000
    3.9311  -28.6107   15.2468 N   0  0  0  0  0  0  0  0  0  0  0  0
    4.6492  -27.4768   15.3296 C   0  0  0  0  0  0  0  0  0  0  0  0
    6.0727  -27.5160   15.2311 N   0  0  0  0  0  0  0  0  0  0  0  0
    4.0734  -26.2826   15.4969 N   0  0  0  0  0  0  0  0  0  0  0  0
    2.7092  -26.1632   15.6122 C   0  0  0  0  0  0  0  0  0  0  0  0
    1.9385  -27.3027   15.5312 C   0  0  0  0  0  0  0  0  0  0  0  0
    2.5801  -28.5594   15.3349 C   0  0  0  0  0  0  0  0  0  0  0  0
    1.8218  -29.7062   15.2566 O   0  0  0  0  0  0  0  0  0  0  0  0
    0.5782  -26.8800   15.6695 C   0  0  0  0  0  0  0  0  0  0  0  0
    0.6089  -25.4883   15.8346 C   0  0  0  0  0  0  0  0  0  0  0  0
    1.8829  -25.0778   15.7994 N   0  0  0  0  0  0  0  0  0  0  0  0
  1  2  1  0  0  0  0
  1  7  1  0  0  0  0
  2  3  1  0  0  0  0
  2  4  2  0  0  0  0
  4  5  1  0  0  0  0
  5  6  2  0  0  0  0
  5 11  1  0  0  0  0
  6  7  1  0  0  0  0
  6  9  1  0  0  0  0
  7  8  2  0  0  0  0
  9 10  2  0  0  0  0
 10 11  1  0  0  0  0
M  END
>  <CHROM.1>
2.84269348,-27.23982420,15.47703624,0.45703165,-0.06655924,-3.02477649

>  <Name>
ligand

>  <RI>
0

>  <Rbt.Current_Directory>
/home/itssahil/PROJECTS/Mol_Feturizer/New_Systems/rnas/4LVW

>  <Rbt.Executable>
rbdock ($Id: //depot/dev/client3/rdock/2013.1/src/exe/rbdock.cxx#4 $)

>  <Rbt.Library>
libRbt.so (2013.1, Build901 2013/11/27)

>  <Rbt.Parameter_File>
/export/apps/rDock/src/rDock_2013.1_src/data/scripts/dock_solv.prm

>  <Rbt.Receptor>
prm/blind_docking_40.prm

>  <SCORE>
-9.61922

>  <SCORE.INTER>
-9.61922

>  <SCORE.INTER.CONST>
1

>  <SCORE.INTER.POLAR>
0

>  <SCORE.INTER.ROT>
0

>  <SCORE.INTER.SOLV>
4.42913

>  <SCORE.INTER.VDW>
-11.4892

>  <SCORE.INTER.norm>
-0.874475

>  <SCORE.INTRA>
0

>  <SCORE.INTRA.DIHEDRAL>
0

>  <SCORE.INTRA.DIHEDRAL.0>
0

>  <SCORE.INTRA.POLAR>
0

>  <SCORE.INTRA.POLAR.0>
0

>  <SCORE.INTRA.REPUL>
0

>  <SCORE.INTRA.REPUL.0>
0

>  <SCORE.INTRA.SOLV>
0

>  <SCORE.INTRA.SOLV.lig_0>
-29.307

>  <SCORE.INTRA.VDW>
0

>  <SCORE.INTRA.VDW.0>
0

>  <SCORE.INTRA.norm>
0

>  <SCORE.RESTR>
0

>  <SCORE.RESTR.CAVITY>
0

>  <SCORE.RESTR.norm>
0

>  <SCORE.SYSTEM>
0

>  <SCORE.SYSTEM.CONST>
0

>  <SCORE.SYSTEM.DIHEDRAL>
0

>  <SCORE.SYSTEM.SOLV>
0

>  <SCORE.SYSTEM.norm>
0

>  <SCORE.heavy>
11

>  <SCORE.norm>
-0.874475

>  <RMSD>
12.332

$$$$
ligand
 OpenBabel11021811503D
libRbt.so/2013.1/901 2013/11/27
 11 12  0  0  0  0  0  0  0  0999 V2000
    3.9366  -28.6047   15.2403 N   0  0  0  0  0  0  0  0  0  0  0  0
    4.6520  -27.4682   15.3105 C   0  0  0  0  0  0  0  0  0  0  0  0
    6.0746  -27.5037   15.1992 N   0  0  0  0  0  0  0  0  0  0  0  0
    4.0742  -26.2748   15.4767 N   0  0  0  0  0  0  0  0  0  0  0  0
    2.7108  -26.1589   15.6039 C   0  0  0  0  0  0  0  0  0  0  0  0
    1.9428  -27.3010   15.5361 C   0  0  0  0  0  0  0  0  0  0  0  0
    2.5863  -28.5569   15.3405 C   0  0  0  0  0  0  0  0  0  0  0  0
    1.8308  -29.7063   15.2753 O   0  0  0  0  0  0  0  0  0  0  0  0
    0.5825  -26.8816   15.6846 C   0  0  0  0  0  0  0  0  0  0  0  0
    0.6106  -25.4889   15.8421 C   0  0  0  0  0  0  0  0  0  0  0  0
    1.8830  -25.0749   15.7930 N   0  0  0  0  0  0  0  0  0  0  0  0
  1  2  1  0  0  0  0
  1  7  1  0  0  0  0
  2  3  1  0  0  0  0
  2  4  2  0  0  0  0
  4  5  1  0  0  0  0
  5  6  2  0  0  0  0
  5 11  1  0  0  0  0
  6  7  1  0  0  0  0
  6  9  1  0  0  0  0
  7  8  2  0  0  0  0
  9 10  2  0  0  0  0
 10 11  1  0  0  0  0
M  END
>  <CHROM.1>
2.84624995,-27.23578286,15.47325960,0.45513129,-0.07600430,-3.03021790

>  <Name>
ligand

>  <RI>
0

>  <Rbt.Current_Directory>
/home/itssahil/PROJECTS/Mol_Feturizer/New_Systems/rnas/4LVW

>  <Rbt.Executable>
rbdock ($Id: //depot/dev/client3/rdock/2013.1/src/exe/rbdock.cxx#4 $)

>  <Rbt.Library>
libRbt.so (2013.1, Build901 2013/11/27)

>  <Rbt.Parameter_File>
/export/apps/rDock/src/rDock_2013.1_src/data/scripts/dock_solv.prm

>  <Rbt.Receptor>
prm/blind_docking_40.prm

>  <SCORE>
-9.61482

>  <SCORE.INTER>
-9.61482

>  <SCORE.INTER.CONST>
1

>  <SCORE.INTER.POLAR>
0

>  <SCORE.INTER.ROT>
0

>  <SCORE.INTER.SOLV>
4.32999

>  <SCORE.INTER.VDW>
-11.4532

>  <SCORE.INTER.norm>
-0.874075

>  <SCORE.INTRA>
0

>  <SCORE.INTRA.DIHEDRAL>
0

>  <SCORE.INTRA.DIHEDRAL.0>
0

>  <SCORE.INTRA.POLAR>
0

>  <SCORE.INTRA.POLAR.0>
0

>  <SCORE.INTRA.REPUL>
0

>  <SCORE.INTRA.REPUL.0>
0

>  <SCORE.INTRA.SOLV>
0

>  <SCORE.INTRA.SOLV.lig_0>
-29.307

>  <SCORE.INTRA.VDW>
0

>  <SCORE.INTRA.VDW.0>
0

>  <SCORE.INTRA.norm>
0

>  <SCORE.RESTR>
0

>  <SCORE.RESTR.CAVITY>
0

>  <SCORE.RESTR.norm>
0

>  <SCORE.SYSTEM>
0

>  <SCORE.SYSTEM.CONST>
0

>  <SCORE.SYSTEM.DIHEDRAL>
0

>  <SCORE.SYSTEM.SOLV>
0

>  <SCORE.SYSTEM.norm>
0

>  <SCORE.heavy>
11

>  <SCORE.norm>
-0.874075

>  <RMSD>
12.333

$$$$
ligand
 OpenBabel11021811503D
libRbt.so/2013.1/901 2013/11/27
 11 12  0  0  0  0  0  0  0  0999 V2000
    3.9289  -28.6116   15.2464 N   0  0  0  0  0  0  0  0  0  0  0  0
    4.6460  -27.4773   15.3319 C   0  0  0  0  0  0  0  0  0  0  0  0
    6.0697  -27.5153   15.2357 N   0  0  0  0  0  0  0  0  0  0  0  0
    4.0691  -26.2837   15.4997 N   0  0  0  0  0  0  0  0  0  0  0  0
    2.7046  -26.1655   15.6130 C   0  0  0  0  0  0  0  0  0  0  0  0
    1.9349  -27.3054   15.5293 C   0  0  0  0  0  0  0  0  0  0  0  0
    2.5778  -28.5614   15.3324 C   0  0  0  0  0  0  0  0  0  0  0  0
    1.8204  -29.7086   15.2514 O   0  0  0  0  0  0  0  0  0  0  0  0
    0.5740  -26.8839   15.6659 C   0  0  0  0  0  0  0  0  0  0  0  0
    0.6035  -25.4923   15.8329 C   0  0  0  0  0  0  0  0  0  0  0  0
    1.8773  -25.0809   15.8002 N   0  0  0  0  0  0  0  0  0  0  0  0
  1  2  1  0  0  0  0
  1  7  1  0  0  0  0
  2  3  1  0  0  0  0
  2  4  2  0  0  0  0
  4  5  1  0  0  0  0
  5  6  2  0  0  0  0
  5 11  1  0  0  0  0
  6  7  1  0  0  0  0
  6  9  1  0  0  0  0
  7  8  2  0  0  0  0
  9 10  2  0  0  0  0
 10 11  1  0  0  0  0
M  END
>  <CHROM.1>
2.83911869,-27.24183011,15.47665166,0.45612080,-0.06502252,-3.02355382

>  <Name>
ligand

>  <RI>
0

>  <Rbt.Current_Directory>
/home/itssahil/PROJECTS/Mol_Feturizer/New_Systems/rnas/4LVW

>  <Rbt.Executable>
rbdock ($Id: //depot/dev/client3/rdock/2013.1/src/exe/rbdock.cxx#4 $)

>  <Rbt.Library>
libRbt.so (2013.1, Build901 2013/11/27)

>  <Rbt.Parameter_File>
/export/apps/rDock/src/rDock_2013.1_src/data/scripts/dock_solv.prm

>  <Rbt.Receptor>
prm/blind_docking_40.prm

>  <SCORE>
-9.61902

>  <SCORE.INTER>
-9.61902

>  <SCORE.INTER.CONST>
1

>  <SCORE.INTER.POLAR>
0

>  <SCORE.INTER.ROT>
0

>  <SCORE.INTER.SOLV>
4.44988

>  <SCORE.INTER.VDW>
-11.496

>  <SCORE.INTER.norm>
-0.874456

>  <SCORE.INTRA>
0

>  <SCORE.INTRA.DIHEDRAL>
0

>  <SCORE.INTRA.DIHEDRAL.0>
0

>  <SCORE.INTRA.POLAR>
0

>  <SCORE.INTRA.POLAR.0>
0

>  <SCORE.INTRA.REPUL>
0

>  <SCORE.INTRA.REPUL.0>
0

>  <SCORE.INTRA.SOLV>
0

>  <SCORE.INTRA.SOLV.lig_0>
-29.307

>  <SCORE.INTRA.VDW>
0

>  <SCORE.INTRA.VDW.0>
0

>  <SCORE.INTRA.norm>
0

>  <SCORE.RESTR>
0

>  <SCORE.RESTR.CAVITY>
0

>  <SCORE.RESTR.norm>
0

>  <SCORE.SYSTEM>
0

>  <SCORE.SYSTEM.CONST>
0

>  <SCORE.SYSTEM.DIHEDRAL>
0

>  <SCORE.SYSTEM.SOLV>
0

>  <SCORE.SYSTEM.norm>
0

>  <SCORE.heavy>
11

>  <SCORE.norm>
-0.874456

>  <RMSD>
12.334

$$$$
ligand
 OpenBabel11021811503D
libRbt.so/2013.1/901 2013/11/27
 11 12  0  0  0  0  0  0  0  0999 V2000
    3.9314  -28.6089   15.2507 N   0  0  0  0  0  0  0  0  0  0  0  0
    4.6456  -27.4725   15.3318 C   0  0  0  0  0  0  0  0  0  0  0  0
    6.0695  -27.5075   15.2377 N   0  0  0  0  0  0  0  0  0  0  0  0
    4.0656  -26.2795   15.4934 N   0  0  0  0  0  0  0  0  0  0  0  0
    2.7007  -26.1641   15.6043 C   0  0  0  0  0  0  0  0  0  0  0  0
    1.9338  -27.3062   15.5249 C   0  0  0  0  0  0  0  0  0  0  0  0
    2.5800  -28.5615   15.3346 C   0  0  0  0  0  0  0  0  0  0  0  0
    1.8255  -29.7110   15.2580 O   0  0  0  0  0  0  0  0  0  0  0  0
    0.5718  -26.8873   15.6577 C   0  0  0  0  0  0  0  0  0  0  0  0
    0.5976  -25.4950   15.8183 C   0  0  0  0  0  0  0  0  0  0  0  0
    1.8705  -25.0806   15.7854 N   0  0  0  0  0  0  0  0  0  0  0  0
  1  2  1  0  0  0  0
  1  7  1  0  0  0  0
  2  3  1  0  0  0  0
  2  4  2  0  0  0  0
  4  5  1  0  0  0  0
  5  6  2  0  0  0  0
  5 11  1  0  0  0  0
  6  7  1  0  0  0  0
  6  9  1  0  0  0  0
  7  8  2  0  0  0  0
  9 10  2  0  0  0  0
 10 11  1  0  0  0  0
M  END
>  <CHROM.1>
2.83797815,-27.24067841,15.47313086,0.45356085,-0.06398607,-3.02835603

>  <Name>
ligand

>  <RI>
0

>  <Rbt.Current_Directory>
/home/itssahil/PROJECTS/Mol_Feturizer/New_Systems/rnas/4LVW

>  <Rbt.Executable>
rbdock ($Id: //depot/dev/client3/rdock/2013.1/src/exe/rbdock.cxx#4 $)

>  <Rbt.Library>
libRbt.so (2013.1, Build901 2013/11/27)

>  <Rbt.Parameter_File>
/export/apps/rDock/src/rDock_2013.1_src/data/scripts/dock_solv.prm

>  <Rbt.Receptor>
prm/blind_docking_40.prm

>  <SCORE>
-9.61797

>  <SCORE.INTER>
-9.61797

>  <SCORE.INTER.CONST>
1

>  <SCORE.INTER.POLAR>
0

>  <SCORE.INTER.ROT>
0

>  <SCORE.INTER.SOLV>
4.44656

>  <SCORE.INTER.VDW>
-11.4942

>  <SCORE.INTER.norm>
-0.874361

>  <SCORE.INTRA>
0

>  <SCORE.INTRA.DIHEDRAL>
0

>  <SCORE.INTRA.DIHEDRAL.0>
0

>  <SCORE.INTRA.POLAR>
0

>  <SCORE.INTRA.POLAR.0>
0

>  <SCORE.INTRA.REPUL>
0

>  <SCORE.INTRA.REPUL.0>
0

>  <SCORE.INTRA.SOLV>
0

>  <SCORE.INTRA.SOLV.lig_0>
-29.307

>  <SCORE.INTRA.VDW>
0

>  <SCORE.INTRA.VDW.0>
0

>  <SCORE.INTRA.norm>
0

>  <SCORE.RESTR>
0

>  <SCORE.RESTR.CAVITY>
0

>  <SCORE.RESTR.norm>
0

>  <SCORE.SYSTEM>
0

>  <SCORE.SYSTEM.CONST>
0

>  <SCORE.SYSTEM.DIHEDRAL>
0

>  <SCORE.SYSTEM.SOLV>
0

>  <SCORE.SYSTEM.norm>
0

>  <SCORE.heavy>
11

>  <SCORE.norm>
-0.874361

>  <RMSD>
12.336

$$$$
ligand
 OpenBabel11021811503D
libRbt.so/2013.1/901 2013/11/27
 11 12  0  0  0  0  0  0  0  0999 V2000
    3.9366  -28.6062   15.2440 N   0  0  0  0  0  0  0  0  0  0  0  0
    4.6508  -27.4688   15.3113 C   0  0  0  0  0  0  0  0  0  0  0  0
    6.0736  -27.5033   15.2024 N   0  0  0  0  0  0  0  0  0  0  0  0
    4.0715  -26.2753   15.4723 N   0  0  0  0  0  0  0  0  0  0  0  0
    2.7078  -26.1603   15.5969 C   0  0  0  0  0  0  0  0  0  0  0  0
    1.9410  -27.3033   15.5319 C   0  0  0  0  0  0  0  0  0  0  0  0
    2.5861  -28.5593   15.3418 C   0  0  0  0  0  0  0  0  0  0  0  0
    1.8318  -29.7097   15.2795 O   0  0  0  0  0  0  0  0  0  0  0  0
    0.5801  -26.8848   15.6767 C   0  0  0  0  0  0  0  0  0  0  0  0
    0.6066  -25.4915   15.8292 C   0  0  0  0  0  0  0  0  0  0  0  0
    1.8787  -25.0765   15.7807 N   0  0  0  0  0  0  0  0  0  0  0  0
  1  2  1  0  0  0  0
  1  7  1  0  0  0  0
  2  3  1  0  0  0  0
  2  4  2  0  0  0  0
  4  5  1  0  0  0  0
  5  6  2  0  0  0  0
  5 11  1  0  0  0  0
  6  7  1  0  0  0  0
  6  9  1  0  0  0  0
  7  8  2  0  0  0  0
  9 10  2  0  0  0  0
 10 11  1  0  0  0  0
M  END
>  <CHROM.1>
2.84452564,-27.23750047,15.47030160,0.45398109,-0.07450060,-3.03388209

>  <Name>
ligand

>  <RI>
0

>  <Rbt.Current_Directory>
/home/itssahil/PROJECTS/Mol_Feturizer/New_Systems/rnas/4LVW

>  <Rbt.Executable>
rbdock ($Id: //depot/dev/client3/rdock/2013.1/src/exe/rbdock.cxx#4 $)

>  <Rbt.Library>
libRbt.so (2013.1, Build901 2013/11/27)

>  <Rbt.Parameter_File>
/export/apps/rDock/src/rDock_2013.1_src/data/scripts/dock_solv.prm

>  <Rbt.Receptor>
prm/blind_docking_40.prm

>  <SCORE>
-9.61502

>  <SCORE.INTER>
-9.61502

>  <SCORE.INTER.CONST>
1

>  <SCORE.INTER.POLAR>
0

>  <SCORE.INTER.ROT>
0

>  <SCORE.INTER.SOLV>
4.33277

>  <SCORE.INTER.VDW>
-11.4543

>  <SCORE.INTER.norm>
-0.874093

>  <SCORE.INTRA>
0

>  <SCORE.INTRA.DIHEDRAL>
0

>  <SCORE.INTRA.DIHEDRAL.0>
0

>  <SCORE.INTRA.POLAR>
0

>  <SCORE.INTRA.POLAR.0>
0

>  <SCORE.INTRA.REPUL>
0

>  <SCORE.INTRA.REPUL.0>
0

>  <SCORE.INTRA.SOLV>
0

>  <SCORE.INTRA.SOLV.lig_0>
-29.307

>  <SCORE.INTRA.VDW>
0

>  <SCORE.INTRA.VDW.0>
0

>  <SCORE.INTRA.norm>
0

>  <SCORE.RESTR>
0

>  <SCORE.RESTR.CAVITY>
0

>  <SCORE.RESTR.norm>
0

>  <SCORE.SYSTEM>
0

>  <SCORE.SYSTEM.CONST>
0

>  <SCORE.SYSTEM.DIHEDRAL>
0

>  <SCORE.SYSTEM.SOLV>
0

>  <SCORE.SYSTEM.norm>
0

>  <SCORE.heavy>
11

>  <SCORE.norm>
-0.874093

>  <RMSD>
12.336

$$$$
ligand
 OpenBabel11021811503D
libRbt.so/2013.1/901 2013/11/27
 11 12  0  0  0  0  0  0  0  0999 V2000
    3.9265  -28.6181   15.2422 N   0  0  0  0  0  0  0  0  0  0  0  0
    4.6481  -27.4865   15.3266 C   0  0  0  0  0  0  0  0  0  0  0  0
    6.0714  -27.5299   15.2275 N   0  0  0  0  0  0  0  0  0  0  0  0
    4.0760  -26.2908   15.4961 N   0  0  0  0  0  0  0  0  0  0  0  0
    2.7123  -26.1674   15.6122 C   0  0  0  0  0  0  0  0  0  0  0  0
    1.9380  -27.3043   15.5297 C   0  0  0  0  0  0  0  0  0  0  0  0
    2.5757  -28.5627   15.3309 C   0  0  0  0  0  0  0  0  0  0  0  0
    1.8138  -29.7070   15.2511 O   0  0  0  0  0  0  0  0  0  0  0  0
    0.5791  -26.8776   15.6692 C   0  0  0  0  0  0  0  0  0  0  0  0
    0.6142  -25.4863   15.8367 C   0  0  0  0  0  0  0  0  0  0  0  0
    1.8895  -25.0797   15.8016 N   0  0  0  0  0  0  0  0  0  0  0  0
  1  2  1  0  0  0  0
  1  7  1  0  0  0  0
  2  3  1  0  0  0  0
  2  4  2  0  0  0  0
  4  5  1  0  0  0  0
  5  6  2  0  0  0  0
  5 11  1  0  0  0  0
  6  7  1  0  0  0  0
  6  9  1  0  0  0  0
  7  8  2  0  0  0  0
  9 10  2  0  0  0  0
 10 11  1  0  0  0  0
M  END
>  <CHROM.1>
2.84240953,-27.24417848,15.47520449,0.46017112,-0.06659840,-3.02289704

>  <Name>
ligand

>  <RI>
0

>  <Rbt.Current_Directory>
/home/itssahil/PROJECTS/Mol_Feturizer/New_Systems/rnas/4LVW

>  <Rbt.Executable>
rbdock ($Id: //depot/dev/client3/rdock/2013.1/src/exe/rbdock.cxx#4 $)

>  <Rbt.Library>
libRbt.so (2013.1, Build901 2013/11/27)

>  <Rbt.Parameter_File>
/export/apps/rDock/src/rDock_2013.1_src/data/scripts/dock_solv.prm

>  <Rbt.Receptor>
prm/blind_docking_40.prm

>  <SCORE>
-9.61939

>  <SCORE.INTER>
-9.61939

>  <SCORE.INTER.CONST>
1

>  <SCORE.INTER.POLAR>
0

>  <SCORE.INTER.ROT>
0

>  <SCORE.INTER.SOLV>
4.42539

>  <SCORE.INTER.VDW>
-11.4881

>  <SCORE.INTER.norm>
-0.87449

>  <SCORE.INTRA>
0

>  <SCORE.INTRA.DIHEDRAL>
0

>  <SCORE.INTRA.DIHEDRAL.0>
0

>  <SCORE.INTRA.POLAR>
0

>  <SCORE.INTRA.POLAR.0>
0

>  <SCORE.INTRA.REPUL>
0

>  <SCORE.INTRA.REPUL.0>
0

>  <SCORE.INTRA.SOLV>
0

>  <SCORE.INTRA.SOLV.lig_0>
-29.307

>  <SCORE.INTRA.VDW>
0

>  <SCORE.INTRA.VDW.0>
0

>  <SCORE.INTRA.norm>
0

>  <SCORE.RESTR>
0

>  <SCORE.RESTR.CAVITY>
0

>  <SCORE.RESTR.norm>
0

>  <SCORE.SYSTEM>
0

>  <SCORE.SYSTEM.CONST>
0

>  <SCORE.SYSTEM.DIHEDRAL>
0

>  <SCORE.SYSTEM.SOLV>
0

>  <SCORE.SYSTEM.norm>
0

>  <SCORE.heavy>
11

>  <SCORE.norm>
-0.87449

>  <RMSD>
12.336

$$$$
ligand
 OpenBabel11021811503D
libRbt.so/2013.1/901 2013/11/27
 11 12  0  0  0  0  0  0  0  0999 V2000
   -7.1863  -27.5164   30.3806 N   0  0  0  0  0  0  0  0  0  0  0  0
   -6.0316  -27.0469   30.8850 C   0  0  0  0  0  0  0  0  0  0  0  0
   -6.0361  -25.9441   31.7913 N   0  0  0  0  0  0  0  0  0  0  0  0
   -4.8494  -27.5862   30.5730 N   0  0  0  0  0  0  0  0  0  0  0  0
   -4.7608  -28.6427   29.6986 C   0  0  0  0  0  0  0  0  0  0  0  0
   -5.9225  -29.1529   29.1611 C   0  0  0  0  0  0  0  0  0  0  0  0
   -7.1691  -28.5681   29.5267 C   0  0  0  0  0  0  0  0  0  0  0  0
   -8.3371  -29.0657   28.9933 O   0  0  0  0  0  0  0  0  0  0  0  0
   -5.5318  -30.2359   28.3110 C   0  0  0  0  0  0  0  0  0  0  0  0
   -4.1338  -30.3127   28.3817 C   0  0  0  0  0  0  0  0  0  0  0  0
   -3.6908  -29.3582   29.2097 N   0  0  0  0  0  0  0  0  0  0  0  0
  1  2  1  0  0  0  0
  1  7  1  0  0  0  0
  2  3  1  0  0  0  0
  2  4  2  0  0  0  0
  4  5  1  0  0  0  0
  5  6  2  0  0  0  0
  5 11  1  0  0  0  0
  6  7  1  0  0  0  0
  6  9  1  0  0  0  0
  7  8  2  0  0  0  0
  9 10  2  0  0  0  0
 10 11  1  0  0  0  0
M  END
>  <CHROM.1>
-5.83775238,-28.46001408,29.74179361,1.99582986,-0.07661002,0.68927867

>  <Name>
ligand

>  <RI>
0

>  <Rbt.Current_Directory>
/home/itssahil/PROJECTS/Mol_Feturizer/New_Systems/rnas/4LVW

>  <Rbt.Executable>
rbdock ($Id: //depot/dev/client3/rdock/2013.1/src/exe/rbdock.cxx#4 $)

>  <Rbt.Library>
libRbt.so (2013.1, Build901 2013/11/27)

>  <Rbt.Parameter_File>
/export/apps/rDock/src/rDock_2013.1_src/data/scripts/dock_solv.prm

>  <Rbt.Receptor>
prm/blind_docking_100.prm

>  <SCORE>
-11.4597

>  <SCORE.INTER>
-11.4597

>  <SCORE.INTER.CONST>
1

>  <SCORE.INTER.POLAR>
0

>  <SCORE.INTER.ROT>
0

>  <SCORE.INTER.SOLV>
4.53372

>  <SCORE.INTER.VDW>
-12.7511

>  <SCORE.INTER.norm>
-1.0418

>  <SCORE.INTRA>
0

>  <SCORE.INTRA.DIHEDRAL>
0

>  <SCORE.INTRA.DIHEDRAL.0>
0

>  <SCORE.INTRA.POLAR>
0

>  <SCORE.INTRA.POLAR.0>
0

>  <SCORE.INTRA.REPUL>
0

>  <SCORE.INTRA.REPUL.0>
0

>  <SCORE.INTRA.SOLV>
0

>  <SCORE.INTRA.SOLV.lig_0>
-29.307

>  <SCORE.INTRA.VDW>
0

>  <SCORE.INTRA.VDW.0>
0

>  <SCORE.INTRA.norm>
0

>  <SCORE.RESTR>
0

>  <SCORE.RESTR.CAVITY>
0

>  <SCORE.RESTR.norm>
0

>  <SCORE.SYSTEM>
0

>  <SCORE.SYSTEM.CONST>
0

>  <SCORE.SYSTEM.DIHEDRAL>
0

>  <SCORE.SYSTEM.SOLV>
0

>  <SCORE.SYSTEM.norm>
0

>  <SCORE.heavy>
11

>  <SCORE.norm>
-1.0418

>  <RMSD>
12.348

$$$$
ligand
 OpenBabel11021811503D
libRbt.so/2013.1/901 2013/11/27
 11 12  0  0  0  0  0  0  0  0999 V2000
    3.9286  -28.6148   15.2253 N   0  0  0  0  0  0  0  0  0  0  0  0
    4.6458  -27.4788   15.2836 C   0  0  0  0  0  0  0  0  0  0  0  0
    6.0679  -27.5170   15.1661 N   0  0  0  0  0  0  0  0  0  0  0  0
    4.0702  -26.2834   15.4432 N   0  0  0  0  0  0  0  0  0  0  0  0
    2.7076  -26.1647   15.5756 C   0  0  0  0  0  0  0  0  0  0  0  0
    1.9378  -27.3063   15.5201 C   0  0  0  0  0  0  0  0  0  0  0  0
    2.5789  -28.5645   15.3313 C   0  0  0  0  0  0  0  0  0  0  0  0
    1.8216  -29.7134   15.2783 O   0  0  0  0  0  0  0  0  0  0  0  0
    0.5788  -26.8840   15.6715 C   0  0  0  0  0  0  0  0  0  0  0  0
    0.6093  -25.4902   15.8181 C   0  0  0  0  0  0  0  0  0  0  0  0
    1.8821  -25.0783   15.7601 N   0  0  0  0  0  0  0  0  0  0  0  0
  1  2  1  0  0  0  0
  1  7  1  0  0  0  0
  2  3  1  0  0  0  0
  2  4  2  0  0  0  0
  4  5  1  0  0  0  0
  5  6  2  0  0  0  0
  5 11  1  0  0  0  0
  6  7  1  0  0  0  0
  6  9  1  0  0  0  0
  7  8  2  0  0  0  0
  9 10  2  0  0  0  0
 10 11  1  0  0  0  0
M  END
>  <CHROM.1>
2.84108172,-27.24277061,15.45267190,0.45689656,-0.08036072,-3.03777360

>  <Name>
ligand

>  <RI>
0

>  <Rbt.Current_Directory>
/home/itssahil/PROJECTS/Mol_Feturizer/New_Systems/rnas/4LVW

>  <Rbt.Executable>
rbdock ($Id: //depot/dev/client3/rdock/2013.1/src/exe/rbdock.cxx#4 $)

>  <Rbt.Library>
libRbt.so (2013.1, Build901 2013/11/27)

>  <Rbt.Parameter_File>
/export/apps/rDock/src/rDock_2013.1_src/data/scripts/dock_solv.prm

>  <Rbt.Receptor>
prm/blind_docking_40.prm

>  <SCORE>
-9.61058

>  <SCORE.INTER>
-9.61058

>  <SCORE.INTER.CONST>
1

>  <SCORE.INTER.POLAR>
0

>  <SCORE.INTER.ROT>
0

>  <SCORE.INTER.SOLV>
4.24018

>  <SCORE.INTER.VDW>
-11.4204

>  <SCORE.INTER.norm>
-0.873689

>  <SCORE.INTRA>
0

>  <SCORE.INTRA.DIHEDRAL>
0

>  <SCORE.INTRA.DIHEDRAL.0>
0

>  <SCORE.INTRA.POLAR>
0

>  <SCORE.INTRA.POLAR.0>
0

>  <SCORE.INTRA.REPUL>
0

>  <SCORE.INTRA.REPUL.0>
0

>  <SCORE.INTRA.SOLV>
0

>  <SCORE.INTRA.SOLV.lig_0>
-29.307

>  <SCORE.INTRA.VDW>
0

>  <SCORE.INTRA.VDW.0>
0

>  <SCORE.INTRA.norm>
0

>  <SCORE.RESTR>
0

>  <SCORE.RESTR.CAVITY>
0

>  <SCORE.RESTR.norm>
0

>  <SCORE.SYSTEM>
0

>  <SCORE.SYSTEM.CONST>
0

>  <SCORE.SYSTEM.DIHEDRAL>
0

>  <SCORE.SYSTEM.SOLV>
0

>  <SCORE.SYSTEM.norm>
0

>  <SCORE.heavy>
11

>  <SCORE.norm>
-0.873689

>  <RMSD>
12.352

$$$$
ligand
 OpenBabel11021811503D
libRbt.so/2013.1/901 2013/11/27
 11 12  0  0  0  0  0  0  0  0999 V2000
   -7.2818  -27.4519   30.3810 N   0  0  0  0  0  0  0  0  0  0  0  0
   -6.1350  -26.9439   30.8657 C   0  0  0  0  0  0  0  0  0  0  0  0
   -6.1581  -25.8099   31.7322 N   0  0  0  0  0  0  0  0  0  0  0  0
   -4.9437  -27.4725   30.5703 N   0  0  0  0  0  0  0  0  0  0  0  0
   -4.8374  -28.5576   29.7338 C   0  0  0  0  0  0  0  0  0  0  0  0
   -5.9905  -29.1077   29.2176 C   0  0  0  0  0  0  0  0  0  0  0  0
   -7.2469  -28.5329   29.5650 C   0  0  0  0  0  0  0  0  0  0  0  0
   -8.4066  -29.0703   29.0524 O   0  0  0  0  0  0  0  0  0  0  0  0
   -5.5816  -30.2129   28.4055 C   0  0  0  0  0  0  0  0  0  0  0  0
   -4.1824  -30.2618   28.4756 C   0  0  0  0  0  0  0  0  0  0  0  0
   -3.7554  -29.2706   29.2681 N   0  0  0  0  0  0  0  0  0  0  0  0
  1  2  1  0  0  0  0
  1  7  1  0  0  0  0
  2  3  1  0  0  0  0
  2  4  2  0  0  0  0
  4  5  1  0  0  0  0
  5  6  2  0  0  0  0
  5 11  1  0  0  0  0
  6  7  1  0  0  0  0
  6  9  1  0  0  0  0
  7  8  2  0  0  0  0
  9 10  2  0  0  0  0
 10 11  1  0  0  0  0
M  END
>  <CHROM.1>
-5.91741733,-28.39308252,29.77301454,2.00882236,-0.06371409,0.65461005

>  <Name>
ligand

>  <RI>
0

>  <Rbt.Current_Directory>
/home/itssahil/PROJECTS/Mol_Feturizer/New_Systems/rnas/4LVW

>  <Rbt.Executable>
rbdock ($Id: //depot/dev/client3/rdock/2013.1/src/exe/rbdock.cxx#4 $)

>  <Rbt.Library>
libRbt.so (2013.1, Build901 2013/11/27)

>  <Rbt.Parameter_File>
/export/apps/rDock/src/rDock_2013.1_src/data/scripts/dock_solv.prm

>  <Rbt.Receptor>
prm/blind_docking_60.prm

>  <SCORE>
-11.4235

>  <SCORE.INTER>
-11.4235

>  <SCORE.INTER.CONST>
1

>  <SCORE.INTER.POLAR>
0

>  <SCORE.INTER.ROT>
0

>  <SCORE.INTER.SOLV>
4.73859

>  <SCORE.INTER.VDW>
-12.7952

>  <SCORE.INTER.norm>
-1.0385

>  <SCORE.INTRA>
0

>  <SCORE.INTRA.DIHEDRAL>
0

>  <SCORE.INTRA.DIHEDRAL.0>
0

>  <SCORE.INTRA.POLAR>
0

>  <SCORE.INTRA.POLAR.0>
0

>  <SCORE.INTRA.REPUL>
0

>  <SCORE.INTRA.REPUL.0>
0

>  <SCORE.INTRA.SOLV>
0

>  <SCORE.INTRA.SOLV.lig_0>
-29.307

>  <SCORE.INTRA.VDW>
0

>  <SCORE.INTRA.VDW.0>
0

>  <SCORE.INTRA.norm>
0

>  <SCORE.RESTR>
0

>  <SCORE.RESTR.CAVITY>
0

>  <SCORE.RESTR.norm>
0

>  <SCORE.SYSTEM>
0

>  <SCORE.SYSTEM.CONST>
0

>  <SCORE.SYSTEM.DIHEDRAL>
0

>  <SCORE.SYSTEM.SOLV>
0

>  <SCORE.SYSTEM.norm>
0

>  <SCORE.heavy>
11

>  <SCORE.norm>
-1.0385

>  <RMSD>
12.369

$$$$
ligand
 OpenBabel11021811503D
libRbt.so/2013.1/901 2013/11/27
 11 12  0  0  0  0  0  0  0  0999 V2000
   -7.3035  -27.4562   30.3681 N   0  0  0  0  0  0  0  0  0  0  0  0
   -6.1670  -26.9390   30.8672 C   0  0  0  0  0  0  0  0  0  0  0  0
   -6.2099  -25.8032   31.7307 N   0  0  0  0  0  0  0  0  0  0  0  0
   -4.9681  -27.4597   30.5893 N   0  0  0  0  0  0  0  0  0  0  0  0
   -4.8427  -28.5459   29.7569 C   0  0  0  0  0  0  0  0  0  0  0  0
   -5.9848  -29.1053   29.2262 C   0  0  0  0  0  0  0  0  0  0  0  0
   -7.2499  -28.5386   29.5551 C   0  0  0  0  0  0  0  0  0  0  0  0
   -8.3986  -29.0854   29.0281 O   0  0  0  0  0  0  0  0  0  0  0  0
   -5.5571  -30.2094   28.4224 C   0  0  0  0  0  0  0  0  0  0  0  0
   -4.1586  -30.2482   28.5117 C   0  0  0  0  0  0  0  0  0  0  0  0
   -3.7495  -29.2523   29.3076 N   0  0  0  0  0  0  0  0  0  0  0  0
  1  2  1  0  0  0  0
  1  7  1  0  0  0  0
  2  3  1  0  0  0  0
  2  4  2  0  0  0  0
  4  5  1  0  0  0  0
  5  6  2  0  0  0  0
  5 11  1  0  0  0  0
  6  7  1  0  0  0  0
  6  9  1  0  0  0  0
  7  8  2  0  0  0  0
  9 10  2  0  0  0  0
 10 11  1  0  0  0  0
M  END
>  <CHROM.1>
-5.92436224,-28.38897667,29.78094199,2.02276044,-0.07024549,0.65327488

>  <Name>
ligand

>  <RI>
0

>  <Rbt.Current_Directory>
/home/itssahil/PROJECTS/Mol_Feturizer/New_Systems/rnas/4LVW

>  <Rbt.Executable>
rbdock ($Id: //depot/dev/client3/rdock/2013.1/src/exe/rbdock.cxx#4 $)

>  <Rbt.Library>
libRbt.so (2013.1, Build901 2013/11/27)

>  <Rbt.Parameter_File>
/export/apps/rDock/src/rDock_2013.1_src/data/scripts/dock_solv.prm

>  <Rbt.Receptor>
prm/blind_docking_60.prm

>  <SCORE>
-11.457

>  <SCORE.INTER>
-11.457

>  <SCORE.INTER.CONST>
1

>  <SCORE.INTER.POLAR>
0

>  <SCORE.INTER.ROT>
0

>  <SCORE.INTER.SOLV>
4.76068

>  <SCORE.INTER.VDW>
-12.8249

>  <SCORE.INTER.norm>
-1.04154

>  <SCORE.INTRA>
0

>  <SCORE.INTRA.DIHEDRAL>
0

>  <SCORE.INTRA.DIHEDRAL.0>
0

>  <SCORE.INTRA.POLAR>
0

>  <SCORE.INTRA.POLAR.0>
0

>  <SCORE.INTRA.REPUL>
0

>  <SCORE.INTRA.REPUL.0>
0

>  <SCORE.INTRA.SOLV>
0

>  <SCORE.INTRA.SOLV.lig_0>
-29.307

>  <SCORE.INTRA.VDW>
0

>  <SCORE.INTRA.VDW.0>
0

>  <SCORE.INTRA.norm>
0

>  <SCORE.RESTR>
0

>  <SCORE.RESTR.CAVITY>
0

>  <SCORE.RESTR.norm>
0

>  <SCORE.SYSTEM>
0

>  <SCORE.SYSTEM.CONST>
0

>  <SCORE.SYSTEM.DIHEDRAL>
0

>  <SCORE.SYSTEM.SOLV>
0

>  <SCORE.SYSTEM.norm>
0

>  <SCORE.heavy>
11

>  <SCORE.norm>
-1.04154

>  <RMSD>
12.373

$$$$
ligand
 OpenBabel11021811503D
libRbt.so/2013.1/901 2013/11/27
 11 12  0  0  0  0  0  0  0  0999 V2000
   -7.2947  -27.4566   30.3746 N   0  0  0  0  0  0  0  0  0  0  0  0
   -6.1536  -26.9448   30.8689 C   0  0  0  0  0  0  0  0  0  0  0  0
   -6.1876  -25.8109   31.7352 N   0  0  0  0  0  0  0  0  0  0  0  0
   -4.9581  -27.4695   30.5834 N   0  0  0  0  0  0  0  0  0  0  0  0
   -4.8413  -28.5542   29.7478 C   0  0  0  0  0  0  0  0  0  0  0  0
   -5.9883  -29.1080   29.2219 C   0  0  0  0  0  0  0  0  0  0  0  0
   -7.2494  -28.5373   29.5589 C   0  0  0  0  0  0  0  0  0  0  0  0
   -8.4030  -29.0785   29.0366 O   0  0  0  0  0  0  0  0  0  0  0  0
   -5.5690  -30.2118   28.4133 C   0  0  0  0  0  0  0  0  0  0  0  0
   -4.1702  -30.2561   28.4951 C   0  0  0  0  0  0  0  0  0  0  0  0
   -3.7531  -29.2636   29.2911 N   0  0  0  0  0  0  0  0  0  0  0  0
  1  2  1  0  0  0  0
  1  7  1  0  0  0  0
  2  3  1  0  0  0  0
  2  4  2  0  0  0  0
  4  5  1  0  0  0  0
  5  6  2  0  0  0  0
  5 11  1  0  0  0  0
  6  7  1  0  0  0  0
  6  9  1  0  0  0  0
  7  8  2  0  0  0  0
  9 10  2  0  0  0  0
 10 11  1  0  0  0  0
M  END
>  <CHROM.1>
-5.92214617,-28.39319273,29.77799339,2.01652211,-0.06835056,0.65517739

>  <Name>
ligand

>  <RI>
0

>  <Rbt.Current_Directory>
/home/itssahil/PROJECTS/Mol_Feturizer/New_Systems/rnas/4LVW

>  <Rbt.Executable>
rbdock ($Id: //depot/dev/client3/rdock/2013.1/src/exe/rbdock.cxx#4 $)

>  <Rbt.Library>
libRbt.so (2013.1, Build901 2013/11/27)

>  <Rbt.Parameter_File>
/export/apps/rDock/src/rDock_2013.1_src/data/scripts/dock_solv.prm

>  <Rbt.Receptor>
prm/blind_docking_80.prm

>  <SCORE>
-11.4495

>  <SCORE.INTER>
-11.4495

>  <SCORE.INTER.CONST>
1

>  <SCORE.INTER.POLAR>
0

>  <SCORE.INTER.ROT>
0

>  <SCORE.INTER.SOLV>
4.73485

>  <SCORE.INTER.VDW>
-12.8113

>  <SCORE.INTER.norm>
-1.04087

>  <SCORE.INTRA>
0

>  <SCORE.INTRA.DIHEDRAL>
0

>  <SCORE.INTRA.DIHEDRAL.0>
0

>  <SCORE.INTRA.POLAR>
0

>  <SCORE.INTRA.POLAR.0>
0

>  <SCORE.INTRA.REPUL>
0

>  <SCORE.INTRA.REPUL.0>
0

>  <SCORE.INTRA.SOLV>
0

>  <SCORE.INTRA.SOLV.lig_0>
-29.307

>  <SCORE.INTRA.VDW>
0

>  <SCORE.INTRA.VDW.0>
0

>  <SCORE.INTRA.norm>
0

>  <SCORE.RESTR>
0

>  <SCORE.RESTR.CAVITY>
0

>  <SCORE.RESTR.norm>
0

>  <SCORE.SYSTEM>
0

>  <SCORE.SYSTEM.CONST>
0

>  <SCORE.SYSTEM.DIHEDRAL>
0

>  <SCORE.SYSTEM.SOLV>
0

>  <SCORE.SYSTEM.norm>
0

>  <SCORE.heavy>
11

>  <SCORE.norm>
-1.04087

>  <RMSD>
12.374

$$$$
ligand
 OpenBabel11021811503D
libRbt.so/2013.1/901 2013/11/27
 11 12  0  0  0  0  0  0  0  0999 V2000
   -7.2956  -27.4512   30.3859 N   0  0  0  0  0  0  0  0  0  0  0  0
   -6.1544  -26.9449   30.8855 C   0  0  0  0  0  0  0  0  0  0  0  0
   -6.1875  -25.8138   31.7556 N   0  0  0  0  0  0  0  0  0  0  0  0
   -4.9598  -27.4724   30.6020 N   0  0  0  0  0  0  0  0  0  0  0  0
   -4.8438  -28.5546   29.7630 C   0  0  0  0  0  0  0  0  0  0  0  0
   -5.9909  -29.1029   29.2316 C   0  0  0  0  0  0  0  0  0  0  0  0
   -7.2513  -28.5293   29.5665 C   0  0  0  0  0  0  0  0  0  0  0  0
   -8.4049  -29.0649   29.0388 O   0  0  0  0  0  0  0  0  0  0  0  0
   -5.5727  -30.2053   28.4205 C   0  0  0  0  0  0  0  0  0  0  0  0
   -4.1744  -30.2545   28.5066 C   0  0  0  0  0  0  0  0  0  0  0  0
   -3.7565  -29.2660   29.3074 N   0  0  0  0  0  0  0  0  0  0  0  0
  1  2  1  0  0  0  0
  1  7  1  0  0  0  0
  2  3  1  0  0  0  0
  2  4  2  0  0  0  0
  4  5  1  0  0  0  0
  5  6  2  0  0  0  0
  5 11  1  0  0  0  0
  6  7  1  0  0  0  0
  6  9  1  0  0  0  0
  7  8  2  0  0  0  0
  9 10  2  0  0  0  0
 10 11  1  0  0  0  0
M  END
>  <CHROM.1>
-5.92426688,-28.39024185,29.79036414,2.01587661,-0.07283978,0.65856134

>  <Name>
ligand

>  <RI>
0

>  <Rbt.Current_Directory>
/home/itssahil/PROJECTS/Mol_Feturizer/New_Systems/rnas/4LVW

>  <Rbt.Executable>
rbdock ($Id: //depot/dev/client3/rdock/2013.1/src/exe/rbdock.cxx#4 $)

>  <Rbt.Library>
libRbt.so (2013.1, Build901 2013/11/27)

>  <Rbt.Parameter_File>
/export/apps/rDock/src/rDock_2013.1_src/data/scripts/dock_solv.prm

>  <Rbt.Receptor>
prm/blind_docking_60.prm

>  <SCORE>
-11.4474

>  <SCORE.INTER>
-11.4474

>  <SCORE.INTER.CONST>
1

>  <SCORE.INTER.POLAR>
0

>  <SCORE.INTER.ROT>
0

>  <SCORE.INTER.SOLV>
4.6669

>  <SCORE.INTER.VDW>
-12.7872

>  <SCORE.INTER.norm>
-1.04067

>  <SCORE.INTRA>
0

>  <SCORE.INTRA.DIHEDRAL>
0

>  <SCORE.INTRA.DIHEDRAL.0>
0

>  <SCORE.INTRA.POLAR>
0

>  <SCORE.INTRA.POLAR.0>
0

>  <SCORE.INTRA.REPUL>
0

>  <SCORE.INTRA.REPUL.0>
0

>  <SCORE.INTRA.SOLV>
0

>  <SCORE.INTRA.SOLV.lig_0>
-29.307

>  <SCORE.INTRA.VDW>
0

>  <SCORE.INTRA.VDW.0>
0

>  <SCORE.INTRA.norm>
0

>  <SCORE.RESTR>
0

>  <SCORE.RESTR.CAVITY>
0

>  <SCORE.RESTR.norm>
0

>  <SCORE.SYSTEM>
0

>  <SCORE.SYSTEM.CONST>
0

>  <SCORE.SYSTEM.DIHEDRAL>
0

>  <SCORE.SYSTEM.SOLV>
0

>  <SCORE.SYSTEM.norm>
0

>  <SCORE.heavy>
11

>  <SCORE.norm>
-1.04067

>  <RMSD>
12.378

$$$$
ligand
 OpenBabel11021811503D
libRbt.so/2013.1/901 2013/11/27
 11 12  0  0  0  0  0  0  0  0999 V2000
    1.5040  -25.3861   14.2461 N   0  0  0  0  0  0  0  0  0  0  0  0
    1.8104  -26.2197   13.2364 C   0  0  0  0  0  0  0  0  0  0  0  0
    1.7797  -25.7583   11.8859 N   0  0  0  0  0  0  0  0  0  0  0  0
    2.1588  -27.4924   13.4474 N   0  0  0  0  0  0  0  0  0  0  0  0
    2.2005  -28.0146   14.7179 C   0  0  0  0  0  0  0  0  0  0  0  0
    1.8942  -27.1913   15.7796 C   0  0  0  0  0  0  0  0  0  0  0  0
    1.5435  -25.8343   15.5240 C   0  0  0  0  0  0  0  0  0  0  0  0
    1.2310  -25.0022   16.5757 O   0  0  0  0  0  0  0  0  0  0  0  0
    2.0311  -27.9882   16.9604 C   0  0  0  0  0  0  0  0  0  0  0  0
    2.4121  -29.2683   16.5344 C   0  0  0  0  0  0  0  0  0  0  0  0
    2.5074  -29.2678   15.1988 N   0  0  0  0  0  0  0  0  0  0  0  0
  1  2  1  0  0  0  0
  1  7  1  0  0  0  0
  2  3  1  0  0  0  0
  2  4  2  0  0  0  0
  4  5  1  0  0  0  0
  5  6  2  0  0  0  0
  5 11  1  0  0  0  0
  6  7  1  0  0  0  0
  6  9  1  0  0  0  0
  7  8  2  0  0  0  0
  9 10  2  0  0  0  0
 10 11  1  0  0  0  0
M  END
>  <CHROM.1>
1.90072207,-26.97864855,14.89682593,2.06674553,1.29219454,-1.31263454

>  <Name>
ligand

>  <RI>
0

>  <Rbt.Current_Directory>
/home/itssahil/PROJECTS/Mol_Feturizer/New_Systems/rnas/4LVW

>  <Rbt.Executable>
rbdock ($Id: //depot/dev/client3/rdock/2013.1/src/exe/rbdock.cxx#4 $)

>  <Rbt.Library>
libRbt.so (2013.1, Build901 2013/11/27)

>  <Rbt.Parameter_File>
/export/apps/rDock/src/rDock_2013.1_src/data/scripts/dock_solv.prm

>  <Rbt.Receptor>
prm/blind_docking_40.prm

>  <SCORE>
-7.93754

>  <SCORE.INTER>
-7.93754

>  <SCORE.INTER.CONST>
1

>  <SCORE.INTER.POLAR>
0

>  <SCORE.INTER.ROT>
0

>  <SCORE.INTER.SOLV>
4.05154

>  <SCORE.INTER.VDW>
-10.2422

>  <SCORE.INTER.norm>
-0.721595

>  <SCORE.INTRA>
0

>  <SCORE.INTRA.DIHEDRAL>
0

>  <SCORE.INTRA.DIHEDRAL.0>
0

>  <SCORE.INTRA.POLAR>
0

>  <SCORE.INTRA.POLAR.0>
0

>  <SCORE.INTRA.REPUL>
0

>  <SCORE.INTRA.REPUL.0>
0

>  <SCORE.INTRA.SOLV>
0

>  <SCORE.INTRA.SOLV.lig_0>
-29.307

>  <SCORE.INTRA.VDW>
0

>  <SCORE.INTRA.VDW.0>
0

>  <SCORE.INTRA.norm>
0

>  <SCORE.RESTR>
0

>  <SCORE.RESTR.CAVITY>
0

>  <SCORE.RESTR.norm>
0

>  <SCORE.SYSTEM>
0

>  <SCORE.SYSTEM.CONST>
0

>  <SCORE.SYSTEM.DIHEDRAL>
0

>  <SCORE.SYSTEM.SOLV>
0

>  <SCORE.SYSTEM.norm>
0

>  <SCORE.heavy>
11

>  <SCORE.norm>
-0.721595

>  <RMSD>
12.388

$$$$
ligand
 OpenBabel11021811503D
libRbt.so/2013.1/901 2013/11/27
 11 12  0  0  0  0  0  0  0  0999 V2000
    1.8797  -25.3290   14.2201 N   0  0  0  0  0  0  0  0  0  0  0  0
    2.1725  -26.1739   13.2158 C   0  0  0  0  0  0  0  0  0  0  0  0
    2.2289  -25.7020   11.8698 N   0  0  0  0  0  0  0  0  0  0  0  0
    2.4271  -27.4684   13.4286 N   0  0  0  0  0  0  0  0  0  0  0  0
    2.3810  -28.0012   14.6945 C   0  0  0  0  0  0  0  0  0  0  0  0
    2.0854  -27.1669   15.7506 C   0  0  0  0  0  0  0  0  0  0  0  0
    1.8360  -25.7879   15.4941 C   0  0  0  0  0  0  0  0  0  0  0  0
    1.5351  -24.9443   16.5401 O   0  0  0  0  0  0  0  0  0  0  0  0
    2.1199  -27.9794   16.9282 C   0  0  0  0  0  0  0  0  0  0  0  0
    2.4333  -29.2789   16.5059 C   0  0  0  0  0  0  0  0  0  0  0  0
    2.5842  -29.2752   15.1754 N   0  0  0  0  0  0  0  0  0  0  0  0
  1  2  1  0  0  0  0
  1  7  1  0  0  0  0
  2  3  1  0  0  0  0
  2  4  2  0  0  0  0
  4  5  1  0  0  0  0
  5  6  2  0  0  0  0
  5 11  1  0  0  0  0
  6  7  1  0  0  0  0
  6  9  1  0  0  0  0
  7  8  2  0  0  0  0
  9 10  2  0  0  0  0
 10 11  1  0  0  0  0
M  END
>  <CHROM.1>
2.14292883,-26.94888957,14.87104081,1.81529838,1.33825949,-1.06075997

>  <Name>
ligand

>  <RI>
0

>  <Rbt.Current_Directory>
/home/itssahil/PROJECTS/Mol_Feturizer/New_Systems/rnas/4LVW

>  <Rbt.Executable>
rbdock ($Id: //depot/dev/client3/rdock/2013.1/src/exe/rbdock.cxx#4 $)

>  <Rbt.Library>
libRbt.so (2013.1, Build901 2013/11/27)

>  <Rbt.Parameter_File>
/export/apps/rDock/src/rDock_2013.1_src/data/scripts/dock_solv.prm

>  <Rbt.Receptor>
prm/blind_docking_40.prm

>  <SCORE>
-8.06664

>  <SCORE.INTER>
-8.06664

>  <SCORE.INTER.CONST>
1

>  <SCORE.INTER.POLAR>
0

>  <SCORE.INTER.ROT>
0

>  <SCORE.INTER.SOLV>
4.13245

>  <SCORE.INTER.VDW>
-10.3552

>  <SCORE.INTER.norm>
-0.733331

>  <SCORE.INTRA>
0

>  <SCORE.INTRA.DIHEDRAL>
0

>  <SCORE.INTRA.DIHEDRAL.0>
0

>  <SCORE.INTRA.POLAR>
0

>  <SCORE.INTRA.POLAR.0>
0

>  <SCORE.INTRA.REPUL>
0

>  <SCORE.INTRA.REPUL.0>
0

>  <SCORE.INTRA.SOLV>
0

>  <SCORE.INTRA.SOLV.lig_0>
-29.307

>  <SCORE.INTRA.VDW>
0

>  <SCORE.INTRA.VDW.0>
0

>  <SCORE.INTRA.norm>
0

>  <SCORE.RESTR>
0

>  <SCORE.RESTR.CAVITY>
0

>  <SCORE.RESTR.norm>
0

>  <SCORE.SYSTEM>
0

>  <SCORE.SYSTEM.CONST>
0

>  <SCORE.SYSTEM.DIHEDRAL>
0

>  <SCORE.SYSTEM.SOLV>
0

>  <SCORE.SYSTEM.norm>
0

>  <SCORE.heavy>
11

>  <SCORE.norm>
-0.733331

>  <RMSD>
12.408

$$$$
ligand
 OpenBabel11021811503D
libRbt.so/2013.1/901 2013/11/27
 11 12  0  0  0  0  0  0  0  0999 V2000
   -7.9289  -27.7616   30.9655 N   0  0  0  0  0  0  0  0  0  0  0  0
   -8.4187  -26.9684   31.9347 C   0  0  0  0  0  0  0  0  0  0  0  0
   -9.7042  -27.2282   32.4981 N   0  0  0  0  0  0  0  0  0  0  0  0
   -7.7339  -25.9246   32.4114 N   0  0  0  0  0  0  0  0  0  0  0  0
   -6.4947  -25.6022   31.9125 C   0  0  0  0  0  0  0  0  0  0  0  0
   -5.9580  -26.3920   30.9190 C   0  0  0  0  0  0  0  0  0  0  0  0
   -6.7045  -27.5084   30.4437 C   0  0  0  0  0  0  0  0  0  0  0  0
   -6.1815  -28.3032   29.4481 O   0  0  0  0  0  0  0  0  0  0  0  0
   -4.6765  -25.8352   30.6093 C   0  0  0  0  0  0  0  0  0  0  0  0
   -4.5152  -24.7201   31.4435 C   0  0  0  0  0  0  0  0  0  0  0  0
   -5.6051  -24.5946   32.2112 N   0  0  0  0  0  0  0  0  0  0  0  0
  1  2  1  0  0  0  0
  1  7  1  0  0  0  0
  2  3  1  0  0  0  0
  2  4  2  0  0  0  0
  4  5  1  0  0  0  0
  5  6  2  0  0  0  0
  5 11  1  0  0  0  0
  6  7  1  0  0  0  0
  6  9  1  0  0  0  0
  7  8  2  0  0  0  0
  9 10  2  0  0  0  0
 10 11  1  0  0  0  0
M  END
>  <CHROM.1>
-6.76187493,-26.48799542,31.33014557,-2.83496249,0.43685260,0.69943571

>  <Name>
ligand

>  <RI>
0

>  <Rbt.Current_Directory>
/home/itssahil/PROJECTS/Mol_Feturizer/New_Systems/rnas/4LVW

>  <Rbt.Executable>
rbdock ($Id: //depot/dev/client3/rdock/2013.1/src/exe/rbdock.cxx#4 $)

>  <Rbt.Library>
libRbt.so (2013.1, Build901 2013/11/27)

>  <Rbt.Parameter_File>
/export/apps/rDock/src/rDock_2013.1_src/data/scripts/dock_solv.prm

>  <Rbt.Receptor>
prm/blind_docking_100.prm

>  <SCORE>
-8.61287

>  <SCORE.INTER>
-8.61287

>  <SCORE.INTER.CONST>
1

>  <SCORE.INTER.POLAR>
0

>  <SCORE.INTER.ROT>
0

>  <SCORE.INTER.SOLV>
3.34895

>  <SCORE.INTER.VDW>
-10.4582

>  <SCORE.INTER.norm>
-0.782988

>  <SCORE.INTRA>
0

>  <SCORE.INTRA.DIHEDRAL>
0

>  <SCORE.INTRA.DIHEDRAL.0>
0

>  <SCORE.INTRA.POLAR>
0

>  <SCORE.INTRA.POLAR.0>
0

>  <SCORE.INTRA.REPUL>
0

>  <SCORE.INTRA.REPUL.0>
0

>  <SCORE.INTRA.SOLV>
0

>  <SCORE.INTRA.SOLV.lig_0>
-29.307

>  <SCORE.INTRA.VDW>
0

>  <SCORE.INTRA.VDW.0>
0

>  <SCORE.INTRA.norm>
0

>  <SCORE.RESTR>
0

>  <SCORE.RESTR.CAVITY>
0

>  <SCORE.RESTR.norm>
0

>  <SCORE.SYSTEM>
0

>  <SCORE.SYSTEM.CONST>
0

>  <SCORE.SYSTEM.DIHEDRAL>
0

>  <SCORE.SYSTEM.SOLV>
0

>  <SCORE.SYSTEM.norm>
0

>  <SCORE.heavy>
11

>  <SCORE.norm>
-0.782988

>  <RMSD>
12.492

$$$$
ligand
 OpenBabel11021811503D
libRbt.so/2013.1/901 2013/11/27
 11 12  0  0  0  0  0  0  0  0999 V2000
    0.9077  -25.5726   13.9384 N   0  0  0  0  0  0  0  0  0  0  0  0
    1.4785  -26.3537   13.0044 C   0  0  0  0  0  0  0  0  0  0  0  0
    1.4264  -25.9853   11.6263 N   0  0  0  0  0  0  0  0  0  0  0  0
    2.1157  -27.4855   13.3184 N   0  0  0  0  0  0  0  0  0  0  0  0
    2.1989  -27.9141   14.6214 C   0  0  0  0  0  0  0  0  0  0  0  0
    1.6272  -27.1402   15.6079 C   0  0  0  0  0  0  0  0  0  0  0  0
    0.9700  -25.9298   15.2437 C   0  0  0  0  0  0  0  0  0  0  0  0
    0.3908  -25.1494   16.2194 O   0  0  0  0  0  0  0  0  0  0  0  0
    1.8765  -27.8151   16.8451 C   0  0  0  0  0  0  0  0  0  0  0  0
    2.5903  -28.9787   16.5266 C   0  0  0  0  0  0  0  0  0  0  0  0
    2.7729  -29.0235   15.2009 N   0  0  0  0  0  0  0  0  0  0  0  0
  1  2  1  0  0  0  0
  1  7  1  0  0  0  0
  2  3  1  0  0  0  0
  2  4  2  0  0  0  0
  4  5  1  0  0  0  0
  5  6  2  0  0  0  0
  5 11  1  0  0  0  0
  6  7  1  0  0  0  0
  6  9  1  0  0  0  0
  7  8  2  0  0  0  0
  9 10  2  0  0  0  0
 10 11  1  0  0  0  0
M  END
>  <CHROM.1>
1.64085276,-26.97869453,14.71444413,2.06195166,1.03284654,-1.36865429

>  <Name>
ligand

>  <RI>
0

>  <Rbt.Current_Directory>
/home/itssahil/PROJECTS/Mol_Feturizer/New_Systems/rnas/4LVW

>  <Rbt.Executable>
rbdock ($Id: //depot/dev/client3/rdock/2013.1/src/exe/rbdock.cxx#4 $)

>  <Rbt.Library>
libRbt.so (2013.1, Build901 2013/11/27)

>  <Rbt.Parameter_File>
/export/apps/rDock/src/rDock_2013.1_src/data/scripts/dock_solv.prm

>  <Rbt.Receptor>
prm/blind_docking_40.prm

>  <SCORE>
-8.0198

>  <SCORE.INTER>
-8.0198

>  <SCORE.INTER.CONST>
1

>  <SCORE.INTER.POLAR>
0

>  <SCORE.INTER.ROT>
0

>  <SCORE.INTER.SOLV>
3.13982

>  <SCORE.INTER.VDW>
-9.99314

>  <SCORE.INTER.norm>
-0.729073

>  <SCORE.INTRA>
0

>  <SCORE.INTRA.DIHEDRAL>
0

>  <SCORE.INTRA.DIHEDRAL.0>
0

>  <SCORE.INTRA.POLAR>
0

>  <SCORE.INTRA.POLAR.0>
0

>  <SCORE.INTRA.REPUL>
0

>  <SCORE.INTRA.REPUL.0>
0

>  <SCORE.INTRA.SOLV>
0

>  <SCORE.INTRA.SOLV.lig_0>
-29.307

>  <SCORE.INTRA.VDW>
0

>  <SCORE.INTRA.VDW.0>
0

>  <SCORE.INTRA.norm>
0

>  <SCORE.RESTR>
0

>  <SCORE.RESTR.CAVITY>
0

>  <SCORE.RESTR.norm>
0

>  <SCORE.SYSTEM>
0

>  <SCORE.SYSTEM.CONST>
0

>  <SCORE.SYSTEM.DIHEDRAL>
0

>  <SCORE.SYSTEM.SOLV>
0

>  <SCORE.SYSTEM.norm>
0

>  <SCORE.heavy>
11

>  <SCORE.norm>
-0.729073

>  <RMSD>
12.539

$$$$
ligand
 OpenBabel11021811503D
libRbt.so/2013.1/901 2013/11/27
 11 12  0  0  0  0  0  0  0  0999 V2000
    4.7064  -31.0775   18.4555 N   0  0  0  0  0  0  0  0  0  0  0  0
    4.7677  -29.8785   19.0611 C   0  0  0  0  0  0  0  0  0  0  0  0
    5.6279  -29.6804   20.1828 N   0  0  0  0  0  0  0  0  0  0  0  0
    4.0456  -28.8345   18.6433 N   0  0  0  0  0  0  0  0  0  0  0  0
    3.1855  -28.9484   17.5776 C   0  0  0  0  0  0  0  0  0  0  0  0
    3.0954  -30.1613   16.9298 C   0  0  0  0  0  0  0  0  0  0  0  0
    3.8911  -31.2509   17.3874 C   0  0  0  0  0  0  0  0  0  0  0  0
    3.8072  -32.4694   16.7516 O   0  0  0  0  0  0  0  0  0  0  0  0
    2.1491  -29.9835   15.8710 C   0  0  0  0  0  0  0  0  0  0  0  0
    1.7120  -28.6538   15.9472 C   0  0  0  0  0  0  0  0  0  0  0  0
    2.3366  -28.0523   16.9675 N   0  0  0  0  0  0  0  0  0  0  0  0
  1  2  1  0  0  0  0
  1  7  1  0  0  0  0
  2  3  1  0  0  0  0
  2  4  2  0  0  0  0
  4  5  1  0  0  0  0
  5  6  2  0  0  0  0
  5 11  1  0  0  0  0
  6  7  1  0  0  0  0
  6  9  1  0  0  0  0
  7  8  2  0  0  0  0
  9 10  2  0  0  0  0
 10 11  1  0  0  0  0
M  END
>  <CHROM.1>
3.61485875,-29.95159556,17.64442040,-0.04178606,0.83030613,-2.72169436

>  <Name>
ligand

>  <RI>
0

>  <Rbt.Current_Directory>
/home/itssahil/PROJECTS/Mol_Feturizer/New_Systems/rnas/4LVW

>  <Rbt.Executable>
rbdock ($Id: //depot/dev/client3/rdock/2013.1/src/exe/rbdock.cxx#4 $)

>  <Rbt.Library>
libRbt.so (2013.1, Build901 2013/11/27)

>  <Rbt.Parameter_File>
/export/apps/rDock/src/rDock_2013.1_src/data/scripts/dock_solv.prm

>  <Rbt.Receptor>
prm/blind_docking_40.prm

>  <SCORE>
-8.94866

>  <SCORE.INTER>
-8.94866

>  <SCORE.INTER.CONST>
1

>  <SCORE.INTER.POLAR>
0

>  <SCORE.INTER.ROT>
0

>  <SCORE.INTER.SOLV>
5.70727

>  <SCORE.INTER.VDW>
-11.4682

>  <SCORE.INTER.norm>
-0.813515

>  <SCORE.INTRA>
0

>  <SCORE.INTRA.DIHEDRAL>
0

>  <SCORE.INTRA.DIHEDRAL.0>
0

>  <SCORE.INTRA.POLAR>
0

>  <SCORE.INTRA.POLAR.0>
0

>  <SCORE.INTRA.REPUL>
0

>  <SCORE.INTRA.REPUL.0>
0

>  <SCORE.INTRA.SOLV>
0

>  <SCORE.INTRA.SOLV.lig_0>
-29.307

>  <SCORE.INTRA.VDW>
0

>  <SCORE.INTRA.VDW.0>
0

>  <SCORE.INTRA.norm>
0

>  <SCORE.RESTR>
0

>  <SCORE.RESTR.CAVITY>
0

>  <SCORE.RESTR.norm>
0

>  <SCORE.SYSTEM>
0

>  <SCORE.SYSTEM.CONST>
0

>  <SCORE.SYSTEM.DIHEDRAL>
0

>  <SCORE.SYSTEM.SOLV>
0

>  <SCORE.SYSTEM.norm>
0

>  <SCORE.heavy>
11

>  <SCORE.norm>
-0.813515

>  <RMSD>
12.540

$$$$
ligand
 OpenBabel11021811503D
libRbt.so/2013.1/901 2013/11/27
 11 12  0  0  0  0  0  0  0  0999 V2000
   -4.7702  -30.4961   28.3297 N   0  0  0  0  0  0  0  0  0  0  0  0
   -3.7001  -29.6819   28.3159 C   0  0  0  0  0  0  0  0  0  0  0  0
   -2.5894  -29.9652   27.4653 N   0  0  0  0  0  0  0  0  0  0  0  0
   -3.6320  -28.5862   29.0779 N   0  0  0  0  0  0  0  0  0  0  0  0
   -4.6555  -28.2518   29.9317 C   0  0  0  0  0  0  0  0  0  0  0  0
   -5.7701  -29.0609   29.9737 C   0  0  0  0  0  0  0  0  0  0  0  0
   -5.8210  -30.2124   29.1364 C   0  0  0  0  0  0  0  0  0  0  0  0
   -6.9273  -31.0317   29.1719 O   0  0  0  0  0  0  0  0  0  0  0  0
   -6.6614  -28.4704   30.9251 C   0  0  0  0  0  0  0  0  0  0  0  0
   -6.0190  -27.3243   31.4139 C   0  0  0  0  0  0  0  0  0  0  0  0
   -4.8273  -27.2091   30.8144 N   0  0  0  0  0  0  0  0  0  0  0  0
  1  2  1  0  0  0  0
  1  7  1  0  0  0  0
  2  3  1  0  0  0  0
  2  4  2  0  0  0  0
  4  5  1  0  0  0  0
  5  6  2  0  0  0  0
  5 11  1  0  0  0  0
  6  7  1  0  0  0  0
  6  9  1  0  0  0  0
  7  8  2  0  0  0  0
  9 10  2  0  0  0  0
 10 11  1  0  0  0  0
M  END
>  <CHROM.1>
-5.02655263,-29.16732910,29.46354336,0.96313743,-0.43366103,-2.50088221

>  <Name>
ligand

>  <RI>
0

>  <Rbt.Current_Directory>
/home/itssahil/PROJECTS/Mol_Feturizer/New_Systems/rnas/4LVW

>  <Rbt.Executable>
rbdock ($Id: //depot/dev/client3/rdock/2013.1/src/exe/rbdock.cxx#4 $)

>  <Rbt.Library>
libRbt.so (2013.1, Build901 2013/11/27)

>  <Rbt.Parameter_File>
/export/apps/rDock/src/rDock_2013.1_src/data/scripts/dock_solv.prm

>  <Rbt.Receptor>
prm/blind_docking_100.prm

>  <SCORE>
-9.23271

>  <SCORE.INTER>
-9.23271

>  <SCORE.INTER.CONST>
1

>  <SCORE.INTER.POLAR>
0

>  <SCORE.INTER.ROT>
0

>  <SCORE.INTER.SOLV>
9.38698

>  <SCORE.INTER.VDW>
-12.8841

>  <SCORE.INTER.norm>
-0.839338

>  <SCORE.INTRA>
0

>  <SCORE.INTRA.DIHEDRAL>
0

>  <SCORE.INTRA.DIHEDRAL.0>
0

>  <SCORE.INTRA.POLAR>
0

>  <SCORE.INTRA.POLAR.0>
0

>  <SCORE.INTRA.REPUL>
0

>  <SCORE.INTRA.REPUL.0>
0

>  <SCORE.INTRA.SOLV>
0

>  <SCORE.INTRA.SOLV.lig_0>
-29.307

>  <SCORE.INTRA.VDW>
0

>  <SCORE.INTRA.VDW.0>
0

>  <SCORE.INTRA.norm>
0

>  <SCORE.RESTR>
0

>  <SCORE.RESTR.CAVITY>
0

>  <SCORE.RESTR.norm>
0

>  <SCORE.SYSTEM>
0

>  <SCORE.SYSTEM.CONST>
0

>  <SCORE.SYSTEM.DIHEDRAL>
0

>  <SCORE.SYSTEM.SOLV>
0

>  <SCORE.SYSTEM.norm>
0

>  <SCORE.heavy>
11

>  <SCORE.norm>
-0.839338

>  <RMSD>
12.551

$$$$
ligand
 OpenBabel11021811503D
libRbt.so/2013.1/901 2013/11/27
 11 12  0  0  0  0  0  0  0  0999 V2000
   -8.0490  -27.7415   30.9896 N   0  0  0  0  0  0  0  0  0  0  0  0
   -8.4984  -26.9504   31.9798 C   0  0  0  0  0  0  0  0  0  0  0  0
   -9.7816  -27.1811   32.5609 N   0  0  0  0  0  0  0  0  0  0  0  0
   -7.7746  -25.9356   32.4616 N   0  0  0  0  0  0  0  0  0  0  0  0
   -6.5347  -25.6420   31.9469 C   0  0  0  0  0  0  0  0  0  0  0  0
   -6.0387  -26.4307   30.9316 C   0  0  0  0  0  0  0  0  0  0  0  0
   -6.8264  -27.5162   30.4511 C   0  0  0  0  0  0  0  0  0  0  0  0
   -6.3442  -28.3094   29.4339 O   0  0  0  0  0  0  0  0  0  0  0  0
   -4.7464  -25.9072   30.6091 C   0  0  0  0  0  0  0  0  0  0  0  0
   -4.5377  -24.8116   31.4583 C   0  0  0  0  0  0  0  0  0  0  0  0
   -5.6104  -24.6665   32.2465 N   0  0  0  0  0  0  0  0  0  0  0  0
  1  2  1  0  0  0  0
  1  7  1  0  0  0  0
  2  3  1  0  0  0  0
  2  4  2  0  0  0  0
  4  5  1  0  0  0  0
  5  6  2  0  0  0  0
  5 11  1  0  0  0  0
  6  7  1  0  0  0  0
  6  9  1  0  0  0  0
  7  8  2  0  0  0  0
  9 10  2  0  0  0  0
 10 11  1  0  0  0  0
M  END
>  <CHROM.1>
-6.83816826,-26.50952092,31.35484184,-2.87211517,0.42993997,0.73155153

>  <Name>
ligand

>  <RI>
0

>  <Rbt.Current_Directory>
/home/itssahil/PROJECTS/Mol_Feturizer/New_Systems/rnas/4LVW

>  <Rbt.Executable>
rbdock ($Id: //depot/dev/client3/rdock/2013.1/src/exe/rbdock.cxx#4 $)

>  <Rbt.Library>
libRbt.so (2013.1, Build901 2013/11/27)

>  <Rbt.Parameter_File>
/export/apps/rDock/src/rDock_2013.1_src/data/scripts/dock_solv.prm

>  <Rbt.Receptor>
prm/blind_docking_80.prm

>  <SCORE>
-8.57294

>  <SCORE.INTER>
-8.57294

>  <SCORE.INTER.CONST>
1

>  <SCORE.INTER.POLAR>
0

>  <SCORE.INTER.ROT>
0

>  <SCORE.INTER.SOLV>
3.20508

>  <SCORE.INTER.VDW>
-10.3837

>  <SCORE.INTER.norm>
-0.779358

>  <SCORE.INTRA>
0

>  <SCORE.INTRA.DIHEDRAL>
0

>  <SCORE.INTRA.DIHEDRAL.0>
0

>  <SCORE.INTRA.POLAR>
0

>  <SCORE.INTRA.POLAR.0>
0

>  <SCORE.INTRA.REPUL>
0

>  <SCORE.INTRA.REPUL.0>
0

>  <SCORE.INTRA.SOLV>
0

>  <SCORE.INTRA.SOLV.lig_0>
-29.307

>  <SCORE.INTRA.VDW>
0

>  <SCORE.INTRA.VDW.0>
0

>  <SCORE.INTRA.norm>
0

>  <SCORE.RESTR>
0

>  <SCORE.RESTR.CAVITY>
0

>  <SCORE.RESTR.norm>
0

>  <SCORE.SYSTEM>
0

>  <SCORE.SYSTEM.CONST>
0

>  <SCORE.SYSTEM.DIHEDRAL>
0

>  <SCORE.SYSTEM.SOLV>
0

>  <SCORE.SYSTEM.norm>
0

>  <SCORE.heavy>
11

>  <SCORE.norm>
-0.779358

>  <RMSD>
12.567

$$$$
ligand
 OpenBabel11021811503D
libRbt.so/2013.1/901 2013/11/27
 11 12  0  0  0  0  0  0  0  0999 V2000
   -7.5039  -26.8185   30.5166 N   0  0  0  0  0  0  0  0  0  0  0  0
   -6.2651  -26.5105   30.9395 C   0  0  0  0  0  0  0  0  0  0  0  0
   -6.0394  -25.3322   31.7129 N   0  0  0  0  0  0  0  0  0  0  0  0
   -5.2094  -27.2832   30.6671 N   0  0  0  0  0  0  0  0  0  0  0  0
   -5.3431  -28.4278   29.9184 C   0  0  0  0  0  0  0  0  0  0  0  0
   -6.5972  -28.7780   29.4674 C   0  0  0  0  0  0  0  0  0  0  0  0
   -7.7061  -27.9434   29.7891 C   0  0  0  0  0  0  0  0  0  0  0  0
   -8.9640  -28.2797   29.3409 O   0  0  0  0  0  0  0  0  0  0  0  0
   -6.4373  -29.9998   28.7395 C   0  0  0  0  0  0  0  0  0  0  0  0
   -5.0727  -30.3169   28.7895 C   0  0  0  0  0  0  0  0  0  0  0  0
   -4.4359  -29.3721   29.4929 N   0  0  0  0  0  0  0  0  0  0  0  0
  1  2  1  0  0  0  0
  1  7  1  0  0  0  0
  2  3  1  0  0  0  0
  2  4  2  0  0  0  0
  4  5  1  0  0  0  0
  5  6  2  0  0  0  0
  5 11  1  0  0  0  0
  6  7  1  0  0  0  0
  6  9  1  0  0  0  0
  7  8  2  0  0  0  0
  9 10  2  0  0  0  0
 10 11  1  0  0  0  0
M  END
>  <CHROM.1>
-6.36872717,-28.05202110,29.96264622,1.83196923,-0.15555838,0.55683570

>  <Name>
ligand

>  <RI>
0

>  <Rbt.Current_Directory>
/home/itssahil/PROJECTS/Mol_Feturizer/New_Systems/rnas/4LVW

>  <Rbt.Executable>
rbdock ($Id: //depot/dev/client3/rdock/2013.1/src/exe/rbdock.cxx#4 $)

>  <Rbt.Library>
libRbt.so (2013.1, Build901 2013/11/27)

>  <Rbt.Parameter_File>
/export/apps/rDock/src/rDock_2013.1_src/data/scripts/dock_solv.prm

>  <Rbt.Receptor>
prm/blind_docking_60.prm

>  <SCORE>
-11.3102

>  <SCORE.INTER>
-11.3102

>  <SCORE.INTER.CONST>
1

>  <SCORE.INTER.POLAR>
0

>  <SCORE.INTER.ROT>
0

>  <SCORE.INTER.SOLV>
4.89833

>  <SCORE.INTER.VDW>
-12.7729

>  <SCORE.INTER.norm>
-1.0282

>  <SCORE.INTRA>
0

>  <SCORE.INTRA.DIHEDRAL>
0

>  <SCORE.INTRA.DIHEDRAL.0>
0

>  <SCORE.INTRA.POLAR>
0

>  <SCORE.INTRA.POLAR.0>
0

>  <SCORE.INTRA.REPUL>
0

>  <SCORE.INTRA.REPUL.0>
0

>  <SCORE.INTRA.SOLV>
0

>  <SCORE.INTRA.SOLV.lig_0>
-29.307

>  <SCORE.INTRA.VDW>
0

>  <SCORE.INTRA.VDW.0>
0

>  <SCORE.INTRA.norm>
0

>  <SCORE.RESTR>
0

>  <SCORE.RESTR.CAVITY>
0

>  <SCORE.RESTR.norm>
0

>  <SCORE.SYSTEM>
0

>  <SCORE.SYSTEM.CONST>
0

>  <SCORE.SYSTEM.DIHEDRAL>
0

>  <SCORE.SYSTEM.SOLV>
0

>  <SCORE.SYSTEM.norm>
0

>  <SCORE.heavy>
11

>  <SCORE.norm>
-1.0282

>  <RMSD>
12.569

$$$$
ligand
 OpenBabel11021811503D
libRbt.so/2013.1/901 2013/11/27
 11 12  0  0  0  0  0  0  0  0999 V2000
    1.1590  -25.5114   13.9655 N   0  0  0  0  0  0  0  0  0  0  0  0
    1.6003  -26.3312   12.9953 C   0  0  0  0  0  0  0  0  0  0  0  0
    1.5486  -25.9239   11.6282 N   0  0  0  0  0  0  0  0  0  0  0  0
    2.1056  -27.5393   13.2621 N   0  0  0  0  0  0  0  0  0  0  0  0
    2.1784  -28.0082   14.5517 C   0  0  0  0  0  0  0  0  0  0  0  0
    1.7369  -27.1968   15.5743 C   0  0  0  0  0  0  0  0  0  0  0  0
    1.2198  -25.9071   15.2599 C   0  0  0  0  0  0  0  0  0  0  0  0
    0.7712  -25.0881   16.2720 O   0  0  0  0  0  0  0  0  0  0  0  0
    1.9425  -27.9284   16.7870 C   0  0  0  0  0  0  0  0  0  0  0  0
    2.4993  -29.1610   16.4184 C   0  0  0  0  0  0  0  0  0  0  0  0
    2.6321  -29.1932   15.0864 N   0  0  0  0  0  0  0  0  0  0  0  0
  1  2  1  0  0  0  0
  1  7  1  0  0  0  0
  2  3  1  0  0  0  0
  2  4  2  0  0  0  0
  4  5  1  0  0  0  0
  5  6  2  0  0  0  0
  5 11  1  0  0  0  0
  6  7  1  0  0  0  0
  6  9  1  0  0  0  0
  7  8  2  0  0  0  0
  9 10  2  0  0  0  0
 10 11  1  0  0  0  0
M  END
>  <CHROM.1>
1.74104825,-27.01513432,14.68462695,2.08038127,1.15832503,-1.36124448

>  <Name>
ligand

>  <RI>
0

>  <Rbt.Current_Directory>
/home/itssahil/PROJECTS/Mol_Feturizer/New_Systems/rnas/4LVW

>  <Rbt.Executable>
rbdock ($Id: //depot/dev/client3/rdock/2013.1/src/exe/rbdock.cxx#4 $)

>  <Rbt.Library>
libRbt.so (2013.1, Build901 2013/11/27)

>  <Rbt.Parameter_File>
/export/apps/rDock/src/rDock_2013.1_src/data/scripts/dock_solv.prm

>  <Rbt.Receptor>
prm/blind_docking_40.prm

>  <SCORE>
-7.95522

>  <SCORE.INTER>
-7.95522

>  <SCORE.INTER.CONST>
1

>  <SCORE.INTER.POLAR>
0

>  <SCORE.INTER.ROT>
0

>  <SCORE.INTER.SOLV>
3.27884

>  <SCORE.INTER.VDW>
-9.99643

>  <SCORE.INTER.norm>
-0.723202

>  <SCORE.INTRA>
0

>  <SCORE.INTRA.DIHEDRAL>
0

>  <SCORE.INTRA.DIHEDRAL.0>
0

>  <SCORE.INTRA.POLAR>
0

>  <SCORE.INTRA.POLAR.0>
0

>  <SCORE.INTRA.REPUL>
0

>  <SCORE.INTRA.REPUL.0>
0

>  <SCORE.INTRA.SOLV>
0

>  <SCORE.INTRA.SOLV.lig_0>
-29.307

>  <SCORE.INTRA.VDW>
0

>  <SCORE.INTRA.VDW.0>
0

>  <SCORE.INTRA.norm>
0

>  <SCORE.RESTR>
0

>  <SCORE.RESTR.CAVITY>
0

>  <SCORE.RESTR.norm>
0

>  <SCORE.SYSTEM>
0

>  <SCORE.SYSTEM.CONST>
0

>  <SCORE.SYSTEM.DIHEDRAL>
0

>  <SCORE.SYSTEM.SOLV>
0

>  <SCORE.SYSTEM.norm>
0

>  <SCORE.heavy>
11

>  <SCORE.norm>
-0.723202

>  <RMSD>
12.580

$$$$
ligand
 OpenBabel11021811503D
libRbt.so/2013.1/901 2013/11/27
 11 12  0  0  0  0  0  0  0  0999 V2000
   -0.6503  -25.9042   13.1972 N   0  0  0  0  0  0  0  0  0  0  0  0
    0.1691  -25.3785   12.2695 C   0  0  0  0  0  0  0  0  0  0  0  0
   -0.3001  -25.1460   10.9417 N   0  0  0  0  0  0  0  0  0  0  0  0
    1.4343  -25.0484   12.5452 N   0  0  0  0  0  0  0  0  0  0  0  0
    1.9636  -25.2524   13.7969 C   0  0  0  0  0  0  0  0  0  0  0  0
    1.1548  -25.7883   14.7754 C   0  0  0  0  0  0  0  0  0  0  0  0
   -0.1949  -26.1137   14.4559 C   0  0  0  0  0  0  0  0  0  0  0  0
   -1.0124  -26.6539   15.4234 O   0  0  0  0  0  0  0  0  0  0  0  0
    1.9558  -25.8740   15.9583 C   0  0  0  0  0  0  0  0  0  0  0  0
    3.2234  -25.3825   15.6168 C   0  0  0  0  0  0  0  0  0  0  0  0
    3.2120  -25.0182   14.3284 N   0  0  0  0  0  0  0  0  0  0  0  0
  1  2  1  0  0  0  0
  1  7  1  0  0  0  0
  2  3  1  0  0  0  0
  2  4  2  0  0  0  0
  4  5  1  0  0  0  0
  5  6  2  0  0  0  0
  5 11  1  0  0  0  0
  6  7  1  0  0  0  0
  6  9  1  0  0  0  0
  7  8  2  0  0  0  0
  9 10  2  0  0  0  0
 10 11  1  0  0  0  0
M  END
>  <CHROM.1>
0.93635968,-25.60808610,13.91268095,2.34335888,-0.29283289,-1.29107096

>  <Name>
ligand

>  <RI>
0

>  <Rbt.Current_Directory>
/home/itssahil/PROJECTS/Mol_Feturizer/New_Systems/rnas/4LVW

>  <Rbt.Executable>
rbdock ($Id: //depot/dev/client3/rdock/2013.1/src/exe/rbdock.cxx#4 $)

>  <Rbt.Library>
libRbt.so (2013.1, Build901 2013/11/27)

>  <Rbt.Parameter_File>
/export/apps/rDock/src/rDock_2013.1_src/data/scripts/dock_solv.prm

>  <Rbt.Receptor>
prm/blind_docking_60.prm

>  <SCORE>
-9.38002

>  <SCORE.INTER>
-9.38002

>  <SCORE.INTER.CONST>
1

>  <SCORE.INTER.POLAR>
0

>  <SCORE.INTER.ROT>
0

>  <SCORE.INTER.SOLV>
3.96881

>  <SCORE.INTER.VDW>
-11.1763

>  <SCORE.INTER.norm>
-0.852729

>  <SCORE.INTRA>
0

>  <SCORE.INTRA.DIHEDRAL>
0

>  <SCORE.INTRA.DIHEDRAL.0>
0

>  <SCORE.INTRA.POLAR>
0

>  <SCORE.INTRA.POLAR.0>
0

>  <SCORE.INTRA.REPUL>
0

>  <SCORE.INTRA.REPUL.0>
0

>  <SCORE.INTRA.SOLV>
0

>  <SCORE.INTRA.SOLV.lig_0>
-29.307

>  <SCORE.INTRA.VDW>
0

>  <SCORE.INTRA.VDW.0>
0

>  <SCORE.INTRA.norm>
0

>  <SCORE.RESTR>
0

>  <SCORE.RESTR.CAVITY>
0

>  <SCORE.RESTR.norm>
0

>  <SCORE.SYSTEM>
0

>  <SCORE.SYSTEM.CONST>
0

>  <SCORE.SYSTEM.DIHEDRAL>
0

>  <SCORE.SYSTEM.SOLV>
0

>  <SCORE.SYSTEM.norm>
0

>  <SCORE.heavy>
11

>  <SCORE.norm>
-0.852729

>  <RMSD>
12.594

$$$$
ligand
 OpenBabel11021811503D
libRbt.so/2013.1/901 2013/11/27
 11 12  0  0  0  0  0  0  0  0999 V2000
    3.6790  -26.2925   13.4646 N   0  0  0  0  0  0  0  0  0  0  0  0
    2.7352  -26.6011   12.5578 C   0  0  0  0  0  0  0  0  0  0  0  0
    3.1065  -27.0700   11.2617 N   0  0  0  0  0  0  0  0  0  0  0  0
    1.4306  -26.4925   12.8260 N   0  0  0  0  0  0  0  0  0  0  0  0
    0.9933  -26.0373   14.0467 C   0  0  0  0  0  0  0  0  0  0  0  0
    1.9303  -25.7118   15.0032 C   0  0  0  0  0  0  0  0  0  0  0  0
    3.3135  -25.8549   14.6936 C   0  0  0  0  0  0  0  0  0  0  0  0
    4.2601  -25.5289   15.6391 O   0  0  0  0  0  0  0  0  0  0  0  0
    1.1978  -25.2879   16.1573 C   0  0  0  0  0  0  0  0  0  0  0  0
   -0.1603  -25.3781   15.8218 C   0  0  0  0  0  0  0  0  0  0  0  0
   -0.2649  -25.8240   14.5635 N   0  0  0  0  0  0  0  0  0  0  0  0
  1  2  1  0  0  0  0
  1  7  1  0  0  0  0
  2  3  1  0  0  0  0
  2  4  2  0  0  0  0
  4  5  1  0  0  0  0
  5  6  2  0  0  0  0
  5 11  1  0  0  0  0
  6  7  1  0  0  0  0
  6  9  1  0  0  0  0
  7  8  2  0  0  0  0
  9 10  2  0  0  0  0
 10 11  1  0  0  0  0
M  END
>  <CHROM.1>
2.08033181,-26.01680174,14.16124161,-0.88590414,-0.01786022,1.22726548

>  <Name>
ligand

>  <RI>
0

>  <Rbt.Current_Directory>
/home/itssahil/PROJECTS/Mol_Feturizer/New_Systems/rnas/4LVW

>  <Rbt.Executable>
rbdock ($Id: //depot/dev/client3/rdock/2013.1/src/exe/rbdock.cxx#4 $)

>  <Rbt.Library>
libRbt.so (2013.1, Build901 2013/11/27)

>  <Rbt.Parameter_File>
/export/apps/rDock/src/rDock_2013.1_src/data/scripts/dock_solv.prm

>  <Rbt.Receptor>
prm/blind_docking_40.prm

>  <SCORE>
-8.79913

>  <SCORE.INTER>
-8.79913

>  <SCORE.INTER.CONST>
1

>  <SCORE.INTER.POLAR>
0

>  <SCORE.INTER.ROT>
0

>  <SCORE.INTER.SOLV>
4.30995

>  <SCORE.INTER.VDW>
-10.9027

>  <SCORE.INTER.norm>
-0.799921

>  <SCORE.INTRA>
0

>  <SCORE.INTRA.DIHEDRAL>
0

>  <SCORE.INTRA.DIHEDRAL.0>
0

>  <SCORE.INTRA.POLAR>
0

>  <SCORE.INTRA.POLAR.0>
0

>  <SCORE.INTRA.REPUL>
0

>  <SCORE.INTRA.REPUL.0>
0

>  <SCORE.INTRA.SOLV>
0

>  <SCORE.INTRA.SOLV.lig_0>
-29.307

>  <SCORE.INTRA.VDW>
0

>  <SCORE.INTRA.VDW.0>
0

>  <SCORE.INTRA.norm>
0

>  <SCORE.RESTR>
0

>  <SCORE.RESTR.CAVITY>
0

>  <SCORE.RESTR.norm>
0

>  <SCORE.SYSTEM>
0

>  <SCORE.SYSTEM.CONST>
0

>  <SCORE.SYSTEM.DIHEDRAL>
0

>  <SCORE.SYSTEM.SOLV>
0

>  <SCORE.SYSTEM.norm>
0

>  <SCORE.heavy>
11

>  <SCORE.norm>
-0.799921

>  <RMSD>
12.637

$$$$
ligand
 OpenBabel11021811503D
libRbt.so/2013.1/901 2013/11/27
 11 12  0  0  0  0  0  0  0  0999 V2000
   -7.5409  -26.7989   30.5087 N   0  0  0  0  0  0  0  0  0  0  0  0
   -6.2990  -26.5292   30.9484 C   0  0  0  0  0  0  0  0  0  0  0  0
   -6.0456  -25.3530   31.7163 N   0  0  0  0  0  0  0  0  0  0  0  0
   -5.2659  -27.3390   30.6981 N   0  0  0  0  0  0  0  0  0  0  0  0
   -5.4265  -28.4844   29.9560 C   0  0  0  0  0  0  0  0  0  0  0  0
   -6.6847  -28.7960   29.4883 C   0  0  0  0  0  0  0  0  0  0  0  0
   -7.7697  -27.9222   29.7866 C   0  0  0  0  0  0  0  0  0  0  0  0
   -9.0312  -28.2197   29.3216 O   0  0  0  0  0  0  0  0  0  0  0  0
   -6.5549  -30.0282   28.7721 C   0  0  0  0  0  0  0  0  0  0  0  0
   -5.2027  -30.3905   28.8455 C   0  0  0  0  0  0  0  0  0  0  0  0
   -4.5452  -29.4620   29.5515 N   0  0  0  0  0  0  0  0  0  0  0  0
  1  2  1  0  0  0  0
  1  7  1  0  0  0  0
  2  3  1  0  0  0  0
  2  4  2  0  0  0  0
  4  5  1  0  0  0  0
  5  6  2  0  0  0  0
  5 11  1  0  0  0  0
  6  7  1  0  0  0  0
  6  9  1  0  0  0  0
  7  8  2  0  0  0  0
  9 10  2  0  0  0  0
 10 11  1  0  0  0  0
M  END
>  <CHROM.1>
-6.43952782,-28.07417021,29.98159142,1.81108824,-0.18616175,0.54556767

>  <Name>
ligand

>  <RI>
0

>  <Rbt.Current_Directory>
/home/itssahil/PROJECTS/Mol_Feturizer/New_Systems/rnas/4LVW

>  <Rbt.Executable>
rbdock ($Id: //depot/dev/client3/rdock/2013.1/src/exe/rbdock.cxx#4 $)

>  <Rbt.Library>
libRbt.so (2013.1, Build901 2013/11/27)

>  <Rbt.Parameter_File>
/export/apps/rDock/src/rDock_2013.1_src/data/scripts/dock_solv.prm

>  <Rbt.Receptor>
prm/blind_docking_100.prm

>  <SCORE>
-11.3515

>  <SCORE.INTER>
-11.3515

>  <SCORE.INTER.CONST>
1

>  <SCORE.INTER.POLAR>
0

>  <SCORE.INTER.ROT>
0

>  <SCORE.INTER.SOLV>
4.7736

>  <SCORE.INTER.VDW>
-12.7589

>  <SCORE.INTER.norm>
-1.03196

>  <SCORE.INTRA>
0

>  <SCORE.INTRA.DIHEDRAL>
0

>  <SCORE.INTRA.DIHEDRAL.0>
0

>  <SCORE.INTRA.POLAR>
0

>  <SCORE.INTRA.POLAR.0>
0

>  <SCORE.INTRA.REPUL>
0

>  <SCORE.INTRA.REPUL.0>
0

>  <SCORE.INTRA.SOLV>
0

>  <SCORE.INTRA.SOLV.lig_0>
-29.307

>  <SCORE.INTRA.VDW>
0

>  <SCORE.INTRA.VDW.0>
0

>  <SCORE.INTRA.norm>
0

>  <SCORE.RESTR>
0

>  <SCORE.RESTR.CAVITY>
0

>  <SCORE.RESTR.norm>
0

>  <SCORE.SYSTEM>
0

>  <SCORE.SYSTEM.CONST>
0

>  <SCORE.SYSTEM.DIHEDRAL>
0

>  <SCORE.SYSTEM.SOLV>
0

>  <SCORE.SYSTEM.norm>
0

>  <SCORE.heavy>
11

>  <SCORE.norm>
-1.03196

>  <RMSD>
12.643

$$$$
ligand
 OpenBabel11021811503D
libRbt.so/2013.1/901 2013/11/27
 11 12  0  0  0  0  0  0  0  0999 V2000
   -7.5801  -26.7816   30.5658 N   0  0  0  0  0  0  0  0  0  0  0  0
   -6.3495  -26.5015   31.0300 C   0  0  0  0  0  0  0  0  0  0  0  0
   -6.1244  -25.3317   31.8163 N   0  0  0  0  0  0  0  0  0  0  0  0
   -5.3019  -27.2949   30.7876 N   0  0  0  0  0  0  0  0  0  0  0  0
   -5.4350  -28.4330   30.0290 C   0  0  0  0  0  0  0  0  0  0  0  0
   -6.6810  -28.7549   29.5361 C   0  0  0  0  0  0  0  0  0  0  0  0
   -7.7821  -27.8987   29.8263 C   0  0  0  0  0  0  0  0  0  0  0  0
   -9.0316  -28.2066   29.3362 O   0  0  0  0  0  0  0  0  0  0  0  0
   -6.5231  -29.9764   28.8073 C   0  0  0  0  0  0  0  0  0  0  0  0
   -5.1677  -30.3222   28.8995 C   0  0  0  0  0  0  0  0  0  0  0  0
   -4.5344  -29.3942   29.6279 N   0  0  0  0  0  0  0  0  0  0  0  0
  1  2  1  0  0  0  0
  1  7  1  0  0  0  0
  2  3  1  0  0  0  0
  2  4  2  0  0  0  0
  4  5  1  0  0  0  0
  5  6  2  0  0  0  0
  5 11  1  0  0  0  0
  6  7  1  0  0  0  0
  6  9  1  0  0  0  0
  7  8  2  0  0  0  0
  9 10  2  0  0  0  0
 10 11  1  0  0  0  0
M  END
>  <CHROM.1>
-6.45355835,-28.03607603,30.04222498,1.83135918,-0.19389747,0.56163559

>  <Name>
ligand

>  <RI>
0

>  <Rbt.Current_Directory>
/home/itssahil/PROJECTS/Mol_Feturizer/New_Systems/rnas/4LVW

>  <Rbt.Executable>
rbdock ($Id: //depot/dev/client3/rdock/2013.1/src/exe/rbdock.cxx#4 $)

>  <Rbt.Library>
libRbt.so (2013.1, Build901 2013/11/27)

>  <Rbt.Parameter_File>
/export/apps/rDock/src/rDock_2013.1_src/data/scripts/dock_solv.prm

>  <Rbt.Receptor>
prm/blind_docking_100.prm

>  <SCORE>
-11.3426

>  <SCORE.INTER>
-11.3426

>  <SCORE.INTER.CONST>
1

>  <SCORE.INTER.POLAR>
0

>  <SCORE.INTER.ROT>
0

>  <SCORE.INTER.SOLV>
4.33834

>  <SCORE.INTER.VDW>
-12.6079

>  <SCORE.INTER.norm>
-1.03115

>  <SCORE.INTRA>
0

>  <SCORE.INTRA.DIHEDRAL>
0

>  <SCORE.INTRA.DIHEDRAL.0>
0

>  <SCORE.INTRA.POLAR>
0

>  <SCORE.INTRA.POLAR.0>
0

>  <SCORE.INTRA.REPUL>
0

>  <SCORE.INTRA.REPUL.0>
0

>  <SCORE.INTRA.SOLV>
0

>  <SCORE.INTRA.SOLV.lig_0>
-29.307

>  <SCORE.INTRA.VDW>
0

>  <SCORE.INTRA.VDW.0>
0

>  <SCORE.INTRA.norm>
0

>  <SCORE.RESTR>
0

>  <SCORE.RESTR.CAVITY>
0

>  <SCORE.RESTR.norm>
0

>  <SCORE.SYSTEM>
0

>  <SCORE.SYSTEM.CONST>
0

>  <SCORE.SYSTEM.DIHEDRAL>
0

>  <SCORE.SYSTEM.SOLV>
0

>  <SCORE.SYSTEM.norm>
0

>  <SCORE.heavy>
11

>  <SCORE.norm>
-1.03115

>  <RMSD>
12.650

$$$$
ligand
 OpenBabel11021811503D
libRbt.so/2013.1/901 2013/11/27
 11 12  0  0  0  0  0  0  0  0999 V2000
   -7.5554  -26.7910   30.5215 N   0  0  0  0  0  0  0  0  0  0  0  0
   -6.3056  -26.5317   30.9446 C   0  0  0  0  0  0  0  0  0  0  0  0
   -6.0343  -25.3641   31.7194 N   0  0  0  0  0  0  0  0  0  0  0  0
   -5.2806  -27.3443   30.6708 N   0  0  0  0  0  0  0  0  0  0  0  0
   -5.4586  -28.4818   29.9205 C   0  0  0  0  0  0  0  0  0  0  0  0
   -6.7254  -28.7827   29.4694 C   0  0  0  0  0  0  0  0  0  0  0  0
   -7.8011  -27.9062   29.7925 C   0  0  0  0  0  0  0  0  0  0  0  0
   -9.0712  -28.1930   29.3442 O   0  0  0  0  0  0  0  0  0  0  0  0
   -6.6130  -30.0087   28.7397 C   0  0  0  0  0  0  0  0  0  0  0  0
   -5.2618  -30.3784   28.7889 C   0  0  0  0  0  0  0  0  0  0  0  0
   -4.5887  -29.4600   29.4934 N   0  0  0  0  0  0  0  0  0  0  0  0
  1  2  1  0  0  0  0
  1  7  1  0  0  0  0
  2  3  1  0  0  0  0
  2  4  2  0  0  0  0
  4  5  1  0  0  0  0
  5  6  2  0  0  0  0
  5 11  1  0  0  0  0
  6  7  1  0  0  0  0
  6  9  1  0  0  0  0
  7  8  2  0  0  0  0
  9 10  2  0  0  0  0
 10 11  1  0  0  0  0
M  END
>  <CHROM.1>
-6.46893602,-28.06673885,29.96556961,1.79848813,-0.17571710,0.55269938

>  <Name>
ligand

>  <RI>
0

>  <Rbt.Current_Directory>
/home/itssahil/PROJECTS/Mol_Feturizer/New_Systems/rnas/4LVW

>  <Rbt.Executable>
rbdock ($Id: //depot/dev/client3/rdock/2013.1/src/exe/rbdock.cxx#4 $)

>  <Rbt.Library>
libRbt.so (2013.1, Build901 2013/11/27)

>  <Rbt.Parameter_File>
/export/apps/rDock/src/rDock_2013.1_src/data/scripts/dock_solv.prm

>  <Rbt.Receptor>
prm/blind_docking_80.prm

>  <SCORE>
-11.3169

>  <SCORE.INTER>
-11.3169

>  <SCORE.INTER.CONST>
1

>  <SCORE.INTER.POLAR>
0

>  <SCORE.INTER.ROT>
0

>  <SCORE.INTER.SOLV>
4.72369

>  <SCORE.INTER.VDW>
-12.7192

>  <SCORE.INTER.norm>
-1.02881

>  <SCORE.INTRA>
0

>  <SCORE.INTRA.DIHEDRAL>
0

>  <SCORE.INTRA.DIHEDRAL.0>
0

>  <SCORE.INTRA.POLAR>
0

>  <SCORE.INTRA.POLAR.0>
0

>  <SCORE.INTRA.REPUL>
0

>  <SCORE.INTRA.REPUL.0>
0

>  <SCORE.INTRA.SOLV>
0

>  <SCORE.INTRA.SOLV.lig_0>
-29.307

>  <SCORE.INTRA.VDW>
0

>  <SCORE.INTRA.VDW.0>
0

>  <SCORE.INTRA.norm>
0

>  <SCORE.RESTR>
0

>  <SCORE.RESTR.CAVITY>
0

>  <SCORE.RESTR.norm>
0

>  <SCORE.SYSTEM>
0

>  <SCORE.SYSTEM.CONST>
0

>  <SCORE.SYSTEM.DIHEDRAL>
0

>  <SCORE.SYSTEM.SOLV>
0

>  <SCORE.SYSTEM.norm>
0

>  <SCORE.heavy>
11

>  <SCORE.norm>
-1.02881

>  <RMSD>
12.652

$$$$
ligand
 OpenBabel11021811503D
libRbt.so/2013.1/901 2013/11/27
 11 12  0  0  0  0  0  0  0  0999 V2000
    3.6353  -26.2682   13.4141 N   0  0  0  0  0  0  0  0  0  0  0  0
    2.6812  -26.5303   12.5035 C   0  0  0  0  0  0  0  0  0  0  0  0
    3.0369  -26.9604   11.1897 N   0  0  0  0  0  0  0  0  0  0  0  0
    1.3801  -26.4101   12.7839 N   0  0  0  0  0  0  0  0  0  0  0  0
    0.9577  -25.9902   14.0223 C   0  0  0  0  0  0  0  0  0  0  0  0
    1.9056  -25.7128   14.9832 C   0  0  0  0  0  0  0  0  0  0  0  0
    3.2844  -25.8673   14.6598 C   0  0  0  0  0  0  0  0  0  0  0  0
    4.2419  -25.5892   15.6096 O   0  0  0  0  0  0  0  0  0  0  0  0
    1.1871  -25.3170   16.1559 C   0  0  0  0  0  0  0  0  0  0  0  0
   -0.1743  -25.3738   15.8265 C   0  0  0  0  0  0  0  0  0  0  0  0
   -0.2938  -25.7745   14.5544 N   0  0  0  0  0  0  0  0  0  0  0  0
  1  2  1  0  0  0  0
  1  7  1  0  0  0  0
  2  3  1  0  0  0  0
  2  4  2  0  0  0  0
  4  5  1  0  0  0  0
  5  6  2  0  0  0  0
  5 11  1  0  0  0  0
  6  7  1  0  0  0  0
  6  9  1  0  0  0  0
  7  8  2  0  0  0  0
  9 10  2  0  0  0  0
 10 11  1  0  0  0  0
M  END
>  <CHROM.1>
2.04557136,-25.99101740,14.13028909,-0.89707802,-0.03112400,1.26127579

>  <Name>
ligand

>  <RI>
0

>  <Rbt.Current_Directory>
/home/itssahil/PROJECTS/Mol_Feturizer/New_Systems/rnas/4LVW

>  <Rbt.Executable>
rbdock ($Id: //depot/dev/client3/rdock/2013.1/src/exe/rbdock.cxx#4 $)

>  <Rbt.Library>
libRbt.so (2013.1, Build901 2013/11/27)

>  <Rbt.Parameter_File>
/export/apps/rDock/src/rDock_2013.1_src/data/scripts/dock_solv.prm

>  <Rbt.Receptor>
prm/blind_docking_100.prm

>  <SCORE>
-8.77813

>  <SCORE.INTER>
-8.77813

>  <SCORE.INTER.CONST>
1

>  <SCORE.INTER.POLAR>
0

>  <SCORE.INTER.ROT>
0

>  <SCORE.INTER.SOLV>
4.07348

>  <SCORE.INTER.VDW>
-10.8099

>  <SCORE.INTER.norm>
-0.798012

>  <SCORE.INTRA>
0

>  <SCORE.INTRA.DIHEDRAL>
0

>  <SCORE.INTRA.DIHEDRAL.0>
0

>  <SCORE.INTRA.POLAR>
0

>  <SCORE.INTRA.POLAR.0>
0

>  <SCORE.INTRA.REPUL>
0

>  <SCORE.INTRA.REPUL.0>
0

>  <SCORE.INTRA.SOLV>
0

>  <SCORE.INTRA.SOLV.lig_0>
-29.307

>  <SCORE.INTRA.VDW>
0

>  <SCORE.INTRA.VDW.0>
0

>  <SCORE.INTRA.norm>
0

>  <SCORE.RESTR>
0

>  <SCORE.RESTR.CAVITY>
0

>  <SCORE.RESTR.norm>
0

>  <SCORE.SYSTEM>
0

>  <SCORE.SYSTEM.CONST>
0

>  <SCORE.SYSTEM.DIHEDRAL>
0

>  <SCORE.SYSTEM.SOLV>
0

>  <SCORE.SYSTEM.norm>
0

>  <SCORE.heavy>
11

>  <SCORE.norm>
-0.798012

>  <RMSD>
12.653

$$$$
ligand
 OpenBabel11021811503D
libRbt.so/2013.1/901 2013/11/27
 11 12  0  0  0  0  0  0  0  0999 V2000
   -7.5748  -26.8119   30.5446 N   0  0  0  0  0  0  0  0  0  0  0  0
   -6.3292  -26.5164   30.9562 C   0  0  0  0  0  0  0  0  0  0  0  0
   -6.0813  -25.3296   31.7097 N   0  0  0  0  0  0  0  0  0  0  0  0
   -5.2869  -27.3094   30.6906 N   0  0  0  0  0  0  0  0  0  0  0  0
   -5.4421  -28.4634   29.9608 C   0  0  0  0  0  0  0  0  0  0  0  0
   -6.7038  -28.8014   29.5219 C   0  0  0  0  0  0  0  0  0  0  0  0
   -7.7981  -27.9449   29.8360 C   0  0  0  0  0  0  0  0  0  0  0  0
   -9.0634  -28.2689   29.3998 O   0  0  0  0  0  0  0  0  0  0  0  0
   -6.5666  -30.0368   28.8125 C   0  0  0  0  0  0  0  0  0  0  0  0
   -5.2068  -30.3740   28.8605 C   0  0  0  0  0  0  0  0  0  0  0  0
   -4.5518  -29.4282   29.5455 N   0  0  0  0  0  0  0  0  0  0  0  0
  1  2  1  0  0  0  0
  1  7  1  0  0  0  0
  2  3  1  0  0  0  0
  2  4  2  0  0  0  0
  4  5  1  0  0  0  0
  5  6  2  0  0  0  0
  5 11  1  0  0  0  0
  6  7  1  0  0  0  0
  6  9  1  0  0  0  0
  7  8  2  0  0  0  0
  9 10  2  0  0  0  0
 10 11  1  0  0  0  0
M  END
>  <CHROM.1>
-6.46164867,-28.07132111,30.00439111,1.81592741,-0.15900208,0.53855652

>  <Name>
ligand

>  <RI>
0

>  <Rbt.Current_Directory>
/home/itssahil/PROJECTS/Mol_Feturizer/New_Systems/rnas/4LVW

>  <Rbt.Executable>
rbdock ($Id: //depot/dev/client3/rdock/2013.1/src/exe/rbdock.cxx#4 $)

>  <Rbt.Library>
libRbt.so (2013.1, Build901 2013/11/27)

>  <Rbt.Parameter_File>
/export/apps/rDock/src/rDock_2013.1_src/data/scripts/dock_solv.prm

>  <Rbt.Receptor>
prm/blind_docking_80.prm

>  <SCORE>
-11.3048

>  <SCORE.INTER>
-11.3048

>  <SCORE.INTER.CONST>
1

>  <SCORE.INTER.POLAR>
0

>  <SCORE.INTER.ROT>
0

>  <SCORE.INTER.SOLV>
4.76535

>  <SCORE.INTER.VDW>
-12.725

>  <SCORE.INTER.norm>
-1.02771

>  <SCORE.INTRA>
0

>  <SCORE.INTRA.DIHEDRAL>
0

>  <SCORE.INTRA.DIHEDRAL.0>
0

>  <SCORE.INTRA.POLAR>
0

>  <SCORE.INTRA.POLAR.0>
0

>  <SCORE.INTRA.REPUL>
0

>  <SCORE.INTRA.REPUL.0>
0

>  <SCORE.INTRA.SOLV>
0

>  <SCORE.INTRA.SOLV.lig_0>
-29.307

>  <SCORE.INTRA.VDW>
0

>  <SCORE.INTRA.VDW.0>
0

>  <SCORE.INTRA.norm>
0

>  <SCORE.RESTR>
0

>  <SCORE.RESTR.CAVITY>
0

>  <SCORE.RESTR.norm>
0

>  <SCORE.SYSTEM>
0

>  <SCORE.SYSTEM.CONST>
0

>  <SCORE.SYSTEM.DIHEDRAL>
0

>  <SCORE.SYSTEM.SOLV>
0

>  <SCORE.SYSTEM.norm>
0

>  <SCORE.heavy>
11

>  <SCORE.norm>
-1.02771

>  <RMSD>
12.663

$$$$
ligand
 OpenBabel11021811503D
libRbt.so/2013.1/901 2013/11/27
 11 12  0  0  0  0  0  0  0  0999 V2000
    3.6861  -26.2771   13.4082 N   0  0  0  0  0  0  0  0  0  0  0  0
    2.7460  -26.6321   12.5147 C   0  0  0  0  0  0  0  0  0  0  0  0
    3.1225  -27.1189   11.2268 N   0  0  0  0  0  0  0  0  0  0  0  0
    1.4404  -26.5543   12.7891 N   0  0  0  0  0  0  0  0  0  0  0  0
    0.9978  -26.0848   14.0024 C   0  0  0  0  0  0  0  0  0  0  0  0
    1.9310  -25.7120   14.9453 C   0  0  0  0  0  0  0  0  0  0  0  0
    3.3158  -25.8230   14.6298 C   0  0  0  0  0  0  0  0  0  0  0  0
    4.2585  -25.4497   15.5615 O   0  0  0  0  0  0  0  0  0  0  0  0
    1.1938  -25.2834   16.0947 C   0  0  0  0  0  0  0  0  0  0  0  0
   -0.1632  -25.4191   15.7702 C   0  0  0  0  0  0  0  0  0  0  0  0
   -0.2628  -25.8955   14.5228 N   0  0  0  0  0  0  0  0  0  0  0  0
  1  2  1  0  0  0  0
  1  7  1  0  0  0  0
  2  3  1  0  0  0  0
  2  4  2  0  0  0  0
  4  5  1  0  0  0  0
  5  6  2  0  0  0  0
  5 11  1  0  0  0  0
  6  7  1  0  0  0  0
  6  9  1  0  0  0  0
  7  8  2  0  0  0  0
  9 10  2  0  0  0  0
 10 11  1  0  0  0  0
M  END
>  <CHROM.1>
2.08448514,-26.03115421,14.10924983,-0.88207017,0.01077833,1.20526935

>  <Name>
ligand

>  <RI>
0

>  <Rbt.Current_Directory>
/home/itssahil/PROJECTS/Mol_Feturizer/New_Systems/rnas/4LVW

>  <Rbt.Executable>
rbdock ($Id: //depot/dev/client3/rdock/2013.1/src/exe/rbdock.cxx#4 $)

>  <Rbt.Library>
libRbt.so (2013.1, Build901 2013/11/27)

>  <Rbt.Parameter_File>
/export/apps/rDock/src/rDock_2013.1_src/data/scripts/dock_solv.prm

>  <Rbt.Receptor>
prm/blind_docking_40.prm

>  <SCORE>
-8.801

>  <SCORE.INTER>
-8.801

>  <SCORE.INTER.CONST>
1

>  <SCORE.INTER.POLAR>
0

>  <SCORE.INTER.ROT>
0

>  <SCORE.INTER.SOLV>
4.37277

>  <SCORE.INTER.VDW>
-10.9249

>  <SCORE.INTER.norm>
-0.800091

>  <SCORE.INTRA>
0

>  <SCORE.INTRA.DIHEDRAL>
0

>  <SCORE.INTRA.DIHEDRAL.0>
0

>  <SCORE.INTRA.POLAR>
0

>  <SCORE.INTRA.POLAR.0>
0

>  <SCORE.INTRA.REPUL>
0

>  <SCORE.INTRA.REPUL.0>
0

>  <SCORE.INTRA.SOLV>
0

>  <SCORE.INTRA.SOLV.lig_0>
-29.307

>  <SCORE.INTRA.VDW>
0

>  <SCORE.INTRA.VDW.0>
0

>  <SCORE.INTRA.norm>
0

>  <SCORE.RESTR>
0

>  <SCORE.RESTR.CAVITY>
0

>  <SCORE.RESTR.norm>
0

>  <SCORE.SYSTEM>
0

>  <SCORE.SYSTEM.CONST>
0

>  <SCORE.SYSTEM.DIHEDRAL>
0

>  <SCORE.SYSTEM.SOLV>
0

>  <SCORE.SYSTEM.norm>
0

>  <SCORE.heavy>
11

>  <SCORE.norm>
-0.800091

>  <RMSD>
12.687

$$$$
ligand
 OpenBabel11021811503D
libRbt.so/2013.1/901 2013/11/27
 11 12  0  0  0  0  0  0  0  0999 V2000
    2.8626  -25.7072   13.8177 N   0  0  0  0  0  0  0  0  0  0  0  0
    2.7827  -26.3999   14.9676 C   0  0  0  0  0  0  0  0  0  0  0  0
    3.9694  -26.8214   15.6394 N   0  0  0  0  0  0  0  0  0  0  0  0
    1.6104  -26.7128   15.5278 N   0  0  0  0  0  0  0  0  0  0  0  0
    0.4235  -26.3530   14.9360 C   0  0  0  0  0  0  0  0  0  0  0  0
    0.4637  -25.6410   13.7569 C   0  0  0  0  0  0  0  0  0  0  0  0
    1.7288  -25.3070   13.1933 C   0  0  0  0  0  0  0  0  0  0  0  0
    1.7830  -24.5996   12.0131 O   0  0  0  0  0  0  0  0  0  0  0  0
   -0.8970  -25.3984   13.3857 C   0  0  0  0  0  0  0  0  0  0  0  0
   -1.6915  -25.9934   14.3756 C   0  0  0  0  0  0  0  0  0  0  0  0
   -0.8915  -26.5575   15.2893 N   0  0  0  0  0  0  0  0  0  0  0  0
  1  2  1  0  0  0  0
  1  7  1  0  0  0  0
  2  3  1  0  0  0  0
  2  4  2  0  0  0  0
  4  5  1  0  0  0  0
  5  6  2  0  0  0  0
  5 11  1  0  0  0  0
  6  7  1  0  0  0  0
  6  9  1  0  0  0  0
  7  8  2  0  0  0  0
  9 10  2  0  0  0  0
 10 11  1  0  0  0  0
M  END
>  <CHROM.1>
1.16623458,-25.94372004,14.24614009,-0.16730908,0.00934285,-1.02656250

>  <Name>
ligand

>  <RI>
0

>  <Rbt.Current_Directory>
/home/itssahil/PROJECTS/Mol_Feturizer/New_Systems/rnas/4LVW

>  <Rbt.Executable>
rbdock ($Id: //depot/dev/client3/rdock/2013.1/src/exe/rbdock.cxx#4 $)

>  <Rbt.Library>
libRbt.so (2013.1, Build901 2013/11/27)

>  <Rbt.Parameter_File>
/export/apps/rDock/src/rDock_2013.1_src/data/scripts/dock_solv.prm

>  <Rbt.Receptor>
prm/blind_docking_40.prm

>  <SCORE>
-8.8298

>  <SCORE.INTER>
-8.8298

>  <SCORE.INTER.CONST>
1

>  <SCORE.INTER.POLAR>
0

>  <SCORE.INTER.ROT>
0

>  <SCORE.INTER.SOLV>
6.11484

>  <SCORE.INTER.VDW>
-11.5248

>  <SCORE.INTER.norm>
-0.802709

>  <SCORE.INTRA>
0

>  <SCORE.INTRA.DIHEDRAL>
0

>  <SCORE.INTRA.DIHEDRAL.0>
0

>  <SCORE.INTRA.POLAR>
0

>  <SCORE.INTRA.POLAR.0>
0

>  <SCORE.INTRA.REPUL>
0

>  <SCORE.INTRA.REPUL.0>
0

>  <SCORE.INTRA.SOLV>
0

>  <SCORE.INTRA.SOLV.lig_0>
-29.307

>  <SCORE.INTRA.VDW>
0

>  <SCORE.INTRA.VDW.0>
0

>  <SCORE.INTRA.norm>
0

>  <SCORE.RESTR>
0

>  <SCORE.RESTR.CAVITY>
0

>  <SCORE.RESTR.norm>
0

>  <SCORE.SYSTEM>
0

>  <SCORE.SYSTEM.CONST>
0

>  <SCORE.SYSTEM.DIHEDRAL>
0

>  <SCORE.SYSTEM.SOLV>
0

>  <SCORE.SYSTEM.norm>
0

>  <SCORE.heavy>
11

>  <SCORE.norm>
-0.802709

>  <RMSD>
12.690

$$$$
ligand
 OpenBabel11021811503D
libRbt.so/2013.1/901 2013/11/27
 11 12  0  0  0  0  0  0  0  0999 V2000
    2.7192  -25.4839   13.7241 N   0  0  0  0  0  0  0  0  0  0  0  0
    2.6751  -26.0888   14.9243 C   0  0  0  0  0  0  0  0  0  0  0  0
    3.8810  -26.3738   15.6328 N   0  0  0  0  0  0  0  0  0  0  0  0
    1.5214  -26.4372   15.5017 N   0  0  0  0  0  0  0  0  0  0  0  0
    0.3187  -26.2072   14.8779 C   0  0  0  0  0  0  0  0  0  0  0  0
    0.3222  -25.5881   13.6468 C   0  0  0  0  0  0  0  0  0  0  0  0
    1.5672  -25.2125   13.0648 C   0  0  0  0  0  0  0  0  0  0  0  0
    1.5849  -24.5971   11.8331 O   0  0  0  0  0  0  0  0  0  0  0  0
   -1.0481  -25.4695   13.2512 C   0  0  0  0  0  0  0  0  0  0  0  0
   -1.8101  -26.0390   14.2808 C   0  0  0  0  0  0  0  0  0  0  0  0
   -0.9828  -26.4737   15.2397 N   0  0  0  0  0  0  0  0  0  0  0  0
  1  2  1  0  0  0  0
  1  7  1  0  0  0  0
  2  3  1  0  0  0  0
  2  4  2  0  0  0  0
  4  5  1  0  0  0  0
  5  6  2  0  0  0  0
  5 11  1  0  0  0  0
  6  7  1  0  0  0  0
  6  9  1  0  0  0  0
  7  8  2  0  0  0  0
  9 10  2  0  0  0  0
 10 11  1  0  0  0  0
M  END
>  <CHROM.1>
1.03872330,-25.80266439,14.16158875,-0.14058440,-0.05445117,-1.10422637

>  <Name>
ligand

>  <RI>
0

>  <Rbt.Current_Directory>
/home/itssahil/PROJECTS/Mol_Feturizer/New_Systems/rnas/4LVW

>  <Rbt.Executable>
rbdock ($Id: //depot/dev/client3/rdock/2013.1/src/exe/rbdock.cxx#4 $)

>  <Rbt.Library>
libRbt.so (2013.1, Build901 2013/11/27)

>  <Rbt.Parameter_File>
/export/apps/rDock/src/rDock_2013.1_src/data/scripts/dock_solv.prm

>  <Rbt.Receptor>
prm/blind_docking_40.prm

>  <SCORE>
-8.88385

>  <SCORE.INTER>
-8.88385

>  <SCORE.INTER.CONST>
1

>  <SCORE.INTER.POLAR>
0

>  <SCORE.INTER.ROT>
0

>  <SCORE.INTER.SOLV>
8.10508

>  <SCORE.INTER.VDW>
-12.2243

>  <SCORE.INTER.norm>
-0.807623

>  <SCORE.INTRA>
0

>  <SCORE.INTRA.DIHEDRAL>
0

>  <SCORE.INTRA.DIHEDRAL.0>
0

>  <SCORE.INTRA.POLAR>
0

>  <SCORE.INTRA.POLAR.0>
0

>  <SCORE.INTRA.REPUL>
0

>  <SCORE.INTRA.REPUL.0>
0

>  <SCORE.INTRA.SOLV>
0

>  <SCORE.INTRA.SOLV.lig_0>
-29.307

>  <SCORE.INTRA.VDW>
0

>  <SCORE.INTRA.VDW.0>
0

>  <SCORE.INTRA.norm>
0

>  <SCORE.RESTR>
0

>  <SCORE.RESTR.CAVITY>
0

>  <SCORE.RESTR.norm>
0

>  <SCORE.SYSTEM>
0

>  <SCORE.SYSTEM.CONST>
0

>  <SCORE.SYSTEM.DIHEDRAL>
0

>  <SCORE.SYSTEM.SOLV>
0

>  <SCORE.SYSTEM.norm>
0

>  <SCORE.heavy>
11

>  <SCORE.norm>
-0.807623

>  <RMSD>
12.722

$$$$
ligand
 OpenBabel11021811503D
libRbt.so/2013.1/901 2013/11/27
 11 12  0  0  0  0  0  0  0  0999 V2000
    2.7118  -25.4870   13.7191 N   0  0  0  0  0  0  0  0  0  0  0  0
    2.6676  -26.0876   14.9214 C   0  0  0  0  0  0  0  0  0  0  0  0
    3.8734  -26.3701   15.6311 N   0  0  0  0  0  0  0  0  0  0  0  0
    1.5138  -26.4340   15.4999 N   0  0  0  0  0  0  0  0  0  0  0  0
    0.3112  -26.2063   14.8752 C   0  0  0  0  0  0  0  0  0  0  0  0
    0.3148  -25.5916   13.6419 C   0  0  0  0  0  0  0  0  0  0  0  0
    1.5598  -25.2181   13.0587 C   0  0  0  0  0  0  0  0  0  0  0  0
    1.5776  -24.6071   11.8247 O   0  0  0  0  0  0  0  0  0  0  0  0
   -1.0555  -25.4745   13.2458 C   0  0  0  0  0  0  0  0  0  0  0  0
   -1.8175  -26.0403   14.2774 C   0  0  0  0  0  0  0  0  0  0  0  0
   -0.9903  -26.4716   15.2379 N   0  0  0  0  0  0  0  0  0  0  0  0
  1  2  1  0  0  0  0
  1  7  1  0  0  0  0
  2  3  1  0  0  0  0
  2  4  2  0  0  0  0
  4  5  1  0  0  0  0
  5  6  2  0  0  0  0
  5 11  1  0  0  0  0
  6  7  1  0  0  0  0
  6  9  1  0  0  0  0
  7  8  2  0  0  0  0
  9 10  2  0  0  0  0
 10 11  1  0  0  0  0
M  END
>  <CHROM.1>
1.03125347,-25.80430465,14.15755794,-0.14064922,-0.05451862,-1.10782736

>  <Name>
ligand

>  <RI>
0

>  <Rbt.Current_Directory>
/home/itssahil/PROJECTS/Mol_Feturizer/New_Systems/rnas/4LVW

>  <Rbt.Executable>
rbdock ($Id: //depot/dev/client3/rdock/2013.1/src/exe/rbdock.cxx#4 $)

>  <Rbt.Library>
libRbt.so (2013.1, Build901 2013/11/27)

>  <Rbt.Parameter_File>
/export/apps/rDock/src/rDock_2013.1_src/data/scripts/dock_solv.prm

>  <Rbt.Receptor>
prm/blind_docking_40.prm

>  <SCORE>
-8.87732

>  <SCORE.INTER>
-8.87732

>  <SCORE.INTER.CONST>
1

>  <SCORE.INTER.POLAR>
0

>  <SCORE.INTER.ROT>
0

>  <SCORE.INTER.SOLV>
8.10496

>  <SCORE.INTER.VDW>
-12.2199

>  <SCORE.INTER.norm>
-0.807029

>  <SCORE.INTRA>
0

>  <SCORE.INTRA.DIHEDRAL>
0

>  <SCORE.INTRA.DIHEDRAL.0>
0

>  <SCORE.INTRA.POLAR>
0

>  <SCORE.INTRA.POLAR.0>
0

>  <SCORE.INTRA.REPUL>
0

>  <SCORE.INTRA.REPUL.0>
0

>  <SCORE.INTRA.SOLV>
0

>  <SCORE.INTRA.SOLV.lig_0>
-29.307

>  <SCORE.INTRA.VDW>
0

>  <SCORE.INTRA.VDW.0>
0

>  <SCORE.INTRA.norm>
0

>  <SCORE.RESTR>
0

>  <SCORE.RESTR.CAVITY>
0

>  <SCORE.RESTR.norm>
0

>  <SCORE.SYSTEM>
0

>  <SCORE.SYSTEM.CONST>
0

>  <SCORE.SYSTEM.DIHEDRAL>
0

>  <SCORE.SYSTEM.SOLV>
0

>  <SCORE.SYSTEM.norm>
0

>  <SCORE.heavy>
11

>  <SCORE.norm>
-0.807029

>  <RMSD>
12.727

$$$$
ligand
 OpenBabel11021811503D
libRbt.so/2013.1/901 2013/11/27
 11 12  0  0  0  0  0  0  0  0999 V2000
    2.7686  -25.6028   13.7885 N   0  0  0  0  0  0  0  0  0  0  0  0
    2.6506  -26.2364   14.9687 C   0  0  0  0  0  0  0  0  0  0  0  0
    3.8141  -26.6017   15.7105 N   0  0  0  0  0  0  0  0  0  0  0  0
    1.4606  -26.5404   15.4953 N   0  0  0  0  0  0  0  0  0  0  0  0
    0.2945  -26.2325   14.8367 C   0  0  0  0  0  0  0  0  0  0  0  0
    0.3738  -25.5819   13.6246 C   0  0  0  0  0  0  0  0  0  0  0  0
    1.6564  -25.2553   13.0973 C   0  0  0  0  0  0  0  0  0  0  0  0
    1.7497  -24.6091   11.8849 O   0  0  0  0  0  0  0  0  0  0  0  0
   -0.9735  -25.3827   13.1849 C   0  0  0  0  0  0  0  0  0  0  0  0
   -1.8001  -25.9395   14.1708 C   0  0  0  0  0  0  0  0  0  0  0  0
   -1.0311  -26.4415   15.1452 N   0  0  0  0  0  0  0  0  0  0  0  0
  1  2  1  0  0  0  0
  1  7  1  0  0  0  0
  2  3  1  0  0  0  0
  2  4  2  0  0  0  0
  4  5  1  0  0  0  0
  5  6  2  0  0  0  0
  5 11  1  0  0  0  0
  6  7  1  0  0  0  0
  6  9  1  0  0  0  0
  7  8  2  0  0  0  0
  9 10  2  0  0  0  0
 10 11  1  0  0  0  0
M  END
>  <CHROM.1>
1.05945767,-25.84655126,14.15778417,-0.19568849,-0.02575460,-1.07889381

>  <Name>
ligand

>  <RI>
0

>  <Rbt.Current_Directory>
/home/itssahil/PROJECTS/Mol_Feturizer/New_Systems/rnas/4LVW

>  <Rbt.Executable>
rbdock ($Id: //depot/dev/client3/rdock/2013.1/src/exe/rbdock.cxx#4 $)

>  <Rbt.Library>
libRbt.so (2013.1, Build901 2013/11/27)

>  <Rbt.Parameter_File>
/export/apps/rDock/src/rDock_2013.1_src/data/scripts/dock_solv.prm

>  <Rbt.Receptor>
prm/blind_docking_40.prm

>  <SCORE>
-8.80693

>  <SCORE.INTER>
-8.80693

>  <SCORE.INTER.CONST>
1

>  <SCORE.INTER.POLAR>
0

>  <SCORE.INTER.ROT>
0

>  <SCORE.INTER.SOLV>
6.94493

>  <SCORE.INTER.VDW>
-11.7863

>  <SCORE.INTER.norm>
-0.80063

>  <SCORE.INTRA>
0

>  <SCORE.INTRA.DIHEDRAL>
0

>  <SCORE.INTRA.DIHEDRAL.0>
0

>  <SCORE.INTRA.POLAR>
0

>  <SCORE.INTRA.POLAR.0>
0

>  <SCORE.INTRA.REPUL>
0

>  <SCORE.INTRA.REPUL.0>
0

>  <SCORE.INTRA.SOLV>
0

>  <SCORE.INTRA.SOLV.lig_0>
-29.307

>  <SCORE.INTRA.VDW>
0

>  <SCORE.INTRA.VDW.0>
0

>  <SCORE.INTRA.norm>
0

>  <SCORE.RESTR>
0

>  <SCORE.RESTR.CAVITY>
0

>  <SCORE.RESTR.norm>
0

>  <SCORE.SYSTEM>
0

>  <SCORE.SYSTEM.CONST>
0

>  <SCORE.SYSTEM.DIHEDRAL>
0

>  <SCORE.SYSTEM.SOLV>
0

>  <SCORE.SYSTEM.norm>
0

>  <SCORE.heavy>
11

>  <SCORE.norm>
-0.80063

>  <RMSD>
12.731

$$$$
ligand
 OpenBabel11021811503D
libRbt.so/2013.1/901 2013/11/27
 11 12  0  0  0  0  0  0  0  0999 V2000
   -0.5153  -25.6188   12.8449 N   0  0  0  0  0  0  0  0  0  0  0  0
    0.4414  -25.2008   11.9974 C   0  0  0  0  0  0  0  0  0  0  0  0
    0.1331  -24.9581   10.6250 N   0  0  0  0  0  0  0  0  0  0  0  0
    1.6995  -24.9898   12.3954 N   0  0  0  0  0  0  0  0  0  0  0  0
    2.0778  -25.2122   13.6977 C   0  0  0  0  0  0  0  0  0  0  0  0
    1.1254  -25.6401   14.5971 C   0  0  0  0  0  0  0  0  0  0  0  0
   -0.2114  -25.8391   14.1467 C   0  0  0  0  0  0  0  0  0  0  0  0
   -1.1718  -26.2707   15.0343 O   0  0  0  0  0  0  0  0  0  0  0  0
    1.7914  -25.7732   15.8568 C   0  0  0  0  0  0  0  0  0  0  0  0
    3.1299  -25.4181   15.6386 C   0  0  0  0  0  0  0  0  0  0  0  0
    3.2840  -25.0883   14.3501 N   0  0  0  0  0  0  0  0  0  0  0  0
  1  2  1  0  0  0  0
  1  7  1  0  0  0  0
  2  3  1  0  0  0  0
  2  4  2  0  0  0  0
  4  5  1  0  0  0  0
  5  6  2  0  0  0  0
  5 11  1  0  0  0  0
  6  7  1  0  0  0  0
  6  9  1  0  0  0  0
  7  8  2  0  0  0  0
  9 10  2  0  0  0  0
 10 11  1  0  0  0  0
M  END
>  <CHROM.1>
1.01356046,-25.46179145,13.71378271,2.21604797,-0.22135688,-1.34471785

>  <Name>
ligand

>  <RI>
0

>  <Rbt.Current_Directory>
/home/itssahil/PROJECTS/Mol_Feturizer/New_Systems/rnas/4LVW

>  <Rbt.Executable>
rbdock ($Id: //depot/dev/client3/rdock/2013.1/src/exe/rbdock.cxx#4 $)

>  <Rbt.Library>
libRbt.so (2013.1, Build901 2013/11/27)

>  <Rbt.Parameter_File>
/export/apps/rDock/src/rDock_2013.1_src/data/scripts/dock_solv.prm

>  <Rbt.Receptor>
prm/blind_docking_40.prm

>  <SCORE>
-9.25005

>  <SCORE.INTER>
-9.25005

>  <SCORE.INTER.CONST>
1

>  <SCORE.INTER.POLAR>
0

>  <SCORE.INTER.ROT>
0

>  <SCORE.INTER.SOLV>
4.06512

>  <SCORE.INTER.VDW>
-11.1217

>  <SCORE.INTER.norm>
-0.840914

>  <SCORE.INTRA>
0

>  <SCORE.INTRA.DIHEDRAL>
0

>  <SCORE.INTRA.DIHEDRAL.0>
0

>  <SCORE.INTRA.POLAR>
0

>  <SCORE.INTRA.POLAR.0>
0

>  <SCORE.INTRA.REPUL>
0

>  <SCORE.INTRA.REPUL.0>
0

>  <SCORE.INTRA.SOLV>
0

>  <SCORE.INTRA.SOLV.lig_0>
-29.307

>  <SCORE.INTRA.VDW>
0

>  <SCORE.INTRA.VDW.0>
0

>  <SCORE.INTRA.norm>
0

>  <SCORE.RESTR>
0

>  <SCORE.RESTR.CAVITY>
0

>  <SCORE.RESTR.norm>
0

>  <SCORE.SYSTEM>
0

>  <SCORE.SYSTEM.CONST>
0

>  <SCORE.SYSTEM.DIHEDRAL>
0

>  <SCORE.SYSTEM.SOLV>
0

>  <SCORE.SYSTEM.norm>
0

>  <SCORE.heavy>
11

>  <SCORE.norm>
-0.840914

>  <RMSD>
12.735

$$$$
ligand
 OpenBabel11021811503D
libRbt.so/2013.1/901 2013/11/27
 11 12  0  0  0  0  0  0  0  0999 V2000
   -0.5289  -25.6444   12.8399 N   0  0  0  0  0  0  0  0  0  0  0  0
    0.4206  -25.2107   11.9922 C   0  0  0  0  0  0  0  0  0  0  0  0
    0.1094  -24.9787   10.6185 N   0  0  0  0  0  0  0  0  0  0  0  0
    1.6738  -24.9738   12.3910 N   0  0  0  0  0  0  0  0  0  0  0  0
    2.0546  -25.1843   13.6946 C   0  0  0  0  0  0  0  0  0  0  0  0
    1.1096  -25.6276   14.5942 C   0  0  0  0  0  0  0  0  0  0  0  0
   -0.2225  -25.8543   14.1428 C   0  0  0  0  0  0  0  0  0  0  0  0
   -1.1754  -26.3015   15.0306 O   0  0  0  0  0  0  0  0  0  0  0  0
    1.7764  -25.7434   15.8552 C   0  0  0  0  0  0  0  0  0  0  0  0
    3.1079  -25.3629   15.6375 C   0  0  0  0  0  0  0  0  0  0  0  0
    3.2573  -25.0346   14.3480 N   0  0  0  0  0  0  0  0  0  0  0  0
  1  2  1  0  0  0  0
  1  7  1  0  0  0  0
  2  3  1  0  0  0  0
  2  4  2  0  0  0  0
  4  5  1  0  0  0  0
  5  6  2  0  0  0  0
  5 11  1  0  0  0  0
  6  7  1  0  0  0  0
  6  9  1  0  0  0  0
  7  8  2  0  0  0  0
  9 10  2  0  0  0  0
 10 11  1  0  0  0  0
M  END
>  <CHROM.1>
0.99544321,-25.45455804,13.71012483,2.21920966,-0.24068952,-1.34742692

>  <Name>
ligand

>  <RI>
0

>  <Rbt.Current_Directory>
/home/itssahil/PROJECTS/Mol_Feturizer/New_Systems/rnas/4LVW

>  <Rbt.Executable>
rbdock ($Id: //depot/dev/client3/rdock/2013.1/src/exe/rbdock.cxx#4 $)

>  <Rbt.Library>
libRbt.so (2013.1, Build901 2013/11/27)

>  <Rbt.Parameter_File>
/export/apps/rDock/src/rDock_2013.1_src/data/scripts/dock_solv.prm

>  <Rbt.Receptor>
prm/blind_docking_40.prm

>  <SCORE>
-9.26099

>  <SCORE.INTER>
-9.26099

>  <SCORE.INTER.CONST>
1

>  <SCORE.INTER.POLAR>
0

>  <SCORE.INTER.ROT>
0

>  <SCORE.INTER.SOLV>
4.08012

>  <SCORE.INTER.VDW>
-11.134

>  <SCORE.INTER.norm>
-0.841908

>  <SCORE.INTRA>
0

>  <SCORE.INTRA.DIHEDRAL>
0

>  <SCORE.INTRA.DIHEDRAL.0>
0

>  <SCORE.INTRA.POLAR>
0

>  <SCORE.INTRA.POLAR.0>
0

>  <SCORE.INTRA.REPUL>
0

>  <SCORE.INTRA.REPUL.0>
0

>  <SCORE.INTRA.SOLV>
0

>  <SCORE.INTRA.SOLV.lig_0>
-29.307

>  <SCORE.INTRA.VDW>
0

>  <SCORE.INTRA.VDW.0>
0

>  <SCORE.INTRA.norm>
0

>  <SCORE.RESTR>
0

>  <SCORE.RESTR.CAVITY>
0

>  <SCORE.RESTR.norm>
0

>  <SCORE.SYSTEM>
0

>  <SCORE.SYSTEM.CONST>
0

>  <SCORE.SYSTEM.DIHEDRAL>
0

>  <SCORE.SYSTEM.SOLV>
0

>  <SCORE.SYSTEM.norm>
0

>  <SCORE.heavy>
11

>  <SCORE.norm>
-0.841908

>  <RMSD>
12.737

$$$$
ligand
 OpenBabel11021811503D
libRbt.so/2013.1/901 2013/11/27
 11 12  0  0  0  0  0  0  0  0999 V2000
    0.8314  -25.6468   13.6615 N   0  0  0  0  0  0  0  0  0  0  0  0
    1.6215  -26.3119   12.8003 C   0  0  0  0  0  0  0  0  0  0  0  0
    1.7243  -25.8879   11.4412 N   0  0  0  0  0  0  0  0  0  0  0  0
    2.3396  -27.3758   13.1723 N   0  0  0  0  0  0  0  0  0  0  0  0
    2.2855  -27.8524   14.4601 C   0  0  0  0  0  0  0  0  0  0  0  0
    1.4878  -27.1971   15.3727 C   0  0  0  0  0  0  0  0  0  0  0  0
    0.7478  -26.0552   14.9506 C   0  0  0  0  0  0  0  0  0  0  0  0
   -0.0565  -25.3938   15.8516 O   0  0  0  0  0  0  0  0  0  0  0  0
    1.6362  -27.8957   16.6129 C   0  0  0  0  0  0  0  0  0  0  0  0
    2.5245  -28.9526   16.3702 C   0  0  0  0  0  0  0  0  0  0  0  0
    2.9004  -28.9137   15.0857 N   0  0  0  0  0  0  0  0  0  0  0  0
  1  2  1  0  0  0  0
  1  7  1  0  0  0  0
  2  3  1  0  0  0  0
  2  4  2  0  0  0  0
  4  5  1  0  0  0  0
  5  6  2  0  0  0  0
  5 11  1  0  0  0  0
  6  7  1  0  0  0  0
  6  9  1  0  0  0  0
  7  8  2  0  0  0  0
  9 10  2  0  0  0  0
 10 11  1  0  0  0  0
M  END
>  <CHROM.1>
1.61036905,-26.99335517,14.49641123,1.87862836,0.87500311,-1.18007671

>  <Name>
ligand

>  <RI>
0

>  <Rbt.Current_Directory>
/home/itssahil/PROJECTS/Mol_Feturizer/New_Systems/rnas/4LVW

>  <Rbt.Executable>
rbdock ($Id: //depot/dev/client3/rdock/2013.1/src/exe/rbdock.cxx#4 $)

>  <Rbt.Library>
libRbt.so (2013.1, Build901 2013/11/27)

>  <Rbt.Parameter_File>
/export/apps/rDock/src/rDock_2013.1_src/data/scripts/dock_solv.prm

>  <Rbt.Receptor>
prm/blind_docking_40.prm

>  <SCORE>
-7.86014

>  <SCORE.INTER>
-7.86014

>  <SCORE.INTER.CONST>
1

>  <SCORE.INTER.POLAR>
0

>  <SCORE.INTER.ROT>
0

>  <SCORE.INTER.SOLV>
2.8223

>  <SCORE.INTER.VDW>
-9.78086

>  <SCORE.INTER.norm>
-0.714558

>  <SCORE.INTRA>
0

>  <SCORE.INTRA.DIHEDRAL>
0

>  <SCORE.INTRA.DIHEDRAL.0>
0

>  <SCORE.INTRA.POLAR>
0

>  <SCORE.INTRA.POLAR.0>
0

>  <SCORE.INTRA.REPUL>
0

>  <SCORE.INTRA.REPUL.0>
0

>  <SCORE.INTRA.SOLV>
0

>  <SCORE.INTRA.SOLV.lig_0>
-29.307

>  <SCORE.INTRA.VDW>
0

>  <SCORE.INTRA.VDW.0>
0

>  <SCORE.INTRA.norm>
0

>  <SCORE.RESTR>
0

>  <SCORE.RESTR.CAVITY>
0

>  <SCORE.RESTR.norm>
0

>  <SCORE.SYSTEM>
0

>  <SCORE.SYSTEM.CONST>
0

>  <SCORE.SYSTEM.DIHEDRAL>
0

>  <SCORE.SYSTEM.SOLV>
0

>  <SCORE.SYSTEM.norm>
0

>  <SCORE.heavy>
11

>  <SCORE.norm>
-0.714558

>  <RMSD>
12.755

$$$$
ligand
 OpenBabel11021811503D
libRbt.so/2013.1/901 2013/11/27
 11 12  0  0  0  0  0  0  0  0999 V2000
    0.6498  -25.6598   13.6222 N   0  0  0  0  0  0  0  0  0  0  0  0
    1.4137  -26.3310   12.7423 C   0  0  0  0  0  0  0  0  0  0  0  0
    1.4445  -25.9410   11.3696 N   0  0  0  0  0  0  0  0  0  0  0  0
    2.1712  -27.3696   13.1074 N   0  0  0  0  0  0  0  0  0  0  0  0
    2.1869  -27.8130   14.4080 C   0  0  0  0  0  0  0  0  0  0  0  0
    1.4179  -27.1504   15.3399 C   0  0  0  0  0  0  0  0  0  0  0  0
    0.6346  -26.0355   14.9238 C   0  0  0  0  0  0  0  0  0  0  0  0
   -0.1417  -25.3673   15.8442 O   0  0  0  0  0  0  0  0  0  0  0  0
    1.6385  -27.8127   16.5892 C   0  0  0  0  0  0  0  0  0  0  0  0
    2.5376  -28.8572   16.3324 C   0  0  0  0  0  0  0  0  0  0  0  0
    2.8529  -28.8445   15.0311 N   0  0  0  0  0  0  0  0  0  0  0  0
  1  2  1  0  0  0  0
  1  7  1  0  0  0  0
  2  3  1  0  0  0  0
  2  4  2  0  0  0  0
  4  5  1  0  0  0  0
  5  6  2  0  0  0  0
  5 11  1  0  0  0  0
  6  7  1  0  0  0  0
  6  9  1  0  0  0  0
  7  8  2  0  0  0  0
  9 10  2  0  0  0  0
 10 11  1  0  0  0  0
M  END
>  <CHROM.1>
1.49554294,-26.96740102,14.45393891,1.95770877,0.87082220,-1.26664739

>  <Name>
ligand

>  <RI>
0

>  <Rbt.Current_Directory>
/home/itssahil/PROJECTS/Mol_Feturizer/New_Systems/rnas/4LVW

>  <Rbt.Executable>
rbdock ($Id: //depot/dev/client3/rdock/2013.1/src/exe/rbdock.cxx#4 $)

>  <Rbt.Library>
libRbt.so (2013.1, Build901 2013/11/27)

>  <Rbt.Parameter_File>
/export/apps/rDock/src/rDock_2013.1_src/data/scripts/dock_solv.prm

>  <Rbt.Receptor>
prm/blind_docking_40.prm

>  <SCORE>
-7.88813

>  <SCORE.INTER>
-7.88813

>  <SCORE.INTER.CONST>
1

>  <SCORE.INTER.POLAR>
0

>  <SCORE.INTER.ROT>
0

>  <SCORE.INTER.SOLV>
2.67657

>  <SCORE.INTER.VDW>
-9.75095

>  <SCORE.INTER.norm>
-0.717103

>  <SCORE.INTRA>
0

>  <SCORE.INTRA.DIHEDRAL>
0

>  <SCORE.INTRA.DIHEDRAL.0>
0

>  <SCORE.INTRA.POLAR>
0

>  <SCORE.INTRA.POLAR.0>
0

>  <SCORE.INTRA.REPUL>
0

>  <SCORE.INTRA.REPUL.0>
0

>  <SCORE.INTRA.SOLV>
0

>  <SCORE.INTRA.SOLV.lig_0>
-29.307

>  <SCORE.INTRA.VDW>
0

>  <SCORE.INTRA.VDW.0>
0

>  <SCORE.INTRA.norm>
0

>  <SCORE.RESTR>
0

>  <SCORE.RESTR.CAVITY>
0

>  <SCORE.RESTR.norm>
0

>  <SCORE.SYSTEM>
0

>  <SCORE.SYSTEM.CONST>
0

>  <SCORE.SYSTEM.DIHEDRAL>
0

>  <SCORE.SYSTEM.SOLV>
0

>  <SCORE.SYSTEM.norm>
0

>  <SCORE.heavy>
11

>  <SCORE.norm>
-0.717103

>  <RMSD>
12.769

$$$$
ligand
 OpenBabel11021811503D
libRbt.so/2013.1/901 2013/11/27
 11 12  0  0  0  0  0  0  0  0999 V2000
    0.7115  -25.7312   13.6167 N   0  0  0  0  0  0  0  0  0  0  0  0
    1.4660  -26.4304   12.7507 C   0  0  0  0  0  0  0  0  0  0  0  0
    1.5128  -26.0601   11.3729 N   0  0  0  0  0  0  0  0  0  0  0  0
    2.1991  -27.4798   13.1344 N   0  0  0  0  0  0  0  0  0  0  0  0
    2.1979  -27.9055   14.4410 C   0  0  0  0  0  0  0  0  0  0  0  0
    1.4380  -27.2140   15.3592 C   0  0  0  0  0  0  0  0  0  0  0  0
    0.6809  -26.0886   14.9232 C   0  0  0  0  0  0  0  0  0  0  0  0
   -0.0861  -25.3914   15.8298 O   0  0  0  0  0  0  0  0  0  0  0  0
    1.6374  -27.8636   16.6187 C   0  0  0  0  0  0  0  0  0  0  0  0
    2.5154  -28.9303   16.3814 C   0  0  0  0  0  0  0  0  0  0  0  0
    2.8384  -28.9423   15.0820 N   0  0  0  0  0  0  0  0  0  0  0  0
  1  2  1  0  0  0  0
  1  7  1  0  0  0  0
  2  3  1  0  0  0  0
  2  4  2  0  0  0  0
  4  5  1  0  0  0  0
  5  6  2  0  0  0  0
  5 11  1  0  0  0  0
  6  7  1  0  0  0  0
  6  9  1  0  0  0  0
  7  8  2  0  0  0  0
  9 10  2  0  0  0  0
 10 11  1  0  0  0  0
M  END
>  <CHROM.1>
1.52453175,-27.04487920,14.47122580,1.93899318,0.88933687,-1.26590500

>  <Name>
ligand

>  <RI>
0

>  <Rbt.Current_Directory>
/home/itssahil/PROJECTS/Mol_Feturizer/New_Systems/rnas/4LVW

>  <Rbt.Executable>
rbdock ($Id: //depot/dev/client3/rdock/2013.1/src/exe/rbdock.cxx#4 $)

>  <Rbt.Library>
libRbt.so (2013.1, Build901 2013/11/27)

>  <Rbt.Parameter_File>
/export/apps/rDock/src/rDock_2013.1_src/data/scripts/dock_solv.prm

>  <Rbt.Receptor>
prm/blind_docking_40.prm

>  <SCORE>
-7.95147

>  <SCORE.INTER>
-7.95147

>  <SCORE.INTER.CONST>
1

>  <SCORE.INTER.POLAR>
0

>  <SCORE.INTER.ROT>
0

>  <SCORE.INTER.SOLV>
2.71481

>  <SCORE.INTER.VDW>
-9.80591

>  <SCORE.INTER.norm>
-0.722861

>  <SCORE.INTRA>
0

>  <SCORE.INTRA.DIHEDRAL>
0

>  <SCORE.INTRA.DIHEDRAL.0>
0

>  <SCORE.INTRA.POLAR>
0

>  <SCORE.INTRA.POLAR.0>
0

>  <SCORE.INTRA.REPUL>
0

>  <SCORE.INTRA.REPUL.0>
0

>  <SCORE.INTRA.SOLV>
0

>  <SCORE.INTRA.SOLV.lig_0>
-29.307

>  <SCORE.INTRA.VDW>
0

>  <SCORE.INTRA.VDW.0>
0

>  <SCORE.INTRA.norm>
0

>  <SCORE.RESTR>
0

>  <SCORE.RESTR.CAVITY>
0

>  <SCORE.RESTR.norm>
0

>  <SCORE.SYSTEM>
0

>  <SCORE.SYSTEM.CONST>
0

>  <SCORE.SYSTEM.DIHEDRAL>
0

>  <SCORE.SYSTEM.SOLV>
0

>  <SCORE.SYSTEM.norm>
0

>  <SCORE.heavy>
11

>  <SCORE.norm>
-0.722861

>  <RMSD>
12.795

$$$$
ligand
 OpenBabel11021811503D
libRbt.so/2013.1/901 2013/11/27
 11 12  0  0  0  0  0  0  0  0999 V2000
    2.6533  -25.4578   13.6070 N   0  0  0  0  0  0  0  0  0  0  0  0
    2.5655  -26.0365   14.8176 C   0  0  0  0  0  0  0  0  0  0  0  0
    3.7463  -26.3292   15.5643 N   0  0  0  0  0  0  0  0  0  0  0  0
    1.3902  -26.3511   15.3705 N   0  0  0  0  0  0  0  0  0  0  0  0
    0.2093  -26.1118   14.7097 C   0  0  0  0  0  0  0  0  0  0  0  0
    0.2576  -25.5188   13.4668 C   0  0  0  0  0  0  0  0  0  0  0  0
    1.5247  -25.1789   12.9112 C   0  0  0  0  0  0  0  0  0  0  0  0
    1.5872  -24.5898   11.6681 O   0  0  0  0  0  0  0  0  0  0  0  0
   -1.0990  -25.3830   13.0318 C   0  0  0  0  0  0  0  0  0  0  0  0
   -1.8991  -25.9164   14.0518 C   0  0  0  0  0  0  0  0  0  0  0  0
   -1.1063  -26.3464   15.0415 N   0  0  0  0  0  0  0  0  0  0  0  0
  1  2  1  0  0  0  0
  1  7  1  0  0  0  0
  2  3  1  0  0  0  0
  2  4  2  0  0  0  0
  4  5  1  0  0  0  0
  5  6  2  0  0  0  0
  5 11  1  0  0  0  0
  6  7  1  0  0  0  0
  6  9  1  0  0  0  0
  7  8  2  0  0  0  0
  9 10  2  0  0  0  0
 10 11  1  0  0  0  0
M  END
>  <CHROM.1>
0.95588874,-25.73592506,14.00510950,-0.17316818,-0.04926912,-1.12660902

>  <Name>
ligand

>  <RI>
0

>  <Rbt.Current_Directory>
/home/itssahil/PROJECTS/Mol_Feturizer/New_Systems/rnas/4LVW

>  <Rbt.Executable>
rbdock ($Id: //depot/dev/client3/rdock/2013.1/src/exe/rbdock.cxx#4 $)

>  <Rbt.Library>
libRbt.so (2013.1, Build901 2013/11/27)

>  <Rbt.Parameter_File>
/export/apps/rDock/src/rDock_2013.1_src/data/scripts/dock_solv.prm

>  <Rbt.Receptor>
prm/blind_docking_40.prm

>  <SCORE>
-8.7549

>  <SCORE.INTER>
-8.7549

>  <SCORE.INTER.CONST>
1

>  <SCORE.INTER.POLAR>
0

>  <SCORE.INTER.ROT>
0

>  <SCORE.INTER.SOLV>
7.77759

>  <SCORE.INTER.VDW>
-12.0291

>  <SCORE.INTER.norm>
-0.7959

>  <SCORE.INTRA>
0

>  <SCORE.INTRA.DIHEDRAL>
0

>  <SCORE.INTRA.DIHEDRAL.0>
0

>  <SCORE.INTRA.POLAR>
0

>  <SCORE.INTRA.POLAR.0>
0

>  <SCORE.INTRA.REPUL>
0

>  <SCORE.INTRA.REPUL.0>
0

>  <SCORE.INTRA.SOLV>
0

>  <SCORE.INTRA.SOLV.lig_0>
-29.307

>  <SCORE.INTRA.VDW>
0

>  <SCORE.INTRA.VDW.0>
0

>  <SCORE.INTRA.norm>
0

>  <SCORE.RESTR>
0

>  <SCORE.RESTR.CAVITY>
0

>  <SCORE.RESTR.norm>
0

>  <SCORE.SYSTEM>
0

>  <SCORE.SYSTEM.CONST>
0

>  <SCORE.SYSTEM.DIHEDRAL>
0

>  <SCORE.SYSTEM.SOLV>
0

>  <SCORE.SYSTEM.norm>
0

>  <SCORE.heavy>
11

>  <SCORE.norm>
-0.7959

>  <RMSD>
12.833

$$$$
ligand
 OpenBabel11021811503D
libRbt.so/2013.1/901 2013/11/27
 11 12  0  0  0  0  0  0  0  0999 V2000
   -6.0256  -27.5933   32.3837 N   0  0  0  0  0  0  0  0  0  0  0  0
   -6.0804  -26.6934   31.3860 C   0  0  0  0  0  0  0  0  0  0  0  0
   -6.1370  -25.2971   31.6768 N   0  0  0  0  0  0  0  0  0  0  0  0
   -6.0766  -27.0579   30.1003 N   0  0  0  0  0  0  0  0  0  0  0  0
   -6.0357  -28.3832   29.7393 C   0  0  0  0  0  0  0  0  0  0  0  0
   -5.9777  -29.3358   30.7333 C   0  0  0  0  0  0  0  0  0  0  0  0
   -5.9653  -28.9156   32.0945 C   0  0  0  0  0  0  0  0  0  0  0  0
   -5.9119  -29.8576   33.0975 O   0  0  0  0  0  0  0  0  0  0  0  0
   -5.9323  -30.6049   30.0733 C   0  0  0  0  0  0  0  0  0  0  0  0
   -5.9725  -30.3394   28.6974 C   0  0  0  0  0  0  0  0  0  0  0  0
   -6.0350  -29.0143   28.5156 N   0  0  0  0  0  0  0  0  0  0  0  0
  1  2  1  0  0  0  0
  1  7  1  0  0  0  0
  2  3  1  0  0  0  0
  2  4  2  0  0  0  0
  4  5  1  0  0  0  0
  5  6  2  0  0  0  0
  5 11  1  0  0  0  0
  6  7  1  0  0  0  0
  6  9  1  0  0  0  0
  7  8  2  0  0  0  0
  9 10  2  0  0  0  0
 10 11  1  0  0  0  0
M  END
>  <CHROM.1>
-6.01387372,-28.43382897,30.83114735,-2.11694154,1.52407274,-1.96895146

>  <Name>
ligand

>  <RI>
0

>  <Rbt.Current_Directory>
/home/itssahil/PROJECTS/Mol_Feturizer/New_Systems/rnas/4LVW

>  <Rbt.Executable>
rbdock ($Id: //depot/dev/client3/rdock/2013.1/src/exe/rbdock.cxx#4 $)

>  <Rbt.Library>
libRbt.so (2013.1, Build901 2013/11/27)

>  <Rbt.Parameter_File>
/export/apps/rDock/src/rDock_2013.1_src/data/scripts/dock_solv.prm

>  <Rbt.Receptor>
prm/blind_docking_60.prm

>  <SCORE>
-10.2884

>  <SCORE.INTER>
-10.2884

>  <SCORE.INTER.CONST>
1

>  <SCORE.INTER.POLAR>
0

>  <SCORE.INTER.ROT>
0

>  <SCORE.INTER.SOLV>
7.99482

>  <SCORE.INTER.VDW>
-13.1239

>  <SCORE.INTER.norm>
-0.935313

>  <SCORE.INTRA>
0

>  <SCORE.INTRA.DIHEDRAL>
0

>  <SCORE.INTRA.DIHEDRAL.0>
0

>  <SCORE.INTRA.POLAR>
0

>  <SCORE.INTRA.POLAR.0>
0

>  <SCORE.INTRA.REPUL>
0

>  <SCORE.INTRA.REPUL.0>
0

>  <SCORE.INTRA.SOLV>
0

>  <SCORE.INTRA.SOLV.lig_0>
-29.307

>  <SCORE.INTRA.VDW>
0

>  <SCORE.INTRA.VDW.0>
0

>  <SCORE.INTRA.norm>
0

>  <SCORE.RESTR>
0

>  <SCORE.RESTR.CAVITY>
0

>  <SCORE.RESTR.norm>
0

>  <SCORE.SYSTEM>
0

>  <SCORE.SYSTEM.CONST>
0

>  <SCORE.SYSTEM.DIHEDRAL>
0

>  <SCORE.SYSTEM.SOLV>
0

>  <SCORE.SYSTEM.norm>
0

>  <SCORE.heavy>
11

>  <SCORE.norm>
-0.935313

>  <RMSD>
12.838

$$$$
ligand
 OpenBabel11021811503D
libRbt.so/2013.1/901 2013/11/27
 11 12  0  0  0  0  0  0  0  0999 V2000
    0.6349  -26.1316   12.0252 N   0  0  0  0  0  0  0  0  0  0  0  0
   -0.6297  -25.9326   12.4369 C   0  0  0  0  0  0  0  0  0  0  0  0
   -1.7127  -26.0293   11.5121 N   0  0  0  0  0  0  0  0  0  0  0  0
   -0.9257  -25.6482   13.7086 N   0  0  0  0  0  0  0  0  0  0  0  0
    0.0620  -25.5266   14.6562 C   0  0  0  0  0  0  0  0  0  0  0  0
    1.3709  -25.7244   14.2735 C   0  0  0  0  0  0  0  0  0  0  0  0
    1.6535  -26.0437   12.9142 C   0  0  0  0  0  0  0  0  0  0  0  0
    2.9576  -26.2396   12.5177 O   0  0  0  0  0  0  0  0  0  0  0  0
    2.1660  -25.5494   15.4505 C   0  0  0  0  0  0  0  0  0  0  0  0
    1.2761  -25.2451   16.4901 C   0  0  0  0  0  0  0  0  0  0  0  0
    0.0296  -25.2343   16.0014 N   0  0  0  0  0  0  0  0  0  0  0  0
  1  2  1  0  0  0  0
  1  7  1  0  0  0  0
  2  3  1  0  0  0  0
  2  4  2  0  0  0  0
  4  5  1  0  0  0  0
  5  6  2  0  0  0  0
  5 11  1  0  0  0  0
  6  7  1  0  0  0  0
  6  9  1  0  0  0  0
  7  8  2  0  0  0  0
  9 10  2  0  0  0  0
 10 11  1  0  0  0  0
M  END
>  <CHROM.1>
0.62822163,-25.76871794,13.75299102,-2.01510439,-0.08786473,1.36206175

>  <Name>
ligand

>  <RI>
0

>  <Rbt.Current_Directory>
/home/itssahil/PROJECTS/Mol_Feturizer/New_Systems/rnas/4LVW

>  <Rbt.Executable>
rbdock ($Id: //depot/dev/client3/rdock/2013.1/src/exe/rbdock.cxx#4 $)

>  <Rbt.Library>
libRbt.so (2013.1, Build901 2013/11/27)

>  <Rbt.Parameter_File>
/export/apps/rDock/src/rDock_2013.1_src/data/scripts/dock_solv.prm

>  <Rbt.Receptor>
prm/blind_docking_40.prm

>  <SCORE>
-8.61942

>  <SCORE.INTER>
-8.61942

>  <SCORE.INTER.CONST>
1

>  <SCORE.INTER.POLAR>
0

>  <SCORE.INTER.ROT>
0

>  <SCORE.INTER.SOLV>
5.04112

>  <SCORE.INTER.VDW>
-11.0267

>  <SCORE.INTER.norm>
-0.783583

>  <SCORE.INTRA>
0

>  <SCORE.INTRA.DIHEDRAL>
0

>  <SCORE.INTRA.DIHEDRAL.0>
0

>  <SCORE.INTRA.POLAR>
0

>  <SCORE.INTRA.POLAR.0>
0

>  <SCORE.INTRA.REPUL>
0

>  <SCORE.INTRA.REPUL.0>
0

>  <SCORE.INTRA.SOLV>
0

>  <SCORE.INTRA.SOLV.lig_0>
-29.307

>  <SCORE.INTRA.VDW>
0

>  <SCORE.INTRA.VDW.0>
0

>  <SCORE.INTRA.norm>
0

>  <SCORE.RESTR>
0

>  <SCORE.RESTR.CAVITY>
0

>  <SCORE.RESTR.norm>
0

>  <SCORE.SYSTEM>
0

>  <SCORE.SYSTEM.CONST>
0

>  <SCORE.SYSTEM.DIHEDRAL>
0

>  <SCORE.SYSTEM.SOLV>
0

>  <SCORE.SYSTEM.norm>
0

>  <SCORE.heavy>
11

>  <SCORE.norm>
-0.783583

>  <RMSD>
12.852

$$$$
ligand
 OpenBabel11021811503D
libRbt.so/2013.1/901 2013/11/27
 11 12  0  0  0  0  0  0  0  0999 V2000
   -6.0036  -27.5993   32.3830 N   0  0  0  0  0  0  0  0  0  0  0  0
   -6.0769  -26.7036   31.3828 C   0  0  0  0  0  0  0  0  0  0  0  0
   -6.1240  -25.3059   31.6685 N   0  0  0  0  0  0  0  0  0  0  0  0
   -6.1005  -27.0736   30.0989 N   0  0  0  0  0  0  0  0  0  0  0  0
   -6.0703  -28.4005   29.7429 C   0  0  0  0  0  0  0  0  0  0  0  0
   -5.9941  -29.3490   30.7396 C   0  0  0  0  0  0  0  0  0  0  0  0
   -5.9526  -28.9229   32.0984 C   0  0  0  0  0  0  0  0  0  0  0  0
   -5.8808  -29.8608   33.1042 O   0  0  0  0  0  0  0  0  0  0  0  0
   -5.9654  -30.6211   30.0843 C   0  0  0  0  0  0  0  0  0  0  0  0
   -6.0335  -30.3614   28.7084 C   0  0  0  0  0  0  0  0  0  0  0  0
   -6.0964  -29.0369   28.5221 N   0  0  0  0  0  0  0  0  0  0  0  0
  1  2  1  0  0  0  0
  1  7  1  0  0  0  0
  2  3  1  0  0  0  0
  2  4  2  0  0  0  0
  4  5  1  0  0  0  0
  5  6  2  0  0  0  0
  5 11  1  0  0  0  0
  6  7  1  0  0  0  0
  6  9  1  0  0  0  0
  7  8  2  0  0  0  0
  9 10  2  0  0  0  0
 10 11  1  0  0  0  0
M  END
>  <CHROM.1>
-6.02605117,-28.44653783,30.83424194,-1.75288375,1.51463855,-2.33688356

>  <Name>
ligand

>  <RI>
0

>  <Rbt.Current_Directory>
/home/itssahil/PROJECTS/Mol_Feturizer/New_Systems/rnas/4LVW

>  <Rbt.Executable>
rbdock ($Id: //depot/dev/client3/rdock/2013.1/src/exe/rbdock.cxx#4 $)

>  <Rbt.Library>
libRbt.so (2013.1, Build901 2013/11/27)

>  <Rbt.Parameter_File>
/export/apps/rDock/src/rDock_2013.1_src/data/scripts/dock_solv.prm

>  <Rbt.Receptor>
prm/blind_docking_60.prm

>  <SCORE>
-10.3195

>  <SCORE.INTER>
-10.3195

>  <SCORE.INTER.CONST>
1

>  <SCORE.INTER.POLAR>
0

>  <SCORE.INTER.ROT>
0

>  <SCORE.INTER.SOLV>
8.01943

>  <SCORE.INTER.VDW>
-13.1528

>  <SCORE.INTER.norm>
-0.938133

>  <SCORE.INTRA>
0

>  <SCORE.INTRA.DIHEDRAL>
0

>  <SCORE.INTRA.DIHEDRAL.0>
0

>  <SCORE.INTRA.POLAR>
0

>  <SCORE.INTRA.POLAR.0>
0

>  <SCORE.INTRA.REPUL>
0

>  <SCORE.INTRA.REPUL.0>
0

>  <SCORE.INTRA.SOLV>
0

>  <SCORE.INTRA.SOLV.lig_0>
-29.307

>  <SCORE.INTRA.VDW>
0

>  <SCORE.INTRA.VDW.0>
0

>  <SCORE.INTRA.norm>
0

>  <SCORE.RESTR>
0

>  <SCORE.RESTR.CAVITY>
0

>  <SCORE.RESTR.norm>
0

>  <SCORE.SYSTEM>
0

>  <SCORE.SYSTEM.CONST>
0

>  <SCORE.SYSTEM.DIHEDRAL>
0

>  <SCORE.SYSTEM.SOLV>
0

>  <SCORE.SYSTEM.norm>
0

>  <SCORE.heavy>
11

>  <SCORE.norm>
-0.938133

>  <RMSD>
12.858

$$$$
ligand
 OpenBabel11021811503D
libRbt.so/2013.1/901 2013/11/27
 11 12  0  0  0  0  0  0  0  0999 V2000
   -5.9757  -27.5732   32.3822 N   0  0  0  0  0  0  0  0  0  0  0  0
   -6.0797  -26.6883   31.3750 C   0  0  0  0  0  0  0  0  0  0  0  0
   -6.1312  -25.2881   31.6478 N   0  0  0  0  0  0  0  0  0  0  0  0
   -6.1309  -27.0715   30.0959 N   0  0  0  0  0  0  0  0  0  0  0  0
   -6.0985  -28.4017   29.7525 C   0  0  0  0  0  0  0  0  0  0  0  0
   -5.9912  -29.3394   30.7566 C   0  0  0  0  0  0  0  0  0  0  0  0
   -5.9209  -28.8992   32.1097 C   0  0  0  0  0  0  0  0  0  0  0  0
   -5.8178  -29.8261   33.1228 O   0  0  0  0  0  0  0  0  0  0  0  0
   -5.9680  -30.6178   30.1136 C   0  0  0  0  0  0  0  0  0  0  0  0
   -6.0707  -30.3727   28.7372 C   0  0  0  0  0  0  0  0  0  0  0  0
   -6.1486  -29.0507   28.5392 N   0  0  0  0  0  0  0  0  0  0  0  0
  1  2  1  0  0  0  0
  1  7  1  0  0  0  0
  2  3  1  0  0  0  0
  2  4  2  0  0  0  0
  4  5  1  0  0  0  0
  5  6  2  0  0  0  0
  5 11  1  0  0  0  0
  6  7  1  0  0  0  0
  6  9  1  0  0  0  0
  7  8  2  0  0  0  0
  9 10  2  0  0  0  0
 10 11  1  0  0  0  0
M  END
>  <CHROM.1>
-6.02806912,-28.43627793,30.84293382,-1.60599197,1.49161437,-2.49355737

>  <Name>
ligand

>  <RI>
0

>  <Rbt.Current_Directory>
/home/itssahil/PROJECTS/Mol_Feturizer/New_Systems/rnas/4LVW

>  <Rbt.Executable>
rbdock ($Id: //depot/dev/client3/rdock/2013.1/src/exe/rbdock.cxx#4 $)

>  <Rbt.Library>
libRbt.so (2013.1, Build901 2013/11/27)

>  <Rbt.Parameter_File>
/export/apps/rDock/src/rDock_2013.1_src/data/scripts/dock_solv.prm

>  <Rbt.Receptor>
prm/blind_docking_80.prm

>  <SCORE>
-10.2746

>  <SCORE.INTER>
-10.2746

>  <SCORE.INTER.CONST>
1

>  <SCORE.INTER.POLAR>
0

>  <SCORE.INTER.ROT>
0

>  <SCORE.INTER.SOLV>
8.14729

>  <SCORE.INTER.VDW>
-13.1655

>  <SCORE.INTER.norm>
-0.93405

>  <SCORE.INTRA>
0

>  <SCORE.INTRA.DIHEDRAL>
0

>  <SCORE.INTRA.DIHEDRAL.0>
0

>  <SCORE.INTRA.POLAR>
0

>  <SCORE.INTRA.POLAR.0>
0

>  <SCORE.INTRA.REPUL>
0

>  <SCORE.INTRA.REPUL.0>
0

>  <SCORE.INTRA.SOLV>
0

>  <SCORE.INTRA.SOLV.lig_0>
-29.307

>  <SCORE.INTRA.VDW>
0

>  <SCORE.INTRA.VDW.0>
0

>  <SCORE.INTRA.norm>
0

>  <SCORE.RESTR>
0

>  <SCORE.RESTR.CAVITY>
0

>  <SCORE.RESTR.norm>
0

>  <SCORE.SYSTEM>
0

>  <SCORE.SYSTEM.CONST>
0

>  <SCORE.SYSTEM.DIHEDRAL>
0

>  <SCORE.SYSTEM.SOLV>
0

>  <SCORE.SYSTEM.norm>
0

>  <SCORE.heavy>
11

>  <SCORE.norm>
-0.93405

>  <RMSD>
12.858

$$$$
ligand
 OpenBabel11021811503D
libRbt.so/2013.1/901 2013/11/27
 11 12  0  0  0  0  0  0  0  0999 V2000
   -5.2286  -22.4772   34.3849 N   0  0  0  0  0  0  0  0  0  0  0  0
   -6.5716  -22.4479   34.3241 C   0  0  0  0  0  0  0  0  0  0  0  0
   -7.2988  -23.5957   33.8867 N   0  0  0  0  0  0  0  0  0  0  0  0
   -7.2745  -21.3657   34.6715 N   0  0  0  0  0  0  0  0  0  0  0  0
   -6.6470  -20.2177   35.0916 C   0  0  0  0  0  0  0  0  0  0  0  0
   -5.2712  -20.2085   35.1685 C   0  0  0  0  0  0  0  0  0  0  0  0
   -4.5504  -21.3834   34.8083 C   0  0  0  0  0  0  0  0  0  0  0  0
   -3.1750  -21.3861   34.8765 O   0  0  0  0  0  0  0  0  0  0  0  0
   -4.9023  -18.9086   35.6400 C   0  0  0  0  0  0  0  0  0  0  0  0
   -6.0964  -18.1960   35.8169 C   0  0  0  0  0  0  0  0  0  0  0  0
   -7.1242  -18.9876   35.4856 N   0  0  0  0  0  0  0  0  0  0  0  0
  1  2  1  0  0  0  0
  1  7  1  0  0  0  0
  2  3  1  0  0  0  0
  2  4  2  0  0  0  0
  4  5  1  0  0  0  0
  5  6  2  0  0  0  0
  5 11  1  0  0  0  0
  6  7  1  0  0  0  0
  6  9  1  0  0  0  0
  7  8  2  0  0  0  0
  9 10  2  0  0  0  0
 10 11  1  0  0  0  0
M  END
>  <CHROM.1>
-5.80728420,-20.89212930,34.90436039,-1.68441816,-0.05136302,0.33233849

>  <Name>
ligand

>  <RI>
0

>  <Rbt.Current_Directory>
/home/itssahil/PROJECTS/Mol_Feturizer/New_Systems/rnas/4LVW

>  <Rbt.Executable>
rbdock ($Id: //depot/dev/client3/rdock/2013.1/src/exe/rbdock.cxx#4 $)

>  <Rbt.Library>
libRbt.so (2013.1, Build901 2013/11/27)

>  <Rbt.Parameter_File>
/export/apps/rDock/src/rDock_2013.1_src/data/scripts/dock_solv.prm

>  <Rbt.Receptor>
prm/blind_docking_100.prm

>  <SCORE>
-7.32034

>  <SCORE.INTER>
-7.32034

>  <SCORE.INTER.CONST>
1

>  <SCORE.INTER.POLAR>
0

>  <SCORE.INTER.ROT>
0

>  <SCORE.INTER.SOLV>
2.9646

>  <SCORE.INTER.VDW>
-9.46843

>  <SCORE.INTER.norm>
-0.665486

>  <SCORE.INTRA>
0

>  <SCORE.INTRA.DIHEDRAL>
0

>  <SCORE.INTRA.DIHEDRAL.0>
0

>  <SCORE.INTRA.POLAR>
0

>  <SCORE.INTRA.POLAR.0>
0

>  <SCORE.INTRA.REPUL>
0

>  <SCORE.INTRA.REPUL.0>
0

>  <SCORE.INTRA.SOLV>
0

>  <SCORE.INTRA.SOLV.lig_0>
-29.307

>  <SCORE.INTRA.VDW>
0

>  <SCORE.INTRA.VDW.0>
0

>  <SCORE.INTRA.norm>
0

>  <SCORE.RESTR>
0

>  <SCORE.RESTR.CAVITY>
0

>  <SCORE.RESTR.norm>
0

>  <SCORE.SYSTEM>
0

>  <SCORE.SYSTEM.CONST>
0

>  <SCORE.SYSTEM.DIHEDRAL>
0

>  <SCORE.SYSTEM.SOLV>
0

>  <SCORE.SYSTEM.norm>
0

>  <SCORE.heavy>
11

>  <SCORE.norm>
-0.665486

>  <RMSD>
12.896

$$$$
ligand
 OpenBabel11021811503D
libRbt.so/2013.1/901 2013/11/27
 11 12  0  0  0  0  0  0  0  0999 V2000
   -1.3583  -25.9729   12.1427 N   0  0  0  0  0  0  0  0  0  0  0  0
   -2.2511  -25.8775   13.1438 C   0  0  0  0  0  0  0  0  0  0  0  0
   -3.6505  -25.9425   12.8705 N   0  0  0  0  0  0  0  0  0  0  0  0
   -1.8758  -25.7281   14.4176 N   0  0  0  0  0  0  0  0  0  0  0  0
   -0.5477  -25.6452   14.7603 C   0  0  0  0  0  0  0  0  0  0  0  0
    0.3979  -25.7399   13.7625 C   0  0  0  0  0  0  0  0  0  0  0  0
   -0.0326  -25.9166   12.4159 C   0  0  0  0  0  0  0  0  0  0  0  0
    0.9021  -26.0082   11.4088 O   0  0  0  0  0  0  0  0  0  0  0  0
    1.6730  -25.6351   14.4040 C   0  0  0  0  0  0  0  0  0  0  0  0
    1.4175  -25.4744   15.7729 C   0  0  0  0  0  0  0  0  0  0  0  0
    0.0929  -25.4814   15.9682 N   0  0  0  0  0  0  0  0  0  0  0  0
  1  2  1  0  0  0  0
  1  7  1  0  0  0  0
  2  3  1  0  0  0  0
  2  4  2  0  0  0  0
  4  5  1  0  0  0  0
  5  6  2  0  0  0  0
  5 11  1  0  0  0  0
  6  7  1  0  0  0  0
  6  9  1  0  0  0  0
  7  8  2  0  0  0  0
  9 10  2  0  0  0  0
 10 11  1  0  0  0  0
M  END
>  <CHROM.1>
-0.50527785,-25.77319940,13.67547339,-2.52309826,0.02422363,1.45228514

>  <Name>
ligand

>  <RI>
0

>  <Rbt.Current_Directory>
/home/itssahil/PROJECTS/Mol_Feturizer/New_Systems/rnas/4LVW

>  <Rbt.Executable>
rbdock ($Id: //depot/dev/client3/rdock/2013.1/src/exe/rbdock.cxx#4 $)

>  <Rbt.Library>
libRbt.so (2013.1, Build901 2013/11/27)

>  <Rbt.Parameter_File>
/export/apps/rDock/src/rDock_2013.1_src/data/scripts/dock_solv.prm

>  <Rbt.Receptor>
prm/blind_docking_40.prm

>  <SCORE>
-9.24532

>  <SCORE.INTER>
-9.24532

>  <SCORE.INTER.CONST>
1

>  <SCORE.INTER.POLAR>
0

>  <SCORE.INTER.ROT>
0

>  <SCORE.INTER.SOLV>
7.02916

>  <SCORE.INTER.VDW>
-12.1066

>  <SCORE.INTER.norm>
-0.840483

>  <SCORE.INTRA>
0

>  <SCORE.INTRA.DIHEDRAL>
0

>  <SCORE.INTRA.DIHEDRAL.0>
0

>  <SCORE.INTRA.POLAR>
0

>  <SCORE.INTRA.POLAR.0>
0

>  <SCORE.INTRA.REPUL>
0

>  <SCORE.INTRA.REPUL.0>
0

>  <SCORE.INTRA.SOLV>
0

>  <SCORE.INTRA.SOLV.lig_0>
-29.307

>  <SCORE.INTRA.VDW>
0

>  <SCORE.INTRA.VDW.0>
0

>  <SCORE.INTRA.norm>
0

>  <SCORE.RESTR>
0

>  <SCORE.RESTR.CAVITY>
0

>  <SCORE.RESTR.norm>
0

>  <SCORE.SYSTEM>
0

>  <SCORE.SYSTEM.CONST>
0

>  <SCORE.SYSTEM.DIHEDRAL>
0

>  <SCORE.SYSTEM.SOLV>
0

>  <SCORE.SYSTEM.norm>
0

>  <SCORE.heavy>
11

>  <SCORE.norm>
-0.840483

>  <RMSD>
13.031

$$$$
ligand
 OpenBabel11021811503D
libRbt.so/2013.1/901 2013/11/27
 11 12  0  0  0  0  0  0  0  0999 V2000
   -1.3678  -25.9713   12.1413 N   0  0  0  0  0  0  0  0  0  0  0  0
   -2.2602  -25.8759   13.1427 C   0  0  0  0  0  0  0  0  0  0  0  0
   -3.6598  -25.9408   12.8698 N   0  0  0  0  0  0  0  0  0  0  0  0
   -1.8846  -25.7265   14.4164 N   0  0  0  0  0  0  0  0  0  0  0  0
   -0.5563  -25.6437   14.7588 C   0  0  0  0  0  0  0  0  0  0  0  0
    0.3890  -25.7384   13.7606 C   0  0  0  0  0  0  0  0  0  0  0  0
   -0.0419  -25.9151   12.4142 C   0  0  0  0  0  0  0  0  0  0  0  0
    0.8924  -26.0068   11.4068 O   0  0  0  0  0  0  0  0  0  0  0  0
    1.6642  -25.6337   14.4017 C   0  0  0  0  0  0  0  0  0  0  0  0
    1.4092  -25.4730   15.7708 C   0  0  0  0  0  0  0  0  0  0  0  0
    0.0846  -25.4799   15.9664 N   0  0  0  0  0  0  0  0  0  0  0  0
  1  2  1  0  0  0  0
  1  7  1  0  0  0  0
  2  3  1  0  0  0  0
  2  4  2  0  0  0  0
  4  5  1  0  0  0  0
  5  6  2  0  0  0  0
  5 11  1  0  0  0  0
  6  7  1  0  0  0  0
  6  9  1  0  0  0  0
  7  8  2  0  0  0  0
  9 10  2  0  0  0  0
 10 11  1  0  0  0  0
M  END
>  <CHROM.1>
-0.51425199,-25.77167998,13.67389137,-2.52339690,0.02419467,1.45227034

>  <Name>
ligand

>  <RI>
0

>  <Rbt.Current_Directory>
/home/itssahil/PROJECTS/Mol_Feturizer/New_Systems/rnas/4LVW

>  <Rbt.Executable>
rbdock ($Id: //depot/dev/client3/rdock/2013.1/src/exe/rbdock.cxx#4 $)

>  <Rbt.Library>
libRbt.so (2013.1, Build901 2013/11/27)

>  <Rbt.Parameter_File>
/export/apps/rDock/src/rDock_2013.1_src/data/scripts/dock_solv.prm

>  <Rbt.Receptor>
prm/blind_docking_40.prm

>  <SCORE>
-9.24676

>  <SCORE.INTER>
-9.24676

>  <SCORE.INTER.CONST>
1

>  <SCORE.INTER.POLAR>
0

>  <SCORE.INTER.ROT>
0

>  <SCORE.INTER.SOLV>
7.01037

>  <SCORE.INTER.VDW>
-12.1013

>  <SCORE.INTER.norm>
-0.840614

>  <SCORE.INTRA>
0

>  <SCORE.INTRA.DIHEDRAL>
0

>  <SCORE.INTRA.DIHEDRAL.0>
0

>  <SCORE.INTRA.POLAR>
0

>  <SCORE.INTRA.POLAR.0>
0

>  <SCORE.INTRA.REPUL>
0

>  <SCORE.INTRA.REPUL.0>
0

>  <SCORE.INTRA.SOLV>
0

>  <SCORE.INTRA.SOLV.lig_0>
-29.307

>  <SCORE.INTRA.VDW>
0

>  <SCORE.INTRA.VDW.0>
0

>  <SCORE.INTRA.norm>
0

>  <SCORE.RESTR>
0

>  <SCORE.RESTR.CAVITY>
0

>  <SCORE.RESTR.norm>
0

>  <SCORE.SYSTEM>
0

>  <SCORE.SYSTEM.CONST>
0

>  <SCORE.SYSTEM.DIHEDRAL>
0

>  <SCORE.SYSTEM.SOLV>
0

>  <SCORE.SYSTEM.norm>
0

>  <SCORE.heavy>
11

>  <SCORE.norm>
-0.840614

>  <RMSD>
13.034

$$$$
ligand
 OpenBabel11021811503D
libRbt.so/2013.1/901 2013/11/27
 11 12  0  0  0  0  0  0  0  0999 V2000
   -8.2501  -26.9570   29.8375 N   0  0  0  0  0  0  0  0  0  0  0  0
   -9.0715  -27.9130   29.3688 C   0  0  0  0  0  0  0  0  0  0  0  0
  -10.4640  -27.6482   29.2004 N   0  0  0  0  0  0  0  0  0  0  0  0
   -8.6288  -29.1296   29.0377 N   0  0  0  0  0  0  0  0  0  0  0  0
   -7.3041  -29.4655   29.1821 C   0  0  0  0  0  0  0  0  0  0  0  0
   -6.4304  -28.5124   29.6586 C   0  0  0  0  0  0  0  0  0  0  0  0
   -6.9292  -27.2187   29.9863 C   0  0  0  0  0  0  0  0  0  0  0  0
   -6.0674  -26.2585   30.4675 O   0  0  0  0  0  0  0  0  0  0  0  0
   -5.1394  -29.1292   29.6912 C   0  0  0  0  0  0  0  0  0  0  0  0
   -5.3139  -30.4417   29.2308 C   0  0  0  0  0  0  0  0  0  0  0  0
   -6.6064  -30.6262   28.9335 N   0  0  0  0  0  0  0  0  0  0  0  0
  1  2  1  0  0  0  0
  1  7  1  0  0  0  0
  2  3  1  0  0  0  0
  2  4  2  0  0  0  0
  4  5  1  0  0  0  0
  5  6  2  0  0  0  0
  5 11  1  0  0  0  0
  6  7  1  0  0  0  0
  6  9  1  0  0  0  0
  7  8  2  0  0  0  0
  9 10  2  0  0  0  0
 10 11  1  0  0  0  0
M  END
>  <CHROM.1>
-7.32376357,-28.42628061,29.52092460,-2.58010135,0.17372906,-2.82344629

>  <Name>
ligand

>  <RI>
0

>  <Rbt.Current_Directory>
/home/itssahil/PROJECTS/Mol_Feturizer/New_Systems/rnas/4LVW

>  <Rbt.Executable>
rbdock ($Id: //depot/dev/client3/rdock/2013.1/src/exe/rbdock.cxx#4 $)

>  <Rbt.Library>
libRbt.so (2013.1, Build901 2013/11/27)

>  <Rbt.Parameter_File>
/export/apps/rDock/src/rDock_2013.1_src/data/scripts/dock_solv.prm

>  <Rbt.Receptor>
prm/blind_docking_100.prm

>  <SCORE>
-12.5178

>  <SCORE.INTER>
-12.5178

>  <SCORE.INTER.CONST>
1

>  <SCORE.INTER.POLAR>
0

>  <SCORE.INTER.ROT>
0

>  <SCORE.INTER.SOLV>
4.71823

>  <SCORE.INTER.VDW>
-13.518

>  <SCORE.INTER.norm>
-1.13798

>  <SCORE.INTRA>
0

>  <SCORE.INTRA.DIHEDRAL>
0

>  <SCORE.INTRA.DIHEDRAL.0>
0

>  <SCORE.INTRA.POLAR>
0

>  <SCORE.INTRA.POLAR.0>
0

>  <SCORE.INTRA.REPUL>
0

>  <SCORE.INTRA.REPUL.0>
0

>  <SCORE.INTRA.SOLV>
0

>  <SCORE.INTRA.SOLV.lig_0>
-29.307

>  <SCORE.INTRA.VDW>
0

>  <SCORE.INTRA.VDW.0>
0

>  <SCORE.INTRA.norm>
0

>  <SCORE.RESTR>
0

>  <SCORE.RESTR.CAVITY>
0

>  <SCORE.RESTR.norm>
0

>  <SCORE.SYSTEM>
0

>  <SCORE.SYSTEM.CONST>
0

>  <SCORE.SYSTEM.DIHEDRAL>
0

>  <SCORE.SYSTEM.SOLV>
0

>  <SCORE.SYSTEM.norm>
0

>  <SCORE.heavy>
11

>  <SCORE.norm>
-1.13798

>  <RMSD>
13.055

$$$$
ligand
 OpenBabel11021811503D
libRbt.so/2013.1/901 2013/11/27
 11 12  0  0  0  0  0  0  0  0999 V2000
    2.5723  -25.3101   13.4625 N   0  0  0  0  0  0  0  0  0  0  0  0
    2.0111  -25.1516   12.2508 C   0  0  0  0  0  0  0  0  0  0  0  0
    2.8194  -24.8355   11.1175 N   0  0  0  0  0  0  0  0  0  0  0  0
    0.6963  -25.2879   12.0541 N   0  0  0  0  0  0  0  0  0  0  0  0
   -0.1499  -25.5799   13.0967 C   0  0  0  0  0  0  0  0  0  0  0  0
    0.3875  -25.7509   14.3540 C   0  0  0  0  0  0  0  0  0  0  0  0
    1.7950  -25.6167   14.5289 C   0  0  0  0  0  0  0  0  0  0  0  0
    2.3442  -25.7808   15.7810 O   0  0  0  0  0  0  0  0  0  0  0  0
   -0.7085  -26.0534   15.2232 C   0  0  0  0  0  0  0  0  0  0  0  0
   -1.8625  -26.0407   14.4275 C   0  0  0  0  0  0  0  0  0  0  0  0
   -1.5136  -25.7565   13.1664 N   0  0  0  0  0  0  0  0  0  0  0  0
  1  2  1  0  0  0  0
  1  7  1  0  0  0  0
  2  3  1  0  0  0  0
  2  4  2  0  0  0  0
  4  5  1  0  0  0  0
  5  6  2  0  0  0  0
  5 11  1  0  0  0  0
  6  7  1  0  0  0  0
  6  9  1  0  0  0  0
  7  8  2  0  0  0  0
  9 10  2  0  0  0  0
 10 11  1  0  0  0  0
M  END
>  <CHROM.1>
0.82771942,-25.55189240,13.58520459,-0.54188043,0.12041007,1.75812712

>  <Name>
ligand

>  <RI>
0

>  <Rbt.Current_Directory>
/home/itssahil/PROJECTS/Mol_Feturizer/New_Systems/rnas/4LVW

>  <Rbt.Executable>
rbdock ($Id: //depot/dev/client3/rdock/2013.1/src/exe/rbdock.cxx#4 $)

>  <Rbt.Library>
libRbt.so (2013.1, Build901 2013/11/27)

>  <Rbt.Parameter_File>
/export/apps/rDock/src/rDock_2013.1_src/data/scripts/dock_solv.prm

>  <Rbt.Receptor>
prm/blind_docking_40.prm

>  <SCORE>
-8.96289

>  <SCORE.INTER>
-8.96289

>  <SCORE.INTER.CONST>
1

>  <SCORE.INTER.POLAR>
0

>  <SCORE.INTER.ROT>
0

>  <SCORE.INTER.SOLV>
6.43959

>  <SCORE.INTER.VDW>
-11.7218

>  <SCORE.INTER.norm>
-0.814808

>  <SCORE.INTRA>
0

>  <SCORE.INTRA.DIHEDRAL>
0

>  <SCORE.INTRA.DIHEDRAL.0>
0

>  <SCORE.INTRA.POLAR>
0

>  <SCORE.INTRA.POLAR.0>
0

>  <SCORE.INTRA.REPUL>
0

>  <SCORE.INTRA.REPUL.0>
0

>  <SCORE.INTRA.SOLV>
0

>  <SCORE.INTRA.SOLV.lig_0>
-29.307

>  <SCORE.INTRA.VDW>
0

>  <SCORE.INTRA.VDW.0>
0

>  <SCORE.INTRA.norm>
0

>  <SCORE.RESTR>
0

>  <SCORE.RESTR.CAVITY>
0

>  <SCORE.RESTR.norm>
0

>  <SCORE.SYSTEM>
0

>  <SCORE.SYSTEM.CONST>
0

>  <SCORE.SYSTEM.DIHEDRAL>
0

>  <SCORE.SYSTEM.SOLV>
0

>  <SCORE.SYSTEM.norm>
0

>  <SCORE.heavy>
11

>  <SCORE.norm>
-0.814808

>  <RMSD>
13.067

$$$$
ligand
 OpenBabel11021811503D
libRbt.so/2013.1/901 2013/11/27
 11 12  0  0  0  0  0  0  0  0999 V2000
   -8.2216  -26.9190   29.8382 N   0  0  0  0  0  0  0  0  0  0  0  0
   -9.0800  -27.8599   29.4067 C   0  0  0  0  0  0  0  0  0  0  0  0
  -10.4685  -27.5599   29.2674 N   0  0  0  0  0  0  0  0  0  0  0  0
   -8.6786  -29.0938   29.0869 N   0  0  0  0  0  0  0  0  0  0  0  0
   -7.3604  -29.4635   29.2052 C   0  0  0  0  0  0  0  0  0  0  0  0
   -6.4497  -28.5266   29.6432 C   0  0  0  0  0  0  0  0  0  0  0  0
   -6.9050  -27.2143   29.9596 C   0  0  0  0  0  0  0  0  0  0  0  0
   -6.0059  -26.2700   30.4024 O   0  0  0  0  0  0  0  0  0  0  0  0
   -5.1754  -29.1781   29.6555 C   0  0  0  0  0  0  0  0  0  0  0  0
   -5.3967  -30.4931   29.2232 C   0  0  0  0  0  0  0  0  0  0  0  0
   -6.7007  -30.6470   28.9606 N   0  0  0  0  0  0  0  0  0  0  0  0
  1  2  1  0  0  0  0
  1  7  1  0  0  0  0
  2  3  1  0  0  0  0
  2  4  2  0  0  0  0
  4  5  1  0  0  0  0
  5  6  2  0  0  0  0
  5 11  1  0  0  0  0
  6  7  1  0  0  0  0
  6  9  1  0  0  0  0
  7  8  2  0  0  0  0
  9 10  2  0  0  0  0
 10 11  1  0  0  0  0
M  END
>  <CHROM.1>
-7.34350462,-28.41839817,29.52567299,-2.54622190,0.15862095,-2.84669421

>  <Name>
ligand

>  <RI>
0

>  <Rbt.Current_Directory>
/home/itssahil/PROJECTS/Mol_Feturizer/New_Systems/rnas/4LVW

>  <Rbt.Executable>
rbdock ($Id: //depot/dev/client3/rdock/2013.1/src/exe/rbdock.cxx#4 $)

>  <Rbt.Library>
libRbt.so (2013.1, Build901 2013/11/27)

>  <Rbt.Parameter_File>
/export/apps/rDock/src/rDock_2013.1_src/data/scripts/dock_solv.prm

>  <Rbt.Receptor>
prm/blind_docking_100.prm

>  <SCORE>
-12.5008

>  <SCORE.INTER>
-12.5008

>  <SCORE.INTER.CONST>
1

>  <SCORE.INTER.POLAR>
0

>  <SCORE.INTER.ROT>
0

>  <SCORE.INTER.SOLV>
4.99242

>  <SCORE.INTER.VDW>
-13.598

>  <SCORE.INTER.norm>
-1.13643

>  <SCORE.INTRA>
0

>  <SCORE.INTRA.DIHEDRAL>
0

>  <SCORE.INTRA.DIHEDRAL.0>
0

>  <SCORE.INTRA.POLAR>
0

>  <SCORE.INTRA.POLAR.0>
0

>  <SCORE.INTRA.REPUL>
0

>  <SCORE.INTRA.REPUL.0>
0

>  <SCORE.INTRA.SOLV>
0

>  <SCORE.INTRA.SOLV.lig_0>
-29.307

>  <SCORE.INTRA.VDW>
0

>  <SCORE.INTRA.VDW.0>
0

>  <SCORE.INTRA.norm>
0

>  <SCORE.RESTR>
0

>  <SCORE.RESTR.CAVITY>
0

>  <SCORE.RESTR.norm>
0

>  <SCORE.SYSTEM>
0

>  <SCORE.SYSTEM.CONST>
0

>  <SCORE.SYSTEM.DIHEDRAL>
0

>  <SCORE.SYSTEM.SOLV>
0

>  <SCORE.SYSTEM.norm>
0

>  <SCORE.heavy>
11

>  <SCORE.norm>
-1.13643

>  <RMSD>
13.072

$$$$
ligand
 OpenBabel11021811503D
libRbt.so/2013.1/901 2013/11/27
 11 12  0  0  0  0  0  0  0  0999 V2000
   -8.1960  -27.0221   29.7716 N   0  0  0  0  0  0  0  0  0  0  0  0
   -9.0266  -27.9699   29.3027 C   0  0  0  0  0  0  0  0  0  0  0  0
  -10.4109  -27.6825   29.1062 N   0  0  0  0  0  0  0  0  0  0  0  0
   -8.6007  -29.1992   28.9974 N   0  0  0  0  0  0  0  0  0  0  0  0
   -7.2851  -29.5568   29.1699 C   0  0  0  0  0  0  0  0  0  0  0  0
   -6.4023  -28.6127   29.6474 C   0  0  0  0  0  0  0  0  0  0  0  0
   -6.8828  -27.3054   29.9473 C   0  0  0  0  0  0  0  0  0  0  0  0
   -6.0119  -26.3539   30.4293 O   0  0  0  0  0  0  0  0  0  0  0  0
   -5.1237  -29.2522   29.7117 C   0  0  0  0  0  0  0  0  0  0  0  0
   -5.3143  -30.5682   29.2677 C   0  0  0  0  0  0  0  0  0  0  0  0
   -6.6047  -30.7336   28.9506 N   0  0  0  0  0  0  0  0  0  0  0  0
  1  2  1  0  0  0  0
  1  7  1  0  0  0  0
  2  3  1  0  0  0  0
  2  4  2  0  0  0  0
  4  5  1  0  0  0  0
  5  6  2  0  0  0  0
  5 11  1  0  0  0  0
  6  7  1  0  0  0  0
  6  9  1  0  0  0  0
  7  8  2  0  0  0  0
  9 10  2  0  0  0  0
 10 11  1  0  0  0  0
M  END
>  <CHROM.1>
-7.29146993,-28.51246175,29.49293418,-2.56777186,0.19581772,-2.84061090

>  <Name>
ligand

>  <RI>
0

>  <Rbt.Current_Directory>
/home/itssahil/PROJECTS/Mol_Feturizer/New_Systems/rnas/4LVW

>  <Rbt.Executable>
rbdock ($Id: //depot/dev/client3/rdock/2013.1/src/exe/rbdock.cxx#4 $)

>  <Rbt.Library>
libRbt.so (2013.1, Build901 2013/11/27)

>  <Rbt.Parameter_File>
/export/apps/rDock/src/rDock_2013.1_src/data/scripts/dock_solv.prm

>  <Rbt.Receptor>
prm/blind_docking_80.prm

>  <SCORE>
-12.6083

>  <SCORE.INTER>
-12.6083

>  <SCORE.INTER.CONST>
1

>  <SCORE.INTER.POLAR>
0

>  <SCORE.INTER.ROT>
0

>  <SCORE.INTER.SOLV>
4.80229

>  <SCORE.INTER.VDW>
-13.6063

>  <SCORE.INTER.norm>
-1.14621

>  <SCORE.INTRA>
0

>  <SCORE.INTRA.DIHEDRAL>
0

>  <SCORE.INTRA.DIHEDRAL.0>
0

>  <SCORE.INTRA.POLAR>
0

>  <SCORE.INTRA.POLAR.0>
0

>  <SCORE.INTRA.REPUL>
0

>  <SCORE.INTRA.REPUL.0>
0

>  <SCORE.INTRA.SOLV>
0

>  <SCORE.INTRA.SOLV.lig_0>
-29.307

>  <SCORE.INTRA.VDW>
0

>  <SCORE.INTRA.VDW.0>
0

>  <SCORE.INTRA.norm>
0

>  <SCORE.RESTR>
0

>  <SCORE.RESTR.CAVITY>
0

>  <SCORE.RESTR.norm>
0

>  <SCORE.SYSTEM>
0

>  <SCORE.SYSTEM.CONST>
0

>  <SCORE.SYSTEM.DIHEDRAL>
0

>  <SCORE.SYSTEM.SOLV>
0

>  <SCORE.SYSTEM.norm>
0

>  <SCORE.heavy>
11

>  <SCORE.norm>
-1.14621

>  <RMSD>
13.081

$$$$
ligand
 OpenBabel11021811503D
libRbt.so/2013.1/901 2013/11/27
 11 12  0  0  0  0  0  0  0  0999 V2000
   -8.2158  -27.0136   29.7838 N   0  0  0  0  0  0  0  0  0  0  0  0
   -9.0504  -27.9515   29.3019 C   0  0  0  0  0  0  0  0  0  0  0  0
  -10.4328  -27.6545   29.1060 N   0  0  0  0  0  0  0  0  0  0  0  0
   -8.6303  -29.1793   28.9829 N   0  0  0  0  0  0  0  0  0  0  0  0
   -7.3170  -29.5459   29.1539 C   0  0  0  0  0  0  0  0  0  0  0  0
   -6.4302  -28.6121   29.6444 C   0  0  0  0  0  0  0  0  0  0  0  0
   -6.9045  -27.3059   29.9588 C   0  0  0  0  0  0  0  0  0  0  0  0
   -6.0297  -26.3648   30.4538 O   0  0  0  0  0  0  0  0  0  0  0  0
   -5.1551  -29.2590   29.7037 C   0  0  0  0  0  0  0  0  0  0  0  0
   -5.3517  -30.5686   29.2438 C   0  0  0  0  0  0  0  0  0  0  0  0
   -6.6422  -30.7235   28.9220 N   0  0  0  0  0  0  0  0  0  0  0  0
  1  2  1  0  0  0  0
  1  7  1  0  0  0  0
  2  3  1  0  0  0  0
  2  4  2  0  0  0  0
  4  5  1  0  0  0  0
  5  6  2  0  0  0  0
  5 11  1  0  0  0  0
  6  7  1  0  0  0  0
  6  9  1  0  0  0  0
  7  8  2  0  0  0  0
  9 10  2  0  0  0  0
 10 11  1  0  0  0  0
M  END
>  <CHROM.1>
-7.31851949,-28.50536408,29.48928739,-2.56331952,0.19937755,-2.82963106

>  <Name>
ligand

>  <RI>
0

>  <Rbt.Current_Directory>
/home/itssahil/PROJECTS/Mol_Feturizer/New_Systems/rnas/4LVW

>  <Rbt.Executable>
rbdock ($Id: //depot/dev/client3/rdock/2013.1/src/exe/rbdock.cxx#4 $)

>  <Rbt.Library>
libRbt.so (2013.1, Build901 2013/11/27)

>  <Rbt.Parameter_File>
/export/apps/rDock/src/rDock_2013.1_src/data/scripts/dock_solv.prm

>  <Rbt.Receptor>
prm/blind_docking_60.prm

>  <SCORE>
-12.5506

>  <SCORE.INTER>
-12.5506

>  <SCORE.INTER.CONST>
1

>  <SCORE.INTER.POLAR>
0

>  <SCORE.INTER.ROT>
0

>  <SCORE.INTER.SOLV>
4.82896

>  <SCORE.INTER.VDW>
-13.5767

>  <SCORE.INTER.norm>
-1.14096

>  <SCORE.INTRA>
0

>  <SCORE.INTRA.DIHEDRAL>
0

>  <SCORE.INTRA.DIHEDRAL.0>
0

>  <SCORE.INTRA.POLAR>
0

>  <SCORE.INTRA.POLAR.0>
0

>  <SCORE.INTRA.REPUL>
0

>  <SCORE.INTRA.REPUL.0>
0

>  <SCORE.INTRA.SOLV>
0

>  <SCORE.INTRA.SOLV.lig_0>
-29.307

>  <SCORE.INTRA.VDW>
0

>  <SCORE.INTRA.VDW.0>
0

>  <SCORE.INTRA.norm>
0

>  <SCORE.RESTR>
0

>  <SCORE.RESTR.CAVITY>
0

>  <SCORE.RESTR.norm>
0

>  <SCORE.SYSTEM>
0

>  <SCORE.SYSTEM.CONST>
0

>  <SCORE.SYSTEM.DIHEDRAL>
0

>  <SCORE.SYSTEM.SOLV>
0

>  <SCORE.SYSTEM.norm>
0

>  <SCORE.heavy>
11

>  <SCORE.norm>
-1.14096

>  <RMSD>
13.094

$$$$
ligand
 OpenBabel11021811503D
libRbt.so/2013.1/901 2013/11/27
 11 12  0  0  0  0  0  0  0  0999 V2000
   -8.2477  -27.0004   29.7626 N   0  0  0  0  0  0  0  0  0  0  0  0
   -9.0686  -27.9542   29.2887 C   0  0  0  0  0  0  0  0  0  0  0  0
  -10.4529  -27.6758   29.0801 N   0  0  0  0  0  0  0  0  0  0  0  0
   -8.6325  -29.1814   28.9892 N   0  0  0  0  0  0  0  0  0  0  0  0
   -7.3162  -29.5306   29.1733 C   0  0  0  0  0  0  0  0  0  0  0  0
   -6.4433  -28.5801   29.6563 C   0  0  0  0  0  0  0  0  0  0  0  0
   -6.9343  -27.2753   29.9497 C   0  0  0  0  0  0  0  0  0  0  0  0
   -6.0733  -26.3175   30.4372 O   0  0  0  0  0  0  0  0  0  0  0  0
   -5.1613  -29.2117   29.7324 C   0  0  0  0  0  0  0  0  0  0  0  0
   -5.3401  -30.5295   29.2893 C   0  0  0  0  0  0  0  0  0  0  0  0
   -6.6267  -30.7035   28.9618 N   0  0  0  0  0  0  0  0  0  0  0  0
  1  2  1  0  0  0  0
  1  7  1  0  0  0  0
  2  3  1  0  0  0  0
  2  4  2  0  0  0  0
  4  5  1  0  0  0  0
  5  6  2  0  0  0  0
  5 11  1  0  0  0  0
  6  7  1  0  0  0  0
  6  9  1  0  0  0  0
  7  8  2  0  0  0  0
  9 10  2  0  0  0  0
 10 11  1  0  0  0  0
M  END
>  <CHROM.1>
-7.33171110,-28.48571742,29.49428024,-2.57630188,0.20189762,-2.84077292

>  <Name>
ligand

>  <RI>
0

>  <Rbt.Current_Directory>
/home/itssahil/PROJECTS/Mol_Feturizer/New_Systems/rnas/4LVW

>  <Rbt.Executable>
rbdock ($Id: //depot/dev/client3/rdock/2013.1/src/exe/rbdock.cxx#4 $)

>  <Rbt.Library>
libRbt.so (2013.1, Build901 2013/11/27)

>  <Rbt.Parameter_File>
/export/apps/rDock/src/rDock_2013.1_src/data/scripts/dock_solv.prm

>  <Rbt.Receptor>
prm/blind_docking_60.prm

>  <SCORE>
-12.5826

>  <SCORE.INTER>
-12.5826

>  <SCORE.INTER.CONST>
1

>  <SCORE.INTER.POLAR>
0

>  <SCORE.INTER.ROT>
0

>  <SCORE.INTER.SOLV>
4.77917

>  <SCORE.INTER.VDW>
-13.5815

>  <SCORE.INTER.norm>
-1.14387

>  <SCORE.INTRA>
0

>  <SCORE.INTRA.DIHEDRAL>
0

>  <SCORE.INTRA.DIHEDRAL.0>
0

>  <SCORE.INTRA.POLAR>
0

>  <SCORE.INTRA.POLAR.0>
0

>  <SCORE.INTRA.REPUL>
0

>  <SCORE.INTRA.REPUL.0>
0

>  <SCORE.INTRA.SOLV>
0

>  <SCORE.INTRA.SOLV.lig_0>
-29.307

>  <SCORE.INTRA.VDW>
0

>  <SCORE.INTRA.VDW.0>
0

>  <SCORE.INTRA.norm>
0

>  <SCORE.RESTR>
0

>  <SCORE.RESTR.CAVITY>
0

>  <SCORE.RESTR.norm>
0

>  <SCORE.SYSTEM>
0

>  <SCORE.SYSTEM.CONST>
0

>  <SCORE.SYSTEM.DIHEDRAL>
0

>  <SCORE.SYSTEM.SOLV>
0

>  <SCORE.SYSTEM.norm>
0

>  <SCORE.heavy>
11

>  <SCORE.norm>
-1.14387

>  <RMSD>
13.094

$$$$
ligand
 OpenBabel11021811503D
libRbt.so/2013.1/901 2013/11/27
 11 12  0  0  0  0  0  0  0  0999 V2000
   -8.2498  -26.9758   29.8373 N   0  0  0  0  0  0  0  0  0  0  0  0
   -9.0838  -27.9238   29.3747 C   0  0  0  0  0  0  0  0  0  0  0  0
  -10.4725  -27.6413   29.2035 N   0  0  0  0  0  0  0  0  0  0  0  0
   -8.6574  -29.1486   29.0525 N   0  0  0  0  0  0  0  0  0  0  0  0
   -7.3375  -29.5014   29.2003 C   0  0  0  0  0  0  0  0  0  0  0  0
   -6.4512  -28.5569   29.6706 C   0  0  0  0  0  0  0  0  0  0  0  0
   -6.9326  -27.2543   29.9889 C   0  0  0  0  0  0  0  0  0  0  0  0
   -6.0582  -26.3025   30.4640 O   0  0  0  0  0  0  0  0  0  0  0  0
   -5.1687  -29.1909   29.7085 C   0  0  0  0  0  0  0  0  0  0  0  0
   -5.3607  -30.5041   29.2572 C   0  0  0  0  0  0  0  0  0  0  0  0
   -6.6554  -30.6731   28.9602 N   0  0  0  0  0  0  0  0  0  0  0  0
  1  2  1  0  0  0  0
  1  7  1  0  0  0  0
  2  3  1  0  0  0  0
  2  4  2  0  0  0  0
  4  5  1  0  0  0  0
  5  6  2  0  0  0  0
  5 11  1  0  0  0  0
  6  7  1  0  0  0  0
  6  9  1  0  0  0  0
  7  8  2  0  0  0  0
  9 10  2  0  0  0  0
 10 11  1  0  0  0  0
M  END
>  <CHROM.1>
-7.34323975,-28.45965322,29.53172469,-2.56721501,0.17856184,-2.83271864

>  <Name>
ligand

>  <RI>
0

>  <Rbt.Current_Directory>
/home/itssahil/PROJECTS/Mol_Feturizer/New_Systems/rnas/4LVW

>  <Rbt.Executable>
rbdock ($Id: //depot/dev/client3/rdock/2013.1/src/exe/rbdock.cxx#4 $)

>  <Rbt.Library>
libRbt.so (2013.1, Build901 2013/11/27)

>  <Rbt.Parameter_File>
/export/apps/rDock/src/rDock_2013.1_src/data/scripts/dock_solv.prm

>  <Rbt.Receptor>
prm/blind_docking_100.prm

>  <SCORE>
-12.5265

>  <SCORE.INTER>
-12.5265

>  <SCORE.INTER.CONST>
1

>  <SCORE.INTER.POLAR>
0

>  <SCORE.INTER.ROT>
0

>  <SCORE.INTER.SOLV>
4.69775

>  <SCORE.INTER.VDW>
-13.5169

>  <SCORE.INTER.norm>
-1.13877

>  <SCORE.INTRA>
0

>  <SCORE.INTRA.DIHEDRAL>
0

>  <SCORE.INTRA.DIHEDRAL.0>
0

>  <SCORE.INTRA.POLAR>
0

>  <SCORE.INTRA.POLAR.0>
0

>  <SCORE.INTRA.REPUL>
0

>  <SCORE.INTRA.REPUL.0>
0

>  <SCORE.INTRA.SOLV>
0

>  <SCORE.INTRA.SOLV.lig_0>
-29.307

>  <SCORE.INTRA.VDW>
0

>  <SCORE.INTRA.VDW.0>
0

>  <SCORE.INTRA.norm>
0

>  <SCORE.RESTR>
0

>  <SCORE.RESTR.CAVITY>
0

>  <SCORE.RESTR.norm>
0

>  <SCORE.SYSTEM>
0

>  <SCORE.SYSTEM.CONST>
0

>  <SCORE.SYSTEM.DIHEDRAL>
0

>  <SCORE.SYSTEM.SOLV>
0

>  <SCORE.SYSTEM.norm>
0

>  <SCORE.heavy>
11

>  <SCORE.norm>
-1.13877

>  <RMSD>
13.096

$$$$
ligand
 OpenBabel11021811503D
libRbt.so/2013.1/901 2013/11/27
 11 12  0  0  0  0  0  0  0  0999 V2000
   -8.2229  -27.0232   29.7722 N   0  0  0  0  0  0  0  0  0  0  0  0
   -9.0560  -27.9692   29.3037 C   0  0  0  0  0  0  0  0  0  0  0  0
  -10.4401  -27.6792   29.1097 N   0  0  0  0  0  0  0  0  0  0  0  0
   -8.6327  -29.1989   28.9964 N   0  0  0  0  0  0  0  0  0  0  0  0
   -7.3174  -29.5590   29.1665 C   0  0  0  0  0  0  0  0  0  0  0  0
   -6.4322  -28.6168   29.6436 C   0  0  0  0  0  0  0  0  0  0  0  0
   -6.9100  -27.3090   29.9455 C   0  0  0  0  0  0  0  0  0  0  0  0
   -6.0367  -26.3595   30.4271 O   0  0  0  0  0  0  0  0  0  0  0  0
   -5.1546  -29.2586   29.7051 C   0  0  0  0  0  0  0  0  0  0  0  0
   -5.3482  -30.5738   29.2601 C   0  0  0  0  0  0  0  0  0  0  0  0
   -6.6393  -30.7367   28.9449 N   0  0  0  0  0  0  0  0  0  0  0  0
  1  2  1  0  0  0  0
  1  7  1  0  0  0  0
  2  3  1  0  0  0  0
  2  4  2  0  0  0  0
  4  5  1  0  0  0  0
  5  6  2  0  0  0  0
  5 11  1  0  0  0  0
  6  7  1  0  0  0  0
  6  9  1  0  0  0  0
  7  8  2  0  0  0  0
  9 10  2  0  0  0  0
 10 11  1  0  0  0  0
M  END
>  <CHROM.1>
-7.32144733,-28.51491705,29.49058312,-2.56561475,0.19479078,-2.84002194

>  <Name>
ligand

>  <RI>
0

>  <Rbt.Current_Directory>
/home/itssahil/PROJECTS/Mol_Feturizer/New_Systems/rnas/4LVW

>  <Rbt.Executable>
rbdock ($Id: //depot/dev/client3/rdock/2013.1/src/exe/rbdock.cxx#4 $)

>  <Rbt.Library>
libRbt.so (2013.1, Build901 2013/11/27)

>  <Rbt.Parameter_File>
/export/apps/rDock/src/rDock_2013.1_src/data/scripts/dock_solv.prm

>  <Rbt.Receptor>
prm/blind_docking_60.prm

>  <SCORE>
-12.6022

>  <SCORE.INTER>
-12.6022

>  <SCORE.INTER.CONST>
1

>  <SCORE.INTER.POLAR>
0

>  <SCORE.INTER.ROT>
0

>  <SCORE.INTER.SOLV>
4.78681

>  <SCORE.INTER.VDW>
-13.5971

>  <SCORE.INTER.norm>
-1.14565

>  <SCORE.INTRA>
0

>  <SCORE.INTRA.DIHEDRAL>
0

>  <SCORE.INTRA.DIHEDRAL.0>
0

>  <SCORE.INTRA.POLAR>
0

>  <SCORE.INTRA.POLAR.0>
0

>  <SCORE.INTRA.REPUL>
0

>  <SCORE.INTRA.REPUL.0>
0

>  <SCORE.INTRA.SOLV>
0

>  <SCORE.INTRA.SOLV.lig_0>
-29.307

>  <SCORE.INTRA.VDW>
0

>  <SCORE.INTRA.VDW.0>
0

>  <SCORE.INTRA.norm>
0

>  <SCORE.RESTR>
0

>  <SCORE.RESTR.CAVITY>
0

>  <SCORE.RESTR.norm>
0

>  <SCORE.SYSTEM>
0

>  <SCORE.SYSTEM.CONST>
0

>  <SCORE.SYSTEM.DIHEDRAL>
0

>  <SCORE.SYSTEM.SOLV>
0

>  <SCORE.SYSTEM.norm>
0

>  <SCORE.heavy>
11

>  <SCORE.norm>
-1.14565

>  <RMSD>
13.103

$$$$
ligand
 OpenBabel11021811503D
libRbt.so/2013.1/901 2013/11/27
 11 12  0  0  0  0  0  0  0  0999 V2000
   -8.2784  -27.0380   29.7462 N   0  0  0  0  0  0  0  0  0  0  0  0
   -9.0866  -28.0070   29.2814 C   0  0  0  0  0  0  0  0  0  0  0  0
  -10.4749  -27.7494   29.0724 N   0  0  0  0  0  0  0  0  0  0  0  0
   -8.6341  -29.2305   28.9917 N   0  0  0  0  0  0  0  0  0  0  0  0
   -7.3128  -29.5599   29.1770 C   0  0  0  0  0  0  0  0  0  0  0  0
   -6.4525  -28.5935   29.6509 C   0  0  0  0  0  0  0  0  0  0  0  0
   -6.9611  -27.2931   29.9339 C   0  0  0  0  0  0  0  0  0  0  0  0
   -6.1129  -26.3194   30.4121 O   0  0  0  0  0  0  0  0  0  0  0  0
   -5.1618  -29.2065   29.7305 C   0  0  0  0  0  0  0  0  0  0  0  0
   -5.3230  -30.5305   29.2988 C   0  0  0  0  0  0  0  0  0  0  0  0
   -6.6074  -30.7250   28.9745 N   0  0  0  0  0  0  0  0  0  0  0  0
  1  2  1  0  0  0  0
  1  7  1  0  0  0  0
  2  3  1  0  0  0  0
  2  4  2  0  0  0  0
  4  5  1  0  0  0  0
  5  6  2  0  0  0  0
  5 11  1  0  0  0  0
  6  7  1  0  0  0  0
  6  9  1  0  0  0  0
  7  8  2  0  0  0  0
  9 10  2  0  0  0  0
 10 11  1  0  0  0  0
M  END
>  <CHROM.1>
-7.34235788,-28.51267748,29.48920677,-2.58938864,0.19662558,-2.84664063

>  <Name>
ligand

>  <RI>
0

>  <Rbt.Current_Directory>
/home/itssahil/PROJECTS/Mol_Feturizer/New_Systems/rnas/4LVW

>  <Rbt.Executable>
rbdock ($Id: //depot/dev/client3/rdock/2013.1/src/exe/rbdock.cxx#4 $)

>  <Rbt.Library>
libRbt.so (2013.1, Build901 2013/11/27)

>  <Rbt.Parameter_File>
/export/apps/rDock/src/rDock_2013.1_src/data/scripts/dock_solv.prm

>  <Rbt.Receptor>
prm/blind_docking_80.prm

>  <SCORE>
-12.568

>  <SCORE.INTER>
-12.568

>  <SCORE.INTER.CONST>
1

>  <SCORE.INTER.POLAR>
0

>  <SCORE.INTER.ROT>
0

>  <SCORE.INTER.SOLV>
4.67444

>  <SCORE.INTER.VDW>
-13.5368

>  <SCORE.INTER.norm>
-1.14254

>  <SCORE.INTRA>
0

>  <SCORE.INTRA.DIHEDRAL>
0

>  <SCORE.INTRA.DIHEDRAL.0>
0

>  <SCORE.INTRA.POLAR>
0

>  <SCORE.INTRA.POLAR.0>
0

>  <SCORE.INTRA.REPUL>
0

>  <SCORE.INTRA.REPUL.0>
0

>  <SCORE.INTRA.SOLV>
0

>  <SCORE.INTRA.SOLV.lig_0>
-29.307

>  <SCORE.INTRA.VDW>
0

>  <SCORE.INTRA.VDW.0>
0

>  <SCORE.INTRA.norm>
0

>  <SCORE.RESTR>
0

>  <SCORE.RESTR.CAVITY>
0

>  <SCORE.RESTR.norm>
0

>  <SCORE.SYSTEM>
0

>  <SCORE.SYSTEM.CONST>
0

>  <SCORE.SYSTEM.DIHEDRAL>
0

>  <SCORE.SYSTEM.SOLV>
0

>  <SCORE.SYSTEM.norm>
0

>  <SCORE.heavy>
11

>  <SCORE.norm>
-1.14254

>  <RMSD>
13.115

$$$$
ligand
 OpenBabel11021811503D
libRbt.so/2013.1/901 2013/11/27
 11 12  0  0  0  0  0  0  0  0999 V2000
   -8.2788  -27.0375   29.7605 N   0  0  0  0  0  0  0  0  0  0  0  0
   -9.0937  -28.0005   29.2949 C   0  0  0  0  0  0  0  0  0  0  0  0
  -10.4825  -27.7367   29.0975 N   0  0  0  0  0  0  0  0  0  0  0  0
   -8.6475  -29.2237   28.9938 N   0  0  0  0  0  0  0  0  0  0  0  0
   -7.3262  -29.5589   29.1674 C   0  0  0  0  0  0  0  0  0  0  0  0
   -6.4591  -28.5987   29.6417 C   0  0  0  0  0  0  0  0  0  0  0  0
   -6.9611  -27.2985   29.9371 C   0  0  0  0  0  0  0  0  0  0  0  0
   -6.1061  -26.3310   30.4158 O   0  0  0  0  0  0  0  0  0  0  0  0
   -5.1700  -29.2168   29.7080 C   0  0  0  0  0  0  0  0  0  0  0  0
   -5.3389  -30.5372   29.2686 C   0  0  0  0  0  0  0  0  0  0  0  0
   -6.6264  -30.7250   28.9521 N   0  0  0  0  0  0  0  0  0  0  0  0
  1  2  1  0  0  0  0
  1  7  1  0  0  0  0
  2  3  1  0  0  0  0
  2  4  2  0  0  0  0
  4  5  1  0  0  0  0
  5  6  2  0  0  0  0
  5 11  1  0  0  0  0
  6  7  1  0  0  0  0
  6  9  1  0  0  0  0
  7  8  2  0  0  0  0
  9 10  2  0  0  0  0
 10 11  1  0  0  0  0
M  END
>  <CHROM.1>
-7.34978691,-28.51369783,29.48688015,-2.58384959,0.19087570,-2.84095078

>  <Name>
ligand

>  <RI>
0

>  <Rbt.Current_Directory>
/home/itssahil/PROJECTS/Mol_Feturizer/New_Systems/rnas/4LVW

>  <Rbt.Executable>
rbdock ($Id: //depot/dev/client3/rdock/2013.1/src/exe/rbdock.cxx#4 $)

>  <Rbt.Library>
libRbt.so (2013.1, Build901 2013/11/27)

>  <Rbt.Parameter_File>
/export/apps/rDock/src/rDock_2013.1_src/data/scripts/dock_solv.prm

>  <Rbt.Receptor>
prm/blind_docking_80.prm

>  <SCORE>
-12.5667

>  <SCORE.INTER>
-12.5667

>  <SCORE.INTER.CONST>
1

>  <SCORE.INTER.POLAR>
0

>  <SCORE.INTER.ROT>
0

>  <SCORE.INTER.SOLV>
4.67518

>  <SCORE.INTER.VDW>
-13.5362

>  <SCORE.INTER.norm>
-1.14243

>  <SCORE.INTRA>
0

>  <SCORE.INTRA.DIHEDRAL>
0

>  <SCORE.INTRA.DIHEDRAL.0>
0

>  <SCORE.INTRA.POLAR>
0

>  <SCORE.INTRA.POLAR.0>
0

>  <SCORE.INTRA.REPUL>
0

>  <SCORE.INTRA.REPUL.0>
0

>  <SCORE.INTRA.SOLV>
0

>  <SCORE.INTRA.SOLV.lig_0>
-29.307

>  <SCORE.INTRA.VDW>
0

>  <SCORE.INTRA.VDW.0>
0

>  <SCORE.INTRA.norm>
0

>  <SCORE.RESTR>
0

>  <SCORE.RESTR.CAVITY>
0

>  <SCORE.RESTR.norm>
0

>  <SCORE.SYSTEM>
0

>  <SCORE.SYSTEM.CONST>
0

>  <SCORE.SYSTEM.DIHEDRAL>
0

>  <SCORE.SYSTEM.SOLV>
0

>  <SCORE.SYSTEM.norm>
0

>  <SCORE.heavy>
11

>  <SCORE.norm>
-1.14243

>  <RMSD>
13.119

$$$$
ligand
 OpenBabel11021811503D
libRbt.so/2013.1/901 2013/11/27
 11 12  0  0  0  0  0  0  0  0999 V2000
   -8.2327  -27.0843   29.8367 N   0  0  0  0  0  0  0  0  0  0  0  0
   -9.0493  -27.9959   29.2796 C   0  0  0  0  0  0  0  0  0  0  0  0
  -10.4224  -27.6854   29.0438 N   0  0  0  0  0  0  0  0  0  0  0  0
   -8.6190  -29.2090   28.9206 N   0  0  0  0  0  0  0  0  0  0  0  0
   -7.3140  -29.5876   29.1255 C   0  0  0  0  0  0  0  0  0  0  0  0
   -6.4457  -28.6806   29.6932 C   0  0  0  0  0  0  0  0  0  0  0  0
   -6.9298  -27.3889   30.0491 C   0  0  0  0  0  0  0  0  0  0  0  0
   -6.0735  -26.4746   30.6211 O   0  0  0  0  0  0  0  0  0  0  0  0
   -5.1748  -29.3340   29.7721 C   0  0  0  0  0  0  0  0  0  0  0  0
   -5.3554  -30.6202   29.2445 C   0  0  0  0  0  0  0  0  0  0  0  0
   -6.6325  -30.7556   28.8658 N   0  0  0  0  0  0  0  0  0  0  0  0
  1  2  1  0  0  0  0
  1  7  1  0  0  0  0
  2  3  1  0  0  0  0
  2  4  2  0  0  0  0
  4  5  1  0  0  0  0
  5  6  2  0  0  0  0
  5 11  1  0  0  0  0
  6  7  1  0  0  0  0
  6  9  1  0  0  0  0
  7  8  2  0  0  0  0
  9 10  2  0  0  0  0
 10 11  1  0  0  0  0
M  END
>  <CHROM.1>
-7.32699957,-28.56380074,29.50856750,-2.57411852,0.23717649,-2.78085572

>  <Name>
ligand

>  <RI>
0

>  <Rbt.Current_Directory>
/home/itssahil/PROJECTS/Mol_Feturizer/New_Systems/rnas/4LVW

>  <Rbt.Executable>
rbdock ($Id: //depot/dev/client3/rdock/2013.1/src/exe/rbdock.cxx#4 $)

>  <Rbt.Library>
libRbt.so (2013.1, Build901 2013/11/27)

>  <Rbt.Parameter_File>
/export/apps/rDock/src/rDock_2013.1_src/data/scripts/dock_solv.prm

>  <Rbt.Receptor>
prm/blind_docking_80.prm

>  <SCORE>
-12.6522

>  <SCORE.INTER>
-12.6522

>  <SCORE.INTER.CONST>
1

>  <SCORE.INTER.POLAR>
0

>  <SCORE.INTER.ROT>
0

>  <SCORE.INTER.SOLV>
4.5254

>  <SCORE.INTER.VDW>
-13.5433

>  <SCORE.INTER.norm>
-1.1502

>  <SCORE.INTRA>
0

>  <SCORE.INTRA.DIHEDRAL>
0

>  <SCORE.INTRA.DIHEDRAL.0>
0

>  <SCORE.INTRA.POLAR>
0

>  <SCORE.INTRA.POLAR.0>
0

>  <SCORE.INTRA.REPUL>
0

>  <SCORE.INTRA.REPUL.0>
0

>  <SCORE.INTRA.SOLV>
0

>  <SCORE.INTRA.SOLV.lig_0>
-29.307

>  <SCORE.INTRA.VDW>
0

>  <SCORE.INTRA.VDW.0>
0

>  <SCORE.INTRA.norm>
0

>  <SCORE.RESTR>
0

>  <SCORE.RESTR.CAVITY>
0

>  <SCORE.RESTR.norm>
0

>  <SCORE.SYSTEM>
0

>  <SCORE.SYSTEM.CONST>
0

>  <SCORE.SYSTEM.DIHEDRAL>
0

>  <SCORE.SYSTEM.SOLV>
0

>  <SCORE.SYSTEM.norm>
0

>  <SCORE.heavy>
11

>  <SCORE.norm>
-1.1502

>  <RMSD>
13.139

$$$$
ligand
 OpenBabel11021811503D
libRbt.so/2013.1/901 2013/11/27
 11 12  0  0  0  0  0  0  0  0999 V2000
   -8.2598  -27.0548   29.8548 N   0  0  0  0  0  0  0  0  0  0  0  0
   -9.0729  -27.9691   29.2970 C   0  0  0  0  0  0  0  0  0  0  0  0
  -10.4442  -27.6593   29.0498 N   0  0  0  0  0  0  0  0  0  0  0  0
   -8.6406  -29.1844   28.9476 N   0  0  0  0  0  0  0  0  0  0  0  0
   -7.3372  -29.5624   29.1638 C   0  0  0  0  0  0  0  0  0  0  0  0
   -6.4725  -28.6527   29.7325 C   0  0  0  0  0  0  0  0  0  0  0  0
   -6.9585  -27.3588   30.0780 C   0  0  0  0  0  0  0  0  0  0  0  0
   -6.1059  -26.4418   30.6510 O   0  0  0  0  0  0  0  0  0  0  0  0
   -5.2026  -29.3062   29.8239 C   0  0  0  0  0  0  0  0  0  0  0  0
   -5.3800  -30.5951   29.3021 C   0  0  0  0  0  0  0  0  0  0  0  0
   -6.6545  -30.7320   28.9151 N   0  0  0  0  0  0  0  0  0  0  0  0
  1  2  1  0  0  0  0
  1  7  1  0  0  0  0
  2  3  1  0  0  0  0
  2  4  2  0  0  0  0
  4  5  1  0  0  0  0
  5  6  2  0  0  0  0
  5 11  1  0  0  0  0
  6  7  1  0  0  0  0
  6  9  1  0  0  0  0
  7  8  2  0  0  0  0
  9 10  2  0  0  0  0
 10 11  1  0  0  0  0
M  END
>  <CHROM.1>
-7.35249311,-28.53647040,29.54110641,-2.57622799,0.24390766,-2.78579799

>  <Name>
ligand

>  <RI>
0

>  <Rbt.Current_Directory>
/home/itssahil/PROJECTS/Mol_Feturizer/New_Systems/rnas/4LVW

>  <Rbt.Executable>
rbdock ($Id: //depot/dev/client3/rdock/2013.1/src/exe/rbdock.cxx#4 $)

>  <Rbt.Library>
libRbt.so (2013.1, Build901 2013/11/27)

>  <Rbt.Parameter_File>
/export/apps/rDock/src/rDock_2013.1_src/data/scripts/dock_solv.prm

>  <Rbt.Receptor>
prm/blind_docking_60.prm

>  <SCORE>
-12.5986

>  <SCORE.INTER>
-12.5986

>  <SCORE.INTER.CONST>
1

>  <SCORE.INTER.POLAR>
0

>  <SCORE.INTER.ROT>
0

>  <SCORE.INTER.SOLV>
4.47905

>  <SCORE.INTER.VDW>
-13.4921

>  <SCORE.INTER.norm>
-1.14532

>  <SCORE.INTRA>
0

>  <SCORE.INTRA.DIHEDRAL>
0

>  <SCORE.INTRA.DIHEDRAL.0>
0

>  <SCORE.INTRA.POLAR>
0

>  <SCORE.INTRA.POLAR.0>
0

>  <SCORE.INTRA.REPUL>
0

>  <SCORE.INTRA.REPUL.0>
0

>  <SCORE.INTRA.SOLV>
0

>  <SCORE.INTRA.SOLV.lig_0>
-29.307

>  <SCORE.INTRA.VDW>
0

>  <SCORE.INTRA.VDW.0>
0

>  <SCORE.INTRA.norm>
0

>  <SCORE.RESTR>
0

>  <SCORE.RESTR.CAVITY>
0

>  <SCORE.RESTR.norm>
0

>  <SCORE.SYSTEM>
0

>  <SCORE.SYSTEM.CONST>
0

>  <SCORE.SYSTEM.DIHEDRAL>
0

>  <SCORE.SYSTEM.SOLV>
0

>  <SCORE.SYSTEM.norm>
0

>  <SCORE.heavy>
11

>  <SCORE.norm>
-1.14532

>  <RMSD>
13.153

$$$$
ligand
 OpenBabel11021811503D
libRbt.so/2013.1/901 2013/11/27
 11 12  0  0  0  0  0  0  0  0999 V2000
   -8.2419  -27.0430   29.9497 N   0  0  0  0  0  0  0  0  0  0  0  0
   -9.0732  -27.9572   29.4191 C   0  0  0  0  0  0  0  0  0  0  0  0
  -10.4528  -27.6487   29.2216 N   0  0  0  0  0  0  0  0  0  0  0  0
   -8.6520  -29.1711   29.0517 N   0  0  0  0  0  0  0  0  0  0  0  0
   -7.3413  -29.5478   29.2205 C   0  0  0  0  0  0  0  0  0  0  0  0
   -6.4581  -28.6382   29.7603 C   0  0  0  0  0  0  0  0  0  0  0  0
   -6.9331  -27.3457   30.1257 C   0  0  0  0  0  0  0  0  0  0  0  0
   -6.0618  -26.4289   30.6702 O   0  0  0  0  0  0  0  0  0  0  0  0
   -5.1848  -29.2901   29.8050 C   0  0  0  0  0  0  0  0  0  0  0  0
   -5.3791  -30.5781   29.2868 C   0  0  0  0  0  0  0  0  0  0  0  0
   -6.6664  -30.7159   28.9451 N   0  0  0  0  0  0  0  0  0  0  0  0
  1  2  1  0  0  0  0
  1  7  1  0  0  0  0
  2  3  1  0  0  0  0
  2  4  2  0  0  0  0
  4  5  1  0  0  0  0
  5  6  2  0  0  0  0
  5 11  1  0  0  0  0
  6  7  1  0  0  0  0
  6  9  1  0  0  0  0
  7  8  2  0  0  0  0
  9 10  2  0  0  0  0
 10 11  1  0  0  0  0
M  END
>  <CHROM.1>
-7.34443167,-28.52274637,29.60054099,-2.56479004,0.21008713,-2.78611799

>  <Name>
ligand

>  <RI>
0

>  <Rbt.Current_Directory>
/home/itssahil/PROJECTS/Mol_Feturizer/New_Systems/rnas/4LVW

>  <Rbt.Executable>
rbdock ($Id: //depot/dev/client3/rdock/2013.1/src/exe/rbdock.cxx#4 $)

>  <Rbt.Library>
libRbt.so (2013.1, Build901 2013/11/27)

>  <Rbt.Parameter_File>
/export/apps/rDock/src/rDock_2013.1_src/data/scripts/dock_solv.prm

>  <Rbt.Receptor>
prm/blind_docking_100.prm

>  <SCORE>
-12.5686

>  <SCORE.INTER>
-12.5686

>  <SCORE.INTER.CONST>
1

>  <SCORE.INTER.POLAR>
0

>  <SCORE.INTER.ROT>
0

>  <SCORE.INTER.SOLV>
4.33167

>  <SCORE.INTER.VDW>
-13.423

>  <SCORE.INTER.norm>
-1.1426

>  <SCORE.INTRA>
0

>  <SCORE.INTRA.DIHEDRAL>
0

>  <SCORE.INTRA.DIHEDRAL.0>
0

>  <SCORE.INTRA.POLAR>
0

>  <SCORE.INTRA.POLAR.0>
0

>  <SCORE.INTRA.REPUL>
0

>  <SCORE.INTRA.REPUL.0>
0

>  <SCORE.INTRA.SOLV>
0

>  <SCORE.INTRA.SOLV.lig_0>
-29.307

>  <SCORE.INTRA.VDW>
0

>  <SCORE.INTRA.VDW.0>
0

>  <SCORE.INTRA.norm>
0

>  <SCORE.RESTR>
0

>  <SCORE.RESTR.CAVITY>
0

>  <SCORE.RESTR.norm>
0

>  <SCORE.SYSTEM>
0

>  <SCORE.SYSTEM.CONST>
0

>  <SCORE.SYSTEM.DIHEDRAL>
0

>  <SCORE.SYSTEM.SOLV>
0

>  <SCORE.SYSTEM.norm>
0

>  <SCORE.heavy>
11

>  <SCORE.norm>
-1.1426

>  <RMSD>
13.156

$$$$
ligand
 OpenBabel11021811503D
libRbt.so/2013.1/901 2013/11/27
 11 12  0  0  0  0  0  0  0  0999 V2000
   -8.2798  -27.1105   29.8524 N   0  0  0  0  0  0  0  0  0  0  0  0
   -9.0986  -28.0431   29.3347 C   0  0  0  0  0  0  0  0  0  0  0  0
  -10.4847  -27.7603   29.1446 N   0  0  0  0  0  0  0  0  0  0  0  0
   -8.6588  -29.2523   28.9738 N   0  0  0  0  0  0  0  0  0  0  0  0
   -7.3406  -29.6048   29.1363 C   0  0  0  0  0  0  0  0  0  0  0  0
   -6.4697  -28.6757   29.6627 C   0  0  0  0  0  0  0  0  0  0  0  0
   -6.9647  -27.3889   30.0216 C   0  0  0  0  0  0  0  0  0  0  0  0
   -6.1058  -26.4528   30.5528 O   0  0  0  0  0  0  0  0  0  0  0  0
   -5.1850  -29.3050   29.7035 C   0  0  0  0  0  0  0  0  0  0  0  0
   -5.3602  -30.6002   29.1967 C   0  0  0  0  0  0  0  0  0  0  0  0
   -6.6473  -30.7631   28.8651 N   0  0  0  0  0  0  0  0  0  0  0  0
  1  2  1  0  0  0  0
  1  7  1  0  0  0  0
  2  3  1  0  0  0  0
  2  4  2  0  0  0  0
  4  5  1  0  0  0  0
  5  6  2  0  0  0  0
  5 11  1  0  0  0  0
  6  7  1  0  0  0  0
  6  9  1  0  0  0  0
  7  8  2  0  0  0  0
  9 10  2  0  0  0  0
 10 11  1  0  0  0  0
M  END
>  <CHROM.1>
-7.35902241,-28.57703139,29.50837011,-2.57905324,0.19750500,-2.79100888

>  <Name>
ligand

>  <RI>
0

>  <Rbt.Current_Directory>
/home/itssahil/PROJECTS/Mol_Feturizer/New_Systems/rnas/4LVW

>  <Rbt.Executable>
rbdock ($Id: //depot/dev/client3/rdock/2013.1/src/exe/rbdock.cxx#4 $)

>  <Rbt.Library>
libRbt.so (2013.1, Build901 2013/11/27)

>  <Rbt.Parameter_File>
/export/apps/rDock/src/rDock_2013.1_src/data/scripts/dock_solv.prm

>  <Rbt.Receptor>
prm/blind_docking_60.prm

>  <SCORE>
-12.5557

>  <SCORE.INTER>
-12.5557

>  <SCORE.INTER.CONST>
1

>  <SCORE.INTER.POLAR>
0

>  <SCORE.INTER.ROT>
0

>  <SCORE.INTER.SOLV>
4.40506

>  <SCORE.INTER.VDW>
-13.4389

>  <SCORE.INTER.norm>
-1.14143

>  <SCORE.INTRA>
0

>  <SCORE.INTRA.DIHEDRAL>
0

>  <SCORE.INTRA.DIHEDRAL.0>
0

>  <SCORE.INTRA.POLAR>
0

>  <SCORE.INTRA.POLAR.0>
0

>  <SCORE.INTRA.REPUL>
0

>  <SCORE.INTRA.REPUL.0>
0

>  <SCORE.INTRA.SOLV>
0

>  <SCORE.INTRA.SOLV.lig_0>
-29.307

>  <SCORE.INTRA.VDW>
0

>  <SCORE.INTRA.VDW.0>
0

>  <SCORE.INTRA.norm>
0

>  <SCORE.RESTR>
0

>  <SCORE.RESTR.CAVITY>
0

>  <SCORE.RESTR.norm>
0

>  <SCORE.SYSTEM>
0

>  <SCORE.SYSTEM.CONST>
0

>  <SCORE.SYSTEM.DIHEDRAL>
0

>  <SCORE.SYSTEM.SOLV>
0

>  <SCORE.SYSTEM.norm>
0

>  <SCORE.heavy>
11

>  <SCORE.norm>
-1.14143

>  <RMSD>
13.166

$$$$
ligand
 OpenBabel11021811503D
libRbt.so/2013.1/901 2013/11/27
 11 12  0  0  0  0  0  0  0  0999 V2000
    2.4453  -25.2672   13.2377 N   0  0  0  0  0  0  0  0  0  0  0  0
    1.8383  -25.1020   12.0492 C   0  0  0  0  0  0  0  0  0  0  0  0
    2.6022  -24.7740   10.8888 N   0  0  0  0  0  0  0  0  0  0  0  0
    0.5177  -25.2424   11.9010 N   0  0  0  0  0  0  0  0  0  0  0  0
   -0.2876  -25.5457   12.9725 C   0  0  0  0  0  0  0  0  0  0  0  0
    0.2974  -25.7240   14.2073 C   0  0  0  0  0  0  0  0  0  0  0  0
    1.7100  -25.5851   14.3302 C   0  0  0  0  0  0  0  0  0  0  0  0
    2.3066  -25.7563   15.5594 O   0  0  0  0  0  0  0  0  0  0  0  0
   -0.7639  -26.0376   15.1148 C   0  0  0  0  0  0  0  0  0  0  0  0
   -1.9471  -26.0238   14.3631 C   0  0  0  0  0  0  0  0  0  0  0  0
   -1.6470  -25.7287   13.0920 N   0  0  0  0  0  0  0  0  0  0  0  0
  1  2  1  0  0  0  0
  1  7  1  0  0  0  0
  2  3  1  0  0  0  0
  2  4  2  0  0  0  0
  4  5  1  0  0  0  0
  5  6  2  0  0  0  0
  5 11  1  0  0  0  0
  6  7  1  0  0  0  0
  6  9  1  0  0  0  0
  7  8  2  0  0  0  0
  9 10  2  0  0  0  0
 10 11  1  0  0  0  0
M  END
>  <CHROM.1>
0.70759947,-25.51731236,13.42406215,-0.57985742,0.11718556,1.77022542

>  <Name>
ligand

>  <RI>
0

>  <Rbt.Current_Directory>
/home/itssahil/PROJECTS/Mol_Feturizer/New_Systems/rnas/4LVW

>  <Rbt.Executable>
rbdock ($Id: //depot/dev/client3/rdock/2013.1/src/exe/rbdock.cxx#4 $)

>  <Rbt.Library>
libRbt.so (2013.1, Build901 2013/11/27)

>  <Rbt.Parameter_File>
/export/apps/rDock/src/rDock_2013.1_src/data/scripts/dock_solv.prm

>  <Rbt.Receptor>
prm/blind_docking_60.prm

>  <SCORE>
-9.04331

>  <SCORE.INTER>
-9.04331

>  <SCORE.INTER.CONST>
1

>  <SCORE.INTER.POLAR>
0

>  <SCORE.INTER.ROT>
0

>  <SCORE.INTER.SOLV>
6.1983

>  <SCORE.INTER.VDW>
-11.695

>  <SCORE.INTER.norm>
-0.822119

>  <SCORE.INTRA>
0

>  <SCORE.INTRA.DIHEDRAL>
0

>  <SCORE.INTRA.DIHEDRAL.0>
0

>  <SCORE.INTRA.POLAR>
0

>  <SCORE.INTRA.POLAR.0>
0

>  <SCORE.INTRA.REPUL>
0

>  <SCORE.INTRA.REPUL.0>
0

>  <SCORE.INTRA.SOLV>
0

>  <SCORE.INTRA.SOLV.lig_0>
-29.307

>  <SCORE.INTRA.VDW>
0

>  <SCORE.INTRA.VDW.0>
0

>  <SCORE.INTRA.norm>
0

>  <SCORE.RESTR>
0

>  <SCORE.RESTR.CAVITY>
0

>  <SCORE.RESTR.norm>
0

>  <SCORE.SYSTEM>
0

>  <SCORE.SYSTEM.CONST>
0

>  <SCORE.SYSTEM.DIHEDRAL>
0

>  <SCORE.SYSTEM.SOLV>
0

>  <SCORE.SYSTEM.norm>
0

>  <SCORE.heavy>
11

>  <SCORE.norm>
-0.822119

>  <RMSD>
13.206

$$$$
ligand
 OpenBabel11021811503D
libRbt.so/2013.1/901 2013/11/27
 11 12  0  0  0  0  0  0  0  0999 V2000
   -1.0935  -26.0044   12.1944 N   0  0  0  0  0  0  0  0  0  0  0  0
    0.1545  -25.9947   11.6938 C   0  0  0  0  0  0  0  0  0  0  0  0
    0.3704  -26.1555   10.2920 N   0  0  0  0  0  0  0  0  0  0  0  0
    1.2295  -25.8294   12.4703 N   0  0  0  0  0  0  0  0  0  0  0  0
    1.1051  -25.6801   13.8307 C   0  0  0  0  0  0  0  0  0  0  0  0
   -0.1579  -25.6834   14.3817 C   0  0  0  0  0  0  0  0  0  0  0  0
   -1.2856  -25.8439   13.5259 C   0  0  0  0  0  0  0  0  0  0  0  0
   -2.5530  -25.8534   14.0643 O   0  0  0  0  0  0  0  0  0  0  0  0
    0.0161  -25.4993   15.7902 C   0  0  0  0  0  0  0  0  0  0  0  0
    1.3969  -25.4004   16.0108 C   0  0  0  0  0  0  0  0  0  0  0  0
    2.0303  -25.5109   14.8363 N   0  0  0  0  0  0  0  0  0  0  0  0
  1  2  1  0  0  0  0
  1  7  1  0  0  0  0
  2  3  1  0  0  0  0
  2  4  2  0  0  0  0
  4  5  1  0  0  0  0
  5  6  2  0  0  0  0
  5 11  1  0  0  0  0
  6  7  1  0  0  0  0
  6  9  1  0  0  0  0
  7  8  2  0  0  0  0
  9 10  2  0  0  0  0
 10 11  1  0  0  0  0
M  END
>  <CHROM.1>
0.06556637,-25.77690986,13.50656123,1.84051697,-0.05453345,-1.69216751

>  <Name>
ligand

>  <RI>
0

>  <Rbt.Current_Directory>
/home/itssahil/PROJECTS/Mol_Feturizer/New_Systems/rnas/4LVW

>  <Rbt.Executable>
rbdock ($Id: //depot/dev/client3/rdock/2013.1/src/exe/rbdock.cxx#4 $)

>  <Rbt.Library>
libRbt.so (2013.1, Build901 2013/11/27)

>  <Rbt.Parameter_File>
/export/apps/rDock/src/rDock_2013.1_src/data/scripts/dock_solv.prm

>  <Rbt.Receptor>
prm/blind_docking_100.prm

>  <SCORE>
-9.80891

>  <SCORE.INTER>
-9.80891

>  <SCORE.INTER.CONST>
1

>  <SCORE.INTER.POLAR>
0

>  <SCORE.INTER.ROT>
0

>  <SCORE.INTER.SOLV>
3.45595

>  <SCORE.INTER.VDW>
-11.2913

>  <SCORE.INTER.norm>
-0.891719

>  <SCORE.INTRA>
0

>  <SCORE.INTRA.DIHEDRAL>
0

>  <SCORE.INTRA.DIHEDRAL.0>
0

>  <SCORE.INTRA.POLAR>
0

>  <SCORE.INTRA.POLAR.0>
0

>  <SCORE.INTRA.REPUL>
0

>  <SCORE.INTRA.REPUL.0>
0

>  <SCORE.INTRA.SOLV>
0

>  <SCORE.INTRA.SOLV.lig_0>
-29.307

>  <SCORE.INTRA.VDW>
0

>  <SCORE.INTRA.VDW.0>
0

>  <SCORE.INTRA.norm>
0

>  <SCORE.RESTR>
0

>  <SCORE.RESTR.CAVITY>
0

>  <SCORE.RESTR.norm>
0

>  <SCORE.SYSTEM>
0

>  <SCORE.SYSTEM.CONST>
0

>  <SCORE.SYSTEM.DIHEDRAL>
0

>  <SCORE.SYSTEM.SOLV>
0

>  <SCORE.SYSTEM.norm>
0

>  <SCORE.heavy>
11

>  <SCORE.norm>
-0.891719

>  <RMSD>
13.224

$$$$
ligand
 OpenBabel11021811503D
libRbt.so/2013.1/901 2013/11/27
 11 12  0  0  0  0  0  0  0  0999 V2000
    0.9669  -25.5160   13.5221 N   0  0  0  0  0  0  0  0  0  0  0  0
    0.6798  -26.1037   14.6971 C   0  0  0  0  0  0  0  0  0  0  0  0
    1.7256  -26.4491   15.6051 N   0  0  0  0  0  0  0  0  0  0  0  0
   -0.5750  -26.3789   15.0652 N   0  0  0  0  0  0  0  0  0  0  0  0
   -1.6355  -26.0877   14.2412 C   0  0  0  0  0  0  0  0  0  0  0  0
   -1.3822  -25.4840   13.0287 C   0  0  0  0  0  0  0  0  0  0  0  0
   -0.0353  -25.1869   12.6719 C   0  0  0  0  0  0  0  0  0  0  0  0
    0.2320  -24.5876   11.4612 O   0  0  0  0  0  0  0  0  0  0  0  0
   -2.6536  -25.2918   12.4005 C   0  0  0  0  0  0  0  0  0  0  0  0
   -3.6147  -25.8049   13.2825 C   0  0  0  0  0  0  0  0  0  0  0  0
   -2.9934  -26.2753   14.3713 N   0  0  0  0  0  0  0  0  0  0  0  0
  1  2  1  0  0  0  0
  1  7  1  0  0  0  0
  2  3  1  0  0  0  0
  2  4  2  0  0  0  0
  4  5  1  0  0  0  0
  5  6  2  0  0  0  0
  5 11  1  0  0  0  0
  6  7  1  0  0  0  0
  6  9  1  0  0  0  0
  7  8  2  0  0  0  0
  9 10  2  0  0  0  0
 10 11  1  0  0  0  0
M  END
>  <CHROM.1>
-0.77969749,-25.73323845,13.66070969,-0.32355750,-0.07964384,-1.12294906

>  <Name>
ligand

>  <RI>
0

>  <Rbt.Current_Directory>
/home/itssahil/PROJECTS/Mol_Feturizer/New_Systems/rnas/4LVW

>  <Rbt.Executable>
rbdock ($Id: //depot/dev/client3/rdock/2013.1/src/exe/rbdock.cxx#4 $)

>  <Rbt.Library>
libRbt.so (2013.1, Build901 2013/11/27)

>  <Rbt.Parameter_File>
/export/apps/rDock/src/rDock_2013.1_src/data/scripts/dock_solv.prm

>  <Rbt.Receptor>
prm/blind_docking_40.prm

>  <SCORE>
-9.78897

>  <SCORE.INTER>
-9.78897

>  <SCORE.INTER.CONST>
1

>  <SCORE.INTER.POLAR>
0

>  <SCORE.INTER.ROT>
0

>  <SCORE.INTER.SOLV>
6.39372

>  <SCORE.INTER.VDW>
-12.2572

>  <SCORE.INTER.norm>
-0.889906

>  <SCORE.INTRA>
0

>  <SCORE.INTRA.DIHEDRAL>
0

>  <SCORE.INTRA.DIHEDRAL.0>
0

>  <SCORE.INTRA.POLAR>
0

>  <SCORE.INTRA.POLAR.0>
0

>  <SCORE.INTRA.REPUL>
0

>  <SCORE.INTRA.REPUL.0>
0

>  <SCORE.INTRA.SOLV>
0

>  <SCORE.INTRA.SOLV.lig_0>
-29.307

>  <SCORE.INTRA.VDW>
0

>  <SCORE.INTRA.VDW.0>
0

>  <SCORE.INTRA.norm>
0

>  <SCORE.RESTR>
0

>  <SCORE.RESTR.CAVITY>
0

>  <SCORE.RESTR.norm>
0

>  <SCORE.SYSTEM>
0

>  <SCORE.SYSTEM.CONST>
0

>  <SCORE.SYSTEM.DIHEDRAL>
0

>  <SCORE.SYSTEM.SOLV>
0

>  <SCORE.SYSTEM.norm>
0

>  <SCORE.heavy>
11

>  <SCORE.norm>
-0.889906

>  <RMSD>
13.363

$$$$
ligand
 OpenBabel11021811503D
libRbt.so/2013.1/901 2013/11/27
 11 12  0  0  0  0  0  0  0  0999 V2000
   -2.1017  -25.4077   12.2946 N   0  0  0  0  0  0  0  0  0  0  0  0
   -0.9695  -24.9963   11.6970 C   0  0  0  0  0  0  0  0  0  0  0  0
   -0.9997  -24.5002   10.3589 N   0  0  0  0  0  0  0  0  0  0  0  0
    0.2126  -25.0252   12.3194 N   0  0  0  0  0  0  0  0  0  0  0  0
    0.3260  -25.4998   13.6041 C   0  0  0  0  0  0  0  0  0  0  0  0
   -0.8122  -25.9296   14.2510 C   0  0  0  0  0  0  0  0  0  0  0  0
   -2.0608  -25.8701   13.5674 C   0  0  0  0  0  0  0  0  0  0  0  0
   -3.2051  -26.3006   14.2011 O   0  0  0  0  0  0  0  0  0  0  0  0
   -0.4002  -26.3499   15.5556 C   0  0  0  0  0  0  0  0  0  0  0  0
    0.9861  -26.1515   15.6180 C   0  0  0  0  0  0  0  0  0  0  0  0
    1.4026  -25.6468   14.4498 N   0  0  0  0  0  0  0  0  0  0  0  0
  1  2  1  0  0  0  0
  1  7  1  0  0  0  0
  2  3  1  0  0  0  0
  2  4  2  0  0  0  0
  4  5  1  0  0  0  0
  5  6  2  0  0  0  0
  5 11  1  0  0  0  0
  6  7  1  0  0  0  0
  6  9  1  0  0  0  0
  7  8  2  0  0  0  0
  9 10  2  0  0  0  0
 10 11  1  0  0  0  0
M  END
>  <CHROM.1>
-0.74465935,-25.60066526,13.40740213,2.01412362,-0.15144791,-1.21134787

>  <Name>
ligand

>  <RI>
0

>  <Rbt.Current_Directory>
/home/itssahil/PROJECTS/Mol_Feturizer/New_Systems/rnas/4LVW

>  <Rbt.Executable>
rbdock ($Id: //depot/dev/client3/rdock/2013.1/src/exe/rbdock.cxx#4 $)

>  <Rbt.Library>
libRbt.so (2013.1, Build901 2013/11/27)

>  <Rbt.Parameter_File>
/export/apps/rDock/src/rDock_2013.1_src/data/scripts/dock_solv.prm

>  <Rbt.Receptor>
prm/blind_docking_40.prm

>  <SCORE>
-8.86599

>  <SCORE.INTER>
-8.90727

>  <SCORE.INTER.CONST>
1

>  <SCORE.INTER.POLAR>
0

>  <SCORE.INTER.ROT>
0

>  <SCORE.INTER.SOLV>
5.08742

>  <SCORE.INTER.VDW>
-11.234

>  <SCORE.INTER.norm>
-0.809752

>  <SCORE.INTRA>
0

>  <SCORE.INTRA.DIHEDRAL>
0

>  <SCORE.INTRA.DIHEDRAL.0>
0

>  <SCORE.INTRA.POLAR>
0

>  <SCORE.INTRA.POLAR.0>
0

>  <SCORE.INTRA.REPUL>
0

>  <SCORE.INTRA.REPUL.0>
0

>  <SCORE.INTRA.SOLV>
0

>  <SCORE.INTRA.SOLV.lig_0>
-29.307

>  <SCORE.INTRA.VDW>
0

>  <SCORE.INTRA.VDW.0>
0

>  <SCORE.INTRA.norm>
0

>  <SCORE.RESTR>
0.0412771

>  <SCORE.RESTR.CAVITY>
0.0412771

>  <SCORE.RESTR.norm>
0.00375247

>  <SCORE.SYSTEM>
0

>  <SCORE.SYSTEM.CONST>
0

>  <SCORE.SYSTEM.DIHEDRAL>
0

>  <SCORE.SYSTEM.SOLV>
0

>  <SCORE.SYSTEM.norm>
0

>  <SCORE.heavy>
11

>  <SCORE.norm>
-0.805999

>  <RMSD>
13.364

$$$$
ligand
 OpenBabel11021811503D
libRbt.so/2013.1/901 2013/11/27
 11 12  0  0  0  0  0  0  0  0999 V2000
   -1.4296   -4.6206   16.8689 N   0  0  0  0  0  0  0  0  0  0  0  0
   -1.7649   -5.5724   15.9801 C   0  0  0  0  0  0  0  0  0  0  0  0
   -3.1102   -6.0428   15.9006 N   0  0  0  0  0  0  0  0  0  0  0  0
   -0.8724   -6.1060   15.1407 N   0  0  0  0  0  0  0  0  0  0  0  0
    0.4446   -5.7144   15.1636 C   0  0  0  0  0  0  0  0  0  0  0  0
    0.8274   -4.7402   16.0599 C   0  0  0  0  0  0  0  0  0  0  0  0
   -0.1506   -4.1777   16.9298 C   0  0  0  0  0  0  0  0  0  0  0  0
    0.2196   -3.2065   17.8331 O   0  0  0  0  0  0  0  0  0  0  0  0
    2.2276   -4.5292   15.8524 C   0  0  0  0  0  0  0  0  0  0  0  0
    2.6151   -5.4072   14.8307 C   0  0  0  0  0  0  0  0  0  0  0  0
    1.5441   -6.1054   14.4328 N   0  0  0  0  0  0  0  0  0  0  0  0
  1  2  1  0  0  0  0
  1  7  1  0  0  0  0
  2  3  1  0  0  0  0
  2  4  2  0  0  0  0
  4  5  1  0  0  0  0
  5  6  2  0  0  0  0
  5 11  1  0  0  0  0
  6  7  1  0  0  0  0
  6  9  1  0  0  0  0
  7  8  2  0  0  0  0
  9 10  2  0  0  0  0
 10 11  1  0  0  0  0
M  END
>  <CHROM.1>
-0.00160185,-5.09206598,15.94383424,-2.99207146,-0.20643613,-2.33803222

>  <Name>
ligand

>  <RI>
0

>  <Rbt.Current_Directory>
/home/itssahil/PROJECTS/Mol_Feturizer/New_Systems/rnas/4LVW

>  <Rbt.Executable>
rbdock ($Id: //depot/dev/client3/rdock/2013.1/src/exe/rbdock.cxx#4 $)

>  <Rbt.Library>
libRbt.so (2013.1, Build901 2013/11/27)

>  <Rbt.Parameter_File>
/export/apps/rDock/src/rDock_2013.1_src/data/scripts/dock_solv.prm

>  <Rbt.Receptor>
prm/blind_docking_20.prm

>  <SCORE>
-4.76832

>  <SCORE.INTER>
-4.76832

>  <SCORE.INTER.CONST>
1

>  <SCORE.INTER.POLAR>
0

>  <SCORE.INTER.ROT>
0

>  <SCORE.INTER.SOLV>
3.06249

>  <SCORE.INTER.VDW>
-7.79971

>  <SCORE.INTER.norm>
-0.433484

>  <SCORE.INTRA>
0

>  <SCORE.INTRA.DIHEDRAL>
0

>  <SCORE.INTRA.DIHEDRAL.0>
0

>  <SCORE.INTRA.POLAR>
0

>  <SCORE.INTRA.POLAR.0>
0

>  <SCORE.INTRA.REPUL>
0

>  <SCORE.INTRA.REPUL.0>
0

>  <SCORE.INTRA.SOLV>
0

>  <SCORE.INTRA.SOLV.lig_0>
-29.307

>  <SCORE.INTRA.VDW>
0

>  <SCORE.INTRA.VDW.0>
0

>  <SCORE.INTRA.norm>
0

>  <SCORE.RESTR>
0

>  <SCORE.RESTR.CAVITY>
0

>  <SCORE.RESTR.norm>
0

>  <SCORE.SYSTEM>
0

>  <SCORE.SYSTEM.CONST>
0

>  <SCORE.SYSTEM.DIHEDRAL>
0

>  <SCORE.SYSTEM.SOLV>
0

>  <SCORE.SYSTEM.norm>
0

>  <SCORE.heavy>
11

>  <SCORE.norm>
-0.433484

>  <RMSD>
18.131

$$$$
ligand
 OpenBabel11021811503D
libRbt.so/2013.1/901 2013/11/27
 11 12  0  0  0  0  0  0  0  0999 V2000
   -1.5161   -4.6132   16.8869 N   0  0  0  0  0  0  0  0  0  0  0  0
   -1.8403   -5.5638   15.9927 C   0  0  0  0  0  0  0  0  0  0  0  0
   -3.1830   -6.0393   15.9005 N   0  0  0  0  0  0  0  0  0  0  0  0
   -0.9386   -6.0916   15.1595 N   0  0  0  0  0  0  0  0  0  0  0  0
    0.3766   -5.6950   15.1946 C   0  0  0  0  0  0  0  0  0  0  0  0
    0.7480   -4.7219   16.0967 C   0  0  0  0  0  0  0  0  0  0  0  0
   -0.2395   -4.1655   16.9599 C   0  0  0  0  0  0  0  0  0  0  0  0
    0.1193   -3.1954   17.8689 O   0  0  0  0  0  0  0  0  0  0  0  0
    2.1491   -4.5048   15.9017 C   0  0  0  0  0  0  0  0  0  0  0  0
    2.5487   -5.3785   14.8809 C   0  0  0  0  0  0  0  0  0  0  0  0
    1.4838   -6.0798   14.4721 N   0  0  0  0  0  0  0  0  0  0  0  0
  1  2  1  0  0  0  0
  1  7  1  0  0  0  0
  2  3  1  0  0  0  0
  2  4  2  0  0  0  0
  4  5  1  0  0  0  0
  5  6  2  0  0  0  0
  5 11  1  0  0  0  0
  6  7  1  0  0  0  0
  6  9  1  0  0  0  0
  7  8  2  0  0  0  0
  9 10  2  0  0  0  0
 10 11  1  0  0  0  0
M  END
>  <CHROM.1>
-0.07857175,-5.07658939,15.97268906,-3.00106395,-0.20337241,-2.33711668

>  <Name>
ligand

>  <RI>
0

>  <Rbt.Current_Directory>
/home/itssahil/PROJECTS/Mol_Feturizer/New_Systems/rnas/4LVW

>  <Rbt.Executable>
rbdock ($Id: //depot/dev/client3/rdock/2013.1/src/exe/rbdock.cxx#4 $)

>  <Rbt.Library>
libRbt.so (2013.1, Build901 2013/11/27)

>  <Rbt.Parameter_File>
/export/apps/rDock/src/rDock_2013.1_src/data/scripts/dock_solv.prm

>  <Rbt.Receptor>
prm/blind_docking_20.prm

>  <SCORE>
-4.75669

>  <SCORE.INTER>
-4.75669

>  <SCORE.INTER.CONST>
1

>  <SCORE.INTER.POLAR>
0

>  <SCORE.INTER.ROT>
0

>  <SCORE.INTER.SOLV>
2.94718

>  <SCORE.INTER.VDW>
-7.75352

>  <SCORE.INTER.norm>
-0.432426

>  <SCORE.INTRA>
0

>  <SCORE.INTRA.DIHEDRAL>
0

>  <SCORE.INTRA.DIHEDRAL.0>
0

>  <SCORE.INTRA.POLAR>
0

>  <SCORE.INTRA.POLAR.0>
0

>  <SCORE.INTRA.REPUL>
0

>  <SCORE.INTRA.REPUL.0>
0

>  <SCORE.INTRA.SOLV>
0

>  <SCORE.INTRA.SOLV.lig_0>
-29.307

>  <SCORE.INTRA.VDW>
0

>  <SCORE.INTRA.VDW.0>
0

>  <SCORE.INTRA.norm>
0

>  <SCORE.RESTR>
0

>  <SCORE.RESTR.CAVITY>
0

>  <SCORE.RESTR.norm>
0

>  <SCORE.SYSTEM>
0

>  <SCORE.SYSTEM.CONST>
0

>  <SCORE.SYSTEM.DIHEDRAL>
0

>  <SCORE.SYSTEM.SOLV>
0

>  <SCORE.SYSTEM.norm>
0

>  <SCORE.heavy>
11

>  <SCORE.norm>
-0.432426

>  <RMSD>
18.139

$$$$
ligand
 OpenBabel11021811503D
libRbt.so/2013.1/901 2013/11/27
 11 12  0  0  0  0  0  0  0  0999 V2000
   -1.5684   -4.5982   16.8493 N   0  0  0  0  0  0  0  0  0  0  0  0
   -1.8984   -5.5700   15.9805 C   0  0  0  0  0  0  0  0  0  0  0  0
   -3.2442   -6.0390   15.9003 N   0  0  0  0  0  0  0  0  0  0  0  0
   -1.0000   -6.1255   15.1619 N   0  0  0  0  0  0  0  0  0  0  0  0
    0.3178   -5.7367   15.1872 C   0  0  0  0  0  0  0  0  0  0  0  0
    0.6952   -4.7424   16.0634 C   0  0  0  0  0  0  0  0  0  0  0  0
   -0.2889   -4.1570   16.9110 C   0  0  0  0  0  0  0  0  0  0  0  0
    0.0759   -3.1655   17.7943 O   0  0  0  0  0  0  0  0  0  0  0  0
    2.0977   -4.5397   15.8633 C   0  0  0  0  0  0  0  0  0  0  0  0
    2.4919   -5.4426   14.8662 C   0  0  0  0  0  0  0  0  0  0  0  0
    1.4226   -6.1476   14.4756 N   0  0  0  0  0  0  0  0  0  0  0  0
  1  2  1  0  0  0  0
  1  7  1  0  0  0  0
  2  3  1  0  0  0  0
  2  4  2  0  0  0  0
  4  5  1  0  0  0  0
  5  6  2  0  0  0  0
  5 11  1  0  0  0  0
  6  7  1  0  0  0  0
  6  9  1  0  0  0  0
  7  8  2  0  0  0  0
  9 10  2  0  0  0  0
 10 11  1  0  0  0  0
M  END
>  <CHROM.1>
-0.13362175,-5.09490453,15.94838447,-2.99668389,-0.19848390,-2.36271770

>  <Name>
ligand

>  <RI>
0

>  <Rbt.Current_Directory>
/home/itssahil/PROJECTS/Mol_Feturizer/New_Systems/rnas/4LVW

>  <Rbt.Executable>
rbdock ($Id: //depot/dev/client3/rdock/2013.1/src/exe/rbdock.cxx#4 $)

>  <Rbt.Library>
libRbt.so (2013.1, Build901 2013/11/27)

>  <Rbt.Parameter_File>
/export/apps/rDock/src/rDock_2013.1_src/data/scripts/dock_solv.prm

>  <Rbt.Receptor>
prm/blind_docking_20.prm

>  <SCORE>
-4.77873

>  <SCORE.INTER>
-4.77873

>  <SCORE.INTER.CONST>
1

>  <SCORE.INTER.POLAR>
0

>  <SCORE.INTER.ROT>
0

>  <SCORE.INTER.SOLV>
3.02601

>  <SCORE.INTER.VDW>
-7.79449

>  <SCORE.INTER.norm>
-0.43443

>  <SCORE.INTRA>
0

>  <SCORE.INTRA.DIHEDRAL>
0

>  <SCORE.INTRA.DIHEDRAL.0>
0

>  <SCORE.INTRA.POLAR>
0

>  <SCORE.INTRA.POLAR.0>
0

>  <SCORE.INTRA.REPUL>
0

>  <SCORE.INTRA.REPUL.0>
0

>  <SCORE.INTRA.SOLV>
0

>  <SCORE.INTRA.SOLV.lig_0>
-29.307

>  <SCORE.INTRA.VDW>
0

>  <SCORE.INTRA.VDW.0>
0

>  <SCORE.INTRA.norm>
0

>  <SCORE.RESTR>
0

>  <SCORE.RESTR.CAVITY>
0

>  <SCORE.RESTR.norm>
0

>  <SCORE.SYSTEM>
0

>  <SCORE.SYSTEM.CONST>
0

>  <SCORE.SYSTEM.DIHEDRAL>
0

>  <SCORE.SYSTEM.SOLV>
0

>  <SCORE.SYSTEM.norm>
0

>  <SCORE.heavy>
11

>  <SCORE.norm>
-0.43443

>  <RMSD>
18.140

$$$$
ligand
 OpenBabel11021811503D
libRbt.so/2013.1/901 2013/11/27
 11 12  0  0  0  0  0  0  0  0999 V2000
   -1.6112   -4.5891   16.8105 N   0  0  0  0  0  0  0  0  0  0  0  0
   -1.9210   -5.5906   15.9682 C   0  0  0  0  0  0  0  0  0  0  0  0
   -3.2571   -6.0881   15.8999 N   0  0  0  0  0  0  0  0  0  0  0  0
   -1.0108   -6.1502   15.1655 N   0  0  0  0  0  0  0  0  0  0  0  0
    0.2990   -5.7348   15.1810 C   0  0  0  0  0  0  0  0  0  0  0  0
    0.6557   -4.7098   16.0301 C   0  0  0  0  0  0  0  0  0  0  0  0
   -0.3408   -4.1212   16.8609 C   0  0  0  0  0  0  0  0  0  0  0  0
    0.0034   -3.0991   17.7171 O   0  0  0  0  0  0  0  0  0  0  0  0
    2.0542   -4.4849   15.8254 C   0  0  0  0  0  0  0  0  0  0  0  0
    2.4673   -5.4067   14.8534 C   0  0  0  0  0  0  0  0  0  0  0  0
    1.4126   -6.1430   14.4815 N   0  0  0  0  0  0  0  0  0  0  0  0
  1  2  1  0  0  0  0
  1  7  1  0  0  0  0
  2  3  1  0  0  0  0
  2  4  2  0  0  0  0
  4  5  1  0  0  0  0
  5  6  2  0  0  0  0
  5 11  1  0  0  0  0
  6  7  1  0  0  0  0
  6  9  1  0  0  0  0
  7  8  2  0  0  0  0
  9 10  2  0  0  0  0
 10 11  1  0  0  0  0
M  END
>  <CHROM.1>
-0.16587529,-5.08167571,15.92421005,-3.01188562,-0.21153108,-2.39300431

>  <Name>
ligand

>  <RI>
0

>  <Rbt.Current_Directory>
/home/itssahil/PROJECTS/Mol_Feturizer/New_Systems/rnas/4LVW

>  <Rbt.Executable>
rbdock ($Id: //depot/dev/client3/rdock/2013.1/src/exe/rbdock.cxx#4 $)

>  <Rbt.Library>
libRbt.so (2013.1, Build901 2013/11/27)

>  <Rbt.Parameter_File>
/export/apps/rDock/src/rDock_2013.1_src/data/scripts/dock_solv.prm

>  <Rbt.Receptor>
prm/blind_docking_20.prm

>  <SCORE>
-4.78142

>  <SCORE.INTER>
-4.78151

>  <SCORE.INTER.CONST>
1

>  <SCORE.INTER.POLAR>
0

>  <SCORE.INTER.ROT>
0

>  <SCORE.INTER.SOLV>
3.18756

>  <SCORE.INTER.VDW>
-7.85019

>  <SCORE.INTER.norm>
-0.434682

>  <SCORE.INTRA>
0

>  <SCORE.INTRA.DIHEDRAL>
0

>  <SCORE.INTRA.DIHEDRAL.0>
0

>  <SCORE.INTRA.POLAR>
0

>  <SCORE.INTRA.POLAR.0>
0

>  <SCORE.INTRA.REPUL>
0

>  <SCORE.INTRA.REPUL.0>
0

>  <SCORE.INTRA.SOLV>
0

>  <SCORE.INTRA.SOLV.lig_0>
-29.307

>  <SCORE.INTRA.VDW>
0

>  <SCORE.INTRA.VDW.0>
0

>  <SCORE.INTRA.norm>
0

>  <SCORE.RESTR>
8.95929e-05

>  <SCORE.RESTR.CAVITY>
8.95929e-05

>  <SCORE.RESTR.norm>
8.14481e-06

>  <SCORE.SYSTEM>
0

>  <SCORE.SYSTEM.CONST>
0

>  <SCORE.SYSTEM.DIHEDRAL>
0

>  <SCORE.SYSTEM.SOLV>
0

>  <SCORE.SYSTEM.norm>
0

>  <SCORE.heavy>
11

>  <SCORE.norm>
-0.434674

>  <RMSD>
18.168

$$$$
ligand
 OpenBabel11021811503D
libRbt.so/2013.1/901 2013/11/27
 11 12  0  0  0  0  0  0  0  0999 V2000
   -1.4210   -4.5686   16.7827 N   0  0  0  0  0  0  0  0  0  0  0  0
   -1.7393   -5.5768   15.9518 C   0  0  0  0  0  0  0  0  0  0  0  0
   -3.0762   -6.0744   15.9007 N   0  0  0  0  0  0  0  0  0  0  0  0
   -0.8371   -6.1435   15.1450 N   0  0  0  0  0  0  0  0  0  0  0  0
    0.4729   -5.7285   15.1443 C   0  0  0  0  0  0  0  0  0  0  0  0
    0.8382   -4.6966   15.9813 C   0  0  0  0  0  0  0  0  0  0  0  0
   -0.1500   -4.1007   16.8169 C   0  0  0  0  0  0  0  0  0  0  0  0
    0.2028   -3.0717   17.6611 O   0  0  0  0  0  0  0  0  0  0  0  0
    2.2346   -4.4739   15.7612 C   0  0  0  0  0  0  0  0  0  0  0  0
    2.6380   -5.4039   14.7929 C   0  0  0  0  0  0  0  0  0  0  0  0
    1.5795   -6.1428   14.4374 N   0  0  0  0  0  0  0  0  0  0  0  0
  1  2  1  0  0  0  0
  1  7  1  0  0  0  0
  2  3  1  0  0  0  0
  2  4  2  0  0  0  0
  4  5  1  0  0  0  0
  5  6  2  0  0  0  0
  5 11  1  0  0  0  0
  6  7  1  0  0  0  0
  6  9  1  0  0  0  0
  7  8  2  0  0  0  0
  9 10  2  0  0  0  0
 10 11  1  0  0  0  0
M  END
>  <CHROM.1>
0.01547928,-5.06898928,15.88653366,-3.00487428,-0.21847301,-2.39980900

>  <Name>
ligand

>  <RI>
0

>  <Rbt.Current_Directory>
/home/itssahil/PROJECTS/Mol_Feturizer/New_Systems/rnas/4LVW

>  <Rbt.Executable>
rbdock ($Id: //depot/dev/client3/rdock/2013.1/src/exe/rbdock.cxx#4 $)

>  <Rbt.Library>
libRbt.so (2013.1, Build901 2013/11/27)

>  <Rbt.Parameter_File>
/export/apps/rDock/src/rDock_2013.1_src/data/scripts/dock_solv.prm

>  <Rbt.Receptor>
prm/blind_docking_20.prm

>  <SCORE>
-4.81052

>  <SCORE.INTER>
-4.81052

>  <SCORE.INTER.CONST>
1

>  <SCORE.INTER.POLAR>
0

>  <SCORE.INTER.ROT>
0

>  <SCORE.INTER.SOLV>
3.312

>  <SCORE.INTER.VDW>
-7.91101

>  <SCORE.INTER.norm>
-0.43732

>  <SCORE.INTRA>
0

>  <SCORE.INTRA.DIHEDRAL>
0

>  <SCORE.INTRA.DIHEDRAL.0>
0

>  <SCORE.INTRA.POLAR>
0

>  <SCORE.INTRA.POLAR.0>
0

>  <SCORE.INTRA.REPUL>
0

>  <SCORE.INTRA.REPUL.0>
0

>  <SCORE.INTRA.SOLV>
0

>  <SCORE.INTRA.SOLV.lig_0>
-29.307

>  <SCORE.INTRA.VDW>
0

>  <SCORE.INTRA.VDW.0>
0

>  <SCORE.INTRA.norm>
0

>  <SCORE.RESTR>
0

>  <SCORE.RESTR.CAVITY>
0

>  <SCORE.RESTR.norm>
0

>  <SCORE.SYSTEM>
0

>  <SCORE.SYSTEM.CONST>
0

>  <SCORE.SYSTEM.DIHEDRAL>
0

>  <SCORE.SYSTEM.SOLV>
0

>  <SCORE.SYSTEM.norm>
0

>  <SCORE.heavy>
11

>  <SCORE.norm>
-0.43732

>  <RMSD>
18.177

$$$$
ligand
 OpenBabel11021811503D
libRbt.so/2013.1/901 2013/11/27
 11 12  0  0  0  0  0  0  0  0999 V2000
   -1.4164   -4.5662   16.7904 N   0  0  0  0  0  0  0  0  0  0  0  0
   -1.7344   -5.5701   15.9541 C   0  0  0  0  0  0  0  0  0  0  0  0
   -3.0711   -6.0679   15.9005 N   0  0  0  0  0  0  0  0  0  0  0  0
   -0.8321   -6.1321   15.1442 N   0  0  0  0  0  0  0  0  0  0  0  0
    0.4777   -5.7165   15.1455 C   0  0  0  0  0  0  0  0  0  0  0  0
    0.8427   -4.6890   15.9880 C   0  0  0  0  0  0  0  0  0  0  0  0
   -0.1456   -4.0981   16.8269 C   0  0  0  0  0  0  0  0  0  0  0  0
    0.2069   -3.0734   17.6767 O   0  0  0  0  0  0  0  0  0  0  0  0
    2.2391   -4.4646   15.7690 C   0  0  0  0  0  0  0  0  0  0  0  0
    2.6426   -5.3892   14.7956 C   0  0  0  0  0  0  0  0  0  0  0  0
    1.5844   -6.1266   14.4362 N   0  0  0  0  0  0  0  0  0  0  0  0
  1  2  1  0  0  0  0
  1  7  1  0  0  0  0
  2  3  1  0  0  0  0
  2  4  2  0  0  0  0
  4  5  1  0  0  0  0
  5  6  2  0  0  0  0
  5 11  1  0  0  0  0
  6  7  1  0  0  0  0
  6  9  1  0  0  0  0
  7  8  2  0  0  0  0
  9 10  2  0  0  0  0
 10 11  1  0  0  0  0
M  END
>  <CHROM.1>
0.02014430,-5.06123498,15.89136668,-3.00508422,-0.21882723,-2.39447645

>  <Name>
ligand

>  <RI>
0

>  <Rbt.Current_Directory>
/home/itssahil/PROJECTS/Mol_Feturizer/New_Systems/rnas/4LVW

>  <Rbt.Executable>
rbdock ($Id: //depot/dev/client3/rdock/2013.1/src/exe/rbdock.cxx#4 $)

>  <Rbt.Library>
libRbt.so (2013.1, Build901 2013/11/27)

>  <Rbt.Parameter_File>
/export/apps/rDock/src/rDock_2013.1_src/data/scripts/dock_solv.prm

>  <Rbt.Receptor>
prm/blind_docking_20.prm

>  <SCORE>
-4.81574

>  <SCORE.INTER>
-4.81574

>  <SCORE.INTER.CONST>
1

>  <SCORE.INTER.POLAR>
0

>  <SCORE.INTER.ROT>
0

>  <SCORE.INTER.SOLV>
3.28262

>  <SCORE.INTER.VDW>
-7.9047

>  <SCORE.INTER.norm>
-0.437794

>  <SCORE.INTRA>
0

>  <SCORE.INTRA.DIHEDRAL>
0

>  <SCORE.INTRA.DIHEDRAL.0>
0

>  <SCORE.INTRA.POLAR>
0

>  <SCORE.INTRA.POLAR.0>
0

>  <SCORE.INTRA.REPUL>
0

>  <SCORE.INTRA.REPUL.0>
0

>  <SCORE.INTRA.SOLV>
0

>  <SCORE.INTRA.SOLV.lig_0>
-29.307

>  <SCORE.INTRA.VDW>
0

>  <SCORE.INTRA.VDW.0>
0

>  <SCORE.INTRA.norm>
0

>  <SCORE.RESTR>
0

>  <SCORE.RESTR.CAVITY>
0

>  <SCORE.RESTR.norm>
0

>  <SCORE.SYSTEM>
0

>  <SCORE.SYSTEM.CONST>
0

>  <SCORE.SYSTEM.DIHEDRAL>
0

>  <SCORE.SYSTEM.SOLV>
0

>  <SCORE.SYSTEM.norm>
0

>  <SCORE.heavy>
11

>  <SCORE.norm>
-0.437794

>  <RMSD>
18.181

$$$$
ligand
 OpenBabel11021811503D
libRbt.so/2013.1/901 2013/11/27
 11 12  0  0  0  0  0  0  0  0999 V2000
   -1.5202   -4.5377   16.7878 N   0  0  0  0  0  0  0  0  0  0  0  0
   -1.8405   -5.5486   15.9609 C   0  0  0  0  0  0  0  0  0  0  0  0
   -3.1816   -6.0337   15.9010 N   0  0  0  0  0  0  0  0  0  0  0  0
   -0.9366   -6.1294   15.1663 N   0  0  0  0  0  0  0  0  0  0  0  0
    0.3773   -5.7269   15.1747 C   0  0  0  0  0  0  0  0  0  0  0  0
    0.7449   -4.6928   16.0080 C   0  0  0  0  0  0  0  0  0  0  0  0
   -0.2451   -4.0818   16.8304 C   0  0  0  0  0  0  0  0  0  0  0  0
    0.1099   -3.0503   17.6708 O   0  0  0  0  0  0  0  0  0  0  0  0
    2.1454   -4.4850   15.7991 C   0  0  0  0  0  0  0  0  0  0  0  0
    2.5485   -5.4255   14.8410 C   0  0  0  0  0  0  0  0  0  0  0  0
    1.4862   -6.1567   14.4808 N   0  0  0  0  0  0  0  0  0  0  0  0
  1  2  1  0  0  0  0
  1  7  1  0  0  0  0
  2  3  1  0  0  0  0
  2  4  2  0  0  0  0
  4  5  1  0  0  0  0
  5  6  2  0  0  0  0
  5 11  1  0  0  0  0
  6  7  1  0  0  0  0
  6  9  1  0  0  0  0
  7  8  2  0  0  0  0
  9 10  2  0  0  0  0
 10 11  1  0  0  0  0
M  END
>  <CHROM.1>
-0.08046484,-5.05799377,15.90823858,-3.00389942,-0.20527557,-2.40648648

>  <Name>
ligand

>  <RI>
0

>  <Rbt.Current_Directory>
/home/itssahil/PROJECTS/Mol_Feturizer/New_Systems/rnas/4LVW

>  <Rbt.Executable>
rbdock ($Id: //depot/dev/client3/rdock/2013.1/src/exe/rbdock.cxx#4 $)

>  <Rbt.Library>
libRbt.so (2013.1, Build901 2013/11/27)

>  <Rbt.Parameter_File>
/export/apps/rDock/src/rDock_2013.1_src/data/scripts/dock_solv.prm

>  <Rbt.Receptor>
prm/blind_docking_20.prm

>  <SCORE>
-4.79338

>  <SCORE.INTER>
-4.79338

>  <SCORE.INTER.CONST>
1

>  <SCORE.INTER.POLAR>
0

>  <SCORE.INTER.ROT>
0

>  <SCORE.INTER.SOLV>
3.24245

>  <SCORE.INTER.VDW>
-7.8764

>  <SCORE.INTER.norm>
-0.435762

>  <SCORE.INTRA>
0

>  <SCORE.INTRA.DIHEDRAL>
0

>  <SCORE.INTRA.DIHEDRAL.0>
0

>  <SCORE.INTRA.POLAR>
0

>  <SCORE.INTRA.POLAR.0>
0

>  <SCORE.INTRA.REPUL>
0

>  <SCORE.INTRA.REPUL.0>
0

>  <SCORE.INTRA.SOLV>
0

>  <SCORE.INTRA.SOLV.lig_0>
-29.307

>  <SCORE.INTRA.VDW>
0

>  <SCORE.INTRA.VDW.0>
0

>  <SCORE.INTRA.norm>
0

>  <SCORE.RESTR>
0

>  <SCORE.RESTR.CAVITY>
0

>  <SCORE.RESTR.norm>
0

>  <SCORE.SYSTEM>
0

>  <SCORE.SYSTEM.CONST>
0

>  <SCORE.SYSTEM.DIHEDRAL>
0

>  <SCORE.SYSTEM.SOLV>
0

>  <SCORE.SYSTEM.norm>
0

>  <SCORE.heavy>
11

>  <SCORE.norm>
-0.435762

>  <RMSD>
18.186

$$$$
ligand
 OpenBabel11021811503D
libRbt.so/2013.1/901 2013/11/27
 11 12  0  0  0  0  0  0  0  0999 V2000
   -1.5037   -4.6020   16.8176 N   0  0  0  0  0  0  0  0  0  0  0  0
   -1.7767   -5.6084   15.9686 C   0  0  0  0  0  0  0  0  0  0  0  0
   -3.0926   -6.1573   15.9003 N   0  0  0  0  0  0  0  0  0  0  0  0
   -0.8479   -6.1259   15.1591 N   0  0  0  0  0  0  0  0  0  0  0  0
    0.4448   -5.6596   15.1740 C   0  0  0  0  0  0  0  0  0  0  0  0
    0.7637   -4.6279   16.0299 C   0  0  0  0  0  0  0  0  0  0  0  0
   -0.2524   -4.0851   16.8680 C   0  0  0  0  0  0  0  0  0  0  0  0
    0.0542   -3.0567   17.7311 O   0  0  0  0  0  0  0  0  0  0  0  0
    2.1517   -4.3468   15.8230 C   0  0  0  0  0  0  0  0  0  0  0  0
    2.5975   -5.2444   14.8428 C   0  0  0  0  0  0  0  0  0  0  0  0
    1.5712   -6.0186   14.4682 N   0  0  0  0  0  0  0  0  0  0  0  0
  1  2  1  0  0  0  0
  1  7  1  0  0  0  0
  2  3  1  0  0  0  0
  2  4  2  0  0  0  0
  4  5  1  0  0  0  0
  5  6  2  0  0  0  0
  5 11  1  0  0  0  0
  6  7  1  0  0  0  0
  6  9  1  0  0  0  0
  7  8  2  0  0  0  0
  9 10  2  0  0  0  0
 10 11  1  0  0  0  0
M  END
>  <CHROM.1>
-0.04299701,-5.03081140,15.92353188,-3.03921376,-0.24039695,-2.39150617

>  <Name>
ligand

>  <RI>
0

>  <Rbt.Current_Directory>
/home/itssahil/PROJECTS/Mol_Feturizer/New_Systems/rnas/4LVW

>  <Rbt.Executable>
rbdock ($Id: //depot/dev/client3/rdock/2013.1/src/exe/rbdock.cxx#4 $)

>  <Rbt.Library>
libRbt.so (2013.1, Build901 2013/11/27)

>  <Rbt.Parameter_File>
/export/apps/rDock/src/rDock_2013.1_src/data/scripts/dock_solv.prm

>  <Rbt.Receptor>
prm/blind_docking_20.prm

>  <SCORE>
-4.77381

>  <SCORE.INTER>
-4.77381

>  <SCORE.INTER.CONST>
1

>  <SCORE.INTER.POLAR>
0

>  <SCORE.INTER.ROT>
0

>  <SCORE.INTER.SOLV>
3.28972

>  <SCORE.INTER.VDW>
-7.87911

>  <SCORE.INTER.norm>
-0.433983

>  <SCORE.INTRA>
0

>  <SCORE.INTRA.DIHEDRAL>
0

>  <SCORE.INTRA.DIHEDRAL.0>
0

>  <SCORE.INTRA.POLAR>
0

>  <SCORE.INTRA.POLAR.0>
0

>  <SCORE.INTRA.REPUL>
0

>  <SCORE.INTRA.REPUL.0>
0

>  <SCORE.INTRA.SOLV>
0

>  <SCORE.INTRA.SOLV.lig_0>
-29.307

>  <SCORE.INTRA.VDW>
0

>  <SCORE.INTRA.VDW.0>
0

>  <SCORE.INTRA.norm>
0

>  <SCORE.RESTR>
0

>  <SCORE.RESTR.CAVITY>
0

>  <SCORE.RESTR.norm>
0

>  <SCORE.SYSTEM>
0

>  <SCORE.SYSTEM.CONST>
0

>  <SCORE.SYSTEM.DIHEDRAL>
0

>  <SCORE.SYSTEM.SOLV>
0

>  <SCORE.SYSTEM.norm>
0

>  <SCORE.heavy>
11

>  <SCORE.norm>
-0.433983

>  <RMSD>
18.201

$$$$
ligand
 OpenBabel11021811503D
libRbt.so/2013.1/901 2013/11/27
 11 12  0  0  0  0  0  0  0  0999 V2000
   -1.3762   -4.4176   16.8159 N   0  0  0  0  0  0  0  0  0  0  0  0
   -1.7635   -5.3568   15.9349 C   0  0  0  0  0  0  0  0  0  0  0  0
   -3.1372   -5.7324   15.8384 N   0  0  0  0  0  0  0  0  0  0  0  0
   -0.8973   -5.9648   15.1188 N   0  0  0  0  0  0  0  0  0  0  0  0
    0.4436   -5.6667   15.1592 C   0  0  0  0  0  0  0  0  0  0  0  0
    0.8796   -4.7084   16.0482 C   0  0  0  0  0  0  0  0  0  0  0  0
   -0.0704   -4.0651   16.8929 C   0  0  0  0  0  0  0  0  0  0  0  0
    0.3528   -3.1088   17.7889 O   0  0  0  0  0  0  0  0  0  0  0  0
    2.2944   -4.5998   15.8623 C   0  0  0  0  0  0  0  0  0  0  0  0
    2.6356   -5.5185   14.8600 C   0  0  0  0  0  0  0  0  0  0  0  0
    1.5245   -6.1454   14.4533 N   0  0  0  0  0  0  0  0  0  0  0  0
  1  2  1  0  0  0  0
  1  7  1  0  0  0  0
  2  3  1  0  0  0  0
  2  4  2  0  0  0  0
  4  5  1  0  0  0  0
  5  6  2  0  0  0  0
  5 11  1  0  0  0  0
  6  7  1  0  0  0  0
  6  9  1  0  0  0  0
  7  8  2  0  0  0  0
  9 10  2  0  0  0  0
 10 11  1  0  0  0  0
M  END
>  <CHROM.1>
0.02978771,-5.00267635,15.92265551,-2.95439308,-0.14390288,-2.34613657

>  <Name>
ligand

>  <RI>
0

>  <Rbt.Current_Directory>
/home/itssahil/PROJECTS/Mol_Feturizer/New_Systems/rnas/4LVW

>  <Rbt.Executable>
rbdock ($Id: //depot/dev/client3/rdock/2013.1/src/exe/rbdock.cxx#4 $)

>  <Rbt.Library>
libRbt.so (2013.1, Build901 2013/11/27)

>  <Rbt.Parameter_File>
/export/apps/rDock/src/rDock_2013.1_src/data/scripts/dock_solv.prm

>  <Rbt.Receptor>
prm/blind_docking_20.prm

>  <SCORE>
-4.78127

>  <SCORE.INTER>
-4.78127

>  <SCORE.INTER.CONST>
1

>  <SCORE.INTER.POLAR>
0

>  <SCORE.INTER.ROT>
0

>  <SCORE.INTER.SOLV>
3.18793

>  <SCORE.INTER.VDW>
-7.85016

>  <SCORE.INTER.norm>
-0.434661

>  <SCORE.INTRA>
0

>  <SCORE.INTRA.DIHEDRAL>
0

>  <SCORE.INTRA.DIHEDRAL.0>
0

>  <SCORE.INTRA.POLAR>
0

>  <SCORE.INTRA.POLAR.0>
0

>  <SCORE.INTRA.REPUL>
0

>  <SCORE.INTRA.REPUL.0>
0

>  <SCORE.INTRA.SOLV>
0

>  <SCORE.INTRA.SOLV.lig_0>
-29.307

>  <SCORE.INTRA.VDW>
0

>  <SCORE.INTRA.VDW.0>
0

>  <SCORE.INTRA.norm>
0

>  <SCORE.RESTR>
0

>  <SCORE.RESTR.CAVITY>
0

>  <SCORE.RESTR.norm>
0

>  <SCORE.SYSTEM>
0

>  <SCORE.SYSTEM.CONST>
0

>  <SCORE.SYSTEM.DIHEDRAL>
0

>  <SCORE.SYSTEM.SOLV>
0

>  <SCORE.SYSTEM.norm>
0

>  <SCORE.heavy>
11

>  <SCORE.norm>
-0.434661

>  <RMSD>
18.211

$$$$
ligand
 OpenBabel11021811503D
libRbt.so/2013.1/901 2013/11/27
 11 12  0  0  0  0  0  0  0  0999 V2000
   -1.4069   -4.4770   16.7860 N   0  0  0  0  0  0  0  0  0  0  0  0
   -1.7533   -5.4721   15.9506 C   0  0  0  0  0  0  0  0  0  0  0  0
   -3.1053   -5.9260   15.8912 N   0  0  0  0  0  0  0  0  0  0  0  0
   -0.8657   -6.0654   15.1468 N   0  0  0  0  0  0  0  0  0  0  0  0
    0.4570   -5.6930   15.1539 C   0  0  0  0  0  0  0  0  0  0  0  0
    0.8511   -4.6758   15.9958 C   0  0  0  0  0  0  0  0  0  0  0  0
   -0.1216   -4.0506   16.8280 C   0  0  0  0  0  0  0  0  0  0  0  0
    0.2599   -3.0358   17.6771 O   0  0  0  0  0  0  0  0  0  0  0  0
    2.2552   -4.4978   15.7834 C   0  0  0  0  0  0  0  0  0  0  0  0
    2.6333   -5.4377   14.8145 C   0  0  0  0  0  0  0  0  0  0  0  0
    1.5533   -6.1411   14.4515 N   0  0  0  0  0  0  0  0  0  0  0  0
  1  2  1  0  0  0  0
  1  7  1  0  0  0  0
  2  3  1  0  0  0  0
  2  4  2  0  0  0  0
  4  5  1  0  0  0  0
  5  6  2  0  0  0  0
  5 11  1  0  0  0  0
  6  7  1  0  0  0  0
  6  9  1  0  0  0  0
  7  8  2  0  0  0  0
  9 10  2  0  0  0  0
 10 11  1  0  0  0  0
M  END
>  <CHROM.1>
0.01731906,-5.02115074,15.89573364,-2.98414780,-0.19273336,-2.39275656

>  <Name>
ligand

>  <RI>
0

>  <Rbt.Current_Directory>
/home/itssahil/PROJECTS/Mol_Feturizer/New_Systems/rnas/4LVW

>  <Rbt.Executable>
rbdock ($Id: //depot/dev/client3/rdock/2013.1/src/exe/rbdock.cxx#4 $)

>  <Rbt.Library>
libRbt.so (2013.1, Build901 2013/11/27)

>  <Rbt.Parameter_File>
/export/apps/rDock/src/rDock_2013.1_src/data/scripts/dock_solv.prm

>  <Rbt.Receptor>
prm/blind_docking_20.prm

>  <SCORE>
-4.7765

>  <SCORE.INTER>
-4.7765

>  <SCORE.INTER.CONST>
1

>  <SCORE.INTER.POLAR>
0

>  <SCORE.INTER.ROT>
0

>  <SCORE.INTER.SOLV>
3.26374

>  <SCORE.INTER.VDW>
-7.87224

>  <SCORE.INTER.norm>
-0.434227

>  <SCORE.INTRA>
0

>  <SCORE.INTRA.DIHEDRAL>
0

>  <SCORE.INTRA.DIHEDRAL.0>
0

>  <SCORE.INTRA.POLAR>
0

>  <SCORE.INTRA.POLAR.0>
0

>  <SCORE.INTRA.REPUL>
0

>  <SCORE.INTRA.REPUL.0>
0

>  <SCORE.INTRA.SOLV>
0

>  <SCORE.INTRA.SOLV.lig_0>
-29.307

>  <SCORE.INTRA.VDW>
0

>  <SCORE.INTRA.VDW.0>
0

>  <SCORE.INTRA.norm>
0

>  <SCORE.RESTR>
0

>  <SCORE.RESTR.CAVITY>
0

>  <SCORE.RESTR.norm>
0

>  <SCORE.SYSTEM>
0

>  <SCORE.SYSTEM.CONST>
0

>  <SCORE.SYSTEM.DIHEDRAL>
0

>  <SCORE.SYSTEM.SOLV>
0

>  <SCORE.SYSTEM.norm>
0

>  <SCORE.heavy>
11

>  <SCORE.norm>
-0.434227

>  <RMSD>
18.212

$$$$
ligand
 OpenBabel11021811503D
libRbt.so/2013.1/901 2013/11/27
 11 12  0  0  0  0  0  0  0  0999 V2000
   -0.6683   -4.0402   17.0042 N   0  0  0  0  0  0  0  0  0  0  0  0
   -1.2239   -5.0148   16.2628 C   0  0  0  0  0  0  0  0  0  0  0  0
   -2.6102   -5.3251   16.4017 N   0  0  0  0  0  0  0  0  0  0  0  0
   -0.5185   -5.7192   15.3727 N   0  0  0  0  0  0  0  0  0  0  0  0
    0.8236   -5.4882   15.1892 C   0  0  0  0  0  0  0  0  0  0  0  0
    1.4293   -4.4965   15.9297 C   0  0  0  0  0  0  0  0  0  0  0  0
    0.6471   -3.7507   16.8580 C   0  0  0  0  0  0  0  0  0  0  0  0
    1.2411   -2.7598   17.6074 O   0  0  0  0  0  0  0  0  0  0  0  0
    2.8021   -4.4730   15.5259 C   0  0  0  0  0  0  0  0  0  0  0  0
    2.9479   -5.4726   14.5539 C   0  0  0  0  0  0  0  0  0  0  0  0
    1.7631   -6.0675   14.3660 N   0  0  0  0  0  0  0  0  0  0  0  0
  1  2  1  0  0  0  0
  1  7  1  0  0  0  0
  2  3  1  0  0  0  0
  2  4  2  0  0  0  0
  4  5  1  0  0  0  0
  5  6  2  0  0  0  0
  5 11  1  0  0  0  0
  6  7  1  0  0  0  0
  6  9  1  0  0  0  0
  7  8  2  0  0  0  0
  9 10  2  0  0  0  0
 10 11  1  0  0  0  0
M  END
>  <CHROM.1>
0.55911734,-4.75452221,15.95524745,-2.81252510,-0.22110042,-2.39081894

>  <Name>
ligand

>  <RI>
0

>  <Rbt.Current_Directory>
/home/itssahil/PROJECTS/Mol_Feturizer/New_Systems/rnas/4LVW

>  <Rbt.Executable>
rbdock ($Id: //depot/dev/client3/rdock/2013.1/src/exe/rbdock.cxx#4 $)

>  <Rbt.Library>
libRbt.so (2013.1, Build901 2013/11/27)

>  <Rbt.Parameter_File>
/export/apps/rDock/src/rDock_2013.1_src/data/scripts/dock_solv.prm

>  <Rbt.Receptor>
prm/blind_docking_20.prm

>  <SCORE>
-4.62063

>  <SCORE.INTER>
-4.62063

>  <SCORE.INTER.CONST>
1

>  <SCORE.INTER.POLAR>
0

>  <SCORE.INTER.ROT>
0

>  <SCORE.INTER.SOLV>
4.06488

>  <SCORE.INTER.VDW>
-8.03538

>  <SCORE.INTER.norm>
-0.420057

>  <SCORE.INTRA>
0

>  <SCORE.INTRA.DIHEDRAL>
0

>  <SCORE.INTRA.DIHEDRAL.0>
0

>  <SCORE.INTRA.POLAR>
0

>  <SCORE.INTRA.POLAR.0>
0

>  <SCORE.INTRA.REPUL>
0

>  <SCORE.INTRA.REPUL.0>
0

>  <SCORE.INTRA.SOLV>
0

>  <SCORE.INTRA.SOLV.lig_0>
-29.307

>  <SCORE.INTRA.VDW>
0

>  <SCORE.INTRA.VDW.0>
0

>  <SCORE.INTRA.norm>
0

>  <SCORE.RESTR>
0

>  <SCORE.RESTR.CAVITY>
0

>  <SCORE.RESTR.norm>
0

>  <SCORE.SYSTEM>
0

>  <SCORE.SYSTEM.CONST>
0

>  <SCORE.SYSTEM.DIHEDRAL>
0

>  <SCORE.SYSTEM.SOLV>
0

>  <SCORE.SYSTEM.norm>
0

>  <SCORE.heavy>
11

>  <SCORE.norm>
-0.420057

>  <RMSD>
18.353

$$$$
ligand
 OpenBabel11021811503D
libRbt.so/2013.1/901 2013/11/27
 11 12  0  0  0  0  0  0  0  0999 V2000
   -0.6375   -4.0715   16.8678 N   0  0  0  0  0  0  0  0  0  0  0  0
   -1.1618   -5.0747   16.1419 C   0  0  0  0  0  0  0  0  0  0  0  0
   -2.5456   -5.4038   16.2605 N   0  0  0  0  0  0  0  0  0  0  0  0
   -0.4267   -5.7912   15.2862 N   0  0  0  0  0  0  0  0  0  0  0  0
    0.9152   -5.5433   15.1243 C   0  0  0  0  0  0  0  0  0  0  0  0
    1.4894   -4.5222   15.8499 C   0  0  0  0  0  0  0  0  0  0  0  0
    0.6760   -3.7645   16.7410 C   0  0  0  0  0  0  0  0  0  0  0  0
    1.2383   -2.7442   17.4753 O   0  0  0  0  0  0  0  0  0  0  0  0
    2.8698   -4.4872   15.4742 C   0  0  0  0  0  0  0  0  0  0  0  0
    3.0520   -5.5101   14.5331 C   0  0  0  0  0  0  0  0  0  0  0  0
    1.8810   -6.1291   14.3369 N   0  0  0  0  0  0  0  0  0  0  0  0
  1  2  1  0  0  0  0
  1  7  1  0  0  0  0
  2  3  1  0  0  0  0
  2  4  2  0  0  0  0
  4  5  1  0  0  0  0
  5  6  2  0  0  0  0
  5 11  1  0  0  0  0
  6  7  1  0  0  0  0
  6  9  1  0  0  0  0
  7  8  2  0  0  0  0
  9 10  2  0  0  0  0
 10 11  1  0  0  0  0
M  END
>  <CHROM.1>
0.62299172,-4.79365825,15.86443761,-2.83914007,-0.21631120,-2.42375384

>  <Name>
ligand

>  <RI>
0

>  <Rbt.Current_Directory>
/home/itssahil/PROJECTS/Mol_Feturizer/New_Systems/rnas/4LVW

>  <Rbt.Executable>
rbdock ($Id: //depot/dev/client3/rdock/2013.1/src/exe/rbdock.cxx#4 $)

>  <Rbt.Library>
libRbt.so (2013.1, Build901 2013/11/27)

>  <Rbt.Parameter_File>
/export/apps/rDock/src/rDock_2013.1_src/data/scripts/dock_solv.prm

>  <Rbt.Receptor>
prm/blind_docking_20.prm

>  <SCORE>
-4.61186

>  <SCORE.INTER>
-4.61186

>  <SCORE.INTER.CONST>
1

>  <SCORE.INTER.POLAR>
0

>  <SCORE.INTER.ROT>
0

>  <SCORE.INTER.SOLV>
4.10451

>  <SCORE.INTER.VDW>
-8.04274

>  <SCORE.INTER.norm>
-0.41926

>  <SCORE.INTRA>
0

>  <SCORE.INTRA.DIHEDRAL>
0

>  <SCORE.INTRA.DIHEDRAL.0>
0

>  <SCORE.INTRA.POLAR>
0

>  <SCORE.INTRA.POLAR.0>
0

>  <SCORE.INTRA.REPUL>
0

>  <SCORE.INTRA.REPUL.0>
0

>  <SCORE.INTRA.SOLV>
0

>  <SCORE.INTRA.SOLV.lig_0>
-29.307

>  <SCORE.INTRA.VDW>
0

>  <SCORE.INTRA.VDW.0>
0

>  <SCORE.INTRA.norm>
0

>  <SCORE.RESTR>
0

>  <SCORE.RESTR.CAVITY>
0

>  <SCORE.RESTR.norm>
0

>  <SCORE.SYSTEM>
0

>  <SCORE.SYSTEM.CONST>
0

>  <SCORE.SYSTEM.DIHEDRAL>
0

>  <SCORE.SYSTEM.SOLV>
0

>  <SCORE.SYSTEM.norm>
0

>  <SCORE.heavy>
11

>  <SCORE.norm>
-0.41926

>  <RMSD>
18.360

$$$$
ligand
 OpenBabel11021811503D
libRbt.so/2013.1/901 2013/11/27
 11 12  0  0  0  0  0  0  0  0999 V2000
    1.1621   -3.7426   16.5047 N   0  0  0  0  0  0  0  0  0  0  0  0
    1.7776   -4.3639   15.4833 C   0  0  0  0  0  0  0  0  0  0  0  0
    3.0988   -3.9840   15.0991 N   0  0  0  0  0  0  0  0  0  0  0  0
    1.1946   -5.3527   14.7990 N   0  0  0  0  0  0  0  0  0  0  0  0
   -0.0801   -5.7679   15.1006 C   0  0  0  0  0  0  0  0  0  0  0  0
   -0.7438   -5.1562   16.1418 C   0  0  0  0  0  0  0  0  0  0  0  0
   -0.0894   -4.1172   16.8641 C   0  0  0  0  0  0  0  0  0  0  0  0
   -0.7431   -3.4947   17.9040 O   0  0  0  0  0  0  0  0  0  0  0  0
   -2.0233   -5.7909   16.2328 C   0  0  0  0  0  0  0  0  0  0  0  0
   -2.0595   -6.7600   15.2205 C   0  0  0  0  0  0  0  0  0  0  0  0
   -0.8974   -6.7329   14.5558 N   0  0  0  0  0  0  0  0  0  0  0  0
  1  2  1  0  0  0  0
  1  7  1  0  0  0  0
  2  3  1  0  0  0  0
  2  4  2  0  0  0  0
  4  5  1  0  0  0  0
  5  6  2  0  0  0  0
  5 11  1  0  0  0  0
  6  7  1  0  0  0  0
  6  9  1  0  0  0  0
  7  8  2  0  0  0  0
  9 10  2  0  0  0  0
 10 11  1  0  0  0  0
M  END
>  <CHROM.1>
0.09228180,-4.97765424,15.83601006,0.40851191,0.38692255,0.81474808

>  <Name>
ligand

>  <RI>
0

>  <Rbt.Current_Directory>
/home/itssahil/PROJECTS/Mol_Feturizer/New_Systems/rnas/4LVW

>  <Rbt.Executable>
rbdock ($Id: //depot/dev/client3/rdock/2013.1/src/exe/rbdock.cxx#4 $)

>  <Rbt.Library>
libRbt.so (2013.1, Build901 2013/11/27)

>  <Rbt.Parameter_File>
/export/apps/rDock/src/rDock_2013.1_src/data/scripts/dock_solv.prm

>  <Rbt.Receptor>
prm/blind_docking_20.prm

>  <SCORE>
-4.32939

>  <SCORE.INTER>
-4.32939

>  <SCORE.INTER.CONST>
1

>  <SCORE.INTER.POLAR>
0

>  <SCORE.INTER.ROT>
0

>  <SCORE.INTER.SOLV>
2.1777

>  <SCORE.INTER.VDW>
-7.21216

>  <SCORE.INTER.norm>
-0.393581

>  <SCORE.INTRA>
0

>  <SCORE.INTRA.DIHEDRAL>
0

>  <SCORE.INTRA.DIHEDRAL.0>
0

>  <SCORE.INTRA.POLAR>
0

>  <SCORE.INTRA.POLAR.0>
0

>  <SCORE.INTRA.REPUL>
0

>  <SCORE.INTRA.REPUL.0>
0

>  <SCORE.INTRA.SOLV>
0

>  <SCORE.INTRA.SOLV.lig_0>
-29.307

>  <SCORE.INTRA.VDW>
0

>  <SCORE.INTRA.VDW.0>
0

>  <SCORE.INTRA.norm>
0

>  <SCORE.RESTR>
0

>  <SCORE.RESTR.CAVITY>
0

>  <SCORE.RESTR.norm>
0

>  <SCORE.SYSTEM>
0

>  <SCORE.SYSTEM.CONST>
0

>  <SCORE.SYSTEM.DIHEDRAL>
0

>  <SCORE.SYSTEM.SOLV>
0

>  <SCORE.SYSTEM.norm>
0

>  <SCORE.heavy>
11

>  <SCORE.norm>
-0.393581

>  <RMSD>
18.544

$$$$
ligand
 OpenBabel11021811503D
libRbt.so/2013.1/901 2013/11/27
 11 12  0  0  0  0  0  0  0  0999 V2000
    1.2213   -3.7520   16.2796 N   0  0  0  0  0  0  0  0  0  0  0  0
    1.7883   -4.4356   15.2699 C   0  0  0  0  0  0  0  0  0  0  0  0
    3.1000   -4.0994   14.8185 N   0  0  0  0  0  0  0  0  0  0  0  0
    1.1644   -5.4475   14.6593 N   0  0  0  0  0  0  0  0  0  0  0  0
   -0.1047   -5.8240   15.0284 C   0  0  0  0  0  0  0  0  0  0  0  0
   -0.7191   -5.1482   16.0601 C   0  0  0  0  0  0  0  0  0  0  0  0
   -0.0216   -4.0854   16.7034 C   0  0  0  0  0  0  0  0  0  0  0  0
   -0.6260   -3.3991   17.7329 O   0  0  0  0  0  0  0  0  0  0  0  0
   -2.0042   -5.7545   16.2305 C   0  0  0  0  0  0  0  0  0  0  0  0
   -2.0937   -6.7732   15.2716 C   0  0  0  0  0  0  0  0  0  0  0  0
   -0.9570   -6.8008   14.5644 N   0  0  0  0  0  0  0  0  0  0  0  0
  1  2  1  0  0  0  0
  1  7  1  0  0  0  0
  2  3  1  0  0  0  0
  2  4  2  0  0  0  0
  4  5  1  0  0  0  0
  5  6  2  0  0  0  0
  5 11  1  0  0  0  0
  6  7  1  0  0  0  0
  6  9  1  0  0  0  0
  7  8  2  0  0  0  0
  9 10  2  0  0  0  0
 10 11  1  0  0  0  0
M  END
>  <CHROM.1>
0.10773516,-5.00038868,15.71516634,0.36705882,0.40070578,0.77923980

>  <Name>
ligand

>  <RI>
0

>  <Rbt.Current_Directory>
/home/itssahil/PROJECTS/Mol_Feturizer/New_Systems/rnas/4LVW

>  <Rbt.Executable>
rbdock ($Id: //depot/dev/client3/rdock/2013.1/src/exe/rbdock.cxx#4 $)

>  <Rbt.Library>
libRbt.so (2013.1, Build901 2013/11/27)

>  <Rbt.Parameter_File>
/export/apps/rDock/src/rDock_2013.1_src/data/scripts/dock_solv.prm

>  <Rbt.Receptor>
prm/blind_docking_20.prm

>  <SCORE>
-4.35027

>  <SCORE.INTER>
-4.35027

>  <SCORE.INTER.CONST>
1

>  <SCORE.INTER.POLAR>
0

>  <SCORE.INTER.ROT>
0

>  <SCORE.INTER.SOLV>
2.69808

>  <SCORE.INTER.VDW>
-7.39954

>  <SCORE.INTER.norm>
-0.395479

>  <SCORE.INTRA>
0

>  <SCORE.INTRA.DIHEDRAL>
0

>  <SCORE.INTRA.DIHEDRAL.0>
0

>  <SCORE.INTRA.POLAR>
0

>  <SCORE.INTRA.POLAR.0>
0

>  <SCORE.INTRA.REPUL>
0

>  <SCORE.INTRA.REPUL.0>
0

>  <SCORE.INTRA.SOLV>
0

>  <SCORE.INTRA.SOLV.lig_0>
-29.307

>  <SCORE.INTRA.VDW>
0

>  <SCORE.INTRA.VDW.0>
0

>  <SCORE.INTRA.norm>
0

>  <SCORE.RESTR>
0

>  <SCORE.RESTR.CAVITY>
0

>  <SCORE.RESTR.norm>
0

>  <SCORE.SYSTEM>
0

>  <SCORE.SYSTEM.CONST>
0

>  <SCORE.SYSTEM.DIHEDRAL>
0

>  <SCORE.SYSTEM.SOLV>
0

>  <SCORE.SYSTEM.norm>
0

>  <SCORE.heavy>
11

>  <SCORE.norm>
-0.395479

>  <RMSD>
18.585

$$$$
ligand
 OpenBabel11021811503D
libRbt.so/2013.1/901 2013/11/27
 11 12  0  0  0  0  0  0  0  0999 V2000
    0.1570   -5.4084   14.9009 N   0  0  0  0  0  0  0  0  0  0  0  0
   -0.9424   -5.0378   15.5810 C   0  0  0  0  0  0  0  0  0  0  0  0
   -2.2276   -5.5231   15.1935 N   0  0  0  0  0  0  0  0  0  0  0  0
   -0.8823   -4.2198   16.6360 N   0  0  0  0  0  0  0  0  0  0  0  0
    0.3163   -3.7013   17.0636 C   0  0  0  0  0  0  0  0  0  0  0  0
    1.4660   -4.0584   16.3931 C   0  0  0  0  0  0  0  0  0  0  0  0
    1.3719   -4.9463   15.2829 C   0  0  0  0  0  0  0  0  0  0  0  0
    2.5127   -5.3076   14.6015 O   0  0  0  0  0  0  0  0  0  0  0  0
    2.5436   -3.3893   17.0558 C   0  0  0  0  0  0  0  0  0  0  0  0
    1.9708   -2.6507   18.1005 C   0  0  0  0  0  0  0  0  0  0  0  0
    0.6462   -2.8459   18.0909 N   0  0  0  0  0  0  0  0  0  0  0  0
  1  2  1  0  0  0  0
  1  7  1  0  0  0  0
  2  3  1  0  0  0  0
  2  4  2  0  0  0  0
  4  5  1  0  0  0  0
  5  6  2  0  0  0  0
  5 11  1  0  0  0  0
  6  7  1  0  0  0  0
  6  9  1  0  0  0  0
  7  8  2  0  0  0  0
  9 10  2  0  0  0  0
 10 11  1  0  0  0  0
M  END
>  <CHROM.1>
0.61543351,-4.32131186,16.21435491,-2.28289087,0.11279942,0.90775054

>  <Name>
ligand

>  <RI>
0

>  <Rbt.Current_Directory>
/home/itssahil/PROJECTS/Mol_Feturizer/New_Systems/rnas/4LVW

>  <Rbt.Executable>
rbdock ($Id: //depot/dev/client3/rdock/2013.1/src/exe/rbdock.cxx#4 $)

>  <Rbt.Library>
libRbt.so (2013.1, Build901 2013/11/27)

>  <Rbt.Parameter_File>
/export/apps/rDock/src/rDock_2013.1_src/data/scripts/dock_solv.prm

>  <Rbt.Receptor>
prm/blind_docking_20.prm

>  <SCORE>
-5.36821

>  <SCORE.INTER>
-5.36821

>  <SCORE.INTER.CONST>
1

>  <SCORE.INTER.POLAR>
0

>  <SCORE.INTER.ROT>
0

>  <SCORE.INTER.SOLV>
2.61497

>  <SCORE.INTER.VDW>
-8.05047

>  <SCORE.INTER.norm>
-0.488019

>  <SCORE.INTRA>
0

>  <SCORE.INTRA.DIHEDRAL>
0

>  <SCORE.INTRA.DIHEDRAL.0>
0

>  <SCORE.INTRA.POLAR>
0

>  <SCORE.INTRA.POLAR.0>
0

>  <SCORE.INTRA.REPUL>
0

>  <SCORE.INTRA.REPUL.0>
0

>  <SCORE.INTRA.SOLV>
0

>  <SCORE.INTRA.SOLV.lig_0>
-29.307

>  <SCORE.INTRA.VDW>
0

>  <SCORE.INTRA.VDW.0>
0

>  <SCORE.INTRA.norm>
0

>  <SCORE.RESTR>
0

>  <SCORE.RESTR.CAVITY>
0

>  <SCORE.RESTR.norm>
0

>  <SCORE.SYSTEM>
0

>  <SCORE.SYSTEM.CONST>
0

>  <SCORE.SYSTEM.DIHEDRAL>
0

>  <SCORE.SYSTEM.SOLV>
0

>  <SCORE.SYSTEM.norm>
0

>  <SCORE.heavy>
11

>  <SCORE.norm>
-0.488019

>  <RMSD>
18.827

$$$$
ligand
 OpenBabel11021811503D
libRbt.so/2013.1/901 2013/11/27
 11 12  0  0  0  0  0  0  0  0999 V2000
    0.2309   -5.4006   14.8939 N   0  0  0  0  0  0  0  0  0  0  0  0
   -0.8670   -5.0276   15.5750 C   0  0  0  0  0  0  0  0  0  0  0  0
   -2.1537   -5.5101   15.1889 N   0  0  0  0  0  0  0  0  0  0  0  0
   -0.8042   -4.2095   16.6298 N   0  0  0  0  0  0  0  0  0  0  0  0
    0.3960   -3.6935   17.0562 C   0  0  0  0  0  0  0  0  0  0  0  0
    1.5442   -4.0531   16.3846 C   0  0  0  0  0  0  0  0  0  0  0  0
    1.4472   -4.9410   15.2747 C   0  0  0  0  0  0  0  0  0  0  0  0
    2.5865   -5.3049   14.5922 O   0  0  0  0  0  0  0  0  0  0  0  0
    2.6240   -3.3863   17.0461 C   0  0  0  0  0  0  0  0  0  0  0  0
    2.0538   -2.6463   18.0913 C   0  0  0  0  0  0  0  0  0  0  0  0
    0.7287   -2.8387   18.0831 N   0  0  0  0  0  0  0  0  0  0  0  0
  1  2  1  0  0  0  0
  1  7  1  0  0  0  0
  2  3  1  0  0  0  0
  2  4  2  0  0  0  0
  4  5  1  0  0  0  0
  5  6  2  0  0  0  0
  5 11  1  0  0  0  0
  6  7  1  0  0  0  0
  6  9  1  0  0  0  0
  7  8  2  0  0  0  0
  9 10  2  0  0  0  0
 10 11  1  0  0  0  0
M  END
>  <CHROM.1>
0.69295420,-4.31428975,16.20676213,-2.28500196,0.11169398,0.90782026

>  <Name>
ligand

>  <RI>
0

>  <Rbt.Current_Directory>
/home/itssahil/PROJECTS/Mol_Feturizer/New_Systems/rnas/4LVW

>  <Rbt.Executable>
rbdock ($Id: //depot/dev/client3/rdock/2013.1/src/exe/rbdock.cxx#4 $)

>  <Rbt.Library>
libRbt.so (2013.1, Build901 2013/11/27)

>  <Rbt.Parameter_File>
/export/apps/rDock/src/rDock_2013.1_src/data/scripts/dock_solv.prm

>  <Rbt.Receptor>
prm/blind_docking_20.prm

>  <SCORE>
-5.37446

>  <SCORE.INTER>
-5.37446

>  <SCORE.INTER.CONST>
1

>  <SCORE.INTER.POLAR>
0

>  <SCORE.INTER.ROT>
0

>  <SCORE.INTER.SOLV>
2.61756

>  <SCORE.INTER.VDW>
-8.05549

>  <SCORE.INTER.norm>
-0.488587

>  <SCORE.INTRA>
0

>  <SCORE.INTRA.DIHEDRAL>
0

>  <SCORE.INTRA.DIHEDRAL.0>
0

>  <SCORE.INTRA.POLAR>
0

>  <SCORE.INTRA.POLAR.0>
0

>  <SCORE.INTRA.REPUL>
0

>  <SCORE.INTRA.REPUL.0>
0

>  <SCORE.INTRA.SOLV>
0

>  <SCORE.INTRA.SOLV.lig_0>
-29.307

>  <SCORE.INTRA.VDW>
0

>  <SCORE.INTRA.VDW.0>
0

>  <SCORE.INTRA.norm>
0

>  <SCORE.RESTR>
0

>  <SCORE.RESTR.CAVITY>
0

>  <SCORE.RESTR.norm>
0

>  <SCORE.SYSTEM>
0

>  <SCORE.SYSTEM.CONST>
0

>  <SCORE.SYSTEM.DIHEDRAL>
0

>  <SCORE.SYSTEM.SOLV>
0

>  <SCORE.SYSTEM.norm>
0

>  <SCORE.heavy>
11

>  <SCORE.norm>
-0.488587

>  <RMSD>
18.831

$$$$
ligand
 OpenBabel11021811503D
libRbt.so/2013.1/901 2013/11/27
 11 12  0  0  0  0  0  0  0  0999 V2000
    0.1310   -5.4051   14.8615 N   0  0  0  0  0  0  0  0  0  0  0  0
   -0.9438   -5.0256   15.5748 C   0  0  0  0  0  0  0  0  0  0  0  0
   -2.2455   -5.4926   15.2213 N   0  0  0  0  0  0  0  0  0  0  0  0
   -0.8437   -4.2151   16.6326 N   0  0  0  0  0  0  0  0  0  0  0  0
    0.3730   -3.7139   17.0289 C   0  0  0  0  0  0  0  0  0  0  0  0
    1.4986   -4.0807   16.3238 C   0  0  0  0  0  0  0  0  0  0  0  0
    1.3620   -4.9603   15.2114 C   0  0  0  0  0  0  0  0  0  0  0  0
    2.4783   -5.3312   14.4956 O   0  0  0  0  0  0  0  0  0  0  0  0
    2.6028   -3.4290   16.9595 C   0  0  0  0  0  0  0  0  0  0  0  0
    2.0692   -2.6902   18.0246 C   0  0  0  0  0  0  0  0  0  0  0  0
    0.7425   -2.8692   18.0516 N   0  0  0  0  0  0  0  0  0  0  0  0
  1  2  1  0  0  0  0
  1  7  1  0  0  0  0
  2  3  1  0  0  0  0
  2  4  2  0  0  0  0
  4  5  1  0  0  0  0
  5  6  2  0  0  0  0
  5 11  1  0  0  0  0
  6  7  1  0  0  0  0
  6  9  1  0  0  0  0
  7  8  2  0  0  0  0
  9 10  2  0  0  0  0
 10 11  1  0  0  0  0
M  END
>  <CHROM.1>
0.64010261,-4.33212355,16.16783041,-2.31316276,0.12051252,0.91745689

>  <Name>
ligand

>  <RI>
0

>  <Rbt.Current_Directory>
/home/itssahil/PROJECTS/Mol_Feturizer/New_Systems/rnas/4LVW

>  <Rbt.Executable>
rbdock ($Id: //depot/dev/client3/rdock/2013.1/src/exe/rbdock.cxx#4 $)

>  <Rbt.Library>
libRbt.so (2013.1, Build901 2013/11/27)

>  <Rbt.Parameter_File>
/export/apps/rDock/src/rDock_2013.1_src/data/scripts/dock_solv.prm

>  <Rbt.Receptor>
prm/blind_docking_20.prm

>  <SCORE>
-5.32072

>  <SCORE.INTER>
-5.32072

>  <SCORE.INTER.CONST>
1

>  <SCORE.INTER.POLAR>
0

>  <SCORE.INTER.ROT>
0

>  <SCORE.INTER.SOLV>
2.67189

>  <SCORE.INTER.VDW>
-8.03778

>  <SCORE.INTER.norm>
-0.483702

>  <SCORE.INTRA>
0

>  <SCORE.INTRA.DIHEDRAL>
0

>  <SCORE.INTRA.DIHEDRAL.0>
0

>  <SCORE.INTRA.POLAR>
0

>  <SCORE.INTRA.POLAR.0>
0

>  <SCORE.INTRA.REPUL>
0

>  <SCORE.INTRA.REPUL.0>
0

>  <SCORE.INTRA.SOLV>
0

>  <SCORE.INTRA.SOLV.lig_0>
-29.307

>  <SCORE.INTRA.VDW>
0

>  <SCORE.INTRA.VDW.0>
0

>  <SCORE.INTRA.norm>
0

>  <SCORE.RESTR>
0

>  <SCORE.RESTR.CAVITY>
0

>  <SCORE.RESTR.norm>
0

>  <SCORE.SYSTEM>
0

>  <SCORE.SYSTEM.CONST>
0

>  <SCORE.SYSTEM.DIHEDRAL>
0

>  <SCORE.SYSTEM.SOLV>
0

>  <SCORE.SYSTEM.norm>
0

>  <SCORE.heavy>
11

>  <SCORE.norm>
-0.483702

>  <RMSD>
18.835

$$$$
ligand
 OpenBabel11021811503D
libRbt.so/2013.1/901 2013/11/27
 11 12  0  0  0  0  0  0  0  0999 V2000
    0.1050   -5.4148   14.8807 N   0  0  0  0  0  0  0  0  0  0  0  0
   -0.9618   -5.0382   15.6076 C   0  0  0  0  0  0  0  0  0  0  0  0
   -2.2646   -5.5202   15.2793 N   0  0  0  0  0  0  0  0  0  0  0  0
   -0.8521   -4.2168   16.6561 N   0  0  0  0  0  0  0  0  0  0  0  0
    0.3660   -3.7010   17.0282 C   0  0  0  0  0  0  0  0  0  0  0  0
    1.4835   -4.0644   16.3085 C   0  0  0  0  0  0  0  0  0  0  0  0
    1.3373   -4.9557   15.2068 C   0  0  0  0  0  0  0  0  0  0  0  0
    2.4454   -5.3233   14.4766 O   0  0  0  0  0  0  0  0  0  0  0  0
    2.5918   -3.3969   16.9203 C   0  0  0  0  0  0  0  0  0  0  0  0
    2.0685   -2.6528   17.9869 C   0  0  0  0  0  0  0  0  0  0  0  0
    0.7441   -2.8434   18.0369 N   0  0  0  0  0  0  0  0  0  0  0  0
  1  2  1  0  0  0  0
  1  7  1  0  0  0  0
  2  3  1  0  0  0  0
  2  4  2  0  0  0  0
  4  5  1  0  0  0  0
  5  6  2  0  0  0  0
  5 11  1  0  0  0  0
  6  7  1  0  0  0  0
  6  9  1  0  0  0  0
  7  8  2  0  0  0  0
  9 10  2  0  0  0  0
 10 11  1  0  0  0  0
M  END
>  <CHROM.1>
0.62504126,-4.32497166,16.16868680,-2.32033672,0.13742781,0.90898991

>  <Name>
ligand

>  <RI>
0

>  <Rbt.Current_Directory>
/home/itssahil/PROJECTS/Mol_Feturizer/New_Systems/rnas/4LVW

>  <Rbt.Executable>
rbdock ($Id: //depot/dev/client3/rdock/2013.1/src/exe/rbdock.cxx#4 $)

>  <Rbt.Library>
libRbt.so (2013.1, Build901 2013/11/27)

>  <Rbt.Parameter_File>
/export/apps/rDock/src/rDock_2013.1_src/data/scripts/dock_solv.prm

>  <Rbt.Receptor>
prm/blind_docking_20.prm

>  <SCORE>
-5.35816

>  <SCORE.INTER>
-5.35816

>  <SCORE.INTER.CONST>
1

>  <SCORE.INTER.POLAR>
0

>  <SCORE.INTER.ROT>
0

>  <SCORE.INTER.SOLV>
2.69637

>  <SCORE.INTER.VDW>
-8.0709

>  <SCORE.INTER.norm>
-0.487105

>  <SCORE.INTRA>
0

>  <SCORE.INTRA.DIHEDRAL>
0

>  <SCORE.INTRA.DIHEDRAL.0>
0

>  <SCORE.INTRA.POLAR>
0

>  <SCORE.INTRA.POLAR.0>
0

>  <SCORE.INTRA.REPUL>
0

>  <SCORE.INTRA.REPUL.0>
0

>  <SCORE.INTRA.SOLV>
0

>  <SCORE.INTRA.SOLV.lig_0>
-29.307

>  <SCORE.INTRA.VDW>
0

>  <SCORE.INTRA.VDW.0>
0

>  <SCORE.INTRA.norm>
0

>  <SCORE.RESTR>
0

>  <SCORE.RESTR.CAVITY>
0

>  <SCORE.RESTR.norm>
0

>  <SCORE.SYSTEM>
0

>  <SCORE.SYSTEM.CONST>
0

>  <SCORE.SYSTEM.DIHEDRAL>
0

>  <SCORE.SYSTEM.SOLV>
0

>  <SCORE.SYSTEM.norm>
0

>  <SCORE.heavy>
11

>  <SCORE.norm>
-0.487105

>  <RMSD>
18.842

$$$$
ligand
 OpenBabel11021811503D
libRbt.so/2013.1/901 2013/11/27
 11 12  0  0  0  0  0  0  0  0999 V2000
    0.1684   -5.3704   14.9067 N   0  0  0  0  0  0  0  0  0  0  0  0
   -0.9085   -4.9949   15.6193 C   0  0  0  0  0  0  0  0  0  0  0  0
   -2.2077   -5.4692   15.2665 N   0  0  0  0  0  0  0  0  0  0  0  0
   -0.8125   -4.1818   16.6755 N   0  0  0  0  0  0  0  0  0  0  0  0
    0.4016   -3.6737   17.0710 C   0  0  0  0  0  0  0  0  0  0  0  0
    1.5291   -4.0362   16.3666 C   0  0  0  0  0  0  0  0  0  0  0  0
    1.3970   -4.9187   15.2559 C   0  0  0  0  0  0  0  0  0  0  0  0
    2.5153   -5.2853   14.5409 O   0  0  0  0  0  0  0  0  0  0  0  0
    2.6300   -3.3778   17.0011 C   0  0  0  0  0  0  0  0  0  0  0  0
    2.0925   -2.6396   18.0647 C   0  0  0  0  0  0  0  0  0  0  0  0
    0.7667   -2.8252   18.0920 N   0  0  0  0  0  0  0  0  0  0  0  0
  1  2  1  0  0  0  0
  1  7  1  0  0  0  0
  2  3  1  0  0  0  0
  2  4  2  0  0  0  0
  4  5  1  0  0  0  0
  5  6  2  0  0  0  0
  5 11  1  0  0  0  0
  6  7  1  0  0  0  0
  6  9  1  0  0  0  0
  7  8  2  0  0  0  0
  9 10  2  0  0  0  0
 10 11  1  0  0  0  0
M  END
>  <CHROM.1>
0.67190696,-4.29228181,16.21105325,-2.30998707,0.12446526,0.91514333

>  <Name>
ligand

>  <RI>
0

>  <Rbt.Current_Directory>
/home/itssahil/PROJECTS/Mol_Feturizer/New_Systems/rnas/4LVW

>  <Rbt.Executable>
rbdock ($Id: //depot/dev/client3/rdock/2013.1/src/exe/rbdock.cxx#4 $)

>  <Rbt.Library>
libRbt.so (2013.1, Build901 2013/11/27)

>  <Rbt.Parameter_File>
/export/apps/rDock/src/rDock_2013.1_src/data/scripts/dock_solv.prm

>  <Rbt.Receptor>
prm/blind_docking_20.prm

>  <SCORE>
-5.416

>  <SCORE.INTER>
-5.416

>  <SCORE.INTER.CONST>
1

>  <SCORE.INTER.POLAR>
0

>  <SCORE.INTER.ROT>
0

>  <SCORE.INTER.SOLV>
2.58811

>  <SCORE.INTER.VDW>
-8.07337

>  <SCORE.INTER.norm>
-0.492363

>  <SCORE.INTRA>
0

>  <SCORE.INTRA.DIHEDRAL>
0

>  <SCORE.INTRA.DIHEDRAL.0>
0

>  <SCORE.INTRA.POLAR>
0

>  <SCORE.INTRA.POLAR.0>
0

>  <SCORE.INTRA.REPUL>
0

>  <SCORE.INTRA.REPUL.0>
0

>  <SCORE.INTRA.SOLV>
0

>  <SCORE.INTRA.SOLV.lig_0>
-29.307

>  <SCORE.INTRA.VDW>
0

>  <SCORE.INTRA.VDW.0>
0

>  <SCORE.INTRA.norm>
0

>  <SCORE.RESTR>
0

>  <SCORE.RESTR.CAVITY>
0

>  <SCORE.RESTR.norm>
0

>  <SCORE.SYSTEM>
0

>  <SCORE.SYSTEM.CONST>
0

>  <SCORE.SYSTEM.DIHEDRAL>
0

>  <SCORE.SYSTEM.SOLV>
0

>  <SCORE.SYSTEM.norm>
0

>  <SCORE.heavy>
11

>  <SCORE.norm>
-0.492363

>  <RMSD>
18.848

$$$$
ligand
 OpenBabel11021811503D
libRbt.so/2013.1/901 2013/11/27
 11 12  0  0  0  0  0  0  0  0999 V2000
    0.0839   -5.4019   14.8591 N   0  0  0  0  0  0  0  0  0  0  0  0
   -0.9871   -5.0317   15.5832 C   0  0  0  0  0  0  0  0  0  0  0  0
   -2.2882   -5.5095   15.2421 N   0  0  0  0  0  0  0  0  0  0  0  0
   -0.8834   -4.2209   16.6404 N   0  0  0  0  0  0  0  0  0  0  0  0
    0.3328   -3.7097   17.0251 C   0  0  0  0  0  0  0  0  0  0  0  0
    1.4545   -4.0668   16.3087 C   0  0  0  0  0  0  0  0  0  0  0  0
    1.3144   -4.9470   15.1973 C   0  0  0  0  0  0  0  0  0  0  0  0
    2.4268   -5.3081   14.4703 O   0  0  0  0  0  0  0  0  0  0  0  0
    2.5594   -3.4062   16.9340 C   0  0  0  0  0  0  0  0  0  0  0  0
    2.0301   -2.6723   18.0047 C   0  0  0  0  0  0  0  0  0  0  0  0
    0.7053   -2.8625   18.0446 N   0  0  0  0  0  0  0  0  0  0  0  0
  1  2  1  0  0  0  0
  1  7  1  0  0  0  0
  2  3  1  0  0  0  0
  2  4  2  0  0  0  0
  4  5  1  0  0  0  0
  5  6  2  0  0  0  0
  5 11  1  0  0  0  0
  6  7  1  0  0  0  0
  6  9  1  0  0  0  0
  7  8  2  0  0  0  0
  9 10  2  0  0  0  0
 10 11  1  0  0  0  0
M  END
>  <CHROM.1>
0.59670699,-4.32529238,16.16104963,-2.31585869,0.13311938,0.91833442

>  <Name>
ligand

>  <RI>
0

>  <Rbt.Current_Directory>
/home/itssahil/PROJECTS/Mol_Feturizer/New_Systems/rnas/4LVW

>  <Rbt.Executable>
rbdock ($Id: //depot/dev/client3/rdock/2013.1/src/exe/rbdock.cxx#4 $)

>  <Rbt.Library>
libRbt.so (2013.1, Build901 2013/11/27)

>  <Rbt.Parameter_File>
/export/apps/rDock/src/rDock_2013.1_src/data/scripts/dock_solv.prm

>  <Rbt.Receptor>
prm/blind_docking_20.prm

>  <SCORE>
-5.34985

>  <SCORE.INTER>
-5.34985

>  <SCORE.INTER.CONST>
1

>  <SCORE.INTER.POLAR>
0

>  <SCORE.INTER.ROT>
0

>  <SCORE.INTER.SOLV>
2.64166

>  <SCORE.INTER.VDW>
-8.04712

>  <SCORE.INTER.norm>
-0.48635

>  <SCORE.INTRA>
0

>  <SCORE.INTRA.DIHEDRAL>
0

>  <SCORE.INTRA.DIHEDRAL.0>
0

>  <SCORE.INTRA.POLAR>
0

>  <SCORE.INTRA.POLAR.0>
0

>  <SCORE.INTRA.REPUL>
0

>  <SCORE.INTRA.REPUL.0>
0

>  <SCORE.INTRA.SOLV>
0

>  <SCORE.INTRA.SOLV.lig_0>
-29.307

>  <SCORE.INTRA.VDW>
0

>  <SCORE.INTRA.VDW.0>
0

>  <SCORE.INTRA.norm>
0

>  <SCORE.RESTR>
0

>  <SCORE.RESTR.CAVITY>
0

>  <SCORE.RESTR.norm>
0

>  <SCORE.SYSTEM>
0

>  <SCORE.SYSTEM.CONST>
0

>  <SCORE.SYSTEM.DIHEDRAL>
0

>  <SCORE.SYSTEM.SOLV>
0

>  <SCORE.SYSTEM.norm>
0

>  <SCORE.heavy>
11

>  <SCORE.norm>
-0.48635

>  <RMSD>
18.848

$$$$
ligand
 OpenBabel11021811503D
libRbt.so/2013.1/901 2013/11/27
 11 12  0  0  0  0  0  0  0  0999 V2000
    0.1422   -5.3840   14.9014 N   0  0  0  0  0  0  0  0  0  0  0  0
   -0.9357   -4.9770   15.5949 C   0  0  0  0  0  0  0  0  0  0  0  0
   -2.2398   -5.4298   15.2319 N   0  0  0  0  0  0  0  0  0  0  0  0
   -0.8365   -4.1516   16.6411 N   0  0  0  0  0  0  0  0  0  0  0  0
    0.3826   -3.6628   17.0453 C   0  0  0  0  0  0  0  0  0  0  0  0
    1.5113   -4.0577   16.3605 C   0  0  0  0  0  0  0  0  0  0  0  0
    1.3753   -4.9525   15.2603 C   0  0  0  0  0  0  0  0  0  0  0  0
    2.4948   -5.3515   14.5648 O   0  0  0  0  0  0  0  0  0  0  0  0
    2.6173   -3.4129   17.0002 C   0  0  0  0  0  0  0  0  0  0  0  0
    2.0816   -2.6494   18.0467 C   0  0  0  0  0  0  0  0  0  0  0  0
    0.7521   -2.8078   18.0594 N   0  0  0  0  0  0  0  0  0  0  0  0
  1  2  1  0  0  0  0
  1  7  1  0  0  0  0
  2  3  1  0  0  0  0
  2  4  2  0  0  0  0
  4  5  1  0  0  0  0
  5  6  2  0  0  0  0
  5 11  1  0  0  0  0
  6  7  1  0  0  0  0
  6  9  1  0  0  0  0
  7  8  2  0  0  0  0
  9 10  2  0  0  0  0
 10 11  1  0  0  0  0
M  END
>  <CHROM.1>
0.65107690,-4.29845658,16.19742643,-2.31243748,0.10059656,0.90174104

>  <Name>
ligand

>  <RI>
0

>  <Rbt.Current_Directory>
/home/itssahil/PROJECTS/Mol_Feturizer/New_Systems/rnas/4LVW

>  <Rbt.Executable>
rbdock ($Id: //depot/dev/client3/rdock/2013.1/src/exe/rbdock.cxx#4 $)

>  <Rbt.Library>
libRbt.so (2013.1, Build901 2013/11/27)

>  <Rbt.Parameter_File>
/export/apps/rDock/src/rDock_2013.1_src/data/scripts/dock_solv.prm

>  <Rbt.Receptor>
prm/blind_docking_20.prm

>  <SCORE>
-5.38123

>  <SCORE.INTER>
-5.38123

>  <SCORE.INTER.CONST>
1

>  <SCORE.INTER.POLAR>
0

>  <SCORE.INTER.ROT>
0

>  <SCORE.INTER.SOLV>
2.68095

>  <SCORE.INTER.VDW>
-8.08114

>  <SCORE.INTER.norm>
-0.489203

>  <SCORE.INTRA>
0

>  <SCORE.INTRA.DIHEDRAL>
0

>  <SCORE.INTRA.DIHEDRAL.0>
0

>  <SCORE.INTRA.POLAR>
0

>  <SCORE.INTRA.POLAR.0>
0

>  <SCORE.INTRA.REPUL>
0

>  <SCORE.INTRA.REPUL.0>
0

>  <SCORE.INTRA.SOLV>
0

>  <SCORE.INTRA.SOLV.lig_0>
-29.307

>  <SCORE.INTRA.VDW>
0

>  <SCORE.INTRA.VDW.0>
0

>  <SCORE.INTRA.norm>
0

>  <SCORE.RESTR>
0

>  <SCORE.RESTR.CAVITY>
0

>  <SCORE.RESTR.norm>
0

>  <SCORE.SYSTEM>
0

>  <SCORE.SYSTEM.CONST>
0

>  <SCORE.SYSTEM.DIHEDRAL>
0

>  <SCORE.SYSTEM.SOLV>
0

>  <SCORE.SYSTEM.norm>
0

>  <SCORE.heavy>
11

>  <SCORE.norm>
-0.489203

>  <RMSD>
18.850

$$$$
ligand
 OpenBabel11021811503D
libRbt.so/2013.1/901 2013/11/27
 11 12  0  0  0  0  0  0  0  0999 V2000
    0.2327   -5.3876   14.8526 N   0  0  0  0  0  0  0  0  0  0  0  0
   -0.8678   -5.0098   15.5268 C   0  0  0  0  0  0  0  0  0  0  0  0
   -2.1548   -5.4814   15.1284 N   0  0  0  0  0  0  0  0  0  0  0  0
   -0.8074   -4.1970   16.5858 N   0  0  0  0  0  0  0  0  0  0  0  0
    0.3930   -3.6914   17.0239 C   0  0  0  0  0  0  0  0  0  0  0  0
    1.5439   -4.0563   16.3597 C   0  0  0  0  0  0  0  0  0  0  0  0
    1.4492   -4.9385   15.2450 C   0  0  0  0  0  0  0  0  0  0  0  0
    2.5913   -5.3074   14.5698 O   0  0  0  0  0  0  0  0  0  0  0  0
    2.6231   -3.4001   17.0327 C   0  0  0  0  0  0  0  0  0  0  0  0
    2.0499   -2.6608   18.0767 C   0  0  0  0  0  0  0  0  0  0  0  0
    0.7236   -2.8437   18.0572 N   0  0  0  0  0  0  0  0  0  0  0  0
  1  2  1  0  0  0  0
  1  7  1  0  0  0  0
  2  3  1  0  0  0  0
  2  4  2  0  0  0  0
  4  5  1  0  0  0  0
  5  6  2  0  0  0  0
  5 11  1  0  0  0  0
  6  7  1  0  0  0  0
  6  9  1  0  0  0  0
  7  8  2  0  0  0  0
  9 10  2  0  0  0  0
 10 11  1  0  0  0  0
M  END
>  <CHROM.1>
0.69217638,-4.31052955,16.17398494,-2.28315699,0.10125038,0.91215009

>  <Name>
ligand

>  <RI>
0

>  <Rbt.Current_Directory>
/home/itssahil/PROJECTS/Mol_Feturizer/New_Systems/rnas/4LVW

>  <Rbt.Executable>
rbdock ($Id: //depot/dev/client3/rdock/2013.1/src/exe/rbdock.cxx#4 $)

>  <Rbt.Library>
libRbt.so (2013.1, Build901 2013/11/27)

>  <Rbt.Parameter_File>
/export/apps/rDock/src/rDock_2013.1_src/data/scripts/dock_solv.prm

>  <Rbt.Receptor>
prm/blind_docking_20.prm

>  <SCORE>
-5.39705

>  <SCORE.INTER>
-5.39712

>  <SCORE.INTER.CONST>
1

>  <SCORE.INTER.POLAR>
0

>  <SCORE.INTER.ROT>
0

>  <SCORE.INTER.SOLV>
2.6088

>  <SCORE.INTER.VDW>
-8.06768

>  <SCORE.INTER.norm>
-0.490648

>  <SCORE.INTRA>
0

>  <SCORE.INTRA.DIHEDRAL>
0

>  <SCORE.INTRA.DIHEDRAL.0>
0

>  <SCORE.INTRA.POLAR>
0

>  <SCORE.INTRA.POLAR.0>
0

>  <SCORE.INTRA.REPUL>
0

>  <SCORE.INTRA.REPUL.0>
0

>  <SCORE.INTRA.SOLV>
0

>  <SCORE.INTRA.SOLV.lig_0>
-29.307

>  <SCORE.INTRA.VDW>
0

>  <SCORE.INTRA.VDW.0>
0

>  <SCORE.INTRA.norm>
0

>  <SCORE.RESTR>
7.33757e-05

>  <SCORE.RESTR.CAVITY>
7.33757e-05

>  <SCORE.RESTR.norm>
6.67052e-06

>  <SCORE.SYSTEM>
0

>  <SCORE.SYSTEM.CONST>
0

>  <SCORE.SYSTEM.DIHEDRAL>
0

>  <SCORE.SYSTEM.SOLV>
0

>  <SCORE.SYSTEM.norm>
0

>  <SCORE.heavy>
11

>  <SCORE.norm>
-0.490641

>  <RMSD>
18.850

$$$$
ligand
 OpenBabel11021811503D
libRbt.so/2013.1/901 2013/11/27
 11 12  0  0  0  0  0  0  0  0999 V2000
    0.2532   -5.3887   14.8369 N   0  0  0  0  0  0  0  0  0  0  0  0
   -0.8551   -5.0095   15.4974 C   0  0  0  0  0  0  0  0  0  0  0  0
   -2.1378   -5.4784   15.0822 N   0  0  0  0  0  0  0  0  0  0  0  0
   -0.8067   -4.1978   16.5578 N   0  0  0  0  0  0  0  0  0  0  0  0
    0.3889   -3.6949   17.0116 C   0  0  0  0  0  0  0  0  0  0  0  0
    1.5475   -4.0612   16.3618 C   0  0  0  0  0  0  0  0  0  0  0  0
    1.4654   -4.9422   15.2452 C   0  0  0  0  0  0  0  0  0  0  0  0
    2.6153   -5.3127   14.5842 O   0  0  0  0  0  0  0  0  0  0  0  0
    2.6192   -3.4077   17.0491 C   0  0  0  0  0  0  0  0  0  0  0  0
    2.0343   -2.6683   18.0865 C   0  0  0  0  0  0  0  0  0  0  0  0
    0.7080   -2.8487   18.0499 N   0  0  0  0  0  0  0  0  0  0  0  0
  1  2  1  0  0  0  0
  1  7  1  0  0  0  0
  2  3  1  0  0  0  0
  2  4  2  0  0  0  0
  4  5  1  0  0  0  0
  5  6  2  0  0  0  0
  5 11  1  0  0  0  0
  6  7  1  0  0  0  0
  6  9  1  0  0  0  0
  7  8  2  0  0  0  0
  9 10  2  0  0  0  0
 10 11  1  0  0  0  0
M  END
>  <CHROM.1>
0.69776546,-4.31374713,16.16503048,-2.27419286,0.09200188,0.91222428

>  <Name>
ligand

>  <RI>
0

>  <Rbt.Current_Directory>
/home/itssahil/PROJECTS/Mol_Feturizer/New_Systems/rnas/4LVW

>  <Rbt.Executable>
rbdock ($Id: //depot/dev/client3/rdock/2013.1/src/exe/rbdock.cxx#4 $)

>  <Rbt.Library>
libRbt.so (2013.1, Build901 2013/11/27)

>  <Rbt.Parameter_File>
/export/apps/rDock/src/rDock_2013.1_src/data/scripts/dock_solv.prm

>  <Rbt.Receptor>
prm/blind_docking_20.prm

>  <SCORE>
-5.39716

>  <SCORE.INTER>
-5.39716

>  <SCORE.INTER.CONST>
1

>  <SCORE.INTER.POLAR>
0

>  <SCORE.INTER.ROT>
0

>  <SCORE.INTER.SOLV>
2.60312

>  <SCORE.INTER.VDW>
-8.06581

>  <SCORE.INTER.norm>
-0.490651

>  <SCORE.INTRA>
0

>  <SCORE.INTRA.DIHEDRAL>
0

>  <SCORE.INTRA.DIHEDRAL.0>
0

>  <SCORE.INTRA.POLAR>
0

>  <SCORE.INTRA.POLAR.0>
0

>  <SCORE.INTRA.REPUL>
0

>  <SCORE.INTRA.REPUL.0>
0

>  <SCORE.INTRA.SOLV>
0

>  <SCORE.INTRA.SOLV.lig_0>
-29.307

>  <SCORE.INTRA.VDW>
0

>  <SCORE.INTRA.VDW.0>
0

>  <SCORE.INTRA.norm>
0

>  <SCORE.RESTR>
0

>  <SCORE.RESTR.CAVITY>
0

>  <SCORE.RESTR.norm>
0

>  <SCORE.SYSTEM>
0

>  <SCORE.SYSTEM.CONST>
0

>  <SCORE.SYSTEM.DIHEDRAL>
0

>  <SCORE.SYSTEM.SOLV>
0

>  <SCORE.SYSTEM.norm>
0

>  <SCORE.heavy>
11

>  <SCORE.norm>
-0.490651

>  <RMSD>
18.851

$$$$
ligand
 OpenBabel11021811503D
libRbt.so/2013.1/901 2013/11/27
 11 12  0  0  0  0  0  0  0  0999 V2000
    0.2230   -5.3869   14.8537 N   0  0  0  0  0  0  0  0  0  0  0  0
   -0.8737   -5.0118   15.5354 C   0  0  0  0  0  0  0  0  0  0  0  0
   -2.1624   -5.4856   15.1454 N   0  0  0  0  0  0  0  0  0  0  0  0
   -0.8078   -4.1996   16.5946 N   0  0  0  0  0  0  0  0  0  0  0  0
    0.3945   -3.6920   17.0250 C   0  0  0  0  0  0  0  0  0  0  0  0
    1.5416   -4.0542   16.3528 C   0  0  0  0  0  0  0  0  0  0  0  0
    1.4412   -4.9357   15.2381 C   0  0  0  0  0  0  0  0  0  0  0  0
    2.5794   -5.3020   14.5550 O   0  0  0  0  0  0  0  0  0  0  0  0
    2.6241   -3.3964   17.0190 C   0  0  0  0  0  0  0  0  0  0  0  0
    2.0566   -2.6589   18.0674 C   0  0  0  0  0  0  0  0  0  0  0  0
    0.7305   -2.8444   18.0567 N   0  0  0  0  0  0  0  0  0  0  0  0
  1  2  1  0  0  0  0
  1  7  1  0  0  0  0
  2  3  1  0  0  0  0
  2  4  2  0  0  0  0
  4  5  1  0  0  0  0
  5  6  2  0  0  0  0
  5 11  1  0  0  0  0
  6  7  1  0  0  0  0
  6  9  1  0  0  0  0
  7  8  2  0  0  0  0
  9 10  2  0  0  0  0
 10 11  1  0  0  0  0
M  END
>  <CHROM.1>
0.68923803,-4.30994080,16.17265888,-2.28731258,0.10691075,0.91330538

>  <Name>
ligand

>  <RI>
0

>  <Rbt.Current_Directory>
/home/itssahil/PROJECTS/Mol_Feturizer/New_Systems/rnas/4LVW

>  <Rbt.Executable>
rbdock ($Id: //depot/dev/client3/rdock/2013.1/src/exe/rbdock.cxx#4 $)

>  <Rbt.Library>
libRbt.so (2013.1, Build901 2013/11/27)

>  <Rbt.Parameter_File>
/export/apps/rDock/src/rDock_2013.1_src/data/scripts/dock_solv.prm

>  <Rbt.Receptor>
prm/blind_docking_20.prm

>  <SCORE>
-5.39815

>  <SCORE.INTER>
-5.39815

>  <SCORE.INTER.CONST>
1

>  <SCORE.INTER.POLAR>
0

>  <SCORE.INTER.ROT>
0

>  <SCORE.INTER.SOLV>
2.61214

>  <SCORE.INTER.VDW>
-8.06948

>  <SCORE.INTER.norm>
-0.490741

>  <SCORE.INTRA>
0

>  <SCORE.INTRA.DIHEDRAL>
0

>  <SCORE.INTRA.DIHEDRAL.0>
0

>  <SCORE.INTRA.POLAR>
0

>  <SCORE.INTRA.POLAR.0>
0

>  <SCORE.INTRA.REPUL>
0

>  <SCORE.INTRA.REPUL.0>
0

>  <SCORE.INTRA.SOLV>
0

>  <SCORE.INTRA.SOLV.lig_0>
-29.307

>  <SCORE.INTRA.VDW>
0

>  <SCORE.INTRA.VDW.0>
0

>  <SCORE.INTRA.norm>
0

>  <SCORE.RESTR>
0

>  <SCORE.RESTR.CAVITY>
0

>  <SCORE.RESTR.norm>
0

>  <SCORE.SYSTEM>
0

>  <SCORE.SYSTEM.CONST>
0

>  <SCORE.SYSTEM.DIHEDRAL>
0

>  <SCORE.SYSTEM.SOLV>
0

>  <SCORE.SYSTEM.norm>
0

>  <SCORE.heavy>
11

>  <SCORE.norm>
-0.490741

>  <RMSD>
18.851

$$$$
ligand
 OpenBabel11021811503D
libRbt.so/2013.1/901 2013/11/27
 11 12  0  0  0  0  0  0  0  0999 V2000
    0.1635   -5.3644   14.8975 N   0  0  0  0  0  0  0  0  0  0  0  0
   -0.9110   -4.9937   15.6161 C   0  0  0  0  0  0  0  0  0  0  0  0
   -2.2108   -5.4690   15.2671 N   0  0  0  0  0  0  0  0  0  0  0  0
   -0.8119   -4.1846   16.6751 N   0  0  0  0  0  0  0  0  0  0  0  0
    0.4029   -3.6758   17.0673 C   0  0  0  0  0  0  0  0  0  0  0  0
    1.5280   -4.0334   16.3567 C   0  0  0  0  0  0  0  0  0  0  0  0
    1.3928   -4.9118   15.2432 C   0  0  0  0  0  0  0  0  0  0  0  0
    2.5087   -5.2735   14.5219 O   0  0  0  0  0  0  0  0  0  0  0  0
    2.6304   -3.3754   16.9890 C   0  0  0  0  0  0  0  0  0  0  0  0
    2.0962   -2.6424   18.0579 C   0  0  0  0  0  0  0  0  0  0  0  0
    0.7709   -2.8306   18.0901 N   0  0  0  0  0  0  0  0  0  0  0  0
  1  2  1  0  0  0  0
  1  7  1  0  0  0  0
  2  3  1  0  0  0  0
  2  4  2  0  0  0  0
  4  5  1  0  0  0  0
  5  6  2  0  0  0  0
  5 11  1  0  0  0  0
  6  7  1  0  0  0  0
  6  9  1  0  0  0  0
  7  8  2  0  0  0  0
  9 10  2  0  0  0  0
 10 11  1  0  0  0  0
M  END
>  <CHROM.1>
0.67064793,-4.29045917,16.20384672,-2.31230709,0.12856449,0.91935288

>  <Name>
ligand

>  <RI>
0

>  <Rbt.Current_Directory>
/home/itssahil/PROJECTS/Mol_Feturizer/New_Systems/rnas/4LVW

>  <Rbt.Executable>
rbdock ($Id: //depot/dev/client3/rdock/2013.1/src/exe/rbdock.cxx#4 $)

>  <Rbt.Library>
libRbt.so (2013.1, Build901 2013/11/27)

>  <Rbt.Parameter_File>
/export/apps/rDock/src/rDock_2013.1_src/data/scripts/dock_solv.prm

>  <Rbt.Receptor>
prm/blind_docking_20.prm

>  <SCORE>
-5.41579

>  <SCORE.INTER>
-5.41579

>  <SCORE.INTER.CONST>
1

>  <SCORE.INTER.POLAR>
0

>  <SCORE.INTER.ROT>
0

>  <SCORE.INTER.SOLV>
2.58072

>  <SCORE.INTER.VDW>
-8.07077

>  <SCORE.INTER.norm>
-0.492344

>  <SCORE.INTRA>
0

>  <SCORE.INTRA.DIHEDRAL>
0

>  <SCORE.INTRA.DIHEDRAL.0>
0

>  <SCORE.INTRA.POLAR>
0

>  <SCORE.INTRA.POLAR.0>
0

>  <SCORE.INTRA.REPUL>
0

>  <SCORE.INTRA.REPUL.0>
0

>  <SCORE.INTRA.SOLV>
0

>  <SCORE.INTRA.SOLV.lig_0>
-29.307

>  <SCORE.INTRA.VDW>
0

>  <SCORE.INTRA.VDW.0>
0

>  <SCORE.INTRA.norm>
0

>  <SCORE.RESTR>
0

>  <SCORE.RESTR.CAVITY>
0

>  <SCORE.RESTR.norm>
0

>  <SCORE.SYSTEM>
0

>  <SCORE.SYSTEM.CONST>
0

>  <SCORE.SYSTEM.DIHEDRAL>
0

>  <SCORE.SYSTEM.SOLV>
0

>  <SCORE.SYSTEM.norm>
0

>  <SCORE.heavy>
11

>  <SCORE.norm>
-0.492344

>  <RMSD>
18.852

$$$$
ligand
 OpenBabel11021811503D
libRbt.so/2013.1/901 2013/11/27
 11 12  0  0  0  0  0  0  0  0999 V2000
    0.0761   -5.4114   14.8636 N   0  0  0  0  0  0  0  0  0  0  0  0
   -0.9900   -5.0395   15.5939 C   0  0  0  0  0  0  0  0  0  0  0  0
   -2.2922   -5.5244   15.2675 N   0  0  0  0  0  0  0  0  0  0  0  0
   -0.8802   -4.2203   16.6440 N   0  0  0  0  0  0  0  0  0  0  0  0
    0.3374   -3.7020   17.0144 C   0  0  0  0  0  0  0  0  0  0  0  0
    1.4542   -4.0605   16.2913 C   0  0  0  0  0  0  0  0  0  0  0  0
    1.3078   -4.9497   15.1878 C   0  0  0  0  0  0  0  0  0  0  0  0
    2.4153   -5.3125   14.4542 O   0  0  0  0  0  0  0  0  0  0  0  0
    2.5621   -3.3913   16.9021 C   0  0  0  0  0  0  0  0  0  0  0  0
    2.0392   -2.6512   17.9716 C   0  0  0  0  0  0  0  0  0  0  0  0
    0.7154   -2.8457   18.0243 N   0  0  0  0  0  0  0  0  0  0  0  0
  1  2  1  0  0  0  0
  1  7  1  0  0  0  0
  2  3  1  0  0  0  0
  2  4  2  0  0  0  0
  4  5  1  0  0  0  0
  5  6  2  0  0  0  0
  5 11  1  0  0  0  0
  6  7  1  0  0  0  0
  6  9  1  0  0  0  0
  7  8  2  0  0  0  0
  9 10  2  0  0  0  0
 10 11  1  0  0  0  0
M  END
>  <CHROM.1>
0.59611276,-4.32315576,16.15288460,-2.32048514,0.14108100,0.91135199

>  <Name>
ligand

>  <RI>
0

>  <Rbt.Current_Directory>
/home/itssahil/PROJECTS/Mol_Feturizer/New_Systems/rnas/4LVW

>  <Rbt.Executable>
rbdock ($Id: //depot/dev/client3/rdock/2013.1/src/exe/rbdock.cxx#4 $)

>  <Rbt.Library>
libRbt.so (2013.1, Build901 2013/11/27)

>  <Rbt.Parameter_File>
/export/apps/rDock/src/rDock_2013.1_src/data/scripts/dock_solv.prm

>  <Rbt.Receptor>
prm/blind_docking_20.prm

>  <SCORE>
-5.34905

>  <SCORE.INTER>
-5.34905

>  <SCORE.INTER.CONST>
1

>  <SCORE.INTER.POLAR>
0

>  <SCORE.INTER.ROT>
0

>  <SCORE.INTER.SOLV>
2.67716

>  <SCORE.INTER.VDW>
-8.05842

>  <SCORE.INTER.norm>
-0.486277

>  <SCORE.INTRA>
0

>  <SCORE.INTRA.DIHEDRAL>
0

>  <SCORE.INTRA.DIHEDRAL.0>
0

>  <SCORE.INTRA.POLAR>
0

>  <SCORE.INTRA.POLAR.0>
0

>  <SCORE.INTRA.REPUL>
0

>  <SCORE.INTRA.REPUL.0>
0

>  <SCORE.INTRA.SOLV>
0

>  <SCORE.INTRA.SOLV.lig_0>
-29.307

>  <SCORE.INTRA.VDW>
0

>  <SCORE.INTRA.VDW.0>
0

>  <SCORE.INTRA.norm>
0

>  <SCORE.RESTR>
0

>  <SCORE.RESTR.CAVITY>
0

>  <SCORE.RESTR.norm>
0

>  <SCORE.SYSTEM>
0

>  <SCORE.SYSTEM.CONST>
0

>  <SCORE.SYSTEM.DIHEDRAL>
0

>  <SCORE.SYSTEM.SOLV>
0

>  <SCORE.SYSTEM.norm>
0

>  <SCORE.heavy>
11

>  <SCORE.norm>
-0.486277

>  <RMSD>
18.853

$$$$
ligand
 OpenBabel11021811503D
libRbt.so/2013.1/901 2013/11/27
 11 12  0  0  0  0  0  0  0  0999 V2000
    0.1565   -5.3643   14.8947 N   0  0  0  0  0  0  0  0  0  0  0  0
   -0.9168   -4.9924   15.6144 C   0  0  0  0  0  0  0  0  0  0  0  0
   -2.2175   -5.4667   15.2669 N   0  0  0  0  0  0  0  0  0  0  0  0
   -0.8159   -4.1833   16.6731 N   0  0  0  0  0  0  0  0  0  0  0  0
    0.3998   -3.6755   17.0640 C   0  0  0  0  0  0  0  0  0  0  0  0
    1.5238   -4.0343   16.3522 C   0  0  0  0  0  0  0  0  0  0  0  0
    1.3866   -4.9127   15.2390 C   0  0  0  0  0  0  0  0  0  0  0  0
    2.5014   -5.2756   14.5166 O   0  0  0  0  0  0  0  0  0  0  0  0
    2.6275   -3.3772   16.9833 C   0  0  0  0  0  0  0  0  0  0  0  0
    2.0951   -2.6435   18.0525 C   0  0  0  0  0  0  0  0  0  0  0  0
    0.7696   -2.8305   18.0862 N   0  0  0  0  0  0  0  0  0  0  0  0
  1  2  1  0  0  0  0
  1  7  1  0  0  0  0
  2  3  1  0  0  0  0
  2  4  2  0  0  0  0
  4  5  1  0  0  0  0
  5  6  2  0  0  0  0
  5 11  1  0  0  0  0
  6  7  1  0  0  0  0
  6  9  1  0  0  0  0
  7  8  2  0  0  0  0
  9 10  2  0  0  0  0
 10 11  1  0  0  0  0
M  END
>  <CHROM.1>
0.66607557,-4.29057533,16.20031717,-2.31371415,0.12847658,0.91935909

>  <Name>
ligand

>  <RI>
0

>  <Rbt.Current_Directory>
/home/itssahil/PROJECTS/Mol_Feturizer/New_Systems/rnas/4LVW

>  <Rbt.Executable>
rbdock ($Id: //depot/dev/client3/rdock/2013.1/src/exe/rbdock.cxx#4 $)

>  <Rbt.Library>
libRbt.so (2013.1, Build901 2013/11/27)

>  <Rbt.Parameter_File>
/export/apps/rDock/src/rDock_2013.1_src/data/scripts/dock_solv.prm

>  <Rbt.Receptor>
prm/blind_docking_20.prm

>  <SCORE>
-5.41563

>  <SCORE.INTER>
-5.41563

>  <SCORE.INTER.CONST>
1

>  <SCORE.INTER.POLAR>
0

>  <SCORE.INTER.ROT>
0

>  <SCORE.INTER.SOLV>
2.58327

>  <SCORE.INTER.VDW>
-8.07151

>  <SCORE.INTER.norm>
-0.49233

>  <SCORE.INTRA>
0

>  <SCORE.INTRA.DIHEDRAL>
0

>  <SCORE.INTRA.DIHEDRAL.0>
0

>  <SCORE.INTRA.POLAR>
0

>  <SCORE.INTRA.POLAR.0>
0

>  <SCORE.INTRA.REPUL>
0

>  <SCORE.INTRA.REPUL.0>
0

>  <SCORE.INTRA.SOLV>
0

>  <SCORE.INTRA.SOLV.lig_0>
-29.307

>  <SCORE.INTRA.VDW>
0

>  <SCORE.INTRA.VDW.0>
0

>  <SCORE.INTRA.norm>
0

>  <SCORE.RESTR>
0

>  <SCORE.RESTR.CAVITY>
0

>  <SCORE.RESTR.norm>
0

>  <SCORE.SYSTEM>
0

>  <SCORE.SYSTEM.CONST>
0

>  <SCORE.SYSTEM.DIHEDRAL>
0

>  <SCORE.SYSTEM.SOLV>
0

>  <SCORE.SYSTEM.norm>
0

>  <SCORE.heavy>
11

>  <SCORE.norm>
-0.49233

>  <RMSD>
18.854

$$$$
ligand
 OpenBabel11021811503D
libRbt.so/2013.1/901 2013/11/27
 11 12  0  0  0  0  0  0  0  0999 V2000
    0.2697   -5.3915   14.8258 N   0  0  0  0  0  0  0  0  0  0  0  0
   -0.8453   -5.0047   15.4704 C   0  0  0  0  0  0  0  0  0  0  0  0
   -2.1247   -5.4691   15.0402 N   0  0  0  0  0  0  0  0  0  0  0  0
   -0.8069   -4.1892   16.5283 N   0  0  0  0  0  0  0  0  0  0  0  0
    0.3851   -3.6901   16.9958 C   0  0  0  0  0  0  0  0  0  0  0  0
    1.5503   -4.0644   16.3625 C   0  0  0  0  0  0  0  0  0  0  0  0
    1.4786   -4.9492   15.2482 C   0  0  0  0  0  0  0  0  0  0  0  0
    2.6352   -5.3275   14.6036 O   0  0  0  0  0  0  0  0  0  0  0  0
    2.6161   -3.4133   17.0613 C   0  0  0  0  0  0  0  0  0  0  0  0
    2.0212   -2.6672   18.0882 C   0  0  0  0  0  0  0  0  0  0  0  0
    0.6946   -2.8415   18.0350 N   0  0  0  0  0  0  0  0  0  0  0  0
  1  2  1  0  0  0  0
  1  7  1  0  0  0  0
  2  3  1  0  0  0  0
  2  4  2  0  0  0  0
  4  5  1  0  0  0  0
  5  6  2  0  0  0  0
  5 11  1  0  0  0  0
  6  7  1  0  0  0  0
  6  9  1  0  0  0  0
  7  8  2  0  0  0  0
  9 10  2  0  0  0  0
 10 11  1  0  0  0  0
M  END
>  <CHROM.1>
0.70203316,-4.31364733,16.15561445,-2.26676534,0.08029870,0.90784099

>  <Name>
ligand

>  <RI>
0

>  <Rbt.Current_Directory>
/home/itssahil/PROJECTS/Mol_Feturizer/New_Systems/rnas/4LVW

>  <Rbt.Executable>
rbdock ($Id: //depot/dev/client3/rdock/2013.1/src/exe/rbdock.cxx#4 $)

>  <Rbt.Library>
libRbt.so (2013.1, Build901 2013/11/27)

>  <Rbt.Parameter_File>
/export/apps/rDock/src/rDock_2013.1_src/data/scripts/dock_solv.prm

>  <Rbt.Receptor>
prm/blind_docking_20.prm

>  <SCORE>
-5.38664

>  <SCORE.INTER>
-5.38664

>  <SCORE.INTER.CONST>
1

>  <SCORE.INTER.POLAR>
0

>  <SCORE.INTER.ROT>
0

>  <SCORE.INTER.SOLV>
2.61602

>  <SCORE.INTER.VDW>
-8.0631

>  <SCORE.INTER.norm>
-0.489695

>  <SCORE.INTRA>
0

>  <SCORE.INTRA.DIHEDRAL>
0

>  <SCORE.INTRA.DIHEDRAL.0>
0

>  <SCORE.INTRA.POLAR>
0

>  <SCORE.INTRA.POLAR.0>
0

>  <SCORE.INTRA.REPUL>
0

>  <SCORE.INTRA.REPUL.0>
0

>  <SCORE.INTRA.SOLV>
0

>  <SCORE.INTRA.SOLV.lig_0>
-29.307

>  <SCORE.INTRA.VDW>
0

>  <SCORE.INTRA.VDW.0>
0

>  <SCORE.INTRA.norm>
0

>  <SCORE.RESTR>
0

>  <SCORE.RESTR.CAVITY>
0

>  <SCORE.RESTR.norm>
0

>  <SCORE.SYSTEM>
0

>  <SCORE.SYSTEM.CONST>
0

>  <SCORE.SYSTEM.DIHEDRAL>
0

>  <SCORE.SYSTEM.SOLV>
0

>  <SCORE.SYSTEM.norm>
0

>  <SCORE.heavy>
11

>  <SCORE.norm>
-0.489695

>  <RMSD>
18.856

$$$$
ligand
 OpenBabel11021811503D
libRbt.so/2013.1/901 2013/11/27
 11 12  0  0  0  0  0  0  0  0999 V2000
    0.2479   -5.3863   14.8313 N   0  0  0  0  0  0  0  0  0  0  0  0
   -0.8581   -5.0087   15.4964 C   0  0  0  0  0  0  0  0  0  0  0  0
   -2.1420   -5.4786   15.0860 N   0  0  0  0  0  0  0  0  0  0  0  0
   -0.8064   -4.1976   16.5572 N   0  0  0  0  0  0  0  0  0  0  0  0
    0.3905   -3.6938   17.0066 C   0  0  0  0  0  0  0  0  0  0  0  0
    1.5469   -4.0585   16.3519 C   0  0  0  0  0  0  0  0  0  0  0  0
    1.4613   -4.9388   15.2351 C   0  0  0  0  0  0  0  0  0  0  0  0
    2.6089   -5.3076   14.5693 O   0  0  0  0  0  0  0  0  0  0  0  0
    2.6207   -3.4043   17.0354 C   0  0  0  0  0  0  0  0  0  0  0  0
    2.0390   -2.6662   18.0756 C   0  0  0  0  0  0  0  0  0  0  0  0
    0.7128   -2.8480   18.0442 N   0  0  0  0  0  0  0  0  0  0  0  0
  1  2  1  0  0  0  0
  1  7  1  0  0  0  0
  2  3  1  0  0  0  0
  2  4  2  0  0  0  0
  4  5  1  0  0  0  0
  5  6  2  0  0  0  0
  5 11  1  0  0  0  0
  6  7  1  0  0  0  0
  6  9  1  0  0  0  0
  7  8  2  0  0  0  0
  9 10  2  0  0  0  0
 10 11  1  0  0  0  0
M  END
>  <CHROM.1>
0.69664926,-4.31175809,16.15839131,-2.27668941,0.09526571,0.91313492

>  <Name>
ligand

>  <RI>
0

>  <Rbt.Current_Directory>
/home/itssahil/PROJECTS/Mol_Feturizer/New_Systems/rnas/4LVW

>  <Rbt.Executable>
rbdock ($Id: //depot/dev/client3/rdock/2013.1/src/exe/rbdock.cxx#4 $)

>  <Rbt.Library>
libRbt.so (2013.1, Build901 2013/11/27)

>  <Rbt.Parameter_File>
/export/apps/rDock/src/rDock_2013.1_src/data/scripts/dock_solv.prm

>  <Rbt.Receptor>
prm/blind_docking_20.prm

>  <SCORE>
-5.39556

>  <SCORE.INTER>
-5.39556

>  <SCORE.INTER.CONST>
1

>  <SCORE.INTER.POLAR>
0

>  <SCORE.INTER.ROT>
0

>  <SCORE.INTER.SOLV>
2.60649

>  <SCORE.INTER.VDW>
-8.06587

>  <SCORE.INTER.norm>
-0.490505

>  <SCORE.INTRA>
0

>  <SCORE.INTRA.DIHEDRAL>
0

>  <SCORE.INTRA.DIHEDRAL.0>
0

>  <SCORE.INTRA.POLAR>
0

>  <SCORE.INTRA.POLAR.0>
0

>  <SCORE.INTRA.REPUL>
0

>  <SCORE.INTRA.REPUL.0>
0

>  <SCORE.INTRA.SOLV>
0

>  <SCORE.INTRA.SOLV.lig_0>
-29.307

>  <SCORE.INTRA.VDW>
0

>  <SCORE.INTRA.VDW.0>
0

>  <SCORE.INTRA.norm>
0

>  <SCORE.RESTR>
0

>  <SCORE.RESTR.CAVITY>
0

>  <SCORE.RESTR.norm>
0

>  <SCORE.SYSTEM>
0

>  <SCORE.SYSTEM.CONST>
0

>  <SCORE.SYSTEM.DIHEDRAL>
0

>  <SCORE.SYSTEM.SOLV>
0

>  <SCORE.SYSTEM.norm>
0

>  <SCORE.heavy>
11

>  <SCORE.norm>
-0.490505

>  <RMSD>
18.856

$$$$
ligand
 OpenBabel11021811503D
libRbt.so/2013.1/901 2013/11/27
 11 12  0  0  0  0  0  0  0  0999 V2000
    0.2407   -5.3783   14.8171 N   0  0  0  0  0  0  0  0  0  0  0  0
   -0.8616   -5.0051   15.4908 C   0  0  0  0  0  0  0  0  0  0  0  0
   -2.1472   -5.4760   15.0873 N   0  0  0  0  0  0  0  0  0  0  0  0
   -0.8043   -4.1977   16.5541 N   0  0  0  0  0  0  0  0  0  0  0  0
    0.3946   -3.6931   16.9973 C   0  0  0  0  0  0  0  0  0  0  0  0
    1.5473   -4.0534   16.3337 C   0  0  0  0  0  0  0  0  0  0  0  0
    1.4559   -4.9299   15.2143 C   0  0  0  0  0  0  0  0  0  0  0  0
    2.5998   -5.2941   14.5396 O   0  0  0  0  0  0  0  0  0  0  0  0
    2.6244   -3.3995   17.0124 C   0  0  0  0  0  0  0  0  0  0  0  0
    2.0483   -2.6662   18.0590 C   0  0  0  0  0  0  0  0  0  0  0  0
    0.7222   -2.8504   18.0357 N   0  0  0  0  0  0  0  0  0  0  0  0
  1  2  1  0  0  0  0
  1  7  1  0  0  0  0
  2  3  1  0  0  0  0
  2  4  2  0  0  0  0
  4  5  1  0  0  0  0
  5  6  2  0  0  0  0
  5 11  1  0  0  0  0
  6  7  1  0  0  0  0
  6  9  1  0  0  0  0
  7  8  2  0  0  0  0
  9 10  2  0  0  0  0
 10 11  1  0  0  0  0
M  END
>  <CHROM.1>
0.69626339,-4.30754716,16.14491258,-2.28083449,0.10080526,0.91706658

>  <Name>
ligand

>  <RI>
0

>  <Rbt.Current_Directory>
/home/itssahil/PROJECTS/Mol_Feturizer/New_Systems/rnas/4LVW

>  <Rbt.Executable>
rbdock ($Id: //depot/dev/client3/rdock/2013.1/src/exe/rbdock.cxx#4 $)

>  <Rbt.Library>
libRbt.so (2013.1, Build901 2013/11/27)

>  <Rbt.Parameter_File>
/export/apps/rDock/src/rDock_2013.1_src/data/scripts/dock_solv.prm

>  <Rbt.Receptor>
prm/blind_docking_20.prm

>  <SCORE>
-5.39103

>  <SCORE.INTER>
-5.39103

>  <SCORE.INTER.CONST>
1

>  <SCORE.INTER.POLAR>
0

>  <SCORE.INTER.ROT>
0

>  <SCORE.INTER.SOLV>
2.60644

>  <SCORE.INTER.VDW>
-8.06284

>  <SCORE.INTER.norm>
-0.490094

>  <SCORE.INTRA>
0

>  <SCORE.INTRA.DIHEDRAL>
0

>  <SCORE.INTRA.DIHEDRAL.0>
0

>  <SCORE.INTRA.POLAR>
0

>  <SCORE.INTRA.POLAR.0>
0

>  <SCORE.INTRA.REPUL>
0

>  <SCORE.INTRA.REPUL.0>
0

>  <SCORE.INTRA.SOLV>
0

>  <SCORE.INTRA.SOLV.lig_0>
-29.307

>  <SCORE.INTRA.VDW>
0

>  <SCORE.INTRA.VDW.0>
0

>  <SCORE.INTRA.norm>
0

>  <SCORE.RESTR>
0

>  <SCORE.RESTR.CAVITY>
0

>  <SCORE.RESTR.norm>
0

>  <SCORE.SYSTEM>
0

>  <SCORE.SYSTEM.CONST>
0

>  <SCORE.SYSTEM.DIHEDRAL>
0

>  <SCORE.SYSTEM.SOLV>
0

>  <SCORE.SYSTEM.norm>
0

>  <SCORE.heavy>
11

>  <SCORE.norm>
-0.490094

>  <RMSD>
18.866

$$$$
ligand
 OpenBabel11021811503D
libRbt.so/2013.1/901 2013/11/27
 11 12  0  0  0  0  0  0  0  0999 V2000
    0.1597   -5.3513   14.8406 N   0  0  0  0  0  0  0  0  0  0  0  0
   -0.9285   -4.9490   15.5204 C   0  0  0  0  0  0  0  0  0  0  0  0
   -2.2287   -5.3825   15.1220 N   0  0  0  0  0  0  0  0  0  0  0  0
   -0.8435   -4.1460   16.5853 N   0  0  0  0  0  0  0  0  0  0  0  0
    0.3712   -3.6765   17.0239 C   0  0  0  0  0  0  0  0  0  0  0  0
    1.5102   -4.0673   16.3540 C   0  0  0  0  0  0  0  0  0  0  0  0
    1.3889   -4.9383   15.2330 C   0  0  0  0  0  0  0  0  0  0  0  0
    2.5189   -5.3329   14.5521 O   0  0  0  0  0  0  0  0  0  0  0  0
    2.6084   -3.4457   17.0290 C   0  0  0  0  0  0  0  0  0  0  0  0
    2.0581   -2.6990   18.0800 C   0  0  0  0  0  0  0  0  0  0  0  0
    0.7273   -2.8457   18.0627 N   0  0  0  0  0  0  0  0  0  0  0  0
  1  2  1  0  0  0  0
  1  7  1  0  0  0  0
  2  3  1  0  0  0  0
  2  4  2  0  0  0  0
  4  5  1  0  0  0  0
  5  6  2  0  0  0  0
  5 11  1  0  0  0  0
  6  7  1  0  0  0  0
  6  9  1  0  0  0  0
  7  8  2  0  0  0  0
  9 10  2  0  0  0  0
 10 11  1  0  0  0  0
M  END
>  <CHROM.1>
0.65144825,-4.29704786,16.16868071,-2.30174834,0.08131407,0.92131239

>  <Name>
ligand

>  <RI>
0

>  <Rbt.Current_Directory>
/home/itssahil/PROJECTS/Mol_Feturizer/New_Systems/rnas/4LVW

>  <Rbt.Executable>
rbdock ($Id: //depot/dev/client3/rdock/2013.1/src/exe/rbdock.cxx#4 $)

>  <Rbt.Library>
libRbt.so (2013.1, Build901 2013/11/27)

>  <Rbt.Parameter_File>
/export/apps/rDock/src/rDock_2013.1_src/data/scripts/dock_solv.prm

>  <Rbt.Receptor>
prm/blind_docking_20.prm

>  <SCORE>
-5.35061

>  <SCORE.INTER>
-5.35061

>  <SCORE.INTER.CONST>
1

>  <SCORE.INTER.POLAR>
0

>  <SCORE.INTER.ROT>
0

>  <SCORE.INTER.SOLV>
2.58903

>  <SCORE.INTER.VDW>
-8.03008

>  <SCORE.INTER.norm>
-0.486419

>  <SCORE.INTRA>
0

>  <SCORE.INTRA.DIHEDRAL>
0

>  <SCORE.INTRA.DIHEDRAL.0>
0

>  <SCORE.INTRA.POLAR>
0

>  <SCORE.INTRA.POLAR.0>
0

>  <SCORE.INTRA.REPUL>
0

>  <SCORE.INTRA.REPUL.0>
0

>  <SCORE.INTRA.SOLV>
0

>  <SCORE.INTRA.SOLV.lig_0>
-29.307

>  <SCORE.INTRA.VDW>
0

>  <SCORE.INTRA.VDW.0>
0

>  <SCORE.INTRA.norm>
0

>  <SCORE.RESTR>
0

>  <SCORE.RESTR.CAVITY>
0

>  <SCORE.RESTR.norm>
0

>  <SCORE.SYSTEM>
0

>  <SCORE.SYSTEM.CONST>
0

>  <SCORE.SYSTEM.DIHEDRAL>
0

>  <SCORE.SYSTEM.SOLV>
0

>  <SCORE.SYSTEM.norm>
0

>  <SCORE.heavy>
11

>  <SCORE.norm>
-0.486419

>  <RMSD>
18.866

$$$$
ligand
 OpenBabel11021811503D
libRbt.so/2013.1/901 2013/11/27
 11 12  0  0  0  0  0  0  0  0999 V2000
    0.0985   -5.3593   14.8624 N   0  0  0  0  0  0  0  0  0  0  0  0
   -0.9696   -4.9473   15.5677 C   0  0  0  0  0  0  0  0  0  0  0  0
   -2.2815   -5.3802   15.2085 N   0  0  0  0  0  0  0  0  0  0  0  0
   -0.8535   -4.1352   16.6226 N   0  0  0  0  0  0  0  0  0  0  0  0
    0.3741   -3.6657   17.0240 C   0  0  0  0  0  0  0  0  0  0  0  0
    1.4933   -4.0662   16.3270 C   0  0  0  0  0  0  0  0  0  0  0  0
    1.3391   -4.9467   15.2176 C   0  0  0  0  0  0  0  0  0  0  0  0
    2.4491   -5.3511   14.5100 O   0  0  0  0  0  0  0  0  0  0  0  0
    2.6113   -3.4422   16.9664 C   0  0  0  0  0  0  0  0  0  0  0  0
    2.0919   -2.6843   18.0252 C   0  0  0  0  0  0  0  0  0  0  0  0
    0.7607   -2.8269   18.0452 N   0  0  0  0  0  0  0  0  0  0  0  0
  1  2  1  0  0  0  0
  1  7  1  0  0  0  0
  2  3  1  0  0  0  0
  2  4  2  0  0  0  0
  4  5  1  0  0  0  0
  5  6  2  0  0  0  0
  5 11  1  0  0  0  0
  6  7  1  0  0  0  0
  6  9  1  0  0  0  0
  7  8  2  0  0  0  0
  9 10  2  0  0  0  0
 10 11  1  0  0  0  0
M  END
>  <CHROM.1>
0.62921590,-4.29480057,16.16709157,-2.32524552,0.09528782,0.91442416

>  <Name>
ligand

>  <RI>
0

>  <Rbt.Current_Directory>
/home/itssahil/PROJECTS/Mol_Feturizer/New_Systems/rnas/4LVW

>  <Rbt.Executable>
rbdock ($Id: //depot/dev/client3/rdock/2013.1/src/exe/rbdock.cxx#4 $)

>  <Rbt.Library>
libRbt.so (2013.1, Build901 2013/11/27)

>  <Rbt.Parameter_File>
/export/apps/rDock/src/rDock_2013.1_src/data/scripts/dock_solv.prm

>  <Rbt.Receptor>
prm/blind_docking_20.prm

>  <SCORE>
-5.41573

>  <SCORE.INTER>
-5.41573

>  <SCORE.INTER.CONST>
1

>  <SCORE.INTER.POLAR>
0

>  <SCORE.INTER.ROT>
0

>  <SCORE.INTER.SOLV>
2.65391

>  <SCORE.INTER.VDW>
-8.09513

>  <SCORE.INTER.norm>
-0.492339

>  <SCORE.INTRA>
0

>  <SCORE.INTRA.DIHEDRAL>
0

>  <SCORE.INTRA.DIHEDRAL.0>
0

>  <SCORE.INTRA.POLAR>
0

>  <SCORE.INTRA.POLAR.0>
0

>  <SCORE.INTRA.REPUL>
0

>  <SCORE.INTRA.REPUL.0>
0

>  <SCORE.INTRA.SOLV>
0

>  <SCORE.INTRA.SOLV.lig_0>
-29.307

>  <SCORE.INTRA.VDW>
0

>  <SCORE.INTRA.VDW.0>
0

>  <SCORE.INTRA.norm>
0

>  <SCORE.RESTR>
0

>  <SCORE.RESTR.CAVITY>
0

>  <SCORE.RESTR.norm>
0

>  <SCORE.SYSTEM>
0

>  <SCORE.SYSTEM.CONST>
0

>  <SCORE.SYSTEM.DIHEDRAL>
0

>  <SCORE.SYSTEM.SOLV>
0

>  <SCORE.SYSTEM.norm>
0

>  <SCORE.heavy>
11

>  <SCORE.norm>
-0.492339

>  <RMSD>
18.868

$$$$
ligand
 OpenBabel11021811503D
libRbt.so/2013.1/901 2013/11/27
 11 12  0  0  0  0  0  0  0  0999 V2000
    0.2451   -5.3787   14.8063 N   0  0  0  0  0  0  0  0  0  0  0  0
   -0.8584   -5.0041   15.4773 C   0  0  0  0  0  0  0  0  0  0  0  0
   -2.1434   -5.4751   15.0719 N   0  0  0  0  0  0  0  0  0  0  0  0
   -0.8029   -4.1951   16.5394 N   0  0  0  0  0  0  0  0  0  0  0  0
    0.3954   -3.6904   16.9843 C   0  0  0  0  0  0  0  0  0  0  0  0
    1.5492   -4.0521   16.3235 C   0  0  0  0  0  0  0  0  0  0  0  0
    1.4597   -4.9303   15.2052 C   0  0  0  0  0  0  0  0  0  0  0  0
    2.6047   -5.2961   14.5334 O   0  0  0  0  0  0  0  0  0  0  0  0
    2.6252   -3.3977   17.0033 C   0  0  0  0  0  0  0  0  0  0  0  0
    2.0474   -2.6625   18.0476 C   0  0  0  0  0  0  0  0  0  0  0  0
    0.7213   -2.8462   18.0220 N   0  0  0  0  0  0  0  0  0  0  0  0
  1  2  1  0  0  0  0
  1  7  1  0  0  0  0
  2  3  1  0  0  0  0
  2  4  2  0  0  0  0
  4  5  1  0  0  0  0
  5  6  2  0  0  0  0
  5 11  1  0  0  0  0
  6  7  1  0  0  0  0
  6  9  1  0  0  0  0
  7  8  2  0  0  0  0
  9 10  2  0  0  0  0
 10 11  1  0  0  0  0
M  END
>  <CHROM.1>
0.69845651,-4.30620640,16.13337990,-2.27951724,0.09925956,0.91541307

>  <Name>
ligand

>  <RI>
0

>  <Rbt.Current_Directory>
/home/itssahil/PROJECTS/Mol_Feturizer/New_Systems/rnas/4LVW

>  <Rbt.Executable>
rbdock ($Id: //depot/dev/client3/rdock/2013.1/src/exe/rbdock.cxx#4 $)

>  <Rbt.Library>
libRbt.so (2013.1, Build901 2013/11/27)

>  <Rbt.Parameter_File>
/export/apps/rDock/src/rDock_2013.1_src/data/scripts/dock_solv.prm

>  <Rbt.Receptor>
prm/blind_docking_20.prm

>  <SCORE>
-5.38728

>  <SCORE.INTER>
-5.38728

>  <SCORE.INTER.CONST>
1

>  <SCORE.INTER.POLAR>
0

>  <SCORE.INTER.ROT>
0

>  <SCORE.INTER.SOLV>
2.61621

>  <SCORE.INTER.VDW>
-8.06359

>  <SCORE.INTER.norm>
-0.489753

>  <SCORE.INTRA>
0

>  <SCORE.INTRA.DIHEDRAL>
0

>  <SCORE.INTRA.DIHEDRAL.0>
0

>  <SCORE.INTRA.POLAR>
0

>  <SCORE.INTRA.POLAR.0>
0

>  <SCORE.INTRA.REPUL>
0

>  <SCORE.INTRA.REPUL.0>
0

>  <SCORE.INTRA.SOLV>
0

>  <SCORE.INTRA.SOLV.lig_0>
-29.307

>  <SCORE.INTRA.VDW>
0

>  <SCORE.INTRA.VDW.0>
0

>  <SCORE.INTRA.norm>
0

>  <SCORE.RESTR>
0

>  <SCORE.RESTR.CAVITY>
0

>  <SCORE.RESTR.norm>
0

>  <SCORE.SYSTEM>
0

>  <SCORE.SYSTEM.CONST>
0

>  <SCORE.SYSTEM.DIHEDRAL>
0

>  <SCORE.SYSTEM.SOLV>
0

>  <SCORE.SYSTEM.norm>
0

>  <SCORE.heavy>
11

>  <SCORE.norm>
-0.489753

>  <RMSD>
18.872

$$$$
ligand
 OpenBabel11021811503D
libRbt.so/2013.1/901 2013/11/27
 11 12  0  0  0  0  0  0  0  0999 V2000
    0.0887   -5.3511   14.8462 N   0  0  0  0  0  0  0  0  0  0  0  0
   -0.9752   -4.9478   15.5630 C   0  0  0  0  0  0  0  0  0  0  0  0
   -2.2884   -5.3828   15.2115 N   0  0  0  0  0  0  0  0  0  0  0  0
   -0.8533   -4.1425   16.6225 N   0  0  0  0  0  0  0  0  0  0  0  0
    0.3759   -3.6715   17.0172 C   0  0  0  0  0  0  0  0  0  0  0  0
    1.4908   -4.0633   16.3084 C   0  0  0  0  0  0  0  0  0  0  0  0
    1.3307   -4.9366   15.1943 C   0  0  0  0  0  0  0  0  0  0  0  0
    2.4362   -5.3322   14.4749 O   0  0  0  0  0  0  0  0  0  0  0  0
    2.6117   -3.4397   16.9431 C   0  0  0  0  0  0  0  0  0  0  0  0
    2.0983   -2.6910   18.0112 C   0  0  0  0  0  0  0  0  0  0  0  0
    0.7678   -2.8384   18.0410 N   0  0  0  0  0  0  0  0  0  0  0  0
  1  2  1  0  0  0  0
  1  7  1  0  0  0  0
  2  3  1  0  0  0  0
  2  4  2  0  0  0  0
  4  5  1  0  0  0  0
  5  6  2  0  0  0  0
  5 11  1  0  0  0  0
  6  7  1  0  0  0  0
  6  9  1  0  0  0  0
  7  8  2  0  0  0  0
  9 10  2  0  0  0  0
 10 11  1  0  0  0  0
M  END
>  <CHROM.1>
0.62621323,-4.29377045,16.15392284,-2.32958486,0.10297407,0.92174015

>  <Name>
ligand

>  <RI>
0

>  <Rbt.Current_Directory>
/home/itssahil/PROJECTS/Mol_Feturizer/New_Systems/rnas/4LVW

>  <Rbt.Executable>
rbdock ($Id: //depot/dev/client3/rdock/2013.1/src/exe/rbdock.cxx#4 $)

>  <Rbt.Library>
libRbt.so (2013.1, Build901 2013/11/27)

>  <Rbt.Parameter_File>
/export/apps/rDock/src/rDock_2013.1_src/data/scripts/dock_solv.prm

>  <Rbt.Receptor>
prm/blind_docking_20.prm

>  <SCORE>
-5.39276

>  <SCORE.INTER>
-5.39276

>  <SCORE.INTER.CONST>
1

>  <SCORE.INTER.POLAR>
0

>  <SCORE.INTER.ROT>
0

>  <SCORE.INTER.SOLV>
2.62745

>  <SCORE.INTER.VDW>
-8.07099

>  <SCORE.INTER.norm>
-0.490251

>  <SCORE.INTRA>
0

>  <SCORE.INTRA.DIHEDRAL>
0

>  <SCORE.INTRA.DIHEDRAL.0>
0

>  <SCORE.INTRA.POLAR>
0

>  <SCORE.INTRA.POLAR.0>
0

>  <SCORE.INTRA.REPUL>
0

>  <SCORE.INTRA.REPUL.0>
0

>  <SCORE.INTRA.SOLV>
0

>  <SCORE.INTRA.SOLV.lig_0>
-29.307

>  <SCORE.INTRA.VDW>
0

>  <SCORE.INTRA.VDW.0>
0

>  <SCORE.INTRA.norm>
0

>  <SCORE.RESTR>
0

>  <SCORE.RESTR.CAVITY>
0

>  <SCORE.RESTR.norm>
0

>  <SCORE.SYSTEM>
0

>  <SCORE.SYSTEM.CONST>
0

>  <SCORE.SYSTEM.DIHEDRAL>
0

>  <SCORE.SYSTEM.SOLV>
0

>  <SCORE.SYSTEM.norm>
0

>  <SCORE.heavy>
11

>  <SCORE.norm>
-0.490251

>  <RMSD>
18.875

$$$$
ligand
 OpenBabel11021811503D
libRbt.so/2013.1/901 2013/11/27
 11 12  0  0  0  0  0  0  0  0999 V2000
    0.1792   -5.3597   14.8524 N   0  0  0  0  0  0  0  0  0  0  0  0
   -0.9053   -4.9703   15.5456 C   0  0  0  0  0  0  0  0  0  0  0  0
   -2.2035   -5.4312   15.1720 N   0  0  0  0  0  0  0  0  0  0  0  0
   -0.8182   -4.1555   16.6012 N   0  0  0  0  0  0  0  0  0  0  0  0
    0.3945   -3.6598   17.0159 C   0  0  0  0  0  0  0  0  0  0  0  0
    1.5297   -4.0367   16.3318 C   0  0  0  0  0  0  0  0  0  0  0  0
    1.4067   -4.9206   15.2213 C   0  0  0  0  0  0  0  0  0  0  0  0
    2.5329   -5.3015   14.5263 O   0  0  0  0  0  0  0  0  0  0  0  0
    2.6269   -3.3887   16.9832 C   0  0  0  0  0  0  0  0  0  0  0  0
    2.0797   -2.6417   18.0357 C   0  0  0  0  0  0  0  0  0  0  0  0
    0.7517   -2.8126   18.0409 N   0  0  0  0  0  0  0  0  0  0  0  0
  1  2  1  0  0  0  0
  1  7  1  0  0  0  0
  2  3  1  0  0  0  0
  2  4  2  0  0  0  0
  4  5  1  0  0  0  0
  5  6  2  0  0  0  0
  5 11  1  0  0  0  0
  6  7  1  0  0  0  0
  6  9  1  0  0  0  0
  7  8  2  0  0  0  0
  9 10  2  0  0  0  0
 10 11  1  0  0  0  0
M  END
>  <CHROM.1>
0.67250752,-4.28364781,16.16233650,-2.30326722,0.10531846,0.91172443

>  <Name>
ligand

>  <RI>
0

>  <Rbt.Current_Directory>
/home/itssahil/PROJECTS/Mol_Feturizer/New_Systems/rnas/4LVW

>  <Rbt.Executable>
rbdock ($Id: //depot/dev/client3/rdock/2013.1/src/exe/rbdock.cxx#4 $)

>  <Rbt.Library>
libRbt.so (2013.1, Build901 2013/11/27)

>  <Rbt.Parameter_File>
/export/apps/rDock/src/rDock_2013.1_src/data/scripts/dock_solv.prm

>  <Rbt.Receptor>
prm/blind_docking_20.prm

>  <SCORE>
-5.39414

>  <SCORE.INTER>
-5.39414

>  <SCORE.INTER.CONST>
1

>  <SCORE.INTER.POLAR>
0

>  <SCORE.INTER.ROT>
0

>  <SCORE.INTER.SOLV>
2.60835

>  <SCORE.INTER.VDW>
-8.06554

>  <SCORE.INTER.norm>
-0.490376

>  <SCORE.INTRA>
0

>  <SCORE.INTRA.DIHEDRAL>
0

>  <SCORE.INTRA.DIHEDRAL.0>
0

>  <SCORE.INTRA.POLAR>
0

>  <SCORE.INTRA.POLAR.0>
0

>  <SCORE.INTRA.REPUL>
0

>  <SCORE.INTRA.REPUL.0>
0

>  <SCORE.INTRA.SOLV>
0

>  <SCORE.INTRA.SOLV.lig_0>
-29.307

>  <SCORE.INTRA.VDW>
0

>  <SCORE.INTRA.VDW.0>
0

>  <SCORE.INTRA.norm>
0

>  <SCORE.RESTR>
0

>  <SCORE.RESTR.CAVITY>
0

>  <SCORE.RESTR.norm>
0

>  <SCORE.SYSTEM>
0

>  <SCORE.SYSTEM.CONST>
0

>  <SCORE.SYSTEM.DIHEDRAL>
0

>  <SCORE.SYSTEM.SOLV>
0

>  <SCORE.SYSTEM.norm>
0

>  <SCORE.heavy>
11

>  <SCORE.norm>
-0.490376

>  <RMSD>
18.879

$$$$
ligand
 OpenBabel11021811503D
libRbt.so/2013.1/901 2013/11/27
 11 12  0  0  0  0  0  0  0  0999 V2000
    0.0849   -5.3453   14.8419 N   0  0  0  0  0  0  0  0  0  0  0  0
   -0.9775   -4.9459   15.5631 C   0  0  0  0  0  0  0  0  0  0  0  0
   -2.2910   -5.3827   15.2146 N   0  0  0  0  0  0  0  0  0  0  0  0
   -0.8538   -4.1431   16.6242 N   0  0  0  0  0  0  0  0  0  0  0  0
    0.3757   -3.6707   17.0162 C   0  0  0  0  0  0  0  0  0  0  0  0
    1.4891   -4.0585   16.3029 C   0  0  0  0  0  0  0  0  0  0  0  0
    1.3271   -4.9293   15.1871 C   0  0  0  0  0  0  0  0  0  0  0  0
    2.4312   -5.3209   14.4632 O   0  0  0  0  0  0  0  0  0  0  0  0
    2.6108   -3.4343   16.9356 C   0  0  0  0  0  0  0  0  0  0  0  0
    2.0994   -2.6893   18.0073 C   0  0  0  0  0  0  0  0  0  0  0  0
    0.7693   -2.8394   18.0409 N   0  0  0  0  0  0  0  0  0  0  0  0
  1  2  1  0  0  0  0
  1  7  1  0  0  0  0
  2  3  1  0  0  0  0
  2  4  2  0  0  0  0
  4  5  1  0  0  0  0
  5  6  2  0  0  0  0
  5 11  1  0  0  0  0
  6  7  1  0  0  0  0
  6  9  1  0  0  0  0
  7  8  2  0  0  0  0
  9 10  2  0  0  0  0
 10 11  1  0  0  0  0
M  END
>  <CHROM.1>
0.62449469,-4.29027654,16.15057295,-2.33094229,0.10645857,0.92442381

>  <Name>
ligand

>  <RI>
0

>  <Rbt.Current_Directory>
/home/itssahil/PROJECTS/Mol_Feturizer/New_Systems/rnas/4LVW

>  <Rbt.Executable>
rbdock ($Id: //depot/dev/client3/rdock/2013.1/src/exe/rbdock.cxx#4 $)

>  <Rbt.Library>
libRbt.so (2013.1, Build901 2013/11/27)

>  <Rbt.Parameter_File>
/export/apps/rDock/src/rDock_2013.1_src/data/scripts/dock_solv.prm

>  <Rbt.Receptor>
prm/blind_docking_20.prm

>  <SCORE>
-5.39193

>  <SCORE.INTER>
-5.39193

>  <SCORE.INTER.CONST>
1

>  <SCORE.INTER.POLAR>
0

>  <SCORE.INTER.ROT>
0

>  <SCORE.INTER.SOLV>
2.61264

>  <SCORE.INTER.VDW>
-8.0655

>  <SCORE.INTER.norm>
-0.490176

>  <SCORE.INTRA>
0

>  <SCORE.INTRA.DIHEDRAL>
0

>  <SCORE.INTRA.DIHEDRAL.0>
0

>  <SCORE.INTRA.POLAR>
0

>  <SCORE.INTRA.POLAR.0>
0

>  <SCORE.INTRA.REPUL>
0

>  <SCORE.INTRA.REPUL.0>
0

>  <SCORE.INTRA.SOLV>
0

>  <SCORE.INTRA.SOLV.lig_0>
-29.307

>  <SCORE.INTRA.VDW>
0

>  <SCORE.INTRA.VDW.0>
0

>  <SCORE.INTRA.norm>
0

>  <SCORE.RESTR>
0

>  <SCORE.RESTR.CAVITY>
0

>  <SCORE.RESTR.norm>
0

>  <SCORE.SYSTEM>
0

>  <SCORE.SYSTEM.CONST>
0

>  <SCORE.SYSTEM.DIHEDRAL>
0

>  <SCORE.SYSTEM.SOLV>
0

>  <SCORE.SYSTEM.norm>
0

>  <SCORE.heavy>
11

>  <SCORE.norm>
-0.490176

>  <RMSD>
18.880

$$$$
ligand
 OpenBabel11021811503D
libRbt.so/2013.1/901 2013/11/27
 11 12  0  0  0  0  0  0  0  0999 V2000
    0.1163   -5.3376   14.8157 N   0  0  0  0  0  0  0  0  0  0  0  0
   -0.9554   -4.9464   15.5275 C   0  0  0  0  0  0  0  0  0  0  0  0
   -2.2635   -5.3848   15.1613 N   0  0  0  0  0  0  0  0  0  0  0  0
   -0.8462   -4.1504   16.5954 N   0  0  0  0  0  0  0  0  0  0  0  0
    0.3772   -3.6767   17.0044 C   0  0  0  0  0  0  0  0  0  0  0  0
    1.4998   -4.0563   16.3011 C   0  0  0  0  0  0  0  0  0  0  0  0
    1.3533   -4.9201   15.1777 C   0  0  0  0  0  0  0  0  0  0  0  0
    2.4666   -5.3033   14.4637 O   0  0  0  0  0  0  0  0  0  0  0  0
    2.6124   -3.4329   16.9506 C   0  0  0  0  0  0  0  0  0  0  0  0
    2.0865   -2.6967   18.0214 C   0  0  0  0  0  0  0  0  0  0  0  0
    0.7566   -2.8512   18.0390 N   0  0  0  0  0  0  0  0  0  0  0  0
  1  2  1  0  0  0  0
  1  7  1  0  0  0  0
  2  3  1  0  0  0  0
  2  4  2  0  0  0  0
  4  5  1  0  0  0  0
  5  6  2  0  0  0  0
  5 11  1  0  0  0  0
  6  7  1  0  0  0  0
  6  9  1  0  0  0  0
  7  8  2  0  0  0  0
  9 10  2  0  0  0  0
 10 11  1  0  0  0  0
M  END
>  <CHROM.1>
0.63776098,-4.28971419,16.13746465,-2.31996300,0.10219817,0.93000751

>  <Name>
ligand

>  <RI>
0

>  <Rbt.Current_Directory>
/home/itssahil/PROJECTS/Mol_Feturizer/New_Systems/rnas/4LVW

>  <Rbt.Executable>
rbdock ($Id: //depot/dev/client3/rdock/2013.1/src/exe/rbdock.cxx#4 $)

>  <Rbt.Library>
libRbt.so (2013.1, Build901 2013/11/27)

>  <Rbt.Parameter_File>
/export/apps/rDock/src/rDock_2013.1_src/data/scripts/dock_solv.prm

>  <Rbt.Receptor>
prm/blind_docking_20.prm

>  <SCORE>
-5.357

>  <SCORE.INTER>
-5.357

>  <SCORE.INTER.CONST>
1

>  <SCORE.INTER.POLAR>
0

>  <SCORE.INTER.ROT>
0

>  <SCORE.INTER.SOLV>
2.57674

>  <SCORE.INTER.VDW>
-8.03025

>  <SCORE.INTER.norm>
-0.487

>  <SCORE.INTRA>
0

>  <SCORE.INTRA.DIHEDRAL>
0

>  <SCORE.INTRA.DIHEDRAL.0>
0

>  <SCORE.INTRA.POLAR>
0

>  <SCORE.INTRA.POLAR.0>
0

>  <SCORE.INTRA.REPUL>
0

>  <SCORE.INTRA.REPUL.0>
0

>  <SCORE.INTRA.SOLV>
0

>  <SCORE.INTRA.SOLV.lig_0>
-29.307

>  <SCORE.INTRA.VDW>
0

>  <SCORE.INTRA.VDW.0>
0

>  <SCORE.INTRA.norm>
0

>  <SCORE.RESTR>
0

>  <SCORE.RESTR.CAVITY>
0

>  <SCORE.RESTR.norm>
0

>  <SCORE.SYSTEM>
0

>  <SCORE.SYSTEM.CONST>
0

>  <SCORE.SYSTEM.DIHEDRAL>
0

>  <SCORE.SYSTEM.SOLV>
0

>  <SCORE.SYSTEM.norm>
0

>  <SCORE.heavy>
11

>  <SCORE.norm>
-0.487

>  <RMSD>
18.886

$$$$
ligand
 OpenBabel11021811503D
libRbt.so/2013.1/901 2013/11/27
 11 12  0  0  0  0  0  0  0  0999 V2000
    0.0938   -5.3333   14.8082 N   0  0  0  0  0  0  0  0  0  0  0  0
   -0.9768   -4.9481   15.5249 C   0  0  0  0  0  0  0  0  0  0  0  0
   -2.2849   -5.3878   15.1602 N   0  0  0  0  0  0  0  0  0  0  0  0
   -0.8665   -4.1570   16.5963 N   0  0  0  0  0  0  0  0  0  0  0  0
    0.3570   -3.6825   17.0042 C   0  0  0  0  0  0  0  0  0  0  0  0
    1.4785   -4.0559   16.2959 C   0  0  0  0  0  0  0  0  0  0  0  0
    1.3308   -4.9146   15.1687 C   0  0  0  0  0  0  0  0  0  0  0  0
    2.4431   -5.2917   14.4497 O   0  0  0  0  0  0  0  0  0  0  0  0
    2.5915   -3.4331   16.9453 C   0  0  0  0  0  0  0  0  0  0  0  0
    2.0669   -2.7034   18.0212 C   0  0  0  0  0  0  0  0  0  0  0  0
    0.7373   -2.8611   18.0417 N   0  0  0  0  0  0  0  0  0  0  0  0
  1  2  1  0  0  0  0
  1  7  1  0  0  0  0
  2  3  1  0  0  0  0
  2  4  2  0  0  0  0
  4  5  1  0  0  0  0
  5  6  2  0  0  0  0
  5 11  1  0  0  0  0
  6  7  1  0  0  0  0
  6  9  1  0  0  0  0
  7  8  2  0  0  0  0
  9 10  2  0  0  0  0
 10 11  1  0  0  0  0
M  END
>  <CHROM.1>
0.61654990,-4.29061101,16.13356144,-2.32082300,0.10577246,0.93498124

>  <Name>
ligand

>  <RI>
0

>  <Rbt.Current_Directory>
/home/itssahil/PROJECTS/Mol_Feturizer/New_Systems/rnas/4LVW

>  <Rbt.Executable>
rbdock ($Id: //depot/dev/client3/rdock/2013.1/src/exe/rbdock.cxx#4 $)

>  <Rbt.Library>
libRbt.so (2013.1, Build901 2013/11/27)

>  <Rbt.Parameter_File>
/export/apps/rDock/src/rDock_2013.1_src/data/scripts/dock_solv.prm

>  <Rbt.Receptor>
prm/blind_docking_20.prm

>  <SCORE>
-5.34943

>  <SCORE.INTER>
-5.34943

>  <SCORE.INTER.CONST>
1

>  <SCORE.INTER.POLAR>
0

>  <SCORE.INTER.ROT>
0

>  <SCORE.INTER.SOLV>
2.55539

>  <SCORE.INTER.VDW>
-8.01808

>  <SCORE.INTER.norm>
-0.486312

>  <SCORE.INTRA>
0

>  <SCORE.INTRA.DIHEDRAL>
0

>  <SCORE.INTRA.DIHEDRAL.0>
0

>  <SCORE.INTRA.POLAR>
0

>  <SCORE.INTRA.POLAR.0>
0

>  <SCORE.INTRA.REPUL>
0

>  <SCORE.INTRA.REPUL.0>
0

>  <SCORE.INTRA.SOLV>
0

>  <SCORE.INTRA.SOLV.lig_0>
-29.307

>  <SCORE.INTRA.VDW>
0

>  <SCORE.INTRA.VDW.0>
0

>  <SCORE.INTRA.norm>
0

>  <SCORE.RESTR>
0

>  <SCORE.RESTR.CAVITY>
0

>  <SCORE.RESTR.norm>
0

>  <SCORE.SYSTEM>
0

>  <SCORE.SYSTEM.CONST>
0

>  <SCORE.SYSTEM.DIHEDRAL>
0

>  <SCORE.SYSTEM.SOLV>
0

>  <SCORE.SYSTEM.norm>
0

>  <SCORE.heavy>
11

>  <SCORE.norm>
-0.486312

>  <RMSD>
18.889

$$$$
ligand
 OpenBabel11021811503D
libRbt.so/2013.1/901 2013/11/27
 11 12  0  0  0  0  0  0  0  0999 V2000
    0.2789   -5.3575   14.7512 N   0  0  0  0  0  0  0  0  0  0  0  0
   -0.8502   -4.9799   15.3764 C   0  0  0  0  0  0  0  0  0  0  0  0
   -2.1199   -5.4342   14.9085 N   0  0  0  0  0  0  0  0  0  0  0  0
   -0.8351   -4.1833   16.4492 N   0  0  0  0  0  0  0  0  0  0  0  0
    0.3465   -3.6949   16.9530 C   0  0  0  0  0  0  0  0  0  0  0  0
    1.5255   -4.0602   16.3404 C   0  0  0  0  0  0  0  0  0  0  0  0
    1.4784   -4.9251   15.2092 C   0  0  0  0  0  0  0  0  0  0  0  0
    2.6490   -5.2942   14.5851 O   0  0  0  0  0  0  0  0  0  0  0  0
    2.5758   -3.4236   17.0751 C   0  0  0  0  0  0  0  0  0  0  0  0
    1.9583   -2.6946   18.1009 C   0  0  0  0  0  0  0  0  0  0  0  0
    0.6331   -2.8653   18.0139 N   0  0  0  0  0  0  0  0  0  0  0  0
  1  2  1  0  0  0  0
  1  7  1  0  0  0  0
  2  3  1  0  0  0  0
  2  4  2  0  0  0  0
  4  5  1  0  0  0  0
  5  6  2  0  0  0  0
  5 11  1  0  0  0  0
  6  7  1  0  0  0  0
  6  9  1  0  0  0  0
  7  8  2  0  0  0  0
  9 10  2  0  0  0  0
 10 11  1  0  0  0  0
M  END
>  <CHROM.1>
0.68187607,-4.30411036,16.10948026,-2.24935762,0.06476535,0.92422487

>  <Name>
ligand

>  <RI>
0

>  <Rbt.Current_Directory>
/home/itssahil/PROJECTS/Mol_Feturizer/New_Systems/rnas/4LVW

>  <Rbt.Executable>
rbdock ($Id: //depot/dev/client3/rdock/2013.1/src/exe/rbdock.cxx#4 $)

>  <Rbt.Library>
libRbt.so (2013.1, Build901 2013/11/27)

>  <Rbt.Parameter_File>
/export/apps/rDock/src/rDock_2013.1_src/data/scripts/dock_solv.prm

>  <Rbt.Receptor>
prm/blind_docking_20.prm

>  <SCORE>
-5.34696

>  <SCORE.INTER>
-5.34696

>  <SCORE.INTER.CONST>
1

>  <SCORE.INTER.POLAR>
0

>  <SCORE.INTER.ROT>
0

>  <SCORE.INTER.SOLV>
2.52865

>  <SCORE.INTER.VDW>
-8.00752

>  <SCORE.INTER.norm>
-0.486087

>  <SCORE.INTRA>
0

>  <SCORE.INTRA.DIHEDRAL>
0

>  <SCORE.INTRA.DIHEDRAL.0>
0

>  <SCORE.INTRA.POLAR>
0

>  <SCORE.INTRA.POLAR.0>
0

>  <SCORE.INTRA.REPUL>
0

>  <SCORE.INTRA.REPUL.0>
0

>  <SCORE.INTRA.SOLV>
0

>  <SCORE.INTRA.SOLV.lig_0>
-29.307

>  <SCORE.INTRA.VDW>
0

>  <SCORE.INTRA.VDW.0>
0

>  <SCORE.INTRA.norm>
0

>  <SCORE.RESTR>
0

>  <SCORE.RESTR.CAVITY>
0

>  <SCORE.RESTR.norm>
0

>  <SCORE.SYSTEM>
0

>  <SCORE.SYSTEM.CONST>
0

>  <SCORE.SYSTEM.DIHEDRAL>
0

>  <SCORE.SYSTEM.SOLV>
0

>  <SCORE.SYSTEM.norm>
0

>  <SCORE.heavy>
11

>  <SCORE.norm>
-0.486087

>  <RMSD>
18.889

$$$$
ligand
 OpenBabel11021811503D
libRbt.so/2013.1/901 2013/11/27
 11 12  0  0  0  0  0  0  0  0999 V2000
    0.1530   -5.3152   14.8267 N   0  0  0  0  0  0  0  0  0  0  0  0
   -0.9252   -4.9297   15.5319 C   0  0  0  0  0  0  0  0  0  0  0  0
   -2.2284   -5.3766   15.1587 N   0  0  0  0  0  0  0  0  0  0  0  0
   -0.8270   -4.1319   16.5995 N   0  0  0  0  0  0  0  0  0  0  0  0
    0.3911   -3.6503   17.0149 C   0  0  0  0  0  0  0  0  0  0  0  0
    1.5201   -4.0237   16.3186 C   0  0  0  0  0  0  0  0  0  0  0  0
    1.3853   -4.8896   15.1953 C   0  0  0  0  0  0  0  0  0  0  0  0
    2.5050   -5.2669   14.4882 O   0  0  0  0  0  0  0  0  0  0  0  0
    2.6250   -3.3928   16.9737 C   0  0  0  0  0  0  0  0  0  0  0  0
    2.0885   -2.6587   18.0407 C   0  0  0  0  0  0  0  0  0  0  0  0
    0.7594   -2.8213   18.0508 N   0  0  0  0  0  0  0  0  0  0  0  0
  1  2  1  0  0  0  0
  1  7  1  0  0  0  0
  2  3  1  0  0  0  0
  2  4  2  0  0  0  0
  4  5  1  0  0  0  0
  5  6  2  0  0  0  0
  5 11  1  0  0  0  0
  6  7  1  0  0  0  0
  6  9  1  0  0  0  0
  7  8  2  0  0  0  0
  9 10  2  0  0  0  0
 10 11  1  0  0  0  0
M  END
>  <CHROM.1>
0.66038048,-4.26263470,16.15024897,-2.31163534,0.10366367,0.92802243

>  <Name>
ligand

>  <RI>
0

>  <Rbt.Current_Directory>
/home/itssahil/PROJECTS/Mol_Feturizer/New_Systems/rnas/4LVW

>  <Rbt.Executable>
rbdock ($Id: //depot/dev/client3/rdock/2013.1/src/exe/rbdock.cxx#4 $)

>  <Rbt.Library>
libRbt.so (2013.1, Build901 2013/11/27)

>  <Rbt.Parameter_File>
/export/apps/rDock/src/rDock_2013.1_src/data/scripts/dock_solv.prm

>  <Rbt.Receptor>
prm/blind_docking_20.prm

>  <SCORE>
-5.40788

>  <SCORE.INTER>
-5.40788

>  <SCORE.INTER.CONST>
1

>  <SCORE.INTER.POLAR>
0

>  <SCORE.INTER.ROT>
0

>  <SCORE.INTER.SOLV>
2.54285

>  <SCORE.INTER.VDW>
-8.05287

>  <SCORE.INTER.norm>
-0.491625

>  <SCORE.INTRA>
0

>  <SCORE.INTRA.DIHEDRAL>
0

>  <SCORE.INTRA.DIHEDRAL.0>
0

>  <SCORE.INTRA.POLAR>
0

>  <SCORE.INTRA.POLAR.0>
0

>  <SCORE.INTRA.REPUL>
0

>  <SCORE.INTRA.REPUL.0>
0

>  <SCORE.INTRA.SOLV>
0

>  <SCORE.INTRA.SOLV.lig_0>
-29.307

>  <SCORE.INTRA.VDW>
0

>  <SCORE.INTRA.VDW.0>
0

>  <SCORE.INTRA.norm>
0

>  <SCORE.RESTR>
0

>  <SCORE.RESTR.CAVITY>
0

>  <SCORE.RESTR.norm>
0

>  <SCORE.SYSTEM>
0

>  <SCORE.SYSTEM.CONST>
0

>  <SCORE.SYSTEM.DIHEDRAL>
0

>  <SCORE.SYSTEM.SOLV>
0

>  <SCORE.SYSTEM.norm>
0

>  <SCORE.heavy>
11

>  <SCORE.norm>
-0.491625

>  <RMSD>
18.903

$$$$
ligand
 OpenBabel11021811503D
libRbt.so/2013.1/901 2013/11/27
 11 12  0  0  0  0  0  0  0  0999 V2000
    0.2109   -5.3139   14.7777 N   0  0  0  0  0  0  0  0  0  0  0  0
   -0.8877   -4.9312   15.4521 C   0  0  0  0  0  0  0  0  0  0  0  0
   -2.1798   -5.3716   15.0348 N   0  0  0  0  0  0  0  0  0  0  0  0
   -0.8210   -4.1422   16.5286 N   0  0  0  0  0  0  0  0  0  0  0  0
    0.3848   -3.6673   16.9857 C   0  0  0  0  0  0  0  0  0  0  0  0
    1.5340   -4.0381   16.3218 C   0  0  0  0  0  0  0  0  0  0  0  0
    1.4322   -4.8946   15.1880 C   0  0  0  0  0  0  0  0  0  0  0  0
    2.5725   -5.2692   14.5130 O   0  0  0  0  0  0  0  0  0  0  0  0
    2.6195   -3.4155   17.0162 C   0  0  0  0  0  0  0  0  0  0  0  0
    2.0518   -2.6885   18.0718 C   0  0  0  0  0  0  0  0  0  0  0  0
    0.7227   -2.8476   18.0392 N   0  0  0  0  0  0  0  0  0  0  0  0
  1  2  1  0  0  0  0
  1  7  1  0  0  0  0
  2  3  1  0  0  0  0
  2  4  2  0  0  0  0
  4  5  1  0  0  0  0
  5  6  2  0  0  0  0
  5 11  1  0  0  0  0
  6  7  1  0  0  0  0
  6  9  1  0  0  0  0
  7  8  2  0  0  0  0
  9 10  2  0  0  0  0
 10 11  1  0  0  0  0
M  END
>  <CHROM.1>
0.67940487,-4.27336947,16.12486423,-2.28806645,0.08299981,0.93389888

>  <Name>
ligand

>  <RI>
0

>  <Rbt.Current_Directory>
/home/itssahil/PROJECTS/Mol_Feturizer/New_Systems/rnas/4LVW

>  <Rbt.Executable>
rbdock ($Id: //depot/dev/client3/rdock/2013.1/src/exe/rbdock.cxx#4 $)

>  <Rbt.Library>
libRbt.so (2013.1, Build901 2013/11/27)

>  <Rbt.Parameter_File>
/export/apps/rDock/src/rDock_2013.1_src/data/scripts/dock_solv.prm

>  <Rbt.Receptor>
prm/blind_docking_20.prm

>  <SCORE>
-5.37415

>  <SCORE.INTER>
-5.37415

>  <SCORE.INTER.CONST>
1

>  <SCORE.INTER.POLAR>
0

>  <SCORE.INTER.ROT>
0

>  <SCORE.INTER.SOLV>
2.51621

>  <SCORE.INTER.VDW>
-8.0215

>  <SCORE.INTER.norm>
-0.488559

>  <SCORE.INTRA>
0

>  <SCORE.INTRA.DIHEDRAL>
0

>  <SCORE.INTRA.DIHEDRAL.0>
0

>  <SCORE.INTRA.POLAR>
0

>  <SCORE.INTRA.POLAR.0>
0

>  <SCORE.INTRA.REPUL>
0

>  <SCORE.INTRA.REPUL.0>
0

>  <SCORE.INTRA.SOLV>
0

>  <SCORE.INTRA.SOLV.lig_0>
-29.307

>  <SCORE.INTRA.VDW>
0

>  <SCORE.INTRA.VDW.0>
0

>  <SCORE.INTRA.norm>
0

>  <SCORE.RESTR>
0

>  <SCORE.RESTR.CAVITY>
0

>  <SCORE.RESTR.norm>
0

>  <SCORE.SYSTEM>
0

>  <SCORE.SYSTEM.CONST>
0

>  <SCORE.SYSTEM.DIHEDRAL>
0

>  <SCORE.SYSTEM.SOLV>
0

>  <SCORE.SYSTEM.norm>
0

>  <SCORE.heavy>
11

>  <SCORE.norm>
-0.488559

>  <RMSD>
18.905

$$$$
ligand
 OpenBabel11021811503D
libRbt.so/2013.1/901 2013/11/27
 11 12  0  0  0  0  0  0  0  0999 V2000
    0.2161   -5.3124   14.7714 N   0  0  0  0  0  0  0  0  0  0  0  0
   -0.8836   -4.9349   15.4470 C   0  0  0  0  0  0  0  0  0  0  0  0
   -2.1744   -5.3783   15.0290 N   0  0  0  0  0  0  0  0  0  0  0  0
   -0.8190   -4.1483   16.5254 N   0  0  0  0  0  0  0  0  0  0  0  0
    0.3854   -3.6707   16.9834 C   0  0  0  0  0  0  0  0  0  0  0  0
    1.5356   -4.0362   16.3184 C   0  0  0  0  0  0  0  0  0  0  0  0
    1.4361   -4.8903   15.1824 C   0  0  0  0  0  0  0  0  0  0  0  0
    2.5775   -5.2596   14.5062 O   0  0  0  0  0  0  0  0  0  0  0  0
    2.6193   -3.4119   17.0139 C   0  0  0  0  0  0  0  0  0  0  0  0
    2.0495   -2.6893   18.0715 C   0  0  0  0  0  0  0  0  0  0  0  0
    0.7209   -2.8525   18.0388 N   0  0  0  0  0  0  0  0  0  0  0  0
  1  2  1  0  0  0  0
  1  7  1  0  0  0  0
  2  3  1  0  0  0  0
  2  4  2  0  0  0  0
  4  5  1  0  0  0  0
  5  6  2  0  0  0  0
  5 11  1  0  0  0  0
  6  7  1  0  0  0  0
  6  9  1  0  0  0  0
  7  8  2  0  0  0  0
  9 10  2  0  0  0  0
 10 11  1  0  0  0  0
M  END
>  <CHROM.1>
0.68165160,-4.27371353,16.12101307,-2.28639117,0.08569949,0.93622041

>  <Name>
ligand

>  <RI>
0

>  <Rbt.Current_Directory>
/home/itssahil/PROJECTS/Mol_Feturizer/New_Systems/rnas/4LVW

>  <Rbt.Executable>
rbdock ($Id: //depot/dev/client3/rdock/2013.1/src/exe/rbdock.cxx#4 $)

>  <Rbt.Library>
libRbt.so (2013.1, Build901 2013/11/27)

>  <Rbt.Parameter_File>
/export/apps/rDock/src/rDock_2013.1_src/data/scripts/dock_solv.prm

>  <Rbt.Receptor>
prm/blind_docking_20.prm

>  <SCORE>
-5.37335

>  <SCORE.INTER>
-5.37335

>  <SCORE.INTER.CONST>
1

>  <SCORE.INTER.POLAR>
0

>  <SCORE.INTER.ROT>
0

>  <SCORE.INTER.SOLV>
2.51058

>  <SCORE.INTER.VDW>
-8.0191

>  <SCORE.INTER.norm>
-0.488487

>  <SCORE.INTRA>
0

>  <SCORE.INTRA.DIHEDRAL>
0

>  <SCORE.INTRA.DIHEDRAL.0>
0

>  <SCORE.INTRA.POLAR>
0

>  <SCORE.INTRA.POLAR.0>
0

>  <SCORE.INTRA.REPUL>
0

>  <SCORE.INTRA.REPUL.0>
0

>  <SCORE.INTRA.SOLV>
0

>  <SCORE.INTRA.SOLV.lig_0>
-29.307

>  <SCORE.INTRA.VDW>
0

>  <SCORE.INTRA.VDW.0>
0

>  <SCORE.INTRA.norm>
0

>  <SCORE.RESTR>
0

>  <SCORE.RESTR.CAVITY>
0

>  <SCORE.RESTR.norm>
0

>  <SCORE.SYSTEM>
0

>  <SCORE.SYSTEM.CONST>
0

>  <SCORE.SYSTEM.DIHEDRAL>
0

>  <SCORE.SYSTEM.SOLV>
0

>  <SCORE.SYSTEM.norm>
0

>  <SCORE.heavy>
11

>  <SCORE.norm>
-0.488487

>  <RMSD>
18.907

$$$$
ligand
 OpenBabel11021811503D
libRbt.so/2013.1/901 2013/11/27
 11 12  0  0  0  0  0  0  0  0999 V2000
    0.1522   -5.3021   14.7989 N   0  0  0  0  0  0  0  0  0  0  0  0
   -0.9249   -4.9247   15.5100 C   0  0  0  0  0  0  0  0  0  0  0  0
   -2.2280   -5.3725   15.1373 N   0  0  0  0  0  0  0  0  0  0  0  0
   -0.8259   -4.1342   16.5829 N   0  0  0  0  0  0  0  0  0  0  0  0
    0.3922   -3.6523   16.9983 C   0  0  0  0  0  0  0  0  0  0  0  0
    1.5201   -4.0175   16.2960 C   0  0  0  0  0  0  0  0  0  0  0  0
    1.3844   -4.8758   15.1670 C   0  0  0  0  0  0  0  0  0  0  0  0
    2.5031   -5.2448   14.4539 O   0  0  0  0  0  0  0  0  0  0  0  0
    2.6252   -3.3883   16.9525 C   0  0  0  0  0  0  0  0  0  0  0  0
    2.0898   -2.6633   18.0262 C   0  0  0  0  0  0  0  0  0  0  0  0
    0.7612   -2.8296   18.0390 N   0  0  0  0  0  0  0  0  0  0  0  0
  1  2  1  0  0  0  0
  1  7  1  0  0  0  0
  2  3  1  0  0  0  0
  2  4  2  0  0  0  0
  4  5  1  0  0  0  0
  5  6  2  0  0  0  0
  5 11  1  0  0  0  0
  6  7  1  0  0  0  0
  6  9  1  0  0  0  0
  7  8  2  0  0  0  0
  9 10  2  0  0  0  0
 10 11  1  0  0  0  0
M  END
>  <CHROM.1>
0.66059050,-4.25761884,16.12848361,-2.31233134,0.10762258,0.93526615

>  <Name>
ligand

>  <RI>
0

>  <Rbt.Current_Directory>
/home/itssahil/PROJECTS/Mol_Feturizer/New_Systems/rnas/4LVW

>  <Rbt.Executable>
rbdock ($Id: //depot/dev/client3/rdock/2013.1/src/exe/rbdock.cxx#4 $)

>  <Rbt.Library>
libRbt.so (2013.1, Build901 2013/11/27)

>  <Rbt.Parameter_File>
/export/apps/rDock/src/rDock_2013.1_src/data/scripts/dock_solv.prm

>  <Rbt.Receptor>
prm/blind_docking_20.prm

>  <SCORE>
-5.4022

>  <SCORE.INTER>
-5.4022

>  <SCORE.INTER.CONST>
1

>  <SCORE.INTER.POLAR>
0

>  <SCORE.INTER.ROT>
0

>  <SCORE.INTER.SOLV>
2.52946

>  <SCORE.INTER.VDW>
-8.04462

>  <SCORE.INTER.norm>
-0.491109

>  <SCORE.INTRA>
0

>  <SCORE.INTRA.DIHEDRAL>
0

>  <SCORE.INTRA.DIHEDRAL.0>
0

>  <SCORE.INTRA.POLAR>
0

>  <SCORE.INTRA.POLAR.0>
0

>  <SCORE.INTRA.REPUL>
0

>  <SCORE.INTRA.REPUL.0>
0

>  <SCORE.INTRA.SOLV>
0

>  <SCORE.INTRA.SOLV.lig_0>
-29.307

>  <SCORE.INTRA.VDW>
0

>  <SCORE.INTRA.VDW.0>
0

>  <SCORE.INTRA.norm>
0

>  <SCORE.RESTR>
0

>  <SCORE.RESTR.CAVITY>
0

>  <SCORE.RESTR.norm>
0

>  <SCORE.SYSTEM>
0

>  <SCORE.SYSTEM.CONST>
0

>  <SCORE.SYSTEM.DIHEDRAL>
0

>  <SCORE.SYSTEM.SOLV>
0

>  <SCORE.SYSTEM.norm>
0

>  <SCORE.heavy>
11

>  <SCORE.norm>
-0.491109

>  <RMSD>
18.917

$$$$
ligand
 OpenBabel11021811503D
libRbt.so/2013.1/901 2013/11/27
 11 12  0  0  0  0  0  0  0  0999 V2000
    1.2006   -5.0766   14.6167 N   0  0  0  0  0  0  0  0  0  0  0  0
    1.8813   -4.0231   15.1017 C   0  0  0  0  0  0  0  0  0  0  0  0
    3.0799   -3.5833   14.4634 N   0  0  0  0  0  0  0  0  0  0  0  0
    1.4702   -3.3473   16.1787 N   0  0  0  0  0  0  0  0  0  0  0  0
    0.3325   -3.7161   16.8555 C   0  0  0  0  0  0  0  0  0  0  0  0
   -0.3934   -4.7903   16.3887 C   0  0  0  0  0  0  0  0  0  0  0  0
    0.0606   -5.4799   15.2276 C   0  0  0  0  0  0  0  0  0  0  0  0
   -0.6532   -6.5577   14.7533 O   0  0  0  0  0  0  0  0  0  0  0  0
   -1.5135   -4.9328   17.2680 C   0  0  0  0  0  0  0  0  0  0  0  0
   -1.3923   -3.9235   18.2333 C   0  0  0  0  0  0  0  0  0  0  0  0
   -0.2893   -3.2097   17.9748 N   0  0  0  0  0  0  0  0  0  0  0  0
  1  2  1  0  0  0  0
  1  7  1  0  0  0  0
  2  3  1  0  0  0  0
  2  4  2  0  0  0  0
  4  5  1  0  0  0  0
  5  6  2  0  0  0  0
  5 11  1  0  0  0  0
  6  7  1  0  0  0  0
  6  9  1  0  0  0  0
  7  8  2  0  0  0  0
  9 10  2  0  0  0  0
 10 11  1  0  0  0  0
M  END
>  <CHROM.1>
0.37294561,-4.44675421,16.04336650,0.53602873,-0.56497377,-2.32670894

>  <Name>
ligand

>  <RI>
0

>  <Rbt.Current_Directory>
/home/itssahil/PROJECTS/Mol_Feturizer/New_Systems/rnas/4LVW

>  <Rbt.Executable>
rbdock ($Id: //depot/dev/client3/rdock/2013.1/src/exe/rbdock.cxx#4 $)

>  <Rbt.Library>
libRbt.so (2013.1, Build901 2013/11/27)

>  <Rbt.Parameter_File>
/export/apps/rDock/src/rDock_2013.1_src/data/scripts/dock_solv.prm

>  <Rbt.Receptor>
prm/blind_docking_20.prm

>  <SCORE>
-3.34447

>  <SCORE.INTER>
-3.34447

>  <SCORE.INTER.CONST>
1

>  <SCORE.INTER.POLAR>
0

>  <SCORE.INTER.ROT>
0

>  <SCORE.INTER.SOLV>
3.09595

>  <SCORE.INTER.VDW>
-6.86163

>  <SCORE.INTER.norm>
-0.304042

>  <SCORE.INTRA>
0

>  <SCORE.INTRA.DIHEDRAL>
0

>  <SCORE.INTRA.DIHEDRAL.0>
0

>  <SCORE.INTRA.POLAR>
0

>  <SCORE.INTRA.POLAR.0>
0

>  <SCORE.INTRA.REPUL>
0

>  <SCORE.INTRA.REPUL.0>
0

>  <SCORE.INTRA.SOLV>
0

>  <SCORE.INTRA.SOLV.lig_0>
-29.307

>  <SCORE.INTRA.VDW>
0

>  <SCORE.INTRA.VDW.0>
0

>  <SCORE.INTRA.norm>
0

>  <SCORE.RESTR>
0

>  <SCORE.RESTR.CAVITY>
0

>  <SCORE.RESTR.norm>
0

>  <SCORE.SYSTEM>
0

>  <SCORE.SYSTEM.CONST>
0

>  <SCORE.SYSTEM.DIHEDRAL>
0

>  <SCORE.SYSTEM.SOLV>
0

>  <SCORE.SYSTEM.norm>
0

>  <SCORE.heavy>
11

>  <SCORE.norm>
-0.304042

>  <RMSD>
19.058

$$$$
ligand
 OpenBabel11021811503D
libRbt.so/2013.1/901 2013/11/27
 11 12  0  0  0  0  0  0  0  0999 V2000
   -8.8919    4.4831    7.0051 N   0  0  0  0  0  0  0  0  0  0  0  0
   -7.7904    4.7452    6.2797 C   0  0  0  0  0  0  0  0  0  0  0  0
   -6.5280    4.2003    6.6630 N   0  0  0  0  0  0  0  0  0  0  0  0
   -7.8277    5.5072    5.1825 N   0  0  0  0  0  0  0  0  0  0  0  0
   -9.0027    6.0776    4.7552 C   0  0  0  0  0  0  0  0  0  0  0  0
  -10.1538    5.8316    5.4716 C   0  0  0  0  0  0  0  0  0  0  0  0
  -10.0854    5.0008    6.6269 C   0  0  0  0  0  0  0  0  0  0  0  0
  -11.2277    4.7506    7.3542 O   0  0  0  0  0  0  0  0  0  0  0  0
  -11.2050    6.5316    4.7984 C   0  0  0  0  0  0  0  0  0  0  0  0
  -10.6157    7.1744    3.7009 C   0  0  0  0  0  0  0  0  0  0  0  0
   -9.3061    6.8956    3.6900 N   0  0  0  0  0  0  0  0  0  0  0  0
  1  2  1  0  0  0  0
  1  7  1  0  0  0  0
  2  3  1  0  0  0  0
  2  4  2  0  0  0  0
  4  5  1  0  0  0  0
  5  6  2  0  0  0  0
  5 11  1  0  0  0  0
  6  7  1  0  0  0  0
  6  9  1  0  0  0  0
  7  8  2  0  0  0  0
  9 10  2  0  0  0  0
 10 11  1  0  0  0  0
M  END
>  <CHROM.1>
-9.31689046,5.52479520,5.64445705,0.87613410,-0.17891054,2.18146316

>  <Name>
ligand

>  <RI>
0

>  <Rbt.Current_Directory>
/home/itssahil/PROJECTS/Mol_Feturizer/New_Systems/rnas/4LVW

>  <Rbt.Executable>
rbdock ($Id: //depot/dev/client3/rdock/2013.1/src/exe/rbdock.cxx#4 $)

>  <Rbt.Library>
libRbt.so (2013.1, Build901 2013/11/27)

>  <Rbt.Parameter_File>
/export/apps/rDock/src/rDock_2013.1_src/data/scripts/dock_solv.prm

>  <Rbt.Receptor>
prm/blind_docking_20.prm

>  <SCORE>
-3.9837

>  <SCORE.INTER>
-5.25277

>  <SCORE.INTER.CONST>
1

>  <SCORE.INTER.POLAR>
0

>  <SCORE.INTER.ROT>
0

>  <SCORE.INTER.SOLV>
4.79096

>  <SCORE.INTER.VDW>
-8.69883

>  <SCORE.INTER.norm>
-0.477524

>  <SCORE.INTRA>
0

>  <SCORE.INTRA.DIHEDRAL>
0

>  <SCORE.INTRA.DIHEDRAL.0>
0

>  <SCORE.INTRA.POLAR>
0

>  <SCORE.INTRA.POLAR.0>
0

>  <SCORE.INTRA.REPUL>
0

>  <SCORE.INTRA.REPUL.0>
0

>  <SCORE.INTRA.SOLV>
0

>  <SCORE.INTRA.SOLV.lig_0>
-29.307

>  <SCORE.INTRA.VDW>
0

>  <SCORE.INTRA.VDW.0>
0

>  <SCORE.INTRA.norm>
0

>  <SCORE.RESTR>
1.26907

>  <SCORE.RESTR.CAVITY>
1.26907

>  <SCORE.RESTR.norm>
0.11537

>  <SCORE.SYSTEM>
0

>  <SCORE.SYSTEM.CONST>
0

>  <SCORE.SYSTEM.DIHEDRAL>
0

>  <SCORE.SYSTEM.SOLV>
0

>  <SCORE.SYSTEM.norm>
0

>  <SCORE.heavy>
11

>  <SCORE.norm>
-0.362154

>  <RMSD>
34.697

$$$$
ligand
 OpenBabel11021811503D
libRbt.so/2013.1/901 2013/11/27
 11 12  0  0  0  0  0  0  0  0999 V2000
   -9.5996    5.0785    6.8091 N   0  0  0  0  0  0  0  0  0  0  0  0
   -8.7051    5.0756    5.8051 C   0  0  0  0  0  0  0  0  0  0  0  0
   -7.3682    4.6297    6.0317 N   0  0  0  0  0  0  0  0  0  0  0  0
   -9.0229    5.4750    4.5701 N   0  0  0  0  0  0  0  0  0  0  0  0
  -10.2859    5.9292    4.2749 C   0  0  0  0  0  0  0  0  0  0  0  0
  -11.2314    5.9464    5.2772 C   0  0  0  0  0  0  0  0  0  0  0  0
  -10.8673    5.4977    6.5794 C   0  0  0  0  0  0  0  0  0  0  0  0
  -11.8015    5.5138    7.5911 O   0  0  0  0  0  0  0  0  0  0  0  0
  -12.4355    6.4465    4.6871 C   0  0  0  0  0  0  0  0  0  0  0  0
  -12.1393    6.7119    3.3429 C   0  0  0  0  0  0  0  0  0  0  0  0
  -10.8574    6.4002    3.1141 N   0  0  0  0  0  0  0  0  0  0  0  0
  1  2  1  0  0  0  0
  1  7  1  0  0  0  0
  2  3  1  0  0  0  0
  2  4  2  0  0  0  0
  4  5  1  0  0  0  0
  5  6  2  0  0  0  0
  5 11  1  0  0  0  0
  6  7  1  0  0  0  0
  6  9  1  0  0  0  0
  7  8  2  0  0  0  0
  9 10  2  0  0  0  0
 10 11  1  0  0  0  0
M  END
>  <CHROM.1>
-10.36582136,5.67836395,5.33596320,0.65577097,-0.27461579,1.82373156

>  <Name>
ligand

>  <RI>
0

>  <Rbt.Current_Directory>
/home/itssahil/PROJECTS/Mol_Feturizer/New_Systems/rnas/4LVW

>  <Rbt.Executable>
rbdock ($Id: //depot/dev/client3/rdock/2013.1/src/exe/rbdock.cxx#4 $)

>  <Rbt.Library>
libRbt.so (2013.1, Build901 2013/11/27)

>  <Rbt.Parameter_File>
/export/apps/rDock/src/rDock_2013.1_src/data/scripts/dock_solv.prm

>  <Rbt.Receptor>
prm/blind_docking_20.prm

>  <SCORE>
-3.21562

>  <SCORE.INTER>
-3.88917

>  <SCORE.INTER.CONST>
1

>  <SCORE.INTER.POLAR>
0

>  <SCORE.INTER.ROT>
0

>  <SCORE.INTER.SOLV>
4.92695

>  <SCORE.INTER.VDW>
-7.8351

>  <SCORE.INTER.norm>
-0.353561

>  <SCORE.INTRA>
0

>  <SCORE.INTRA.DIHEDRAL>
0

>  <SCORE.INTRA.DIHEDRAL.0>
0

>  <SCORE.INTRA.POLAR>
0

>  <SCORE.INTRA.POLAR.0>
0

>  <SCORE.INTRA.REPUL>
0

>  <SCORE.INTRA.REPUL.0>
0

>  <SCORE.INTRA.SOLV>
0

>  <SCORE.INTRA.SOLV.lig_0>
-29.307

>  <SCORE.INTRA.VDW>
0

>  <SCORE.INTRA.VDW.0>
0

>  <SCORE.INTRA.norm>
0

>  <SCORE.RESTR>
0.673544

>  <SCORE.RESTR.CAVITY>
0.673544

>  <SCORE.RESTR.norm>
0.0612313

>  <SCORE.SYSTEM>
0

>  <SCORE.SYSTEM.CONST>
0

>  <SCORE.SYSTEM.DIHEDRAL>
0

>  <SCORE.SYSTEM.SOLV>
0

>  <SCORE.SYSTEM.norm>
0

>  <SCORE.heavy>
11

>  <SCORE.norm>
-0.292329

>  <RMSD>
35.332

$$$$
ligand
 OpenBabel11021811503D
libRbt.so/2013.1/901 2013/11/27
 11 12  0  0  0  0  0  0  0  0999 V2000
  -12.0578    6.5618    4.5408 N   0  0  0  0  0  0  0  0  0  0  0  0
  -12.2881    6.1024    5.7835 C   0  0  0  0  0  0  0  0  0  0  0  0
  -13.6013    6.1564    6.3403 N   0  0  0  0  0  0  0  0  0  0  0  0
  -11.3179    5.5767    6.5372 N   0  0  0  0  0  0  0  0  0  0  0  0
  -10.0253    5.5003    6.0767 C   0  0  0  0  0  0  0  0  0  0  0  0
   -9.7493    5.9598    4.8073 C   0  0  0  0  0  0  0  0  0  0  0  0
  -10.8082    6.4986    4.0211 C   0  0  0  0  0  0  0  0  0  0  0  0
  -10.5450    6.9653    2.7526 O   0  0  0  0  0  0  0  0  0  0  0  0
   -8.3501    5.7456    4.5963 C   0  0  0  0  0  0  0  0  0  0  0  0
   -7.8547    5.1655    5.7724 C   0  0  0  0  0  0  0  0  0  0  0  0
   -8.8627    5.0274    6.6429 N   0  0  0  0  0  0  0  0  0  0  0  0
  1  2  1  0  0  0  0
  1  7  1  0  0  0  0
  2  3  1  0  0  0  0
  2  4  2  0  0  0  0
  4  5  1  0  0  0  0
  5  6  2  0  0  0  0
  5 11  1  0  0  0  0
  6  7  1  0  0  0  0
  6  9  1  0  0  0  0
  7  8  2  0  0  0  0
  9 10  2  0  0  0  0
 10 11  1  0  0  0  0
M  END
>  <CHROM.1>
-10.55114139,5.95563064,5.23336224,-3.07423200,-0.19427662,1.95757517

>  <Name>
ligand

>  <RI>
0

>  <Rbt.Current_Directory>
/home/itssahil/PROJECTS/Mol_Feturizer/New_Systems/rnas/4LVW

>  <Rbt.Executable>
rbdock ($Id: //depot/dev/client3/rdock/2013.1/src/exe/rbdock.cxx#4 $)

>  <Rbt.Library>
libRbt.so (2013.1, Build901 2013/11/27)

>  <Rbt.Parameter_File>
/export/apps/rDock/src/rDock_2013.1_src/data/scripts/dock_solv.prm

>  <Rbt.Receptor>
prm/blind_docking_20.prm

>  <SCORE>
-7.32038

>  <SCORE.INTER>
-7.40388

>  <SCORE.INTER.CONST>
1

>  <SCORE.INTER.POLAR>
0

>  <SCORE.INTER.ROT>
0

>  <SCORE.INTER.SOLV>
3.36658

>  <SCORE.INTER.VDW>
-9.65811

>  <SCORE.INTER.norm>
-0.67308

>  <SCORE.INTRA>
0

>  <SCORE.INTRA.DIHEDRAL>
0

>  <SCORE.INTRA.DIHEDRAL.0>
0

>  <SCORE.INTRA.POLAR>
0

>  <SCORE.INTRA.POLAR.0>
0

>  <SCORE.INTRA.REPUL>
0

>  <SCORE.INTRA.REPUL.0>
0

>  <SCORE.INTRA.SOLV>
0

>  <SCORE.INTRA.SOLV.lig_0>
-29.307

>  <SCORE.INTRA.VDW>
0

>  <SCORE.INTRA.VDW.0>
0

>  <SCORE.INTRA.norm>
0

>  <SCORE.RESTR>
0.0834957

>  <SCORE.RESTR.CAVITY>
0.0834957

>  <SCORE.RESTR.norm>
0.00759052

>  <SCORE.SYSTEM>
0

>  <SCORE.SYSTEM.CONST>
0

>  <SCORE.SYSTEM.DIHEDRAL>
0

>  <SCORE.SYSTEM.SOLV>
0

>  <SCORE.SYSTEM.norm>
0

>  <SCORE.heavy>
11

>  <SCORE.norm>
-0.665489

>  <RMSD>
35.492

$$$$
ligand
 OpenBabel11021811503D
libRbt.so/2013.1/901 2013/11/27
 11 12  0  0  0  0  0  0  0  0999 V2000
  -12.0551    6.5730    4.5418 N   0  0  0  0  0  0  0  0  0  0  0  0
  -12.2879    6.1092    5.7823 C   0  0  0  0  0  0  0  0  0  0  0  0
  -13.6015    6.1643    6.3380 N   0  0  0  0  0  0  0  0  0  0  0  0
  -11.3197    5.5780    6.5348 N   0  0  0  0  0  0  0  0  0  0  0  0
  -10.0270    5.5001    6.0754 C   0  0  0  0  0  0  0  0  0  0  0  0
   -9.7485    5.9640    4.8081 C   0  0  0  0  0  0  0  0  0  0  0  0
  -10.8052    6.5087    4.0231 C   0  0  0  0  0  0  0  0  0  0  0  0
  -10.5395    6.9799    2.7567 O   0  0  0  0  0  0  0  0  0  0  0  0
   -8.3496    5.7470    4.5977 C   0  0  0  0  0  0  0  0  0  0  0  0
   -7.8569    5.1610    5.7719 C   0  0  0  0  0  0  0  0  0  0  0  0
   -8.8661    5.0219    6.6408 N   0  0  0  0  0  0  0  0  0  0  0  0
  1  2  1  0  0  0  0
  1  7  1  0  0  0  0
  2  3  1  0  0  0  0
  2  4  2  0  0  0  0
  4  5  1  0  0  0  0
  5  6  2  0  0  0  0
  5 11  1  0  0  0  0
  6  7  1  0  0  0  0
  6  9  1  0  0  0  0
  7  8  2  0  0  0  0
  9 10  2  0  0  0  0
 10 11  1  0  0  0  0
M  END
>  <CHROM.1>
-10.55074117,5.96019265,5.23336225,-3.07228246,-0.19627632,1.96200224

>  <Name>
ligand

>  <RI>
0

>  <Rbt.Current_Directory>
/home/itssahil/PROJECTS/Mol_Feturizer/New_Systems/rnas/4LVW

>  <Rbt.Executable>
rbdock ($Id: //depot/dev/client3/rdock/2013.1/src/exe/rbdock.cxx#4 $)

>  <Rbt.Library>
libRbt.so (2013.1, Build901 2013/11/27)

>  <Rbt.Parameter_File>
/export/apps/rDock/src/rDock_2013.1_src/data/scripts/dock_solv.prm

>  <Rbt.Receptor>
prm/blind_docking_20.prm

>  <SCORE>
-7.34583

>  <SCORE.INTER>
-7.42765

>  <SCORE.INTER.CONST>
1

>  <SCORE.INTER.POLAR>
0

>  <SCORE.INTER.ROT>
0

>  <SCORE.INTER.SOLV>
3.38505

>  <SCORE.INTER.VDW>
-9.68012

>  <SCORE.INTER.norm>
-0.675241

>  <SCORE.INTRA>
0

>  <SCORE.INTRA.DIHEDRAL>
0

>  <SCORE.INTRA.DIHEDRAL.0>
0

>  <SCORE.INTRA.POLAR>
0

>  <SCORE.INTRA.POLAR.0>
0

>  <SCORE.INTRA.REPUL>
0

>  <SCORE.INTRA.REPUL.0>
0

>  <SCORE.INTRA.SOLV>
0

>  <SCORE.INTRA.SOLV.lig_0>
-29.307

>  <SCORE.INTRA.VDW>
0

>  <SCORE.INTRA.VDW.0>
0

>  <SCORE.INTRA.norm>
0

>  <SCORE.RESTR>
0.0818255

>  <SCORE.RESTR.CAVITY>
0.0818255

>  <SCORE.RESTR.norm>
0.00743868

>  <SCORE.SYSTEM>
0

>  <SCORE.SYSTEM.CONST>
0

>  <SCORE.SYSTEM.DIHEDRAL>
0

>  <SCORE.SYSTEM.SOLV>
0

>  <SCORE.SYSTEM.norm>
0

>  <SCORE.heavy>
11

>  <SCORE.norm>
-0.667802

>  <RMSD>
35.495

$$$$
ligand
 OpenBabel11021811503D
libRbt.so/2013.1/901 2013/11/27
 11 12  0  0  0  0  0  0  0  0999 V2000
  -12.0566    6.5591    4.5010 N   0  0  0  0  0  0  0  0  0  0  0  0
  -12.3014    6.0990    5.7406 C   0  0  0  0  0  0  0  0  0  0  0  0
  -13.6213    6.1513    6.2815 N   0  0  0  0  0  0  0  0  0  0  0  0
  -11.3397    5.5741    6.5058 N   0  0  0  0  0  0  0  0  0  0  0  0
  -10.0416    5.4993    6.0610 C   0  0  0  0  0  0  0  0  0  0  0  0
   -9.7508    5.9596    4.7951 C   0  0  0  0  0  0  0  0  0  0  0  0
  -10.8008    6.4975    3.9964 C   0  0  0  0  0  0  0  0  0  0  0  0
  -10.5228    6.9649    2.7313 O   0  0  0  0  0  0  0  0  0  0  0  0
   -8.3489    5.7470    4.6010 C   0  0  0  0  0  0  0  0  0  0  0  0
   -7.8671    5.1671    5.7828 C   0  0  0  0  0  0  0  0  0  0  0  0
   -8.8854    5.0276    6.6410 N   0  0  0  0  0  0  0  0  0  0  0  0
  1  2  1  0  0  0  0
  1  7  1  0  0  0  0
  2  3  1  0  0  0  0
  2  4  2  0  0  0  0
  4  5  1  0  0  0  0
  5  6  2  0  0  0  0
  5 11  1  0  0  0  0
  6  7  1  0  0  0  0
  6  9  1  0  0  0  0
  7  8  2  0  0  0  0
  9 10  2  0  0  0  0
 10 11  1  0  0  0  0
M  END
>  <CHROM.1>
-10.55773727,5.95436636,5.21147565,-3.06327021,-0.18866771,1.95999338

>  <Name>
ligand

>  <RI>
0

>  <Rbt.Current_Directory>
/home/itssahil/PROJECTS/Mol_Feturizer/New_Systems/rnas/4LVW

>  <Rbt.Executable>
rbdock ($Id: //depot/dev/client3/rdock/2013.1/src/exe/rbdock.cxx#4 $)

>  <Rbt.Library>
libRbt.so (2013.1, Build901 2013/11/27)

>  <Rbt.Parameter_File>
/export/apps/rDock/src/rDock_2013.1_src/data/scripts/dock_solv.prm

>  <Rbt.Receptor>
prm/blind_docking_20.prm

>  <SCORE>
-7.28378

>  <SCORE.INTER>
-7.36563

>  <SCORE.INTER.CONST>
1

>  <SCORE.INTER.POLAR>
0

>  <SCORE.INTER.ROT>
0

>  <SCORE.INTER.SOLV>
3.40606

>  <SCORE.INTER.VDW>
-9.64577

>  <SCORE.INTER.norm>
-0.669602

>  <SCORE.INTRA>
0

>  <SCORE.INTRA.DIHEDRAL>
0

>  <SCORE.INTRA.DIHEDRAL.0>
0

>  <SCORE.INTRA.POLAR>
0

>  <SCORE.INTRA.POLAR.0>
0

>  <SCORE.INTRA.REPUL>
0

>  <SCORE.INTRA.REPUL.0>
0

>  <SCORE.INTRA.SOLV>
0

>  <SCORE.INTRA.SOLV.lig_0>
-29.307

>  <SCORE.INTRA.VDW>
0

>  <SCORE.INTRA.VDW.0>
0

>  <SCORE.INTRA.norm>
0

>  <SCORE.RESTR>
0.0818498

>  <SCORE.RESTR.CAVITY>
0.0818498

>  <SCORE.RESTR.norm>
0.00744089

>  <SCORE.SYSTEM>
0

>  <SCORE.SYSTEM.CONST>
0

>  <SCORE.SYSTEM.DIHEDRAL>
0

>  <SCORE.SYSTEM.SOLV>
0

>  <SCORE.SYSTEM.norm>
0

>  <SCORE.heavy>
11

>  <SCORE.norm>
-0.662161

>  <RMSD>
35.506

$$$$
ligand
 OpenBabel11021811503D
libRbt.so/2013.1/901 2013/11/27
 11 12  0  0  0  0  0  0  0  0999 V2000
  -12.0119    6.6467    4.5263 N   0  0  0  0  0  0  0  0  0  0  0  0
  -12.2762    6.1486    5.7471 C   0  0  0  0  0  0  0  0  0  0  0  0
  -13.6008    6.2020    6.2764 N   0  0  0  0  0  0  0  0  0  0  0  0
  -11.3302    5.5840    6.5035 N   0  0  0  0  0  0  0  0  0  0  0  0
  -10.0288    5.5052    6.0693 C   0  0  0  0  0  0  0  0  0  0  0  0
   -9.7182    6.0037    4.8228 C   0  0  0  0  0  0  0  0  0  0  0  0
  -10.7519    6.5837    4.0324 C   0  0  0  0  0  0  0  0  0  0  0  0
  -10.4540    7.0895    2.7868 O   0  0  0  0  0  0  0  0  0  0  0  0
   -8.3175    5.7772    4.6354 C   0  0  0  0  0  0  0  0  0  0  0  0
   -7.8564    5.1506    5.8016 C   0  0  0  0  0  0  0  0  0  0  0  0
   -8.8855    4.9971    6.6444 N   0  0  0  0  0  0  0  0  0  0  0  0
  1  2  1  0  0  0  0
  1  7  1  0  0  0  0
  2  3  1  0  0  0  0
  2  4  2  0  0  0  0
  4  5  1  0  0  0  0
  5  6  2  0  0  0  0
  5 11  1  0  0  0  0
  6  7  1  0  0  0  0
  6  9  1  0  0  0  0
  7  8  2  0  0  0  0
  9 10  2  0  0  0  0
 10 11  1  0  0  0  0
M  END
>  <CHROM.1>
-10.52936026,5.99627327,5.23068563,-3.04786987,-0.19800196,1.99687973

>  <Name>
ligand

>  <RI>
0

>  <Rbt.Current_Directory>
/home/itssahil/PROJECTS/Mol_Feturizer/New_Systems/rnas/4LVW

>  <Rbt.Executable>
rbdock ($Id: //depot/dev/client3/rdock/2013.1/src/exe/rbdock.cxx#4 $)

>  <Rbt.Library>
libRbt.so (2013.1, Build901 2013/11/27)

>  <Rbt.Parameter_File>
/export/apps/rDock/src/rDock_2013.1_src/data/scripts/dock_solv.prm

>  <Rbt.Receptor>
prm/blind_docking_20.prm

>  <SCORE>
-7.29959

>  <SCORE.INTER>
-7.37022

>  <SCORE.INTER.CONST>
1

>  <SCORE.INTER.POLAR>
0

>  <SCORE.INTER.ROT>
0

>  <SCORE.INTER.SOLV>
3.53844

>  <SCORE.INTER.VDW>
-9.69296

>  <SCORE.INTER.norm>
-0.67002

>  <SCORE.INTRA>
0

>  <SCORE.INTRA.DIHEDRAL>
0

>  <SCORE.INTRA.DIHEDRAL.0>
0

>  <SCORE.INTRA.POLAR>
0

>  <SCORE.INTRA.POLAR.0>
0

>  <SCORE.INTRA.REPUL>
0

>  <SCORE.INTRA.REPUL.0>
0

>  <SCORE.INTRA.SOLV>
0

>  <SCORE.INTRA.SOLV.lig_0>
-29.307

>  <SCORE.INTRA.VDW>
0

>  <SCORE.INTRA.VDW.0>
0

>  <SCORE.INTRA.norm>
0

>  <SCORE.RESTR>
0.0706358

>  <SCORE.RESTR.CAVITY>
0.0706358

>  <SCORE.RESTR.norm>
0.00642143

>  <SCORE.SYSTEM>
0

>  <SCORE.SYSTEM.CONST>
0

>  <SCORE.SYSTEM.DIHEDRAL>
0

>  <SCORE.SYSTEM.SOLV>
0

>  <SCORE.SYSTEM.norm>
0

>  <SCORE.heavy>
11

>  <SCORE.norm>
-0.663599

>  <RMSD>
35.515

$$$$
ligand
 OpenBabel11021811503D
libRbt.so/2013.1/901 2013/11/27
 11 12  0  0  0  0  0  0  0  0999 V2000
  -13.5466   15.3172   10.5421 N   0  0  0  0  0  0  0  0  0  0  0  0
  -13.5882   14.2487   11.3575 C   0  0  0  0  0  0  0  0  0  0  0  0
  -14.3322   13.0880   10.9877 N   0  0  0  0  0  0  0  0  0  0  0  0
  -12.9406   14.2219   12.5261 N   0  0  0  0  0  0  0  0  0  0  0  0
  -12.2124   15.3043   12.9580 C   0  0  0  0  0  0  0  0  0  0  0  0
  -12.1446   16.4183   12.1498 C   0  0  0  0  0  0  0  0  0  0  0  0
  -12.8312   16.4102   10.9015 C   0  0  0  0  0  0  0  0  0  0  0  0
  -12.7751   17.5186   10.0863 O   0  0  0  0  0  0  0  0  0  0  0  0
  -11.3221   17.3662   12.8377 C   0  0  0  0  0  0  0  0  0  0  0  0
  -10.9408   16.7609   14.0433 C   0  0  0  0  0  0  0  0  0  0  0  0
  -11.4791   15.5362   14.1001 N   0  0  0  0  0  0  0  0  0  0  0  0
  1  2  1  0  0  0  0
  1  7  1  0  0  0  0
  2  3  1  0  0  0  0
  2  4  2  0  0  0  0
  4  5  1  0  0  0  0
  5  6  2  0  0  0  0
  5 11  1  0  0  0  0
  6  7  1  0  0  0  0
  6  9  1  0  0  0  0
  7  8  2  0  0  0  0
  9 10  2  0  0  0  0
 10 11  1  0  0  0  0
M  END
>  <CHROM.1>
-12.59053687,15.64363062,11.99004178,3.08883227,0.94603234,2.44419215

>  <Name>
ligand

>  <RI>
0

>  <Rbt.Current_Directory>
/home/itssahil/PROJECTS/Mol_Feturizer/New_Systems/rnas/4LVW

>  <Rbt.Executable>
rbdock ($Id: //depot/dev/client3/rdock/2013.1/src/exe/rbdock.cxx#4 $)

>  <Rbt.Library>
libRbt.so (2013.1, Build901 2013/11/27)

>  <Rbt.Parameter_File>
/export/apps/rDock/src/rDock_2013.1_src/data/scripts/dock_solv.prm

>  <Rbt.Receptor>
prm/blind_docking_40.prm

>  <SCORE>
-8.63124

>  <SCORE.INTER>
-8.63124

>  <SCORE.INTER.CONST>
1

>  <SCORE.INTER.POLAR>
0

>  <SCORE.INTER.ROT>
0

>  <SCORE.INTER.SOLV>
4.96542

>  <SCORE.INTER.VDW>
-11.0093

>  <SCORE.INTER.norm>
-0.784659

>  <SCORE.INTRA>
0

>  <SCORE.INTRA.DIHEDRAL>
0

>  <SCORE.INTRA.DIHEDRAL.0>
0

>  <SCORE.INTRA.POLAR>
0

>  <SCORE.INTRA.POLAR.0>
0

>  <SCORE.INTRA.REPUL>
0

>  <SCORE.INTRA.REPUL.0>
0

>  <SCORE.INTRA.SOLV>
0

>  <SCORE.INTRA.SOLV.lig_0>
-29.307

>  <SCORE.INTRA.VDW>
0

>  <SCORE.INTRA.VDW.0>
0

>  <SCORE.INTRA.norm>
0

>  <SCORE.RESTR>
0

>  <SCORE.RESTR.CAVITY>
0

>  <SCORE.RESTR.norm>
0

>  <SCORE.SYSTEM>
0

>  <SCORE.SYSTEM.CONST>
0

>  <SCORE.SYSTEM.DIHEDRAL>
0

>  <SCORE.SYSTEM.SOLV>
0

>  <SCORE.SYSTEM.norm>
0

>  <SCORE.heavy>
11

>  <SCORE.norm>
-0.784659

>  <RMSD>
41.297

$$$$
