@<TRIPOS>MOLECULE
4LVW_rdock.pdb
 1913 2142 0 0 0
SMALL
GASTEIGER

@<TRIPOS>ATOM
      1  P         11.3060  -45.1590   26.1760 P.3     1  G1          0.1280
      2  C5'       12.8410  -43.8750   24.4790 C.3     1  G1          0.1795
      3  O5'       11.6130  -44.5440   24.7370 O.3     1  G1         -0.3259
      4  C4'       13.5110  -44.3940   23.2260 C.3     1  G1          0.1772
      5  O4'       12.9710  -45.6990   22.8850 O.3     1  G1         -0.3307
      6  C3'       13.3130  -43.5530   21.9720 C.3     1  G1          0.1860
      7  O3'       14.2610  -42.5020   21.8770 O.3     1  G1         -0.3112
      8  C2'       13.4370  -44.5740   20.8470 C.3     1  G1          0.2309
      9  O2'       14.8000  -44.8370   20.5570 O.3     1  G1         -0.2156
     10  C1'       12.8230  -45.8200   21.4900 C.3     1  G1          0.2408
     11  N1         9.1550  -45.9340   17.9720 N.ar    1  G1         -0.1709
     12  C2        10.5100  -45.7810   17.8100 C.ar    1  G1          0.2606
     13  N2        10.9560  -45.6480   16.5530 N.pl3   1  G1         -0.0859
     14  N3        11.3770  -45.7660   18.8020 N.ar    1  G1         -0.1918
     15  C4        10.7620  -45.9150   19.9890 C.ar    1  G1          0.1723
     16  C5         9.4170  -46.0680   20.2610 C.ar    1  G1          0.1748
     17  C6         8.4960  -46.0770   19.1880 C.ar    1  G1          0.3023
     18  O6         7.2650  -46.2120   19.2280 O.2     1  G1         -0.2633
     19  N7         9.1940  -46.1960   21.6250 N.ar    1  G1         -0.2173
     20  C8        10.3890  -46.1110   22.1420 C.ar    1  G1          0.1817
     21  N9        11.3830  -45.9410   21.2080 N.ar    1  G1         -0.2693
     22  OP1       12.0990  -44.3550   27.1420 O.3     1  G1         -0.1955
     23  OP2        9.8330  -45.2980   26.3450 O.co2   1  G1         -0.7863
     24  P         13.7930  -41.0060   21.5130 P.3     2  G2          0.2141
     25  C5'       14.5950  -41.2790   19.0350 C.3     2  G2          0.1812
     26  O5'       13.5320  -41.0530   19.9460 O.3     2  G2         -0.3114
     27  C4'       14.0720  -41.3290   17.6250 C.3     2  G2          0.1773
     28  O4'       13.2800  -42.5320   17.4420 O.3     2  G2         -0.3307
     29  C3'       13.1180  -40.2080   17.2540 C.3     2  G2          0.1860
     30  O3'       13.7790  -38.9990   16.9270 O.3     2  G2         -0.3112
     31  C2'       12.3260  -40.8180   16.1080 C.3     2  G2          0.2309
     32  O2'       13.0930  -40.8180   14.9140 O.3     2  G2         -0.2156
     33  C1'       12.1840  -42.2610   16.5920 C.3     2  G2          0.2408
     34  N1         7.1530  -42.8090   16.3420 N.ar    2  G2         -0.1709
     35  C2         8.0810  -42.6490   15.3390 C.ar    2  G2          0.2606
     36  N2         7.6040  -42.6330   14.0840 N.pl3   2  G2         -0.0859
     37  N3         9.3830  -42.5160   15.5390 N.ar    2  G2         -0.1918
     38  C4         9.6830  -42.5560   16.8490 C.ar    2  G2          0.1723
     39  C5         8.8430  -42.7070   17.9330 C.ar    2  G2          0.1748
     40  C6         7.4470  -42.8510   17.7030 C.ar    2  G2          0.3023
     41  O6         6.5300  -42.9980   18.5210 O.2     2  G2         -0.2633
     42  N7         9.5740  -42.6920   19.1140 N.ar    2  G2         -0.2173
     43  C8        10.8170  -42.5300   18.7290 C.ar    2  G2          0.1817
     44  N9        10.9460  -42.4470   17.3660 N.ar    2  G2         -0.2693
     45  OP1       14.9370  -40.0810   21.7380 O.2     2  G2         -0.5172
     46  OP2       12.4830  -40.7780   22.1750 O.co2   2  G2         -0.4373
     47  P         13.0520  -37.5890   17.1910 P.3     3  A3          0.2141
     48  C5'       12.0150  -37.3510   14.8010 C.3     3  A3          0.1812
     49  O5'       11.8150  -37.6020   16.1830 O.3     3  A3         -0.3114
     50  C4'       10.7710  -37.6080   13.9820 C.3     3  A3          0.1773
     51  O4'       10.2310  -38.9250   14.2800 O.3     3  A3         -0.3307
     52  C3'        9.5850  -36.6860   14.2110 C.3     3  A3          0.1860
     53  O3'        9.7150  -35.3920   13.6430 O.3     3  A3         -0.3112
     54  C2'        8.4430  -37.5080   13.6330 C.3     3  A3          0.2309
     55  O2'        8.5040  -37.5250   12.2150 O.3     3  A3         -0.2156
     56  C1'        8.8210  -38.8970   14.1410 C.3     3  A3          0.2408
     57  N1         4.4340  -39.9720   16.4820 N.ar    3  A3         -0.2040
     58  C2         4.7670  -39.8200   15.1920 C.ar    3  A3          0.2016
     59  N3         5.9540  -39.5400   14.6630 N.ar    3  A3         -0.2048
     60  C4         6.8780  -39.4070   15.6320 C.ar    3  A3          0.1692
     61  C5         6.6990  -39.5320   16.9970 C.ar    3  A3          0.1518
     62  C6         5.3970  -39.8300   17.4310 C.ar    3  A3          0.1919
     63  N6         5.0670  -39.9850   18.7170 N.pl3   3  A3         -0.1054
     64  N7         7.9000  -39.3220   17.6720 N.ar    3  A3         -0.2193
     65  C8         8.7620  -39.0800   16.7080 C.ar    3  A3          0.1816
     66  N9         8.2060  -39.1310   15.4540 N.ar    3  A3         -0.2693
     67  OP1       14.0040  -36.5400   16.7360 O.2     3  A3         -0.5172
     68  OP2       12.5190  -37.5560   18.5850 O.co2   3  A3         -0.4373
     69  P          9.0410  -34.1330   14.3890 P.3     4  G4          0.2141
     70  C5'        6.9750  -34.3810   12.7820 C.3     4  G4          0.1812
     71  O5'        7.4770  -34.2980   14.1060 O.3     4  G4         -0.3114
     72  C4'        5.5410  -34.8550   12.7510 C.3     4  G4          0.1773
     73  O4'        5.4020  -36.0940   13.4890 O.3     4  G4         -0.3307
     74  C3'        4.5030  -33.9440   13.3820 C.3     4  G4          0.1860
     75  O3'        4.1430  -32.8560   12.5450 O.3     4  G4         -0.3112
     76  C2'        3.3500  -34.9020   13.6540 C.3     4  G4          0.2309
     77  O2'        2.6280  -35.1540   12.4610 O.3     4  G4         -0.2156
     78  C1'        4.0980  -36.1830   14.0320 C.3     4  G4          0.2408
     79  N1         1.6620  -37.5150   18.3300 N.ar    4  G4         -0.1709
     80  C2         1.1880  -37.4550   17.0360 C.ar    4  G4          0.2606
     81  N2        -0.1040  -37.7940   16.8700 N.pl3   4  G4         -0.0859
     82  N3         1.9190  -37.0940   15.9860 N.ar    4  G4         -0.1918
     83  C4         3.1850  -36.7890   16.3400 C.ar    4  G4          0.1723
     84  C5         3.7480  -36.8210   17.6010 C.ar    4  G4          0.1748
     85  C6         2.9600  -37.2120   18.7100 C.ar    4  G4          0.3023
     86  O6         3.2950  -37.2990   19.9030 O.2     4  G4         -0.2633
     87  N7         5.0810  -36.4350   17.5540 N.ar    4  G4         -0.2173
     88  C8         5.2980  -36.1780   16.2880 C.ar    4  G4          0.1817
     89  N9         4.1910  -36.3710   15.4950 N.ar    4  G4         -0.2693
     90  OP1        9.5460  -32.8930   13.7460 O.2     4  G4         -0.5172
     91  OP2        9.2100  -34.3200   15.8550 O.co2   4  G4         -0.4373
     92  P          3.5170  -31.5100   13.1720 P.3     5  A5          0.2141
     93  C5'        1.1010  -32.2630   12.4070 C.3     5  A5          0.1812
     94  O5'        1.9850  -31.8750   13.4540 O.3     5  A5         -0.3114
     95  C4'       -0.2390  -32.7160   12.9440 C.3     5  A5          0.1773
     96  O4'       -0.0640  -33.8720   13.7960 O.3     5  A5         -0.3307
     97  C3'       -0.9780  -31.7110   13.8150 C.3     5  A5          0.1860
     98  O3'       -1.7420  -30.8170   13.0320 O.3     5  A5         -0.3112
     99  C2'       -1.8490  -32.5870   14.7060 C.3     5  A5          0.2309
    100  O2'       -3.0400  -32.9510   14.0250 O.3     5  A5         -0.2156
    101  C1'       -0.9960  -33.8420   14.8560 C.3     5  A5          0.2408
    102  N1        -1.0430  -35.3760   19.7960 N.ar    5  A5         -0.2040
    103  C2        -1.9860  -35.3840   18.8470 C.ar    5  A5          0.2016
    104  N3        -1.9180  -34.9620   17.5830 N.ar    5  A5         -0.2048
    105  C4        -0.7010  -34.4680   17.3130 C.ar    5  A5          0.1692
    106  C5         0.3670  -34.3880   18.1860 C.ar    5  A5          0.1518
    107  C6         0.1670  -34.8700   19.4930 C.ar    5  A5          0.1919
    108  N6         1.1160  -34.8540   20.4290 N.pl3   5  A5         -0.1054
    109  N7         1.4720  -33.8290   17.5670 N.ar    5  A5         -0.2193
    110  C8         1.0520  -33.5840   16.3470 C.ar    5  A5          0.1816
    111  N9        -0.2570  -33.9280   16.1290 N.ar    5  A5         -0.2693
    112  OP1        3.6060  -30.4850   12.1060 O.2     5  A5         -0.5172
    113  OP2        4.1620  -31.2280   14.4810 O.co2   5  A5         -0.4373
    114  P         -1.7380  -29.2410   13.3200 P.3     6  G6          0.2141
    115  C5'       -3.9560  -29.4990   14.7140 C.3     6  G6          0.1812
    116  O5'       -2.6010  -29.0750   14.6500 O.3     6  G6         -0.3114
    117  C4'       -4.3830  -29.6780   16.1500 C.3     6  G6          0.1773
    118  O4'       -3.7210  -30.8430   16.6990 O.3     6  G6         -0.3307
    119  C3'       -3.9830  -28.5560   17.0970 C.3     6  G6          0.1860
    120  O3'       -4.8530  -27.4400   17.0510 O.3     6  G6         -0.3112
    121  C2'       -3.9650  -29.2570   18.4480 C.3     6  G6          0.2309
    122  O2'       -5.2820  -29.4460   18.9260 O.3     6  G6         -0.2156
    123  C1'       -3.4090  -30.6290   18.0610 C.3     6  G6          0.2408
    124  N1         0.4260  -32.0110   21.1120 N.ar    6  G6         -0.1709
    125  C2        -0.9330  -32.1580   21.2840 C.ar    6  G6          0.2606
    126  N2        -1.3350  -32.7470   22.4270 N.pl3   6  G6         -0.0859
    127  N3        -1.8390  -31.7550   20.4030 N.ar    6  G6         -0.1918
    128  C4        -1.2730  -31.1750   19.3230 C.ar    6  G6          0.1723
    129  C5         0.0640  -30.9740   19.0560 C.ar    6  G6          0.1748
    130  C6         1.0300  -31.4160   20.0030 C.ar    6  G6          0.3023
    131  O6         2.2680  -31.3160   19.9290 O.2     6  G6         -0.2633
    132  N7         0.2340  -30.3390   17.8240 N.ar    6  G6         -0.2173
    133  C8        -0.9850  -30.1710   17.3790 C.ar    6  G6          0.1817
    134  N9        -1.9460  -30.6680   18.2310 N.ar    6  G6         -0.2693
    135  OP1       -2.5110  -28.6580   12.1920 O.2     6  G6         -0.5172
    136  OP2       -0.3470  -28.7960   13.6300 O.co2   6  G6         -0.4373
    137  P         -4.3120  -25.9490   17.3350 P.3     7  U7          0.2141
    138  C5'       -5.6140  -25.8910   19.6170 C.3     7  U7          0.1812
    139  O5'       -4.3850  -25.7670   18.9230 O.3     7  U7         -0.3114
    140  C4'       -5.5430  -25.2870   21.0000 C.3     7  U7          0.1773
    141  O4'       -4.3580  -25.7510   21.7040 O.3     7  U7         -0.3307
    142  C3'       -5.4260  -23.7760   21.0860 C.3     7  U7          0.1860
    143  O3'       -6.6390  -23.1010   20.8520 O.3     7  U7         -0.3112
    144  C2'       -4.9110  -23.5940   22.5030 C.3     7  U7          0.2309
    145  O2'       -5.9500  -23.8630   23.4270 O.3     7  U7         -0.2156
    146  C1'       -3.9020  -24.7380   22.5790 C.3     7  U7          0.2420
    147  N1        -2.5810  -24.2690   22.1190 N.ar    7  U7         -0.2534
    148  C2        -1.9040  -23.4480   22.9880 C.ar    7  U7          0.3546
    149  O2        -2.3400  -23.1380   24.0850 O.2     7  U7         -0.2443
    150  N3        -0.6960  -23.0140   22.5390 N.ar    7  U7         -0.1530
    151  C4        -0.1180  -23.2940   21.3180 C.ar    7  U7          0.2846
    152  O4         0.9850  -22.8160   21.0720 O.2     7  U7         -0.2650
    153  C5        -0.8850  -24.1350   20.4610 C.ar    7  U7          0.0814
    154  C6        -2.0710  -24.5820   20.8790 C.ar    7  U7          0.0870
    155  OP1       -5.3310  -25.0420   16.7450 O.2     7  U7         -0.5172
    156  OP2       -2.8900  -25.7650   16.9320 O.co2   7  U7         -0.4373
    157  P         -6.6150  -21.5960   20.2780 P.3     8  A8          0.2141
    158  C5'       -6.7320  -20.6660   22.7380 C.3     8  A8          0.1812
    159  O5'       -6.0530  -20.7240   21.4920 O.3     8  A8         -0.3114
    160  C4'       -5.9720  -19.8170   23.7260 C.3     8  A8          0.1773
    161  O4'       -4.6620  -20.3900   23.9640 O.3     8  A8         -0.3307
    162  C3'       -5.6750  -18.4000   23.2700 C.3     8  A8          0.1860
    163  O3'       -6.7710  -17.5320   23.4600 O.3     8  A8         -0.3112
    164  C2'       -4.4460  -18.0290   24.0900 C.3     8  A8          0.2309
    165  O2'       -4.8160  -17.7120   25.4230 O.3     8  A8         -0.2156
    166  C1'       -3.7040  -19.3630   24.1310 C.3     8  A8          0.2408
    167  N1         1.0930  -18.3170   22.5570 N.ar    8  A8         -0.2040
    168  C2         0.4460  -17.9940   23.6790 C.ar    8  A8          0.2016
    169  N3        -0.8000  -18.2870   24.0220 N.ar    8  A8         -0.2048
    170  C4        -1.4090  -19.0050   23.0680 C.ar    8  A8          0.1692
    171  C5        -0.8670  -19.4110   21.8620 C.ar    8  A8          0.1518
    172  C6         0.4610  -19.0510   21.6140 C.ar    8  A8          0.1919
    173  N6         1.1100  -19.3780   20.4820 N.pl3   8  A8         -0.1054
    174  N7        -1.7880  -20.1440   21.1190 N.ar    8  A8         -0.2193
    175  C8        -2.8570  -20.1630   21.8800 C.ar    8  A8          0.1816
    176  N9        -2.6980  -19.4890   23.0660 N.ar    8  A8         -0.2693
    177  OP1       -8.0410  -21.2380   20.0520 O.3     8  A8         -0.4373
    178  OP2       -5.5870  -21.4670   19.2060 O.co2   8  A8         -0.5172
    179  P         -7.0570  -16.3770   22.3810 P.3     9  G9          0.2141
    180  C5'       -5.1920  -14.7390   21.5050 C.3     9  G9          0.1812
    181  O5'       -5.8070  -15.4190   22.5800 O.3     9  G9         -0.3114
    182  C4'       -3.7000  -14.7550   21.6820 C.3     9  G9          0.1773
    183  O4'       -3.2300  -16.1260   21.6060 O.3     9  G9         -0.3307
    184  C3'       -2.8960  -14.0290   20.6190 C.3     9  G9          0.1860
    185  O3'       -2.7990  -12.6400   20.8610 O.3     9  G9         -0.3112
    186  C2'       -1.5550  -14.7430   20.6750 C.3     9  G9          0.2309
    187  O2'       -0.8240  -14.3130   21.8120 O.3     9  G9         -0.2156
    188  C1'       -1.9990  -16.1760   20.9180 C.3     9  G9          0.2408
    189  N1         0.0970  -18.0810   16.6730 N.ar    9  G9         -0.1709
    190  C2         0.6740  -17.3470   17.6830 C.ar    9  G9          0.2606
    191  N2         1.9760  -17.0910   17.5470 N.pl3   9  G9         -0.0859
    192  N3         0.0300  -16.8860   18.7480 N.ar    9  G9         -0.1918
    193  C4        -1.2670  -17.2420   18.7160 C.ar    9  G9          0.1723
    194  C5        -1.9420  -17.9680   17.7630 C.ar    9  G9          0.1748
    195  C6        -1.2430  -18.4520   16.6240 C.ar    9  G9          0.3023
    196  O6        -1.6870  -19.1210   15.6720 O.2     9  G9         -0.2633
    197  N7        -3.2780  -18.1150   18.1010 N.ar    9  G9         -0.2173
    198  C8        -3.3840  -17.4820   19.2400 C.ar    9  G9          0.1817
    199  N9        -2.2060  -16.9250   19.6660 N.ar    9  G9         -0.2693
    200  OP1       -8.2670  -15.6580   22.8690 O.3     9  G9         -0.4373
    201  OP2       -7.0110  -16.9430   21.0060 O.co2   9  G9         -0.5172
    202  P         -2.8020  -11.6250   19.6200 P.3    10  A10         0.2141
    203  C5'       -0.1660  -11.6580   19.6400 C.3    10  A10         0.1812
    204  O5'       -1.3850  -11.8630   18.9390 O.3    10  A10        -0.3114
    205  C4'        1.0100  -11.9860   18.7520 C.3    10  A10         0.1773
    206  O4'        1.0290  -13.4030   18.4440 O.3    10  A10        -0.3307
    207  C3'        0.9680  -11.3210   17.3900 C.3    10  A10         0.1860
    208  O3'        1.4200   -9.9880   17.4450 O.3    10  A10        -0.3112
    209  C2'        1.8290  -12.2430   16.5380 C.3    10  A10         0.2309
    210  O2'        3.2050  -12.0150   16.8000 O.3    10  A10        -0.2156
    211  C1'        1.4600  -13.6050   17.1130 C.3    10  A10         0.2408
    212  N1        -0.0440  -16.1770   12.8830 N.ar   10  A10        -0.2040
    213  C2         1.1380  -15.6700   13.2570 C.ar   10  A10         0.2016
    214  N3         1.4740  -15.0130   14.3600 N.ar   10  A10        -0.2048
    215  C4         0.4080  -14.8760   15.1620 C.ar   10  A10         0.1692
    216  C5        -0.8750  -15.3420   14.9180 C.ar   10  A10         0.1518
    217  C6        -1.0990  -16.0300   13.7090 C.ar   10  A10         0.1919
    218  N6        -2.2800  -16.5360   13.3350 N.pl3  10  A10        -0.1054
    219  N7        -1.7130  -15.0180   15.9740 N.ar   10  A10        -0.2193
    220  C8        -0.9340  -14.3740   16.8110 C.ar   10  A10         0.1816
    221  N9         0.3600  -14.2480   16.3800 N.ar   10  A10        -0.2693
    222  OP1       -2.8540  -10.2360   20.1400 O.3    10  A10        -0.4373
    223  OP2       -3.8110  -12.1380   18.6600 O.co2  10  A10        -0.5172
    224  P          0.6890   -8.8570   16.5750 P.3    11  U11         0.2141
    225  C5'        2.6620   -9.0390   14.8850 C.3    11  U11         0.1812
    226  O5'        1.2670   -9.1140   15.1180 O.3    11  U11        -0.3114
    227  C4'        3.0050   -9.5910   13.5300 C.3    11  U11         0.1773
    228  O4'        2.7120  -11.0090   13.4990 O.3    11  U11        -0.3307
    229  C3'        2.1930   -9.0370   12.3770 C.3    11  U11         0.1860
    230  O3'        2.6200   -7.7570   11.9520 O.3    11  U11        -0.3112
    231  C2'        2.3440  -10.1270   11.3290 C.3    11  U11         0.2309
    232  O2'        3.6260  -10.0570   10.7280 O.3    11  U11        -0.2156
    233  C1'        2.2950  -11.3820   12.2020 C.3    11  U11         0.2420
    234  N1         0.9290  -11.9330   12.2820 N.ar   11  U11        -0.2534
    235  C2         0.5160  -12.7170   11.2330 C.ar   11  U11         0.3546
    236  O2         1.2330  -12.9660   10.2780 O.2    11  U11        -0.2443
    237  N3        -0.7600  -13.2040   11.3410 N.ar   11  U11        -0.1530
    238  C4        -1.6410  -12.9820   12.3780 C.ar   11  U11         0.2846
    239  O4        -2.7610  -13.4920   12.3270 O.2    11  U11        -0.2650
    240  C5        -1.1440  -12.1490   13.4270 C.ar   11  U11         0.0814
    241  C6         0.0970  -11.6650   13.3440 C.ar   11  U11         0.0870
    242  OP1        1.2350   -7.5900   17.0930 O.3    11  U11        -0.4373
    243  OP2       -0.7760   -9.0980   16.4910 O.co2  11  U11        -0.5172
    244  P          1.5590   -6.7240   11.3250 P.3    12  G12         0.2141
    245  C5'        2.2070   -7.5310    8.9140 C.3    12  G12         0.1812
    246  O5'        1.2060   -7.3550    9.9040 O.3    12  G12        -0.3114
    247  C4'        1.6930   -8.3480    7.7600 C.3    12  G12         0.1773
    248  O4'        1.3130   -9.6640    8.2240 O.3    12  G12        -0.3307
    249  C3'        0.4400   -7.8270    7.0800 C.3    12  G12         0.1860
    250  O3'        0.7170   -6.7730    6.1720 O.3    12  G12        -0.3112
    251  C2'       -0.1190   -9.0810    6.4170 C.3    12  G12         0.2309
    252  O2'        0.5800   -9.3620    5.2160 O.3    12  G12        -0.2156
    253  C1'        0.2450  -10.1580    7.4430 C.3    12  G12         0.2408
    254  N1        -4.0420  -12.8320    7.8600 N.ar   12  G12        -0.1709
    255  C2        -3.1740  -12.7150    6.8040 C.ar   12  G12         0.2606
    256  N2        -3.4940  -13.4150    5.7100 N.pl3  12  G12        -0.0859
    257  N3        -2.0760  -11.9760    6.8250 N.ar   12  G12        -0.1918
    258  C4        -1.9160  -11.3500    8.0080 C.ar   12  G12         0.1723
    259  C5        -2.7210  -11.3920    9.1280 C.ar   12  G12         0.1748
    260  C6        -3.8980  -12.1920    9.0910 C.ar   12  G12         0.3023
    261  O6        -4.7530  -12.3750    9.9710 O.2    12  G12        -0.2633
    262  N7        -2.1930  -10.5970   10.1350 N.ar   12  G12        -0.2173
    263  C8        -1.1030  -10.0960    9.6190 C.ar   12  G12         0.1817
    264  N9        -0.8810  -10.5110    8.3290 N.ar   12  G12        -0.2693
    265  OP1        2.2680   -5.4360   11.1310 O.2    12  G12        -0.5172
    266  OP2        0.3040   -6.7640   12.1140 O.co2  12  G12        -0.4373
    267  P         -0.3750   -5.6330    5.8600 P.3    13  A13         0.2141
    268  C5'       -0.8400   -6.8070    3.5680 C.3    13  A13         0.1812
    269  O5'       -1.3460   -6.3170    4.8020 O.3    13  A13        -0.3114
    270  C4'       -1.8250   -7.7190    2.8760 C.3    13  A13         0.1773
    271  O4'       -1.9890   -8.9490    3.6300 O.3    13  A13        -0.3307
    272  C3'       -3.2400   -7.1870    2.7350 C.3    13  A13         0.1860
    273  O3'       -3.3770   -6.2590    1.6710 O.3    13  A13        -0.3112
    274  C2'       -4.0590   -8.4640    2.5620 C.3    13  A13         0.2309
    275  O2'       -3.9510   -8.9580    1.2360 O.3    13  A13        -0.2156
    276  C1'       -3.3170   -9.4250    3.4960 C.3    13  A13         0.2408
    277  N1        -7.1640  -11.2680    6.4560 N.ar   13  A13        -0.2040
    278  C2        -6.8960  -11.4110    5.1490 C.ar   13  A13         0.2016
    279  N3        -5.8850  -10.9110    4.4430 N.ar   13  A13        -0.2048
    280  C4        -5.0730  -10.1700    5.2180 C.ar   13  A13         0.1692
    281  C5        -5.2210   -9.9330    6.5760 C.ar   13  A13         0.1518
    282  C6        -6.3300  -10.5200    7.2140 C.ar   13  A13         0.1919
    283  N6        -6.6040  -10.3780    8.5180 N.pl3  13  A13        -0.1054
    284  N7        -4.1950   -9.1260    7.0490 N.ar   13  A13        -0.2193
    285  C8        -3.4660   -8.8960    5.9830 C.ar   13  A13         0.1816
    286  N9        -3.9320   -9.4950    4.8390 N.ar   13  A13        -0.2693
    287  OP1        0.3340   -4.5240    5.1730 O.2    13  A13        -0.5172
    288  OP2       -1.1560   -5.3350    7.0870 O.co2  13  A13        -0.4373
    289  P         -4.3880   -5.0170    1.8090 P.3    14  U14         0.2141
    290  C5'       -6.2540   -6.2410    0.4520 C.3    14  U14         0.1812
    291  O5'       -5.8230   -5.7000    1.6920 O.3    14  U14        -0.3114
    292  C4'       -7.4250   -7.1800    0.6130 C.3    14  U14         0.1773
    293  O4'       -7.1330   -8.1840    1.6220 O.3    14  U14        -0.3307
    294  C3'       -8.7250   -6.5600    1.0920 C.3    14  U14         0.1860
    295  O3'       -9.4350   -5.8870    0.0700 O.3    14  U14        -0.3112
    296  C2'       -9.4710   -7.7610    1.6470 C.3    14  U14         0.2309
    297  O2'      -10.0180   -8.5310    0.5880 O.3    14  U14        -0.2156
    298  C1'       -8.3270   -8.5530    2.2860 C.3    14  U14         0.2420
    299  N1        -8.1920   -8.2490    3.7320 N.ar   14  U14        -0.2534
    300  C2        -9.1440   -8.7720    4.5870 C.ar   14  U14         0.3546
    301  O2       -10.0700   -9.4690    4.2100 O.2    14  U14        -0.2443
    302  N3        -8.9810   -8.4530    5.9130 N.ar   14  U14        -0.1530
    303  C4        -7.9830   -7.6830    6.4610 C.ar   14  U14         0.2846
    304  O4        -7.9790   -7.5000    7.6740 O.2    14  U14        -0.2650
    305  C5        -7.0310   -7.1710    5.5240 C.ar   14  U14         0.0814
    306  C6        -7.1700   -7.4650    4.2240 C.ar   14  U14         0.0870
    307  OP1       -4.1810   -4.1360    0.6280 O.2    14  U14        -0.5172
    308  OP2       -4.2520   -4.4230    3.1610 O.co2  14  U14        -0.4373
    309  P        -10.2700   -4.5620    0.4200 P.3    15  U15         0.2141
    310  C5'      -12.5000   -5.9300    0.6120 C.3    15  U15         0.1812
    311  O5'      -11.5370   -5.0900    1.2240 O.3    15  U15        -0.3114
    312  C4'      -13.4530   -6.4910    1.6360 C.3    15  U15         0.1773
    313  O4'      -12.7120   -7.2540    2.6200 O.3    15  U15        -0.3307
    314  C3'      -14.2170   -5.4710    2.4670 C.3    15  U15         0.1860
    315  O3'      -15.3390   -4.9290    1.7910 O.3    15  U15        -0.3112
    316  C2'      -14.5760   -6.2660    3.7150 C.3    15  U15         0.2309
    317  O2'      -15.6740   -7.1280    3.4620 O.3    15  U15        -0.2156
    318  C1'      -13.3240   -7.1300    3.8880 C.3    15  U15         0.2420
    319  N1       -12.3500   -6.5390    4.8380 N.ar   15  U15        -0.2534
    320  C2       -12.6190   -6.7130    6.1770 C.ar   15  U15         0.3546
    321  O2       -13.6110   -7.3090    6.5520 O.2    15  U15        -0.2443
    322  N3       -11.7000   -6.1660    7.0400 N.ar   15  U15        -0.1530
    323  C4       -10.5500   -5.4830    6.6920 C.ar   15  U15         0.2846
    324  O4        -9.8060   -5.0440    7.5720 O.2    15  U15        -0.2650
    325  C5       -10.3370   -5.3480    5.2820 C.ar   15  U15         0.0814
    326  C6       -11.2220   -5.8700    4.4280 C.ar   15  U15         0.0870
    327  OP1      -10.7290   -3.9800   -0.8710 O.2    15  U15        -0.5172
    328  OP2       -9.4760   -3.7530    1.3820 O.co2  15  U15        -0.4373
    329  P        -15.7650   -3.3950    2.0180 P.3    16  C16         0.2141
    330  C5'      -17.7900   -4.2320    3.4560 C.3    16  C16         0.1812
    331  O5'      -16.6220   -3.4250    3.3640 O.3    16  C16        -0.3114
    332  C4'      -18.2010   -4.4840    4.8870 C.3    16  C16         0.1773
    333  O4'      -17.1860   -5.2630    5.5730 O.3    16  C16        -0.3307
    334  C3'      -18.3790   -3.2580    5.7670 C.3    16  C16         0.1860
    335  O3'      -19.6230   -2.6100    5.5650 O.3    16  C16        -0.3112
    336  C2'      -18.2160   -3.8370    7.1650 C.3    16  C16         0.2309
    337  O2'      -19.4010   -4.5080    7.5600 O.3    16  C16        -0.2156
    338  C1'      -17.1280   -4.8840    6.9330 C.3    16  C16         0.2420
    339  N1       -15.7820   -4.3410    7.2230 N.ar   16  C16        -0.2535
    340  C2       -15.3230   -4.3650    8.5400 C.ar   16  C16         0.3532
    341  O2       -16.0450   -4.8510    9.4270 O.2    16  C16        -0.2443
    342  N3       -14.1010   -3.8630    8.8170 N.ar   16  C16        -0.1739
    343  C4       -13.3420   -3.3500    7.8480 C.ar   16  C16         0.1759
    344  N4       -12.1380   -2.8640    8.1770 N.pl3  16  C16        -0.1070
    345  C5       -13.7840   -3.3070    6.4960 C.ar   16  C16         0.0566
    346  C6       -14.9970   -3.8050    6.2390 C.ar   16  C16         0.0850
    347  OP1      -16.6790   -3.0430    0.8980 O.2    16  C16        -0.5172
    348  OP2      -14.5460   -2.5750    2.2420 O.co2  16  C16        -0.4373
    349  P        -19.8430   -1.0920    6.0440 P.3    17  G17         0.2141
    350  C5'      -19.0750   -0.2190    8.3920 C.3    17  G17         0.1812
    351  O5'      -19.7830   -1.1810    7.6310 O.3    17  G17        -0.3114
    352  C4'      -18.7880   -0.7460    9.7740 C.3    17  G17         0.1773
    353  O4'      -17.6240   -1.6120    9.7400 O.3    17  G17        -0.3307
    354  C3'      -18.4460    0.2890   10.8280 C.3    17  G17         0.1860
    355  O3'      -19.5990    0.9150   11.3650 O.3    17  G17        -0.3112
    356  C2'      -17.6750   -0.5330   11.8530 C.3    17  G17         0.2309
    357  O2'      -18.5750   -1.2900   12.6440 O.3    17  G17        -0.2156
    358  C1'      -16.9080   -1.5030   10.9510 C.3    17  G17         0.2408
    359  N1       -12.3460   -0.2810   12.8740 N.ar   17  G17        -0.1709
    360  C2       -13.4780   -0.7130   13.5170 C.ar   17  G17         0.2606
    361  N2       -13.3910   -0.8390   14.8510 N.pl3  17  G17        -0.0859
    362  N3       -14.6120   -1.0090   12.9060 N.ar   17  G17        -0.1918
    363  C4       -14.5260   -0.8260   11.5660 C.ar   17  G17         0.1723
    364  C5       -13.4470   -0.3960   10.8240 C.ar   17  G17         0.1748
    365  C6       -12.2330   -0.0930   11.4950 C.ar   17  G17         0.3023
    366  O6       -11.1570    0.2930   11.0160 O.2    17  G17        -0.2633
    367  N7       -13.7710   -0.3410    9.4670 N.ar   17  G17        -0.2173
    368  C8       -15.0190   -0.7350    9.4170 C.ar   17  G17         0.1817
    369  N9       -15.5390   -1.0340   10.6540 N.ar   17  G17        -0.2693
    370  OP1      -21.2390   -0.7100    5.7020 O.3    17  G17        -0.4373
    371  OP2      -18.7060   -0.2690    5.5620 O.co2  17  G17        -0.5172
    372  P        -19.5680    2.4680   11.7770 P.3    18  C18         0.2141
    373  C5'      -18.9630    1.8370   14.2550 C.3    18  C18         0.1812
    374  O5'      -18.6190    2.5190   13.0600 O.3    18  C18        -0.3114
    375  C4'      -17.8700    1.9550   15.2860 C.3    18  C18         0.1773
    376  O4'      -16.6950    1.2180   14.8480 O.3    18  C18        -0.3307
    377  C3'      -17.3430    3.3570   15.5400 C.3    18  C18         0.1860
    378  O3'      -18.1830    4.1270   16.3830 O.3    18  C18        -0.3112
    379  C2'      -15.9590    3.0820   16.1160 C.3    18  C18         0.2309
    380  O2'      -16.0620    2.6430   17.4650 O.3    18  C18        -0.2156
    381  C1'      -15.5230    1.8890   15.2650 C.3    18  C18         0.2420
    382  N1       -14.7650    2.2990   14.0560 N.ar   18  C18        -0.2535
    383  C2       -13.4210    2.6430   14.1690 C.ar   18  C18         0.3532
    384  O2       -12.8780    2.6310   15.2800 O.2    18  C18        -0.2443
    385  N3       -12.7350    3.0120   13.0620 N.ar   18  C18        -0.1739
    386  C4       -13.3480    3.0360   11.8790 C.ar   18  C18         0.1759
    387  N4       -12.6260    3.3860   10.8220 N.pl3  18  C18        -0.1070
    388  C5       -14.7150    2.6800   11.7170 C.ar   18  C18         0.0566
    389  C6       -15.3700    2.3230   12.8310 C.ar   18  C18         0.0850
    390  OP1      -20.9340    2.8550   12.2170 O.3    18  C18        -0.4373
    391  OP2      -18.8770    3.2140   10.6940 O.co2  18  C18        -0.5172
    392  P        -18.2730    5.7270   16.1960 P.3    19  G19         0.2141
    393  C5'      -16.4330    6.0820   18.0400 C.3    19  G19         0.1812
    394  O5'      -16.8550    6.2400   16.6960 O.3    19  G19        -0.3114
    395  C4'      -15.0030    6.5240   18.1930 C.3    19  G19         0.1773
    396  O4'      -14.1510    5.7070   17.3510 O.3    19  G19        -0.3307
    397  C3'      -14.7090    7.9370   17.7260 C.3    19  G19         0.1860
    398  O3'      -15.0730    8.9220   18.6730 O.3    19  G19        -0.3112
    399  C2'      -13.2140    7.8870   17.4380 C.3    19  G19         0.2309
    400  O2'      -12.4700    7.9420   18.6470 O.3    19  G19        -0.2156
    401  C1'      -13.0740    6.4810   16.8640 C.3    19  G19         0.2408
    402  N1       -10.3890    7.2780   12.6160 N.ar   19  G19        -0.1709
    403  C2       -10.0330    7.4790   13.9220 C.ar   19  G19         0.2606
    404  N2        -8.8000    7.9530   14.1420 N.pl3  19  G19        -0.0859
    405  N3       -10.8370    7.2410   14.9530 N.ar   19  G19        -0.1918
    406  C4       -12.0350    6.7730   14.5640 C.ar   19  G19         0.1723
    407  C5       -12.4960    6.5440   13.2980 C.ar   19  G19         0.1748
    408  C6       -11.6300    6.8030   12.2040 C.ar   19  G19         0.3023
    409  O6       -11.8830    6.6480   11.0130 O.2    19  G19        -0.2633
    410  N7       -13.8000    6.0710   13.3160 N.ar   19  G19        -0.2173
    411  C8       -14.1020    6.0210   14.5820 C.ar   19  G19         0.1817
    412  N9       -13.0880    6.4470   15.3920 N.ar   19  G19        -0.2693
    413  OP1      -19.3110    6.2330   17.1300 O.3    19  G19        -0.4373
    414  OP2      -18.3600    6.0650   14.7480 O.co2  19  G19        -0.5172
    415  P        -15.6630   10.3250   18.1660 P.3    20  U20         0.2141
    416  C5'      -13.2930   11.4530   18.1570 C.3    20  U20         0.1812
    417  O5'      -14.4260   11.0060   17.4260 O.3    20  U20        -0.3114
    418  C4'      -12.1520   11.8590   17.2530 C.3    20  U20         0.1773
    419  O4'      -11.7240   10.7330   16.4480 O.3    20  U20        -0.3307
    420  C3'      -12.4430   12.9490   16.2300 C.3    20  U20         0.1860
    421  O3'      -12.3810   14.2440   16.8010 O.3    20  U20        -0.3112
    422  C2'      -11.3570   12.7110   15.1930 C.3    20  U20         0.2309
    423  O2'      -10.1160   13.1680   15.7030 O.3    20  U20        -0.2156
    424  C1'      -11.2890   11.1860   15.1810 C.3    20  U20         0.2420
    425  N1       -12.1430   10.5820   14.1370 N.ar   20  U20        -0.2534
    426  C2       -11.5990   10.4700   12.8750 C.ar   20  U20         0.3546
    427  O2       -10.4680   10.8380   12.6220 O.2    20  U20        -0.2443
    428  N3       -12.4020    9.8810   11.9390 N.ar   20  U20        -0.1530
    429  C4       -13.6860    9.4230   12.1420 C.ar   20  U20         0.2846
    430  O4       -14.2930    8.9180   11.2100 O.2    20  U20        -0.2650
    431  C5       -14.1860    9.5700   13.4740 C.ar   20  U20         0.0814
    432  C6       -13.4130   10.1380   14.4040 C.ar   20  U20         0.0870
    433  OP1      -15.9710   11.0760   19.4130 O.3    20  U20        -0.4373
    434  OP2      -16.6920   10.0890   17.1160 O.co2  20  U20        -0.5172
    435  P        -13.5110   15.3410   16.4920 P.3    21  U21         0.2141
    436  C5'      -13.8810   16.2670   18.9390 C.3    21  U21         0.1812
    437  O5'      -14.3300   15.4640   17.8520 O.3    21  U21        -0.3114
    438  C4'      -14.7670   16.0650   20.1420 C.3    21  U21         0.1773
    439  O4'      -16.1080   16.5290   19.8150 O.3    21  U21        -0.3307
    440  C3'      -14.9170   14.6020   20.5650 C.3    21  U21         0.1860
    441  O3'      -15.0660   14.4970   21.9790 O.3    21  U21        -0.3112
    442  C2'      -16.2210   14.1910   19.8930 C.3    21  U21         0.2309
    443  O2'      -16.8860   13.1090   20.5030 O.3    21  U21        -0.2156
    444  C1'      -17.0340   15.4770   19.9840 C.3    21  U21         0.2420
    445  N1       -18.0560   15.5770   18.9320 N.ar   21  U21        -0.2534
    446  C2       -19.3780   15.5980   19.3220 C.ar   21  U21         0.3546
    447  O2       -19.7110   15.5690   20.4920 O.2    21  U21        -0.2443
    448  N3       -20.2880   15.6680   18.2970 N.ar   21  U21        -0.1530
    449  C4       -20.0080   15.7180   16.9480 C.ar   21  U21         0.2846
    450  O4       -20.9300   15.7790   16.1310 O.2    21  U21        -0.2650
    451  C5       -18.6180   15.6780   16.6200 C.ar   21  U21         0.0814
    452  C6       -17.7140   15.6060   17.6000 C.ar   21  U21         0.0870
    453  OP1      -14.4900   14.8080   15.5110 O.2    21  U21        -0.5172
    454  OP2      -12.7790   16.6040   16.2610 O.co2  21  U21        -0.4373
    455  P        -13.7810   14.4320   22.9380 P.3    22  A22         0.2141
    456  C5'      -13.7000   11.8770   22.3080 C.3    22  A22         0.1812
    457  O5'      -13.0150   13.1060   22.4960 O.3    22  A22        -0.3114
    458  C4'      -12.7520   10.7090   22.3750 C.3    22  A22         0.1773
    459  O4'      -11.9840   10.6180   21.1370 O.3    22  A22        -0.3307
    460  C3'      -11.7210   10.7580   23.5130 C.3    22  A22         0.1860
    461  O3'      -11.5320    9.4340   24.0120 O.3    22  A22        -0.3112
    462  C2'      -10.4540   11.2000   22.7810 C.3    22  A22         0.2309
    463  O2'       -9.2470   10.8560   23.4220 O.3    22  A22        -0.2156
    464  C1'      -10.6230   10.4630   21.4610 C.3    22  A22         0.2408
    465  N1        -8.7010    9.3240   16.7860 N.ar   22  A22        -0.2040
    466  C2        -9.5980    8.7070   17.5600 C.ar   22  A22         0.2016
    467  N3       -10.0540    9.0720   18.7560 N.ar   22  A22        -0.2048
    468  C4        -9.4930   10.2130   19.1810 C.ar   22  A22         0.1692
    469  C5        -8.5560   10.9620   18.4930 C.ar   22  A22         0.1518
    470  C6        -8.1560   10.4690   17.2310 C.ar   22  A22         0.1919
    471  N6        -7.2610   11.0550   16.4390 N.pl3  22  A22        -0.1054
    472  N7        -8.1930   12.0830   19.2370 N.ar   22  A22        -0.2193
    473  C8        -8.9130   11.9950   20.3370 C.ar   22  A22         0.1816
    474  N9        -9.7450   10.8970   20.3620 N.ar   22  A22        -0.2693
    475  OP1      -14.2700   14.2620   24.3300 O.3    22  A22        -0.4373
    476  OP2      -12.8690   15.5520   22.6210 O.co2  22  A22        -0.5172
    477  P        -11.4270    9.1280   25.5950 P.3    23  A23         0.2141
    478  C5'      -12.9080    6.9970   25.8700 C.3    23  A23         0.1812
    479  O5'      -11.6210    7.5500   25.6680 O.3    23  A23        -0.3114
    480  C4'      -13.3120    6.0600   24.7630 C.3    23  A23         0.1773
    481  O4'      -13.1940    6.7030   23.4640 O.3    23  A23        -0.3307
    482  C3'      -12.5040    4.7860   24.5900 C.3    23  A23         0.1860
    483  O3'      -12.7490    3.8020   25.5930 O.3    23  A23        -0.3112
    484  C2'      -12.9230    4.3540   23.1940 C.3    23  A23         0.2309
    485  O2'      -14.2310    3.8060   23.2280 O.3    23  A23        -0.2156
    486  C1'      -12.9940    5.7090   22.4720 C.3    23  A23         0.2408
    487  N1       -10.2390    4.5390   18.2800 N.ar   23  A23        -0.2040
    488  C2       -11.4300    4.1000   18.7360 C.ar   23  A23         0.2016
    489  N3       -12.0850    4.4570   19.8480 N.ar   23  A23        -0.2048
    490  C4       -11.3890    5.3750   20.5420 C.ar   23  A23         0.1692
    491  C5       -10.1560    5.9080   20.2090 C.ar   23  A23         0.1518
    492  C6        -9.5650    5.4570   19.0080 C.ar   23  A23         0.1919
    493  N6        -8.3740    5.8960   18.5760 N.pl3  23  A23        -0.1054
    494  N7        -9.7420    6.8270   21.1630 N.ar   23  A23        -0.2193
    495  C8       -10.7200    6.8320   22.0380 C.ar   23  A23         0.1816
    496  N9       -11.7530    5.9850   21.7180 N.ar   23  A23        -0.2693
    497  OP1      -12.5790    9.7820   26.2620 O.3    23  A23        -0.4373
    498  OP2      -10.0470    9.4270   26.0570 O.co2  23  A23        -0.5172
    499  P        -11.5360    2.9080   26.1630 P.3    24  G24         0.2141
    500  C5'      -11.6020    1.1430   24.2020 C.3    24  G24         0.1812
    501  O5'      -10.9290    2.1980   24.8660 O.3    24  G24        -0.3114
    502  C4'      -10.9730    0.8590   22.8560 C.3    24  G24         0.1773
    503  O4'      -10.8640    2.0910   22.0880 O.3    24  G24        -0.3307
    504  C3'       -9.5520    0.3240   22.8790 C.3    24  G24         0.1860
    505  O3'       -9.4710   -1.0670   23.1570 O.3    24  G24        -0.3112
    506  C2'       -9.0510    0.6860   21.4910 C.3    24  G24         0.2309
    507  O2'       -9.6000   -0.2000   20.5340 O.3    24  G24        -0.2156
    508  C1'       -9.6870    2.0620   21.3020 C.3    24  G24         0.2408
    509  N1        -5.5810    4.8570   20.2180 N.ar   24  G24        -0.1709
    510  C2        -6.2130    3.8880   19.4800 C.ar   24  G24         0.2606
    511  N2        -5.6790    3.6190   18.2760 N.pl3  24  G24        -0.0859
    512  N3        -7.2880    3.2260   19.8740 N.ar   24  G24        -0.1918
    513  C4        -7.6900    3.6170   21.1000 C.ar   24  G24         0.1723
    514  C5        -7.1390    4.5710   21.9240 C.ar   24  G24         0.1748
    515  C6        -5.9840    5.2770   21.4880 C.ar   24  G24         0.3023
    516  O6        -5.3420    6.1560   22.0760 O.2    24  G24        -0.2633
    517  N7        -7.8690    4.6680   23.1100 N.ar   24  G24        -0.2173
    518  C8        -8.8210    3.7870   22.9710 C.ar   24  G24         0.1817
    519  N9        -8.7780    3.1230   21.7700 N.ar   24  G24        -0.2693
    520  OP1      -12.1140    1.8370   27.0100 O.3    24  G24        -0.4373
    521  OP2      -10.4770    3.7960   26.6850 O.co2  24  G24        -0.5172
    522  P         -8.2510   -1.6200   24.0420 P.3    25  U25         0.2141
    523  C5'       -6.6680   -1.8370   21.9580 C.3    25  U25         0.1812
    524  O5'       -6.9390   -1.2360   23.2150 O.3    25  U25        -0.3114
    525  C4'       -5.4400   -1.2420   21.3190 C.3    25  U25         0.1773
    526  O4'       -5.6570    0.1710   21.0430 O.3    25  U25        -0.3307
    527  C3'       -4.1760   -1.2480   22.1650 C.3    25  U25         0.1860
    528  O3'       -3.5240   -2.5010   22.1960 O.3    25  U25        -0.3112
    529  C2'       -3.3560   -0.1500   21.5090 C.3    25  U25         0.2309
    530  O2'       -2.8190   -0.6140   20.2810 O.3    25  U25        -0.2156
    531  C1'       -4.4460    0.8750   21.2070 C.3    25  U25         0.2420
    532  N1        -4.6110    1.8130   22.3300 N.ar   25  U25        -0.2534
    533  C2        -3.6640    2.7960   22.4100 C.ar   25  U25         0.3546
    534  O2        -2.7580    2.8740   21.6080 O.2    25  U25        -0.2443
    535  N3        -3.8230    3.6700   23.4490 N.ar   25  U25        -0.1530
    536  C4        -4.8120    3.6400   24.4070 C.ar   25  U25         0.2846
    537  O4        -4.8110    4.5030   25.2900 O.2    25  U25        -0.2650
    538  C5        -5.7610    2.5790   24.2630 C.ar   25  U25         0.0814
    539  C6        -5.6310    1.7170   23.2460 C.ar   25  U25         0.0870
    540  OP1       -8.4090   -3.0980   24.0540 O.2    25  U25        -0.5172
    541  OP2       -8.1560   -0.8240   25.2840 O.co2  25  U25        -0.4373
    542  P         -2.8830   -3.0280   23.5700 P.3    26  G26         0.2141
    543  C5'       -0.5950   -2.0070   22.8080 C.3    26  G26         0.1812
    544  O5'       -1.6130   -2.0990   23.7900 O.3    26  G26        -0.3114
    545  C4'        0.4040   -0.9370   23.1550 C.3    26  G26         0.1773
    546  O4'       -0.1870    0.3780   22.9710 O.3    26  G26        -0.3307
    547  C3'        0.8860   -0.9060   24.5970 C.3    26  G26         0.1860
    548  O3'        1.8410   -1.9090   24.9030 O.3    26  G26        -0.3112
    549  C2'        1.4090    0.5160   24.7120 C.3    26  G26         0.2309
    550  O2'        2.6400    0.6450   24.0200 O.3    26  G26        -0.2156
    551  C1'        0.3390    1.2760   23.9300 C.3    26  G26         0.2408
    552  N1        -1.0360    4.4790   27.6150 N.ar   26  G26        -0.1709
    553  C2         0.1390    4.4000   26.9100 C.ar   26  G26         0.2606
    554  N2         1.0860    5.2950   27.2240 N.pl3  26  G26        -0.0859
    555  N3         0.3760    3.5140   25.9540 N.ar   26  G26        -0.1918
    556  C4        -0.6720    2.6970   25.7620 C.ar   26  G26         0.1723
    557  C5        -1.8850    2.6910   26.4090 C.ar   26  G26         0.1748
    558  C6        -2.1270    3.6320   27.4350 C.ar   26  G26         0.3023
    559  O6        -3.1570    3.7640   28.1090 O.2    26  G26        -0.2633
    560  N7        -2.6980    1.6820   25.9330 N.ar   26  G26        -0.2173
    561  C8        -1.9720    1.1080   25.0060 C.ar   26  G26         0.1817
    562  N9        -0.7410    1.6890   24.8400 N.ar   26  G26        -0.2693
    563  OP1       -2.4710   -4.4300   23.3180 O.2    26  G26        -0.5172
    564  OP2       -3.8020   -2.6740   24.6910 O.co2  26  G26        -0.4373
    565  P          1.9260   -2.5180   26.3980 P.3    27  U27         0.2141
    566  C5'        3.6580   -0.7030   27.1590 C.3    27  U27         0.1812
    567  O5'        2.3670   -1.2750   27.2900 O.3    27  U27        -0.3114
    568  C4'        3.9120    0.3450   28.2140 C.3    27  U27         0.1773
    569  O4'        2.9890    1.4550   28.0620 O.3    27  U27        -0.3307
    570  C3'        3.7000   -0.0910   29.6490 C.3    27  U27         0.1860
    571  O3'        4.7480   -0.8860   30.1640 O.3    27  U27        -0.3112
    572  C2'        3.5160    1.2380   30.3580 C.3    27  U27         0.2309
    573  O2'        4.7530    1.9200   30.4510 O.3    27  U27        -0.2156
    574  C1'        2.6690    1.9840   29.3370 C.3    27  U27         0.2420
    575  N1         1.2220    1.8100   29.5960 N.ar   27  U27        -0.2534
    576  C2         0.6940    2.5410   30.6320 C.ar   27  U27         0.3546
    577  O2         1.3550    3.3010   31.3190 O.2    27  U27        -0.2443
    578  N3        -0.6450    2.3720   30.8410 N.ar   27  U27        -0.1530
    579  C4        -1.4980    1.5650   30.1400 C.ar   27  U27         0.2846
    580  O4        -2.6820    1.5460   30.4700 O.2    27  U27        -0.2650
    581  C5        -0.8860    0.8190   29.0820 C.ar   27  U27         0.0814
    582  C6         0.4230    0.9680   28.8580 C.ar   27  U27         0.0870
    583  OP1        2.9800   -3.5640   26.4040 O.2    27  U27        -0.5172
    584  OP2        0.5560   -2.8930   26.8400 O.co2  27  U27        -0.4373
    585  P          4.4310   -1.9880   31.2860 P.3    28  G28         0.2141
    586  C5'        5.1150   -0.2460   33.1300 C.3    28  G28         0.1812
    587  O5'        4.1490   -1.1320   32.5960 O.3    28  G28        -0.3114
    588  C4'        4.5940    0.4260   34.3720 C.3    28  G28         0.1773
    589  O4'        3.5110    1.3250   34.0290 O.3    28  G28        -0.3307
    590  C3'        3.9770   -0.4950   35.4090 C.3    28  G28         0.1860
    591  O3'        4.9430   -1.1790   36.1880 O.3    28  G28        -0.3112
    592  C2'        3.0860    0.4610   36.1990 C.3    28  G28         0.2309
    593  O2'        3.8490    1.2670   37.0820 O.3    28  G28        -0.2156
    594  C1'        2.5710    1.3700   35.0840 C.3    28  G28         0.2408
    595  N1        -2.4350    1.0720   35.9340 N.ar   28  G28        -0.1709
    596  C2        -1.4640    1.6220   36.7190 C.ar   28  G28         0.2606
    597  N2        -1.8630    2.1780   37.8890 N.pl3  28  G28        -0.0859
    598  N3        -0.1840    1.6380   36.3890 N.ar   28  G28        -0.1918
    599  C4         0.0490    1.0560   35.1990 C.ar   28  G28         0.1723
    600  C5        -0.8540    0.4740   34.3410 C.ar   28  G28         0.1748
    601  C6        -2.2240    0.4600   34.6940 C.ar   28  G28         0.3023
    602  O6        -3.1770    0.0050   34.0430 O.2    28  G28        -0.2633
    603  N7        -0.2190   -0.0180   33.2140 N.ar   28  G28        -0.2173
    604  C8         1.0360    0.2660   33.4030 C.ar   28  G28         0.1817
    605  N9         1.2670    0.9200   34.5800 N.ar   28  G28        -0.2693
    606  OP1        5.6560   -2.8220   31.4220 O.3    28  G28        -0.4373
    607  OP2        3.1280   -2.6620   31.0330 O.co2  28  G28        -0.5172
    608  P          4.6570   -2.6570   36.7230 P.3    29  U29         0.2141
    609  C5'        4.0790   -1.8640   39.1520 C.3    29  U29         0.1812
    610  O5'        3.6470   -2.4390   37.9310 O.3    29  U29        -0.3114
    611  C4'        2.9010   -1.5930   40.0470 C.3    29  U29         0.1773
    612  O4'        1.9730   -0.6890   39.3840 O.3    29  U29        -0.3307
    613  C3'        2.0390   -2.7890   40.3910 C.3    29  U29         0.1860
    614  O3'        2.6090   -3.6160   41.3960 O.3    29  U29        -0.3112
    615  C2'        0.7380   -2.1180   40.8030 C.3    29  U29         0.2309
    616  O2'        0.8920   -1.5060   42.0720 O.3    29  U29        -0.2156
    617  C1'        0.6510   -1.0040   39.7640 C.3    29  U29         0.2420
    618  N1        -0.1030   -1.4510   38.5700 N.ar   29  U29        -0.2534
    619  C2        -1.4740   -1.4410   38.6660 C.ar   29  U29         0.3546
    620  O2        -2.0550   -1.0710   39.6700 O.2    29  U29        -0.2443
    621  N3        -2.1540   -1.8680   37.5510 N.ar   29  U29        -0.1530
    622  C4        -1.5860   -2.3100   36.3760 C.ar   29  U29         0.2846
    623  O4        -2.3150   -2.6810   35.4500 O.2    29  U29        -0.2650
    624  C5        -0.1550   -2.3010   36.3600 C.ar   29  U29         0.0814
    625  C6         0.5250   -1.8920   37.4340 C.ar   29  U29         0.0870
    626  OP1        5.9310   -3.2070   37.2540 O.3    29  U29        -0.4373
    627  OP2        3.8880   -3.4410   35.7260 O.co2  29  U29        -0.5172
    628  P          2.3060   -5.1870   41.4150 P.3    30  G30         0.2141
    629  C5'        0.3350   -4.7780   43.0510 C.3    30  G30         0.1812
    630  O5'        0.7760   -5.2580   41.7950 O.3    30  G30        -0.3114
    631  C4'       -1.1640   -4.7420   43.1100 C.3    30  G30         0.1773
    632  O4'       -1.6960   -3.8390   42.1070 O.3    30  G30        -0.3307
    633  C3'       -1.8750   -6.0510   42.8170 C.3    30  G30         0.1860
    634  O3'       -1.8210   -6.9550   43.9110 O.3    30  G30        -0.3112
    635  C2'       -3.2730   -5.5730   42.4710 C.3    30  G30         0.2309
    636  O2'       -3.9500   -5.1460   43.6470 O.3    30  G30        -0.2156
    637  C1'       -2.9460   -4.3270   41.6520 C.3    30  G30         0.2408
    638  N1        -5.6720   -5.3200   37.5330 N.ar   30  G30        -0.1709
    639  C2        -6.0670   -5.0590   38.8250 C.ar   30  G30         0.2606
    640  N2        -7.3810   -5.0560   39.0720 N.pl3  30  G30        -0.0859
    641  N3        -5.2300   -4.8120   39.8140 N.ar   30  G30        -0.1918
    642  C4        -3.9460   -4.8590   39.4140 C.ar   30  G30         0.1723
    643  C5        -3.4430   -5.1140   38.1580 C.ar   30  G30         0.1748
    644  C6        -4.3470   -5.3770   37.1010 C.ar   30  G30         0.3023
    645  O6        -4.0830   -5.6180   35.9100 O.2    30  G30        -0.2633
    646  N7        -2.0620   -5.0610   38.1650 N.ar   30  G30        -0.2173
    647  C8        -1.7510   -4.7890   39.4140 C.ar   30  G30         0.1817
    648  N9        -2.8590   -4.6420   40.2130 N.ar   30  G30        -0.2693
    649  OP1        3.0920   -5.7910   42.5300 O.3    30  G30        -0.4373
    650  OP2        2.4030   -5.7460   40.0420 O.co2  30  G30        -0.5172
    651  P         -1.9370   -8.5410   43.6800 P.3    31  U31         0.2141
    652  C5'       -4.4780   -8.4520   44.2960 C.3    31  U31         0.1812
    653  O5'       -3.4720   -8.7790   43.3490 O.3    31  U31        -0.3114
    654  C4'       -5.8490   -8.5470   43.6800 C.3    31  U31         0.1773
    655  O4'       -5.9390   -7.6830   42.5200 O.3    31  U31        -0.3307
    656  C3'       -6.2230   -9.9210   43.1510 C.3    31  U31         0.1860
    657  O3'       -6.6960  -10.7510   44.1950 O.3    31  U31        -0.3112
    658  C2'       -7.2750   -9.6050   42.1030 C.3    31  U31         0.2309
    659  O2'       -8.5180   -9.3380   42.7400 O.3    31  U31        -0.2156
    660  C1'       -6.7540   -8.2830   41.5330 C.3    31  U31         0.2420
    661  N1        -5.9580   -8.4210   40.2840 N.ar   31  U31        -0.2534
    662  C2        -6.6250   -8.5350   39.0800 C.ar   31  U31         0.3546
    663  O2        -7.8330   -8.5690   38.9820 O.2    31  U31        -0.2443
    664  N3        -5.8280   -8.6130   37.9670 N.ar   31  U31        -0.1530
    665  C4        -4.4540   -8.5870   37.9210 C.ar   31  U31         0.2846
    666  O4        -3.8890   -8.6700   36.8250 O.2    31  U31        -0.2650
    667  C5        -3.8190   -8.4620   39.2020 C.ar   31  U31         0.0814
    668  C6        -4.5830   -8.3760   40.3010 C.ar   31  U31         0.0870
    669  OP1       -1.6390   -9.1630   45.0050 O.3    31  U31        -0.4373
    670  OP2       -1.1730   -8.9470   42.4820 O.co2  31  U31        -0.5172
    671  P         -6.5930  -12.3410   44.0690 P.3    32  G32         0.2141
    672  C5'       -7.5710  -13.5220   41.9630 C.3    32  G32         0.1812
    673  O5'       -7.7780  -12.6770   43.0730 O.3    32  G32        -0.3114
    674  C4'       -8.6040  -13.2570   40.9050 C.3    32  G32         0.1773
    675  O4'       -8.3230  -11.9940   40.2530 O.3    32  G32        -0.3307
    676  C3'       -8.6420  -14.2700   39.7780 C.3    32  G32         0.1860
    677  O3'       -9.4230  -15.3920   40.1260 O.3    32  G32        -0.3112
    678  C2'       -9.2020  -13.4600   38.6170 C.3    32  G32         0.2309
    679  O2'      -10.6070  -13.3160   38.7400 O.3    32  G32        -0.2156
    680  C1'       -8.5560  -12.0980   38.8700 C.3    32  G32         0.2408
    681  N1        -6.2130  -11.9180   34.3880 N.ar   32  G32        -0.1709
    682  C2        -7.5500  -12.0230   34.6800 C.ar   32  G32         0.2606
    683  N2        -8.3920  -12.1010   33.6340 N.pl3  32  G32        -0.0859
    684  N3        -8.0350  -12.0590   35.9110 N.ar   32  G32        -0.1918
    685  C4        -7.0570  -11.9760   36.8320 C.ar   32  G32         0.1723
    686  C5        -5.6930  -11.8650   36.6560 C.ar   32  G32         0.1748
    687  C6        -5.1890  -11.8170   35.3300 C.ar   32  G32         0.3023
    688  O6        -4.0160  -11.7160   34.9430 O.2    32  G32        -0.2633
    689  N7        -5.0400  -11.8040   37.8910 N.ar   32  G32        -0.2173
    690  C8        -6.0130  -11.8780   38.7680 C.ar   32  G32         0.1817
    691  N9        -7.2570  -11.9800   38.1930 N.ar   32  G32        -0.2693
    692  OP1       -6.9410  -12.9100   45.4020 O.3    32  G32        -0.4373
    693  OP2       -5.3080  -12.6880   43.4130 O.co2  32  G32        -0.5172
    694  P         -9.0950  -16.8380   39.5210 P.3    33  A33         0.2141
    695  C5'      -10.8650  -16.4880   37.6120 C.3    33  A33         0.1812
    696  O5'       -9.5170  -16.7160   37.9880 O.3    33  A33        -0.3114
    697  C4'      -10.9950  -16.3470   36.1160 C.3    33  A33         0.1773
    698  O4'      -10.2100  -15.2240   35.6560 O.3    33  A33        -0.3307
    699  C3'      -10.4660  -17.5120   35.3000 C.3    33  A33         0.1860
    700  O3'      -11.3920  -18.5710   35.2280 O.3    33  A33        -0.3112
    701  C2'      -10.1930  -16.8720   33.9490 C.3    33  A33         0.2309
    702  O2'      -11.4060  -16.7010   33.2430 O.3    33  A33        -0.2156
    703  C1'       -9.7030  -15.4890   34.3630 C.3    33  A33         0.2408
    704  N1        -5.2200  -15.0000   31.7670 N.ar   33  A33        -0.2040
    705  C2        -6.4910  -15.1060   31.3470 C.ar   33  A33         0.2016
    706  N3        -7.6210  -15.2390   32.0550 N.ar   33  A33        -0.2048
    707  C4        -7.3540  -15.2820   33.3650 C.ar   33  A33         0.1692
    708  C5        -6.1020  -15.1900   33.9470 C.ar   33  A33         0.1518
    709  C6        -4.9930  -15.0450   33.0960 C.ar   33  A33         0.1919
    710  N6        -3.7390  -14.9590   33.5440 N.pl3  33  A33        -0.1054
    711  N7        -6.1950  -15.2500   35.3260 N.ar   33  A33        -0.2193
    712  C8        -7.4790  -15.3720   35.5490 C.ar   33  A33         0.1816
    713  N9        -8.2360  -15.3960   34.4070 N.ar   33  A33        -0.2693
    714  OP1      -10.0030  -17.7850   40.1970 O.3    33  A33        -0.4373
    715  OP2       -7.6360  -17.1090   39.4730 O.co2  33  A33        -0.5172
    716  P        -10.8850  -20.0840   35.0850 P.3    34  A34         0.2141
    717  C5'      -11.5680  -20.0040   32.5880 C.3    34  A34         0.1812
    718  O5'      -10.5470  -20.2230   33.5450 O.3    34  A34        -0.3114
    719  C4'      -11.0070  -19.8350   31.2060 C.3    34  A34         0.1773
    720  O4'      -10.1830  -18.6460   31.1250 O.3    34  A34        -0.3307
    721  C3'      -10.0900  -20.9440   30.7380 C.3    34  A34         0.1860
    722  O3'      -10.8080  -22.1060   30.3570 O.3    34  A34        -0.3112
    723  C2'       -9.3190  -20.2670   29.6170 C.3    34  A34         0.2309
    724  O2'      -10.1360  -20.1680   28.4600 O.3    34  A34        -0.2156
    725  C1'       -9.1380  -18.8560   30.1930 C.3    34  A34         0.2408
    726  N1        -4.0700  -17.7870   29.9380 N.ar   34  A34        -0.2040
    727  C2        -5.0150  -17.8450   28.9860 C.ar   34  A34         0.2016
    728  N3        -6.3130  -18.1220   29.1050 N.ar   34  A34        -0.2048
    729  C4        -6.6290  -18.3680   30.3870 C.ar   34  A34         0.1692
    730  C5        -5.7680  -18.3570   31.4660 C.ar   34  A34         0.1518
    731  C6        -4.4240  -18.0460   31.2200 C.ar   34  A34         0.1919
    732  N6        -3.4950  -18.0020   32.1890 N.pl3  34  A34        -0.1054
    733  N7        -6.4380  -18.6550   32.6390 N.ar   34  A34        -0.2193
    734  C8        -7.6690  -18.8590   32.2510 C.ar   34  A34         0.1816
    735  N9        -7.8550  -18.7020   30.9050 N.ar   34  A34        -0.2693
    736  OP1      -12.0900  -20.8990   35.3660 O.2    34  A34        -0.5172
    737  OP2       -9.6280  -20.2850   35.8620 O.co2  34  A34        -0.4373
    738  P        -10.0520  -23.5140   30.2530 P.3    35  U35         0.2141
    739  C5'       -7.7900  -23.7910   28.9650 C.3    35  U35         0.1812
    740  O5'       -9.1050  -23.2740   29.0090 O.3    35  U35        -0.3114
    741  C4'       -6.9920  -23.1030   27.8870 C.3    35  U35         0.1773
    742  O4'       -6.5780  -21.7970   28.3550 O.3    35  U35        -0.3307
    743  C3'       -5.7040  -23.7990   27.4860 C.3    35  U35         0.1860
    744  O3'       -5.9380  -24.7670   26.4720 O.3    35  U35        -0.3112
    745  C2'       -4.8330  -22.6470   26.9970 C.3    35  U35         0.2309
    746  O2'       -5.2000  -22.3230   25.6740 O.3    35  U35        -0.2156
    747  C1'       -5.2770  -21.5060   27.9140 C.3    35  U35         0.2420
    748  N1        -4.4040  -21.3480   29.1080 N.ar   35  U35        -0.2534
    749  C2        -3.1420  -20.8280   28.9380 C.ar   35  U35         0.3546
    750  O2        -2.6990  -20.4860   27.8610 O.2    35  U35        -0.2443
    751  N3        -2.3780  -20.7180   30.0640 N.ar   35  U35        -0.1530
    752  C4        -2.7530  -21.0650   31.3400 C.ar   35  U35         0.2846
    753  O4        -1.9540  -20.8940   32.2640 O.2    35  U35        -0.2650
    754  C5        -4.0800  -21.5880   31.4470 C.ar   35  U35         0.0814
    755  C6        -4.8420  -21.7080   30.3530 C.ar   35  U35         0.0870
    756  OP1      -11.0430  -24.5540   29.8620 O.2    35  U35        -0.5172
    757  OP2       -9.2080  -23.7590   31.4620 O.co2  35  U35        -0.4373
    758  P         -5.8120  -26.3290   26.7930 P.3    36  G36         0.2141
    759  C5'       -5.2920  -28.2560   25.0750 C.3    36  G36         0.1812
    760  O5'       -5.1160  -26.9050   25.4910 O.3    36  G36        -0.3114
    761  C4'       -5.0800  -28.3410   23.5880 C.3    36  G36         0.1773
    762  O4'       -3.7210  -27.9370   23.2790 O.3    36  G36        -0.3307
    763  C3'       -5.3040  -29.7010   22.9130 C.3    36  G36         0.1860
    764  O3'       -6.1470  -29.5290   21.7710 O.3    36  G36        -0.3112
    765  C2'       -3.9030  -30.1060   22.4330 C.3    36  G36         0.2309
    766  O2'       -3.9100  -30.8380   21.2200 O.3    36  G36        -0.2156
    767  C1'       -3.2250  -28.7550   22.2490 C.3    36  G36         0.2408
    768  N1         1.0060  -27.5050   19.7580 N.ar   36  G36        -0.1709
    769  C2        -0.3120  -27.2960   19.4140 C.ar   36  G36         0.2606
    770  N2        -0.5190  -26.6610   18.2280 N.pl3  36  G36        -0.0859
    771  N3        -1.3330  -27.6740   20.1790 N.ar   36  G36        -0.1918
    772  C4        -0.9260  -28.2960   21.3170 C.ar   36  G36         0.1723
    773  C5         0.3580  -28.5430   21.7460 C.ar   36  G36         0.1748
    774  C6         1.4500  -28.1420   20.9220 C.ar   36  G36         0.3023
    775  O6         2.6720  -28.2710   21.1180 O.2    36  G36        -0.2633
    776  N7         0.3480  -29.2020   22.9770 N.ar   36  G36        -0.2173
    777  C8        -0.9280  -29.3390   23.2620 C.ar   36  G36         0.1817
    778  N9        -1.7550  -28.7850   22.2980 N.ar   36  G36        -0.2693
    779  OP1       -7.1620  -26.9050   26.9810 O.2    36  G36        -0.5172
    780  OP2       -4.7960  -26.4510   27.8560 O.co2  36  G36        -0.4373
    781  P         -7.7310  -29.7980   21.8830 P.3    37  G37         0.2141
    782  C5'       -9.1140  -31.9110   22.5610 C.3    37  G37         0.1812
    783  O5'       -7.8470  -31.2980   22.3930 O.3    37  G37        -0.3114
    784  C4'       -9.0010  -33.1770   23.3710 C.3    37  G37         0.1773
    785  O4'       -7.9620  -34.0200   22.8180 O.3    37  G37        -0.3307
    786  C3'       -8.5970  -32.9920   24.8230 C.3    37  G37         0.1860
    787  O3'       -9.6970  -32.6520   25.6450 O.3    37  G37        -0.3112
    788  C2'       -7.9890  -34.3410   25.1720 C.3    37  G37         0.2309
    789  O2'       -9.0120  -35.2860   25.4330 O.3    37  G37        -0.2156
    790  C1'       -7.3030  -34.7160   23.8590 C.3    37  G37         0.2408
    791  N1        -2.8370  -35.4320   26.1260 N.ar   37  G37        -0.1709
    792  C2        -4.0660  -35.9890   26.4000 C.ar   37  G37         0.2606
    793  N2        -4.1480  -36.8650   27.4230 N.pl3  37  G37        -0.0859
    794  N3        -5.1620  -35.7090   25.7170 N.ar   37  G37        -0.1918
    795  C4        -4.9270  -34.8180   24.7320 C.ar   37  G37         0.1723
    796  C5        -3.7460  -34.2040   24.3760 C.ar   37  G37         0.1748
    797  C6        -2.5690  -34.5090   25.1130 C.ar   37  G37         0.3023
    798  O6        -1.4190  -34.0620   24.9530 O.2    37  G37        -0.2633
    799  N7        -3.9490  -33.3430   23.3000 N.ar   37  G37        -0.2173
    800  C8        -5.2260  -33.4610   23.0340 C.ar   37  G37         0.1817
    801  N9        -5.8760  -34.3380   23.8640 N.ar   37  G37        -0.2693
    802  OP1       -8.2780  -29.7510   20.5090 O.2    37  G37        -0.5172
    803  OP2       -8.3000  -28.9100   22.9390 O.co2  37  G37        -0.4373
    804  P         -9.4860  -31.7510   26.9540 P.3    38  G38         0.2141
    805  C5'       -9.6160  -33.7400   28.6720 C.3    38  G38         0.1812
    806  O5'       -8.8390  -32.7510   28.0170 O.3    38  G38        -0.3114
    807  C4'       -8.8180  -34.4200   29.7570 C.3    38  G38         0.1773
    808  O4'       -7.7010  -35.1370   29.1730 O.3    38  G38        -0.3307
    809  C3'       -8.1610  -33.4940   30.7630 C.3    38  G38         0.1860
    810  O3'       -9.0480  -33.0390   31.7630 O.3    38  G38        -0.3112
    811  C2'       -7.0250  -34.3450   31.3040 C.3    38  G38         0.2309
    812  O2'       -7.5250  -35.3080   32.2170 O.3    38  G38        -0.2156
    813  C1'       -6.5840  -35.0750   30.0400 C.3    38  G38         0.2408
    814  N1        -1.6320  -33.7830   29.9330 N.ar   38  G38        -0.1709
    815  C2        -2.3140  -34.5430   30.8620 C.ar   38  G38         0.2606
    816  N2        -1.5800  -35.0080   31.8850 N.pl3  38  G38        -0.0859
    817  N3        -3.6070  -34.8260   30.8060 N.ar   38  G38        -0.1918
    818  C4        -4.1810  -34.2640   29.7150 C.ar   38  G38         0.1723
    819  C5        -3.5930  -33.4950   28.7300 C.ar   38  G38         0.1748
    820  C6        -2.2120  -33.2080   28.8010 C.ar   38  G38         0.3023
    821  O6        -1.5310  -32.5410   28.0080 O.2    38  G38        -0.2633
    822  N7        -4.5210  -33.1030   27.7720 N.ar   38  G38        -0.2173
    823  C8        -5.6350  -33.6420   28.1800 C.ar   38  G38         0.1817
    824  N9        -5.5020  -34.3590   29.3480 N.ar   38  G38        -0.2693
    825  OP1      -10.8530  -31.3830   27.4190 O.3    38  G38        -0.4373
    826  OP2       -8.4700  -30.7060   26.6600 O.co2  38  G38        -0.5172
    827  P         -8.7360  -31.6580   32.5110 P.3    39  A39         0.2141
    828  C5'       -7.4310  -32.5640   34.5950 C.3    39  A39         0.1812
    829  O5'       -7.3930  -31.9500   33.3210 O.3    39  A39        -0.3114
    830  C4'       -6.0620  -32.6120   35.2250 C.3    39  A39         0.1773
    831  O4'       -5.1180  -33.2590   34.3290 O.3    39  A39        -0.3307
    832  C3'       -5.3890  -31.2860   35.5340 C.3    39  A39         0.1860
    833  O3'       -5.9110  -30.6180   36.6700 O.3    39  A39        -0.3112
    834  C2'       -3.9390  -31.7180   35.6930 C.3    39  A39         0.2309
    835  O2'       -3.7760  -32.4120   36.9230 O.3    39  A39        -0.2156
    836  C1'       -3.8220  -32.7360   34.5580 C.3    39  A39         0.2408
    837  N1         0.3420  -30.9180   32.1920 N.ar   39  A39        -0.2040
    838  C2         0.1530  -31.4850   33.3890 C.ar   39  A39         0.2016
    839  N3        -0.9720  -31.9470   33.9290 N.ar   39  A39        -0.2048
    840  C4        -2.0150  -31.7630   33.0970 C.ar   39  A39         0.1692
    841  C5        -1.9850  -31.1860   31.8430 C.ar   39  A39         0.1518
    842  C6        -0.7300  -30.7490   31.3760 C.ar   39  A39         0.1919
    843  N6        -0.5400  -30.1810   30.1740 N.pl3  39  A39        -0.1054
    844  N7        -3.2590  -31.1660   31.2880 N.ar   39  A39        -0.2193
    845  C8        -4.0160  -31.7110   32.2060 C.ar   39  A39         0.1816
    846  N9        -3.3240  -32.1030   33.3250 N.ar   39  A39        -0.2693
    847  OP1       -9.8670  -31.4570   33.4530 O.3    39  A39        -0.4373
    848  OP2       -8.3650  -30.6270   31.5100 O.co2  39  A39        -0.5172
    849  P         -6.0230  -29.0160   36.6740 P.3    40  U40         0.2141
    850  C5'       -3.6750  -28.8720   37.7970 C.3    40  U40         0.1812
    851  O5'       -4.5120  -28.5110   36.7130 O.3    40  U40        -0.3114
    852  C4'       -2.2280  -28.5560   37.5310 C.3    40  U40         0.1773
    853  O4'       -1.7450  -29.2660   36.3580 O.3    40  U40        -0.3307
    854  C3'       -1.8900  -27.1150   37.2200 C.3    40  U40         0.1860
    855  O3'       -1.9310  -26.2750   38.3580 O.3    40  U40        -0.3112
    856  C2'       -0.5130  -27.2580   36.5940 C.3    40  U40         0.2309
    857  O2'        0.4530  -27.5830   37.5820 O.3    40  U40        -0.2156
    858  C1'       -0.7200  -28.5080   35.7450 C.3    40  U40         0.2420
    859  N1        -1.1330  -28.1560   34.3720 N.ar   40  U40        -0.2534
    860  C2        -0.1130  -27.7530   33.5550 C.ar   40  U40         0.3546
    861  O2         1.0450  -27.6830   33.9380 O.2    40  U40        -0.2443
    862  N3        -0.5010  -27.4160   32.2850 N.ar   40  U40        -0.1530
    863  C4        -1.7810  -27.4790   31.7720 C.ar   40  U40         0.2846
    864  O4        -1.9630  -27.1580   30.5940 O.2    40  U40        -0.2650
    865  C5        -2.7890  -27.9150   32.6880 C.ar   40  U40         0.0814
    866  C6        -2.4350  -28.2340   33.9430 C.ar   40  U40         0.0870
    867  OP1       -6.6780  -28.6670   37.9680 O.3    40  U40        -0.4373
    868  OP2       -6.5900  -28.5610   35.3770 O.co2  40  U40        -0.5172
    869  P         -2.3580  -24.7340   38.2000 P.3    41  G41         0.2141
    870  C5'        0.1130  -23.9600   37.8310 C.3    41  G41         0.1812
    871  O5'       -1.2030  -24.0830   37.3240 O.3    41  G41        -0.3114
    872  C4'        1.0620  -23.5090   36.7530 C.3    41  G41         0.1773
    873  O4'        0.9990  -24.4140   35.6250 O.3    41  G41        -0.3307
    874  C3'        0.7680  -22.1530   36.1440 C.3    41  G41         0.1860
    875  O3'        1.1960  -21.0940   36.9780 O.3    41  G41        -0.3112
    876  C2'        1.4840  -22.2330   34.7980 C.3    41  G41         0.2309
    877  O2'        2.8790  -22.0240   34.9600 O.3    41  G41        -0.2156
    878  C1'        1.2650  -23.7030   34.4280 C.3    41  G41         0.2408
    879  N1        -0.1630  -23.6750   29.5340 N.ar   41  G41        -0.1709
    880  C2         1.0630  -23.4270   30.1090 C.ar   41  G41         0.2606
    881  N2         2.0620  -23.1340   29.2700 N.pl3  41  G41        -0.0859
    882  N3         1.3050  -23.4610   31.4150 N.ar   41  G41        -0.1918
    883  C4         0.2010  -23.7740   32.1210 C.ar   41  G41         0.1723
    884  C5        -1.0740  -24.0270   31.6550 C.ar   41  G41         0.1748
    885  C6        -1.3180  -23.9910   30.2490 C.ar   41  G41         0.3023
    886  O6        -2.3840  -24.1960   29.6470 O.2    41  G41        -0.2633
    887  N7        -1.9310  -24.3120   32.7120 N.ar   41  G41        -0.2173
    888  C8        -1.1680  -24.2060   33.7750 C.ar   41  G41         0.1817
    889  N9         0.1370  -23.8900   33.4900 N.ar   41  G41        -0.2693
    890  OP1       -2.2970  -24.1720   39.5750 O.3    41  G41        -0.4373
    891  OP2       -3.5750  -24.6190   37.3600 O.co2  41  G41        -0.5172
    892  P          0.8260  -19.5690   36.6390 P.3    42  U42         0.2141
    893  C5'        3.3120  -18.8960   36.2920 C.3    42  U42         0.1812
    894  O5'        2.0330  -19.1090   35.7310 O.3    42  U42        -0.3114
    895  C4'        4.2710  -18.4680   35.2220 C.3    42  U42         0.1773
    896  O4'        4.2760  -19.4790   34.1790 O.3    42  U42        -0.3307
    897  C3'        3.9100  -17.1950   34.4720 C.3    42  U42         0.1860
    898  O3'        4.1590  -15.9710   35.1650 O.3    42  U42        -0.3112
    899  C2'        4.6580  -17.3740   33.1620 C.3    42  U42         0.2309
    900  O2'        6.0500  -17.2110   33.3800 O.3    42  U42        -0.2156
    901  C1'        4.4380  -18.8610   32.9160 C.3    42  U42         0.2420
    902  N1         3.2610  -19.1560   32.0590 N.ar   42  U42        -0.2534
    903  C2         3.4970  -19.1290   30.7010 C.ar   42  U42         0.3546
    904  O2         4.5900  -18.8470   30.2510 O.2    42  U42        -0.2443
    905  N3         2.4240  -19.4340   29.8980 N.ar   42  U42        -0.1530
    906  C4         1.1510  -19.7600   30.3240 C.ar   42  U42         0.2846
    907  O4         0.2820  -20.0020   29.4770 O.2    42  U42        -0.2650
    908  C5         0.9760  -19.7720   31.7480 C.ar   42  U42         0.0814
    909  C6         2.0130  -19.4790   32.5450 C.ar   42  U42         0.0870
    910  OP1        0.9180  -18.8460   37.9270 O.3    42  U42        -0.4373
    911  OP2       -0.3950  -19.4750   35.7900 O.co2  42  U42        -0.5172
    912  P          5.5440  -15.6000   35.9140 P.3    43  C43         0.2141
    913  C5'        5.9580  -13.5100   34.3650 C.3    43  C43         0.1812
    914  O5'        6.3750  -14.7970   34.8170 O.3    43  C43        -0.3114
    915  C4'        6.6250  -13.1380   33.0620 C.3    43  C43         0.1773
    916  O4'        8.0590  -13.3370   33.2050 O.3    43  C43        -0.3307
    917  C3'        6.2020  -13.9640   31.8480 C.3    43  C43         0.1860
    918  O3'        6.3000  -13.1670   30.6700 O.3    43  C43        -0.3112
    919  C2'        7.2800  -15.0390   31.7930 C.3    43  C43         0.2309
    920  O2'        7.4460  -15.6350   30.5260 O.3    43  C43        -0.2156
    921  C1'        8.5130  -14.2480   32.2240 C.3    43  C43         0.2420
    922  N1         9.5850  -15.0620   32.8180 N.ar   43  C43        -0.2535
    923  C2        10.8120  -15.1030   32.1500 C.ar   43  C43         0.3532
    924  O2        10.9430  -14.4560   31.1000 O.2    43  C43        -0.2443
    925  N3        11.8190  -15.8420   32.6630 N.ar   43  C43        -0.1739
    926  C4        11.6380  -16.5200   33.7960 C.ar   43  C43         0.1759
    927  N4        12.6720  -17.2260   34.2580 N.pl3  43  C43        -0.1070
    928  C5        10.4000  -16.5020   34.5040 C.ar   43  C43         0.0566
    929  C6         9.4060  -15.7640   33.9840 C.ar   43  C43         0.0850
    930  OP1        6.3620  -16.7680   36.3140 O.2    43  C43        -0.5172
    931  OP2        5.1520  -14.6290   36.9640 O.co2  43  C43        -0.4373
    932  P          5.0740  -12.2460   30.1840 P.3    44  G44         0.2141
    933  C5'        5.1290  -13.1750   27.7330 C.3    44  G44         0.1812
    934  O5'        4.4360  -13.0550   28.9670 O.3    44  G44        -0.3114
    935  C4'        4.3550  -14.0020   26.7380 C.3    44  G44         0.1773
    936  O4'        4.2550  -15.3720   27.2090 O.3    44  G44        -0.3307
    937  C3'        2.9140  -13.5830   26.5120 C.3    44  G44         0.1860
    938  O3'        2.7870  -12.4960   25.6150 O.3    44  G44        -0.3112
    939  C2'        2.2790  -14.8650   26.0070 C.3    44  G44         0.2309
    940  O2'        2.6340  -15.0880   24.6520 O.3    44  G44        -0.2156
    941  C1'        2.9900  -15.9010   26.8790 C.3    44  G44         0.2408
    942  N1        -1.3520  -17.3880   29.0480 N.ar   44  G44        -0.1709
    943  C2        -1.0300  -17.3570   27.7180 C.ar   44  G44         0.2606
    944  N2        -1.9910  -17.7660   26.8720 N.pl3  44  G44        -0.0859
    945  N3         0.1450  -16.9510   27.2600 N.ar   44  G44        -0.1918
    946  C4         0.9750  -16.5790   28.2660 C.ar   44  G44         0.1723
    947  C5         0.7470  -16.5850   29.6240 C.ar   44  G44         0.1748
    948  C6        -0.5110  -17.0240   30.1020 C.ar   44  G44         0.3023
    949  O6        -0.9000  -17.1000   31.2860 O.2    44  G44        -0.2633
    950  N7         1.8550  -16.1250   30.3270 N.ar   44  G44        -0.2173
    951  C8         2.7250  -15.8650   29.3970 C.ar   44  G44         0.1817
    952  N9         2.2570  -16.1140   28.1350 N.ar   44  G44        -0.2693
    953  OP1        5.6450  -11.0030   29.6080 O.2    44  G44        -0.5172
    954  OP2        4.0930  -12.1510   31.2960 O.co2  44  G44        -0.4373
    955  P          1.7770  -11.2970   25.9530 P.3    45  U45         0.2141
    956  C5'       -0.1520  -12.4840   24.6550 C.3    45  U45         0.1812
    957  O5'        0.3410  -11.9730   25.8800 O.3    45  U45        -0.3114
    958  C4'       -1.5380  -13.0450   24.8110 C.3    45  U45         0.1773
    959  O4'       -1.5090  -14.2150   25.6780 O.3    45  U45        -0.3307
    960  C3'       -2.5560  -12.1440   25.4810 C.3    45  U45         0.1860
    961  O3'       -3.0490  -11.1090   24.6490 O.3    45  U45        -0.3112
    962  C2'       -3.6100  -13.1460   25.9310 C.3    45  U45         0.2309
    963  O2'       -4.3650  -13.6060   24.8200 O.3    45  U45        -0.2156
    964  C1'       -2.7250  -14.2980   26.4020 C.3    45  U45         0.2420
    965  N1        -2.4340  -14.1870   27.8510 N.ar   45  U45        -0.2534
    966  C2        -3.4420  -14.5350   28.7220 C.ar   45  U45         0.3546
    967  O2        -4.5400  -14.9140   28.3540 O.2    45  U45        -0.2443
    968  N3        -3.1280  -14.4200   30.0480 N.ar   45  U45        -0.1530
    969  C4        -1.9350  -13.9890   30.5910 C.ar   45  U45         0.2846
    970  O4        -1.8090  -13.9400   31.8240 O.2    45  U45        -0.2650
    971  C5        -0.9400  -13.6450   29.6260 C.ar   45  U45         0.0814
    972  C6        -1.2260  -13.7480   28.3230 C.ar   45  U45         0.0870
    973  OP1        1.8730  -10.3320   24.8300 O.2    45  U45        -0.5172
    974  OP2        2.0150  -10.8270   27.3460 O.co2  45  U45        -0.4373
    975  P         -3.4720   -9.7010   25.3080 P.3    46  C46         0.2141
    976  C5'       -5.9480  -10.6020   25.2750 C.3    46  C46         0.1812
    977  O5'       -4.8720  -10.0220   26.0070 O.3    46  C46        -0.3114
    978  C4'       -7.0570  -11.0520   26.1950 C.3    46  C46         0.1773
    979  O4'       -6.5640  -12.0780   27.0910 O.3    46  C46        -0.3307
    980  C3'       -7.6140   -9.9880   27.1260 C.3    46  C46         0.1860
    981  O3'       -8.5660   -9.1500   26.4930 O.3    46  C46        -0.3112
    982  C2'       -8.1850  -10.8060   28.2710 C.3    46  C46         0.2309
    983  O2'       -9.4310  -11.3760   27.8950 O.3    46  C46        -0.2156
    984  C1'       -7.1640  -11.9380   28.3650 C.3    46  C46         0.2420
    985  N1        -6.1010  -11.6560   29.3560 N.ar   46  C46        -0.2535
    986  C2        -6.3860  -11.8290   30.7160 C.ar   46  C46         0.3532
    987  O2        -7.5150  -12.1920   31.0490 O.2    46  C46        -0.2443
    988  N3        -5.4300  -11.5940   31.6360 N.ar   46  C46        -0.1739
    989  C4        -4.2130  -11.1930   31.2580 C.ar   46  C46         0.1759
    990  N4        -3.3000  -10.9680   32.2170 N.pl3  46  C46        -0.1070
    991  C5        -3.8870  -10.9990   29.8820 C.ar   46  C46         0.0566
    992  C6        -4.8540  -11.2490   28.9790 C.ar   46  C46         0.0850
    993  OP1       -3.6690   -8.7350   24.2010 O.2    46  C46        -0.5172
    994  OP2       -2.5430   -9.3340   26.4160 O.co2  46  C46        -0.4373
    995  P         -8.8250   -7.6690   27.0580 P.3    47  A47         0.2141
    996  C5'      -10.9800   -8.5070   28.3020 C.3    47  A47         0.1812
    997  O5'       -9.7020   -7.8830   28.3670 O.3    47  A47        -0.3114
    998  C4'      -11.5910   -8.6310   29.6770 C.3    47  A47         0.1773
    999  O4'      -10.8420   -9.5960   30.4600 O.3    47  A47        -0.3307
   1000  C3'      -11.5590   -7.3650   30.5270 C.3    47  A47         0.1860
   1001  O3'      -12.6240   -6.4850   30.2230 O.3    47  A47        -0.3112
   1002  C2'      -11.6210   -7.9230   31.9380 C.3    47  A47         0.2309
   1003  O2'      -12.9370   -8.3720   32.2040 O.3    47  A47        -0.2156
   1004  C1'      -10.7450   -9.1570   31.8010 C.3    47  A47         0.2408
   1005  N1        -7.2050   -8.8150   35.4970 N.ar   47  A47        -0.2040
   1006  C2        -8.5210   -9.0610   35.5390 C.ar   47  A47         0.2016
   1007  N3        -9.3810   -9.1210   34.5310 N.ar   47  A47        -0.2048
   1008  C4        -8.7560   -8.8950   33.3520 C.ar   47  A47         0.1692
   1009  C5        -7.4160   -8.6440   33.1470 C.ar   47  A47         0.1518
   1010  C6        -6.6070   -8.6010   34.3050 C.ar   47  A47         0.1919
   1011  N6        -5.2930   -8.3610   34.2860 N.pl3  47  A47        -0.1054
   1012  N7        -7.1390   -8.4610   31.7870 N.ar   47  A47        -0.2193
   1013  C8        -8.3110   -8.6210   31.2170 C.ar   47  A47         0.1816
   1014  N9        -9.3270   -8.8890   32.1020 N.ar   47  A47        -0.2693
   1015  OP1       -9.6940   -6.9390   26.0990 O.2    47  A47        -0.5172
   1016  OP2       -7.5350   -7.0780   27.5030 O.co2  47  A47        -0.4373
   1017  P        -12.4680   -4.9020   30.3970 P.3    48  C48         0.2141
   1018  C5'      -13.6130   -5.0150   32.7470 C.3    48  C48         0.1812
   1019  O5'      -12.4790   -4.6790   31.9670 O.3    48  C48        -0.3114
   1020  C4'      -13.2750   -5.0060   34.2130 C.3    48  C48         0.1773
   1021  O4'      -12.2730   -6.0150   34.4880 O.3    48  C48        -0.3307
   1022  C3'      -12.6520   -3.7280   34.7490 C.3    48  C48         0.1860
   1023  O3'      -13.6030   -2.7090   35.0000 O.3    48  C48        -0.3112
   1024  C2'      -11.9300   -4.2180   35.9920 C.3    48  C48         0.2309
   1025  O2'      -12.8530   -4.4580   37.0360 O.3    48  C48        -0.2156
   1026  C1'      -11.4120   -5.5730   35.5150 C.3    48  C48         0.2420
   1027  N1       -10.0320   -5.4720   34.9870 N.ar   48  C48        -0.2535
   1028  C2        -9.0060   -5.5200   35.9220 C.ar   48  C48         0.3532
   1029  O2        -9.3250   -5.6400   37.1170 O.2    48  C48        -0.2443
   1030  N3        -7.7220   -5.4310   35.5040 N.ar   48  C48        -0.1739
   1031  C4        -7.4450   -5.2850   34.2100 C.ar   48  C48         0.1759
   1032  N4        -6.1660   -5.1990   33.8390 N.pl3  48  C48        -0.1070
   1033  C5        -8.4770   -5.2250   33.2380 C.ar   48  C48         0.0566
   1034  C6        -9.7400   -5.3170   33.6760 C.ar   48  C48         0.0850
   1035  OP1      -13.7020   -4.2960   29.8290 O.2    48  C48        -0.5172
   1036  OP2      -11.1160   -4.4880   29.9330 O.co2  48  C48        -0.4373
   1037  P        -13.1740   -1.1660   34.9330 P.3    49  A49         0.2141
   1038  C5'      -13.0870   -1.1070   37.5420 C.3    49  A49         0.1812
   1039  O5'      -12.4170   -0.9350   36.3100 O.3    49  A49        -0.3114
   1040  C4'      -12.1330   -0.9220   38.6860 C.3    49  A49         0.1773
   1041  O4'      -11.1640   -2.0040   38.6930 O.3    49  A49        -0.3307
   1042  C3'      -11.2770    0.3330   38.6410 C.3    49  A49         0.1860
   1043  O3'      -11.9730    1.4940   39.0830 O.3    49  A49        -0.3112
   1044  C2'      -10.1100   -0.0570   39.5320 C.3    49  A49         0.2309
   1045  O2'      -10.5380   -0.0530   40.8810 O.3    49  A49        -0.2156
   1046  C1'       -9.9110   -1.5160   39.1250 C.3    49  A49         0.2408
   1047  N1        -4.9460   -1.9460   37.6750 N.ar   49  A49        -0.2040
   1048  C2        -5.5210   -1.7670   38.8690 C.ar   49  A49         0.2016
   1049  N3        -6.8100   -1.6570   39.1780 N.ar   49  A49        -0.2048
   1050  C4        -7.5800   -1.7550   38.0850 C.ar   49  A49         0.1692
   1051  C5        -7.1400   -1.9390   36.7850 C.ar   49  A49         0.1518
   1052  C6        -5.7460   -2.0470   36.5870 C.ar   49  A49         0.1919
   1053  N6        -5.1690   -2.2320   35.3900 N.pl3  49  A49        -0.1054
   1054  N7        -8.2200   -1.9850   35.9130 N.ar   49  A49        -0.2193
   1055  C8        -9.2640   -1.8340   36.6910 C.ar   49  A49         0.1816
   1056  N9        -8.9520   -1.6800   38.0150 N.ar   49  A49        -0.2693
   1057  OP1      -14.4220   -0.3610   34.9690 O.3    49  A49        -0.4373
   1058  OP2      -12.1690   -0.9150   33.8750 O.co2  49  A49        -0.5172
   1059  P        -11.7300    2.9290   38.3990 P.3    50  C50         0.2141
   1060  C5'      -10.0260    3.6360   40.2690 C.3    50  C50         0.1812
   1061  O5'      -10.2770    3.3630   38.9000 O.3    50  C50        -0.3114
   1062  C4'       -8.5470    3.6590   40.5740 C.3    50  C50         0.1773
   1063  O4'       -7.9650    2.3510   40.3050 O.3    50  C50        -0.3307
   1064  C3'       -7.6790    4.5980   39.7510 C.3    50  C50         0.1860
   1065  O3'       -7.7880    5.9750   40.1080 O.3    50  C50        -0.3112
   1066  C2'       -6.2990    3.9980   39.9680 C.3    50  C50         0.2309
   1067  O2'       -5.8530    4.2580   41.2910 O.3    50  C50        -0.2156
   1068  C1'       -6.6260    2.5070   39.8760 C.3    50  C50         0.2420
   1069  N1        -6.5070    2.0460   38.4760 N.ar   50  C50        -0.2535
   1070  C2        -5.2350    1.7200   38.0030 C.ar   50  C50         0.3532
   1071  O2        -4.2580    1.7840   38.7550 O.2    50  C50        -0.2443
   1072  N3        -5.0760    1.3280   36.7280 N.ar   50  C50        -0.1739
   1073  C4        -6.1200    1.2720   35.9120 C.ar   50  C50         0.1759
   1074  N4        -5.8850    0.8690   34.6510 N.pl3  50  C50        -0.1070
   1075  C5        -7.4310    1.5990   36.3510 C.ar   50  C50         0.0566
   1076  C6        -7.5750    1.9950   37.6250 C.ar   50  C50         0.0850
   1077  OP1      -12.7460    3.8430   38.9890 O.3    50  C50        -0.4373
   1078  OP2      -11.6250    2.8190   36.9200 O.co2  50  C50        -0.5172
   1079  P         -7.5750    7.1150   38.9940 P.3    51  A51         0.2141
   1080  C5'       -5.0870    7.3320   39.7380 C.3    51  A51         0.1812
   1081  O5'       -6.0150    7.0780   38.6930 O.3    51  A51        -0.3114
   1082  C4'       -3.6740    7.1800   39.2510 C.3    51  A51         0.1773
   1083  O4'       -3.4640    5.8160   38.8090 O.3    51  A51        -0.3307
   1084  C3'       -3.3100    8.0150   38.0380 C.3    51  A51         0.1860
   1085  O3'       -3.0130    9.3600   38.3700 O.3    51  A51        -0.3112
   1086  C2'       -2.1380    7.2470   37.4480 C.3    51  A51         0.2309
   1087  O2'       -0.9540    7.5040   38.1950 O.3    51  A51        -0.2156
   1088  C1'       -2.5680    5.8000   37.7140 C.3    51  A51         0.2408
   1089  N1        -1.8720    3.5090   33.1780 N.ar   51  A51        -0.2040
   1090  C2        -1.0210    4.0350   34.0750 C.ar   51  A51         0.2016
   1091  N3        -1.2900    4.6230   35.2420 N.ar   51  A51        -0.2048
   1092  C4        -2.6140    4.6520   35.4610 C.ar   51  A51         0.1692
   1093  C5        -3.6120    4.1600   34.6360 C.ar   51  A51         0.1518
   1094  C6        -3.2000    3.5640   33.4350 C.ar   51  A51         0.1919
   1095  N6        -4.0490    3.0340   32.5470 N.pl3  51  A51        -0.1054
   1096  N7        -4.8590    4.3620   35.2020 N.ar   51  A51        -0.2193
   1097  C8        -4.5830    4.9700   36.3410 C.ar   51  A51         0.1816
   1098  N9        -3.2430    5.1740   36.5560 N.ar   51  A51        -0.2693
   1099  OP1       -7.8320    8.4260   39.6540 O.3    51  A51        -0.4373
   1100  OP2       -8.2730    6.7770   37.7300 O.co2  51  A51        -0.5172
   1101  P         -3.2170   10.5140   37.2710 P.3    52  A52         0.2141
   1102  C5'       -0.6670   10.4810   36.7610 C.3    52  A52         0.1812
   1103  O5'       -1.9890   10.3020   36.2820 O.3    52  A52        -0.3114
   1104  C4'        0.3640   10.1290   35.7240 C.3    52  A52         0.1773
   1105  O4'        0.3070    8.7160   35.4150 O.3    52  A52        -0.3307
   1106  C3'        0.2180   10.7920   34.3680 C.3    52  A52         0.1860
   1107  O3'        0.6620   12.1350   34.3640 O.3    52  A52        -0.3112
   1108  C2'        1.0450    9.8730   33.4840 C.3    52  A52         0.2309
   1109  O2'        2.4300   10.0810   33.7140 O.3    52  A52        -0.2156
   1110  C1'        0.6810    8.5090   34.0690 C.3    52  A52         0.2408
   1111  N1        -0.7490    5.5920   30.0770 N.ar   52  A52        -0.2040
   1112  C2         0.4510    6.0280   30.4840 C.ar   52  A52         0.2016
   1113  N3         0.7560    6.7880   31.5370 N.ar   52  A52        -0.2048
   1114  C4        -0.3570    7.1130   32.2270 C.ar   52  A52         0.1692
   1115  C5        -1.6530    6.7390   31.9390 C.ar   52  A52         0.1518
   1116  C6        -1.8420    5.9350   30.8020 C.ar   52  A52         0.1919
   1117  N6        -3.0410    5.5050   30.4110 N.pl3  52  A52        -0.1054
   1118  N7        -2.5460    7.2630   32.8630 N.ar   52  A52        -0.2193
   1119  C8        -1.7780    7.9420   33.6870 C.ar   52  A52         0.1816
   1120  N9        -0.4460    7.8870   33.3590 N.ar   52  A52        -0.2693
   1121  OP1       -3.0410   11.8280   37.9520 O.3    52  A52        -0.4373
   1122  OP2       -4.4630   10.2250   36.5160 O.co2  52  A52        -0.5172
   1123  P          0.0190   13.2080   33.3590 P.3    53  C53         0.2141
   1124  C5'        1.7100   12.5810   31.4760 C.3    53  C53         0.1812
   1125  O5'        0.3630   12.6570   31.9060 O.3    53  C53        -0.3114
   1126  C4'        1.8550   11.8040   30.1940 C.3    53  C53         0.1773
   1127  O4'        1.3440   10.4590   30.3420 O.3    53  C53        -0.3307
   1128  C3'        1.1000   12.3230   28.9890 C.3    53  C53         0.1860
   1129  O3'        1.6770   13.4830   28.4240 O.3    53  C53        -0.3112
   1130  C2'        1.1180   11.1130   28.0700 C.3    53  C53         0.2309
   1131  O2'        2.4030   10.9590   27.4900 O.3    53  C53        -0.2156
   1132  C1'        0.9210    9.9780   29.0780 C.3    53  C53         0.2420
   1133  N1        -0.4960    9.5610   29.1490 N.ar   53  C53        -0.2535
   1134  C2        -0.9010    8.5750   28.2540 C.ar   53  C53         0.3532
   1135  O2        -0.0530    8.1020   27.4940 O.2    53  C53        -0.2443
   1136  N3        -2.1800    8.1470   28.2480 N.ar   53  C53        -0.1739
   1137  C4        -3.0510    8.6910   29.0920 C.ar   53  C53         0.1759
   1138  N4        -4.3070    8.2390   29.0470 N.pl3  53  C53        -0.1070
   1139  C5        -2.6770    9.7080   30.0140 C.ar   53  C53         0.0566
   1140  C6        -1.3980   10.1150   30.0090 C.ar   53  C53         0.0850
   1141  OP1        0.8200   14.4390   33.6000 O.3    53  C53        -0.4373
   1142  OP2       -1.4650   13.2390   33.4770 O.co2  53  C53        -0.5172
   1143  P          0.7330   14.6130   27.7850 P.3    54  G54         0.2141
   1144  C5'        1.5290   13.8480   25.4410 C.3    54  G54         0.1812
   1145  O5'        0.4430   14.0730   26.3220 O.3    54  G54        -0.3114
   1146  C4'        1.1690   12.9030   24.3280 C.3    54  G54         0.1773
   1147  O4'        0.6710   11.6550   24.8640 O.3    54  G54        -0.3307
   1148  C3'        0.0650   13.3460   23.3870 C.3    54  G54         0.1860
   1149  O3'        0.4890   14.3220   22.4500 O.3    54  G54        -0.3112
   1150  C2'       -0.3520   12.0280   22.7500 C.3    54  G54         0.2309
   1151  O2'        0.5860   11.6450   21.7570 O.3    54  G54        -0.2156
   1152  C1'       -0.2100   11.0650   23.9290 C.3    54  G54         0.2408
   1153  N1        -4.2740    8.2910   23.2850 N.ar   54  G54        -0.1709
   1154  C2        -3.1330    8.4210   22.5280 C.ar   54  G54         0.2606
   1155  N2        -3.0660    7.6760   21.4180 N.pl3  54  G54        -0.0859
   1156  N3        -2.1270    9.2170   22.8380 N.ar   54  G54        -0.1918
   1157  C4        -2.3740    9.8770   23.9890 C.ar   54  G54         0.1723
   1158  C5        -3.4690    9.8320   24.8210 C.ar   54  G54         0.1748
   1159  C6        -4.5390    8.9650   24.4720 C.ar   54  G54         0.3023
   1160  O6        -5.6080    8.7720   25.0600 O.2    54  G54        -0.2633
   1161  N7        -3.2970   10.7000   25.8940 N.ar   54  G54        -0.2173
   1162  C8        -2.1130   11.2280   25.6970 C.ar   54  G54         0.1817
   1163  N9        -1.5080   10.7620   24.5560 N.ar   54  G54        -0.2693
   1164  OP1        1.5790   15.8300   27.6700 O.2    54  G54        -0.5172
   1165  OP2       -0.5660   14.6540   28.4980 O.co2  54  G54        -0.4373
   1166  P         -0.5820   15.3190   21.7880 P.3    55  A55         0.2141
   1167  C5'       -0.4140   13.6960   19.7350 C.3    55  A55         0.1812
   1168  O5'       -1.2360   14.4450   20.6240 O.3    55  A55        -0.3114
   1169  C4'       -1.2090   12.9600   18.6830 C.3    55  A55         0.1773
   1170  O4'       -1.9500   11.8560   19.2820 O.3    55  A55        -0.3307
   1171  C3'       -2.2330   13.7950   17.8990 C.3    55  A55         0.1860
   1172  O3'       -2.1580   13.4490   16.5200 O.3    55  A55        -0.3112
   1173  C2'       -3.5710   13.3160   18.4680 C.3    55  A55         0.2309
   1174  O2'       -4.6760   13.4250   17.5950 O.3    55  A55        -0.2156
   1175  C1'       -3.2620   11.8590   18.7700 C.3    55  A55         0.2408
   1176  N1        -6.6400    8.0630   19.4550 N.ar   55  A55        -0.2040
   1177  C2        -5.8140    8.3570   18.4330 C.ar   55  A55         0.2016
   1178  N3        -4.9460    9.3660   18.3250 N.ar   55  A55        -0.2048
   1179  C4        -4.9750   10.1370   19.4310 C.ar   55  A55         0.1692
   1180  C5        -5.7630    9.9570   20.5470 C.ar   55  A55         0.1518
   1181  C6        -6.6320    8.8660   20.5420 C.ar   55  A55         0.1919
   1182  N6        -7.4450    8.5880   21.5720 N.pl3  55  A55        -0.1054
   1183  N7        -5.5290   10.9500   21.4940 N.ar   55  A55        -0.2193
   1184  C8        -4.6090   11.6980   20.9380 C.ar   55  A55         0.1816
   1185  N9        -4.2120   11.2480   19.7040 N.ar   55  A55        -0.2693
   1186  OP1        0.1670   16.4490   21.1820 O.2    55  A55        -0.5172
   1187  OP2       -1.6330   15.6130   22.7950 O.co2  55  A55        -0.4373
   1188  P         -1.1550   14.2450   15.5460 P.3    56  A56         0.2141
   1189  C5'       -3.0790   15.8090   14.6500 C.3    56  A56         0.1812
   1190  O5'       -2.0950   14.8080   14.3860 O.3    56  A56        -0.3114
   1191  C4'       -4.3350   15.5630   13.8510 C.3    56  A56         0.1773
   1192  O4'       -3.9810   15.3940   12.4450 O.3    56  A56        -0.3307
   1193  C3'       -5.0940   14.2980   14.2390 C.3    56  A56         0.1860
   1194  O3'       -6.4670   14.4660   13.8990 O.3    56  A56        -0.3112
   1195  C2'       -4.5100   13.2780   13.2740 C.3    56  A56         0.2309
   1196  O2'       -5.3070   12.1340   13.0770 O.3    56  A56        -0.2156
   1197  C1'       -4.4100   14.1230   12.0080 C.3    56  A56         0.2408
   1198  N1        -3.8050   12.4050    7.2040 N.ar   56  A56        -0.2040
   1199  C2        -4.8950   12.8040    7.8820 C.ar   56  A56         0.2016
   1200  N3        -4.9870   13.2440    9.1370 N.ar   56  A56        -0.2048
   1201  C4        -3.7720   13.2490    9.7230 C.ar   56  A56         0.1692
   1202  C5        -2.5710   12.8700    9.1610 C.ar   56  A56         0.1518
   1203  C6        -2.5980   12.4310    7.8280 C.ar   56  A56         0.1919
   1204  N6        -1.5120   12.0240    7.1490 N.pl3  56  A56        -0.1054
   1205  N7        -1.5380   13.0120   10.0800 N.ar   56  A56        -0.2193
   1206  C8        -2.1170   13.4660   11.1540 C.ar   56  A56         0.1816
   1207  N9        -3.4660   13.6290   11.0090 N.ar   56  A56        -0.2693
   1208  OP1       -0.2390   13.2350   14.9470 O.2    56  A56        -0.5172
   1209  OP2       -0.6530   15.4550   16.2520 O.co2  56  A56        -0.4373
   1210  P         -7.4610   15.3710   14.7640 P.3    57  G57         0.2141
   1211  C5'       -8.0530   17.3010   13.1120 C.3    57  G57         0.1812
   1212  O5'       -7.2600   16.8370   14.1910 O.3    57  G57        -0.3114
   1213  C4'       -7.3080   17.2120   11.8040 C.3    57  G57         0.1773
   1214  O4'       -7.2290   15.8320   11.3760 O.3    57  G57        -0.3307
   1215  C3'       -7.9760   17.9180   10.6420 C.3    57  G57         0.1860
   1216  O3'       -7.7220   19.3110   10.6430 O.3    57  G57        -0.3112
   1217  C2'       -7.4230   17.1730    9.4390 C.3    57  G57         0.2309
   1218  O2'       -6.0810   17.5640    9.1900 O.3    57  G57        -0.2156
   1219  C1'       -7.3970   15.7480    9.9750 C.3    57  G57         0.2408
   1220  N1       -10.1650   13.0300    6.6710 N.ar   57  G57        -0.1709
   1221  C2        -8.9510   13.6480    6.4870 C.ar   57  G57         0.2606
   1222  N2        -8.4030   13.5110    5.2700 N.pl3  57  G57        -0.0859
   1223  N3        -8.3250   14.3450    7.4170 N.ar   57  G57        -0.1918
   1224  C4        -9.0220   14.3720    8.5690 C.ar   57  G57         0.1723
   1225  C5       -10.2390   13.7980    8.8600 C.ar   57  G57         0.1748
   1226  C6       -10.9060   13.0600    7.8570 C.ar   57  G57         0.3023
   1227  O6       -11.9980   12.4690    7.9240 O.2    57  G57        -0.2633
   1228  N7       -10.6140   14.0650   10.1700 N.ar   57  G57        -0.2173
   1229  C8        -9.6380   14.7810   10.6400 C.ar   57  G57         0.1817
   1230  N9        -8.6470   15.0150    9.7170 N.ar   57  G57        -0.2693
   1231  OP1       -7.0750   15.3810   16.2010 O.3    57  G57        -0.4373
   1232  OP2       -8.8110   14.9410   14.3150 O.co2  57  G57        -0.5172
   1233  P         -8.7560   20.2930    9.9300 P.3    58  C58         0.2141
   1234  C5'       -9.7800   19.7900    7.5800 C.3    58  C58         0.1812
   1235  O5'       -8.6640   19.7920    8.4360 O.3    58  C58        -0.3114
   1236  C4'       -9.4300   19.0400    6.3310 C.3    58  C58         0.1773
   1237  O4'       -9.4490   17.6170    6.6010 O.3    58  C58        -0.3307
   1238  C3'      -10.3960   19.2240    5.1790 C.3    58  C58         0.1860
   1239  O3'      -10.0990   20.3940    4.4390 O.3    58  C58        -0.3112
   1240  C2'      -10.2180   17.9410    4.3870 C.3    58  C58         0.2309
   1241  O2'       -9.0400   18.0060    3.6030 O.3    58  C58        -0.2156
   1242  C1'       -9.9840   16.9240    5.5050 C.3    58  C58         0.2420
   1243  N1       -11.2300   16.2530    5.9390 N.ar   58  C58        -0.2535
   1244  C2       -11.7850   15.2940    5.1020 C.ar   58  C58         0.3532
   1245  O2       -11.2230   15.0440    4.0280 O.2    58  C58        -0.2443
   1246  N3       -12.9200   14.6560    5.4690 N.ar   58  C58        -0.1739
   1247  C4       -13.4840   14.9600    6.6420 C.ar   58  C58         0.1759
   1248  N4       -14.5960   14.3000    6.9670 N.pl3  58  C58        -0.1070
   1249  C5       -12.9380   15.9270    7.5300 C.ar   58  C58         0.0566
   1250  C6       -11.8150   16.5460    7.1390 C.ar   58  C58         0.0850
   1251  OP1       -8.1450   21.6400    9.9750 O.2    58  C58        -0.5172
   1252  OP2      -10.1420   20.0670   10.4100 O.co2  58  C58        -0.4373
   1253  P        -11.2770   21.3400    3.9050 P.3    59  G59         0.2141
   1254  C5'      -11.1480   20.2650    1.5370 C.3    59  G59         0.1812
   1255  O5'      -11.9010   20.5100    2.7120 O.3    59  G59        -0.3114
   1256  C4'      -11.8480   19.2900    0.6360 C.3    59  G59         0.1773
   1257  O4'      -11.9620   18.0020    1.2840 O.3    59  G59        -0.3307
   1258  C3'      -13.2730   19.6430    0.2580 C.3    59  G59         0.1860
   1259  O3'      -13.3280   20.6030   -0.7890 O.3    59  G59        -0.3112
   1260  C2'      -13.8470   18.2900   -0.1390 C.3    59  G59         0.2309
   1261  O2'      -13.5040   17.9760   -1.4780 O.3    59  G59        -0.2156
   1262  C1'      -13.1100   17.3340    0.8200 C.3    59  G59         0.2408
   1263  N1       -16.9240   14.4180    2.1820 N.ar   59  G59        -0.1709
   1264  C2       -16.2070   14.4570    1.0170 C.ar   59  G59         0.2606
   1265  N2       -16.5820   13.6030    0.0530 N.pl3  59  G59        -0.0859
   1266  N3       -15.1990   15.2890    0.8070 N.ar   59  G59        -0.1918
   1267  C4       -14.9730   16.0730    1.8770 C.ar   59  G59         0.1723
   1268  C5       -15.6190   16.1170    3.0820 C.ar   59  G59         0.1748
   1269  C6       -16.6950   15.2200    3.2890 C.ar   59  G59         0.3023
   1270  O6       -17.4040   15.0990    4.2900 O.2    59  G59        -0.2633
   1271  N7       -15.0530   17.0780    3.9090 N.ar   59  G59        -0.2173
   1272  C8       -14.0930   17.6010    3.1850 C.ar   59  G59         0.1817
   1273  N9       -13.9840   17.0100    1.9560 N.ar   59  G59        -0.2693
   1274  OP1      -10.6420   22.5590    3.3460 O.2    59  G59        -0.5172
   1275  OP2      -12.3240   21.4540    4.9470 O.co2  59  G59        -0.4373
   1276  P        -14.2310   21.9290   -0.6380 P.3    60  A60         0.2141
   1277  C5'      -16.7670   22.1680   -0.0240 C.3    60  A60         0.1812
   1278  O5'      -15.6810   21.3310   -0.3840 O.3    60  A60        -0.3114
   1279  C4'      -18.0240   21.7140   -0.7140 C.3    60  A60         0.1773
   1280  O4'      -17.8970   21.9260   -2.1380 O.3    60  A60        -0.3307
   1281  C3'      -18.3380   20.2320   -0.5940 C.3    60  A60         0.1860
   1282  O3'      -18.9790   19.9310    0.6290 O.3    60  A60        -0.3112
   1283  C2'      -19.2320   19.9900   -1.7980 C.3    60  A60         0.2309
   1284  O2'      -20.5300   20.5060   -1.5250 O.3    60  A60        -0.2156
   1285  C1'      -18.5990   20.9160   -2.8300 C.3    60  A60         0.2408
   1286  N1       -18.3950   17.8860   -6.9530 N.ar   60  A60        -0.2040
   1287  C2       -19.4100   18.2900   -6.1820 C.ar   60  A60         0.2016
   1288  N3       -19.3670   19.0710   -5.1070 N.ar   60  A60        -0.2048
   1289  C4       -18.1100   19.4530   -4.8270 C.ar   60  A60         0.1692
   1290  C5       -16.9670   19.1170   -5.5220 C.ar   60  A60         0.1518
   1291  C6       -17.1450   18.3030   -6.6450 C.ar   60  A60         0.1919
   1292  N6       -16.1460   17.8850   -7.4260 N.pl3  60  A60        -0.1054
   1293  N7       -15.8520   19.7100   -4.9500 N.ar   60  A60        -0.2193
   1294  C8       -16.3430   20.3810   -3.9310 C.ar   60  A60         0.1816
   1295  N9       -17.7040   20.2540   -3.7920 N.ar   60  A60        -0.2693
   1296  OP1      -14.2430   22.5990   -1.9650 O.2    60  A60        -0.5172
   1297  OP2      -13.8670   22.7190    0.5560 O.co2  60  A60        -0.4373
   1298  P        -18.5460   18.6530    1.4850 P.3    61  G61         0.2141
   1299  C5'      -20.4560   17.2150    0.4110 C.3    61  G61         0.1812
   1300  O5'      -19.0700   17.4150    0.6490 O.3    61  G61        -0.3114
   1301  C4'      -20.6500   16.3010   -0.7740 C.3    61  G61         0.1773
   1302  O4'      -19.9760   16.8750   -1.9120 O.3    61  G61        -0.3307
   1303  C3'      -20.0620   14.9040   -0.6380 C.3    61  G61         0.1860
   1304  O3'      -20.9440   14.0270    0.0390 O.3    61  G61        -0.3112
   1305  C2'      -19.7840   14.5070   -2.0900 C.3    61  G61         0.2309
   1306  O2'      -20.9620   14.0420   -2.7250 O.3    61  G61        -0.2156
   1307  C1'      -19.4330   15.8470   -2.7230 C.3    61  G61         0.2408
   1308  N1       -15.2980   15.5330   -5.6970 N.ar   61  G61        -0.1709
   1309  C2       -16.5810   15.0860   -5.9280 C.ar   61  G61         0.2606
   1310  N2       -16.8090   14.4910   -7.1060 N.pl3  61  G61        -0.0859
   1311  N3       -17.5820   15.2150   -5.0720 N.ar   61  G61        -0.1918
   1312  C4       -17.1970   15.8350   -3.9460 C.ar   61  G61         0.1723
   1313  C5       -15.9500   16.3140   -3.6110 C.ar   61  G61         0.1748
   1314  C6       -14.8800   16.1810   -4.5380 C.ar   61  G61         0.3023
   1315  O6       -13.7040   16.5580   -4.4060 O.2    61  G61        -0.2633
   1316  N7       -15.9660   16.8830   -2.3520 N.ar   61  G61        -0.2173
   1317  C8       -17.1990   16.7430   -1.9510 C.ar   61  G61         0.1817
   1318  N9       -17.9900   16.0980   -2.8640 N.ar   61  G61        -0.2693
   1319  OP1      -19.3280   18.7900    2.7420 O.3    61  G61        -0.4373
   1320  OP2      -17.0660   18.5050    1.5090 O.co2  61  G61        -0.5172
   1321  P        -20.4310   12.6600    0.7300 P.3    62  A62         0.2141
   1322  C5'      -21.4070   11.2200   -1.2170 C.3    62  A62         0.1812
   1323  O5'      -20.2800   11.6450   -0.4710 O.3    62  A62        -0.3114
   1324  C4'      -20.9790   10.3230   -2.3480 C.3    62  A62         0.1773
   1325  O4'      -20.3050   11.1130   -3.3490 O.3    62  A62        -0.3307
   1326  C3'      -19.9670    9.2550   -1.9700 C.3    62  A62         0.1860
   1327  O3'      -20.5780    8.1040   -1.4210 O.3    62  A62        -0.3112
   1328  C2'      -19.2350    8.9910   -3.2760 C.3    62  A62         0.2309
   1329  O2'      -19.9680    8.0860   -4.0850 O.3    62  A62        -0.2156
   1330  C1'      -19.2530   10.3740   -3.9280 C.3    62  A62         0.2408
   1331  N1       -14.7430   11.8900   -5.8720 N.ar   62  A62        -0.2040
   1332  C2       -15.7360   11.1520   -6.3990 C.ar   62  A62         0.2016
   1333  N3       -16.8900   10.7930   -5.8330 N.ar   62  A62        -0.2048
   1334  C4       -16.9790   11.2690   -4.5790 C.ar   62  A62         0.1692
   1335  C5       -16.0490   12.0290   -3.9100 C.ar   62  A62         0.1518
   1336  C6       -14.8740   12.3430   -4.6020 C.ar   62  A62         0.1919
   1337  N6       -13.9050   13.0720   -4.0400 N.pl3  62  A62        -0.1054
   1338  N7       -16.4780   12.3530   -2.6280 N.ar   62  A62        -0.2193
   1339  C8       -17.6500   11.7740   -2.5410 C.ar   62  A62         0.1816
   1340  N9       -18.0070   11.1110   -3.6860 N.ar   62  A62        -0.2693
   1341  OP1      -21.5410   12.2250    1.6080 O.3    62  A62        -0.4373
   1342  OP2      -19.0560   12.8410    1.2650 O.co2  62  A62        -0.5172
   1343  P        -19.7490    7.1780   -0.4170 P.3    63  G63         0.2141
   1344  C5'      -17.1490    6.8510   -0.5210 C.3    63  G63         0.1812
   1345  O5'      -18.3890    6.9230   -1.2080 O.3    63  G63        -0.3114
   1346  C4'      -16.1520    7.8540   -1.0560 C.3    63  G63         0.1773
   1347  O4'      -16.6330    9.2040   -0.8230 O.3    63  G63        -0.3307
   1348  C3'      -14.7780    7.8250   -0.4000 C.3    63  G63         0.1860
   1349  O3'      -13.9330    6.8510   -0.9780 O.3    63  G63        -0.3112
   1350  C2'      -14.2730    9.2440   -0.6060 C.3    63  G63         0.2309
   1351  O2'      -13.8090    9.4030   -1.9400 O.3    63  G63        -0.2156
   1352  C1'      -15.5630   10.0430   -0.4470 C.3    63  G63         0.2408
   1353  N1       -14.0660   12.8760    3.5310 N.ar   63  G63        -0.1709
   1354  C2       -13.4790   12.7550    2.2910 C.ar   63  G63         0.2606
   1355  N2       -12.3670   13.4860    2.0880 N.pl3  63  G63        -0.0859
   1356  N3       -13.9500   11.9800    1.3200 N.ar   63  G63        -0.1918
   1357  C4       -15.0690   11.3300    1.7030 C.ar   63  G63         0.1723
   1358  C5       -15.7280   11.3700    2.9120 C.ar   63  G63         0.1748
   1359  C6       -15.2190   12.1930    3.9420 C.ar   63  G63         0.3023
   1360  O6       -15.6830   12.3610    5.0780 O.2    63  G63        -0.2633
   1361  N7       -16.8460   10.5520    2.8960 N.ar   63  G63        -0.2173
   1362  C8       -16.8450   10.0290    1.7130 C.ar   63  G63         0.1817
   1363  N9       -15.7980   10.4540    0.9430 N.ar   63  G63        -0.2693
   1364  OP1      -20.4730    5.8830   -0.3050 O.2    63  G63        -0.5172
   1365  OP2      -19.4950    7.9660    0.8050 O.co2  63  G63        -0.4373
   1366  P        -12.8520    6.0860   -0.0740 P.3    64  C64         0.2141
   1367  C5'      -11.1210    7.8250   -0.9910 C.3    64  C64         0.1812
   1368  O5'      -11.7050    7.1680    0.1230 O.3    64  C64        -0.3114
   1369  C4'      -10.1570    8.8770   -0.5240 C.3    64  C64         0.1773
   1370  O4'      -10.8820    9.9460    0.1260 O.3    64  C64        -0.3307
   1371  C3'       -9.1790    8.4080    0.5380 C.3    64  C64         0.1860
   1372  O3'       -8.0940    7.6870   -0.0080 O.3    64  C64        -0.3112
   1373  C2'       -8.7850    9.7060    1.2200 C.3    64  C64         0.2309
   1374  O2'       -7.8410   10.4110    0.4320 O.3    64  C64        -0.2156
   1375  C1'      -10.1030   10.4800    1.1760 C.3    64  C64         0.2420
   1376  N1       -10.8750   10.3970    2.4380 N.ar   64  C64        -0.2535
   1377  C2       -10.4880   11.2490    3.4550 C.ar   64  C64         0.3532
   1378  O2        -9.5210   11.9940    3.2470 O.2    64  C64        -0.2443
   1379  N3       -11.1590   11.2510    4.6270 N.ar   64  C64        -0.1739
   1380  C4       -12.1930   10.4360    4.7900 C.ar   64  C64         0.1759
   1381  N4       -12.8170   10.5000    5.9690 N.pl3  64  C64        -0.1070
   1382  C5       -12.6220    9.5510    3.7640 C.ar   64  C64         0.0566
   1383  C6       -11.9400    9.5640    2.6030 C.ar   64  C64         0.0850
   1384  OP1      -12.3360    4.9590   -0.9020 O.2    64  C64        -0.5172
   1385  OP2      -13.4240    5.8420    1.2710 O.co2  64  C64        -0.4373
   1386  P         -7.2880    6.6530    0.9040 P.3    65  G65         0.2141
   1387  C5'       -6.1700    7.3820    3.1600 C.3    65  G65         0.1812
   1388  O5'       -6.3700    7.6040    1.7750 O.3    65  G65        -0.3114
   1389  C4'       -5.8570    8.6870    3.8380 C.3    65  G65         0.1773
   1390  O4'       -7.0770    9.4430    4.0180 O.3    65  G65        -0.3307
   1391  C3'       -5.2700    8.6000    5.2360 C.3    65  G65         0.1860
   1392  O3'       -3.8790    8.3400    5.2280 O.3    65  G65        -0.3112
   1393  C2'       -5.6260    9.9520    5.8250 C.3    65  G65         0.2309
   1394  O2'       -4.7410   10.9590    5.3370 O.3    65  G65        -0.2156
   1395  C1'       -7.0070   10.1890    5.2120 C.3    65  G65         0.2408
   1396  N1        -9.3900   10.6850    9.7350 N.ar   65  G65        -0.1709
   1397  C2        -8.2370   11.3010    9.3070 C.ar   65  G65         0.2606
   1398  N2        -7.6720   12.1460   10.1860 N.pl3  65  G65        -0.0859
   1399  N3        -7.7060   11.1010    8.1100 N.ar   65  G65        -0.1918
   1400  C4        -8.4130   10.2230    7.3670 C.ar   65  G65         0.1723
   1401  C5        -9.5670    9.5510    7.7190 C.ar   65  G65         0.1748
   1402  C6       -10.1370    9.7830    8.9960 C.ar   65  G65         0.3023
   1403  O6       -11.1600    9.2680    9.4680 O.2    65  G65        -0.2633
   1404  N7       -10.0040    8.7320    6.7020 N.ar   65  G65        -0.2173
   1405  C8        -9.1120    8.8910    5.7560 C.ar   65  G65         0.1817
   1406  N9        -8.1170    9.7700    6.0920 N.ar   65  G65        -0.2693
   1407  OP1       -6.4060    5.8920   -0.0130 O.2    65  G65        -0.5172
   1408  OP2       -8.2220    5.9260    1.7940 O.co2  65  G65        -0.4373
   1409  P         -3.3060    7.0880    6.0450 P.3    66  C66         0.2141
   1410  C5'       -2.6720    8.7450    7.9330 C.3    66  C66         0.1812
   1411  O5'       -3.3740    7.5800    7.5490 O.3    66  C66        -0.3114
   1412  C4'       -3.1480    9.2670    9.2610 C.3    66  C66         0.1773
   1413  O4'       -4.5080    9.7540    9.1380 O.3    66  C66        -0.3307
   1414  C3'       -3.2250    8.2350   10.3750 C.3    66  C66         0.1860
   1415  O3'       -1.9720    7.9890   10.9900 O.3    66  C66        -0.3112
   1416  C2'       -4.2540    8.8490   11.3130 C.3    66  C66         0.2309
   1417  O2'       -3.6700    9.9080   12.0400 O.3    66  C66        -0.2156
   1418  C1'       -5.2320    9.4650   10.3190 C.3    66  C66         0.2420
   1419  N1        -6.3500    8.5490    9.9920 N.ar   66  C66        -0.2535
   1420  C2        -7.4170    8.4790   10.8900 C.ar   66  C66         0.3532
   1421  O2        -7.3490    9.1800   11.9050 O.2    66  C66        -0.2443
   1422  N3        -8.4670    7.6710   10.6090 N.ar   66  C66        -0.1739
   1423  C4        -8.4770    6.9500    9.4940 C.ar   66  C66         0.1759
   1424  N4        -9.5320    6.1630    9.2420 N.pl3  66  C66        -0.1070
   1425  C5        -7.3950    6.9850    8.5660 C.ar   66  C66         0.0566
   1426  C6        -6.3670    7.7850    8.8600 C.ar   66  C66         0.0850
   1427  OP1       -1.8640    6.9640    5.6780 O.2    66  C66        -0.5172
   1428  OP2       -4.2140    5.9400    5.8260 O.co2  66  C66        -0.4373
   1429  P         -1.6880    6.5620   11.6700 P.3    67  G67         0.2141
   1430  C5'       -2.6500    7.3960   13.9750 C.3    67  G67         0.1812
   1431  O5'       -2.7440    6.5150   12.8610 O.3    67  G67        -0.3114
   1432  C4'       -3.5460    6.9210   15.1000 C.3    67  G67         0.1773
   1433  O4'       -4.9140    6.8180   14.6050 O.3    67  G67        -0.3307
   1434  C3'       -3.1940    5.5380   15.6500 C.3    67  G67         0.1860
   1435  O3'       -3.5450    5.4760   17.0310 O.3    67  G67        -0.3112
   1436  C2'       -4.1280    4.6260   14.8610 C.3    67  G67         0.2309
   1437  O2'       -4.3990    3.3750   15.4700 O.3    67  G67        -0.2156
   1438  C1'       -5.3770    5.4900   14.7540 C.3    67  G67         0.2408
   1439  N1        -9.9680    3.9000   13.3250 N.ar   67  G67        -0.1709
   1440  C2        -9.4850    4.1390   14.5820 C.ar   67  G67         0.2606
   1441  N2       -10.3510    3.9390   15.5970 N.pl3  67  G67        -0.0859
   1442  N3        -8.2600    4.5700   14.8280 N.ar   67  G67        -0.1918
   1443  C4        -7.5380    4.7130   13.6940 C.ar   67  G67         0.1723
   1444  C5        -7.9240    4.4800   12.3900 C.ar   67  G67         0.1748
   1445  C6        -9.2450    4.0390   12.1370 C.ar   67  G67         0.3023
   1446  O6        -9.7700    3.7520   11.0450 O.2    67  G67        -0.2633
   1447  N7        -6.8840    4.7340   11.5000 N.ar   67  G67        -0.2173
   1448  C8        -5.9020    5.1410   12.2760 C.ar   67  G67         0.1817
   1449  N9        -6.2380    5.1470   13.6200 N.ar   67  G67        -0.2693
   1450  OP1       -0.3080    6.6060   12.2290 O.3    67  G67        -0.4373
   1451  OP2       -2.0740    5.4820   10.7560 O.co2  67  G67        -0.5172
   1452  P         -2.4270    5.7010   18.1630 P.3    68  G68         0.2141
   1453  C5'       -1.9350    3.1270   18.1470 C.3    68  G68         0.1812
   1454  O5'       -1.4640    4.4550   17.9750 O.3    68  G68        -0.3114
   1455  C4'       -1.0220    2.1690   17.4350 C.3    68  G68         0.1773
   1456  O4'        0.2550    2.1340   18.0800 O.3    68  G68        -0.3307
   1457  C3'       -1.4640    0.7180   17.3610 C.3    68  G68         0.1860
   1458  O3'       -2.2800    0.5490   16.2140 O.3    68  G68        -0.3112
   1459  C2'       -0.1400   -0.0760   17.2840 C.3    68  G68         0.2309
   1460  O2'        0.1290   -0.4780   15.9490 O.3    68  G68        -0.2156
   1461  C1'        0.9130    0.9620   17.7120 C.3    68  G68         0.2408
   1462  N1         5.5740   -0.6480   18.5800 N.ar   68  G68        -0.1709
   1463  C2         4.9290   -0.3860   17.3920 C.ar   68  G68         0.2606
   1464  N2         5.6340   -0.5760   16.2650 N.pl3  68  G68        -0.0859
   1465  N3         3.6740    0.0340   17.3240 N.ar   68  G68        -0.1918
   1466  C4         3.1190    0.1720   18.5490 C.ar   68  G68         0.1723
   1467  C5         3.6680   -0.0600   19.7880 C.ar   68  G68         0.1748
   1468  C6         5.0130   -0.5120   19.8550 C.ar   68  G68         0.3023
   1469  O6         5.6810   -0.7760   20.8630 O.2    68  G68        -0.2633
   1470  N7         2.7410    0.2060   20.7900 N.ar   68  G68        -0.2173
   1471  C8         1.6630    0.5910   20.1520 C.ar   68  G68         0.1817
   1472  N9         1.8320    0.5640   18.7900 N.ar   68  G68        -0.2693
   1473  OP1       -3.1490    5.5940   19.4620 O.3    68  G68        -0.4373
   1474  OP2       -1.6390    6.9190   17.8680 O.co2  68  G68        -0.5172
   1475  P         -3.2370   -0.7110   15.9890 P.3    69  U69         0.2141
   1476  C5'       -5.0410    0.3460   17.5940 C.3    69  U69         0.1812
   1477  O5'       -4.6900   -0.1310   16.3040 O.3    69  U69        -0.3114
   1478  C4'       -6.5400    0.4120   17.7400 C.3    69  U69         0.1773
   1479  O4'       -7.0440    1.4410   16.8550 O.3    69  U69        -0.3307
   1480  C3'       -7.2910   -0.8460   17.3370 C.3    69  U69         0.1860
   1481  O3'       -7.3570   -1.7840   18.4040 O.3    69  U69        -0.3112
   1482  C2'       -8.6490   -0.3020   16.8940 C.3    69  U69         0.2309
   1483  O2'       -9.4720   -0.0120   18.0220 O.3    69  U69        -0.2156
   1484  C1'       -8.2530    1.0300   16.2660 C.3    69  U69         0.2420
   1485  N1        -8.0460    0.9630   14.7970 N.ar   69  U69        -0.2534
   1486  C2        -9.1470    0.7730   13.9970 C.ar   69  U69         0.3546
   1487  O2       -10.2720    0.6190   14.4510 O.2    69  U69        -0.2443
   1488  N3        -8.8860    0.7410   12.6430 N.ar   69  U69        -0.1530
   1489  C4        -7.6630    0.8970   12.0270 C.ar   69  U69         0.2846
   1490  O4        -7.5970    0.8540   10.7910 O.2    69  U69        -0.2650
   1491  C5        -6.5660    1.1100   12.9220 C.ar   69  U69         0.0814
   1492  C6        -6.7950    1.1450   14.2470 C.ar   69  U69         0.0870
   1493  OP1       -2.9110   -1.8470   16.9100 O.3    69  U69        -0.4373
   1494  OP2       -3.2530   -0.9340   14.5160 O.co2  69  U69        -0.5172
   1495  P         -7.4360   -3.3590   18.1210 P.3    70  G70         0.2141
   1496  C5'       -9.9020   -3.5460   18.9890 C.3    70  G70         0.1812
   1497  O5'       -8.9850   -3.6390   17.9100 O.3    70  G70        -0.3114
   1498  C4'      -11.2760   -3.9890   18.5550 C.3    70  G70         0.1773
   1499  O4'      -11.8040   -3.0670   17.5670 O.3    70  G70        -0.3307
   1500  C3'      -11.3370   -5.3400   17.8580 C.3    70  G70         0.1860
   1501  O3'      -11.3430   -6.4190   18.7710 O.3    70  G70        -0.3112
   1502  C2'      -12.6130   -5.2310   17.0430 C.3    70  G70         0.2309
   1503  O2'      -13.7430   -5.3670   17.8870 O.3    70  G70        -0.2156
   1504  C1'      -12.5560   -3.7730   16.6040 C.3    70  G70         0.2408
   1505  N1       -13.1530   -3.8580   11.5750 N.ar   70  G70        -0.1709
   1506  C2       -14.0530   -4.1730   12.5670 C.ar   70  G70         0.2606
   1507  N2       -15.2750   -4.5490   12.1540 N.pl3  70  G70        -0.0859
   1508  N3       -13.7780   -4.1310   13.8600 N.ar   70  G70        -0.1918
   1509  C4       -12.5090   -3.7400   14.0730 C.ar   70  G70         0.1723
   1510  C5       -11.5350   -3.4060   13.1620 C.ar   70  G70         0.1748
   1511  C6       -11.8380   -3.4480   11.7820 C.ar   70  G70         0.3023
   1512  O6       -11.0880   -3.1790   10.8290 O.2    70  G70        -0.2633
   1513  N7       -10.3540   -3.0500   13.7920 N.ar   70  G70        -0.2173
   1514  C8       -10.6300   -3.1670   15.0630 C.ar   70  G70         0.1817
   1515  N9       -11.9150   -3.5920   15.2950 N.ar   70  G70        -0.2693
   1516  OP1       -7.0460   -4.0340   19.3830 O.3    70  G70        -0.4373
   1517  OP2       -6.7540   -3.6460   16.8320 O.co2  70  G70        -0.5172
   1518  P        -10.7920   -7.8520   18.3180 P.3    71  A71         0.2141
   1519  C5'      -13.2000   -8.6750   17.6670 C.3    71  A71         0.1812
   1520  O5'      -11.8680   -8.3750   17.2670 O.3    71  A71        -0.3114
   1521  C4'      -14.1030   -8.8690   16.4740 C.3    71  A71         0.1773
   1522  O4'      -14.0720   -7.6840   15.6410 O.3    71  A71        -0.3307
   1523  C3'      -13.7200   -9.9930   15.5260 C.3    71  A71         0.1860
   1524  O3'      -14.1480  -11.2640   15.9860 O.3    71  A71        -0.3112
   1525  C2'      -14.3730   -9.5600   14.2210 C.3    71  A71         0.2309
   1526  O2'      -15.7670   -9.8200   14.2660 O.3    71  A71        -0.2156
   1527  C1'      -14.1800   -8.0440   14.2810 C.3    71  A71         0.2408
   1528  N1       -12.1080   -6.6640    9.7630 N.ar   71  A71        -0.2040
   1529  C2       -13.3340   -7.0800   10.1060 C.ar   71  A71         0.2016
   1530  N3       -13.8030   -7.4310   11.3050 N.ar   71  A71        -0.2048
   1531  C4       -12.8460   -7.3180   12.2400 C.ar   71  A71         0.1692
   1532  C5       -11.5400   -6.9010   12.0440 C.ar   71  A71         0.1518
   1533  C6       -11.1660   -6.5620   10.7280 C.ar   71  A71         0.1919
   1534  N6        -9.9450   -6.1430   10.3760 N.pl3  71  A71        -0.1054
   1535  N7       -10.8440   -6.9090   13.2450 N.ar   71  A71        -0.2193
   1536  C8       -11.7330   -7.3220   14.1210 C.ar   71  A71         0.1816
   1537  N9       -12.9670   -7.5900   13.5810 N.ar   71  A71        -0.2693
   1538  OP1      -10.8380   -8.6840   19.5510 O.3    71  A71        -0.4373
   1539  OP2       -9.5090   -7.6740   17.5930 O.co2  71  A71        -0.5172
   1540  P        -13.4290  -12.6080   15.4690 P.3    72  A72         0.2141
   1541  C5'      -15.2470  -13.1410   13.6700 C.3    72  A72         0.1812
   1542  O5'      -13.9180  -12.7650   13.9690 O.3    72  A72        -0.3114
   1543  C4'      -15.4760  -13.1230   12.1830 C.3    72  A72         0.1773
   1544  O4'      -15.2330  -11.7840   11.6730 O.3    72  A72        -0.3307
   1545  C3'      -14.5450  -14.0020   11.3640 C.3    72  A72         0.1860
   1546  O3'      -14.9400  -15.3650   11.3460 O.3    72  A72        -0.3112
   1547  C2'      -14.5790  -13.3300    9.9990 C.3    72  A72         0.2309
   1548  O2'      -15.7880  -13.6470    9.3250 O.3    72  A72        -0.2156
   1549  C1'      -14.6310  -11.8560   10.3970 C.3    72  A72         0.2408
   1550  N1       -10.8450   -9.3320    7.9330 N.ar   72  A72        -0.2040
   1551  C2       -12.0420   -9.7870    7.5280 C.ar   72  A72         0.2016
   1552  N3       -12.9810  -10.4360    8.2160 N.ar   72  A72        -0.2048
   1553  C4       -12.5880  -10.6250    9.4870 C.ar   72  A72         0.1692
   1554  C5       -11.3900  -10.2140   10.0560 C.ar   72  A72         0.1518
   1555  C6       -10.4790   -9.5380    9.2220 C.ar   72  A72         0.1919
   1556  N6        -9.2870   -9.0870    9.6300 N.pl3  72  A72        -0.1054
   1557  N7       -11.3320  -10.5860   11.3910 N.ar   72  A72        -0.2193
   1558  C8       -12.4790  -11.1890   11.5960 C.ar   72  A72         0.1816
   1559  N9       -13.2870  -11.2510   10.4880 N.ar   72  A72        -0.2693
   1560  OP1      -13.9940  -13.7200   16.2780 O.3    72  A72        -0.4373
   1561  OP2      -11.9600  -12.3930   15.3600 O.co2  72  A72        -0.5172
   1562  P        -13.8380  -16.5350   11.2530 P.3    73  U73         0.2141
   1563  C5'      -14.2000  -16.6360    8.6610 C.3    73  U73         0.1812
   1564  O5'      -13.3120  -16.4570    9.7530 O.3    73  U73        -0.3114
   1565  C4'      -13.5510  -16.2600    7.3540 C.3    73  U73         0.1773
   1566  O4'      -13.2950  -14.8320    7.3180 O.3    73  U73        -0.3307
   1567  C3'      -12.1880  -16.8730    7.0910 C.3    73  U73         0.1860
   1568  O3'      -12.2460  -18.2210    6.6630 O.3    73  U73        -0.3112
   1569  C2'      -11.5910  -15.9170    6.0690 C.3    73  U73         0.2309
   1570  O2'      -12.1370  -16.1440    4.7780 O.3    73  U73        -0.2156
   1571  C1'      -12.1100  -14.5760    6.5860 C.3    73  U73         0.2420
   1572  N1       -11.1280  -13.9230    7.4790 N.ar   73  U73        -0.2534
   1573  C2       -10.0400  -13.3130    6.8860 C.ar   73  U73         0.3546
   1574  O2        -9.8730  -13.2970    5.6820 O.2    73  U73        -0.2443
   1575  N3        -9.1490  -12.7190    7.7460 N.ar   73  U73        -0.1530
   1576  C4        -9.2420  -12.6800    9.1200 C.ar   73  U73         0.2846
   1577  O4        -8.3610  -12.1090    9.7620 O.2    73  U73        -0.2650
   1578  C5       -10.3940  -13.3320    9.6660 C.ar   73  U73         0.0814
   1579  C6       -11.2780  -13.9210    8.8480 C.ar   73  U73         0.0870
   1580  OP1      -14.5510  -17.8240   11.4310 O.2    73  U73        -0.5172
   1581  OP2      -12.6870  -16.1990   12.1260 O.co2  73  U73        -0.4373
   1582  P        -11.0650  -19.2310    7.0730 P.3    74  C74         0.2141
   1583  C5'       -9.9680  -18.7430    4.7440 C.3    74  C74         0.1812
   1584  O5'       -9.8470  -18.7560    6.1590 O.3    74  C74        -0.3114
   1585  C4'       -8.7790  -18.0840    4.0940 C.3    74  C74         0.1773
   1586  O4'       -8.7540  -16.6690    4.4230 O.3    74  C74        -0.3307
   1587  C3'       -7.4170  -18.5820    4.5450 C.3    74  C74         0.1860
   1588  O3'       -7.0420  -19.8060    3.9390 O.3    74  C74        -0.3112
   1589  C2'       -6.5120  -17.4100    4.1950 C.3    74  C74         0.2309
   1590  O2'       -6.2660  -17.3770    2.7990 O.3    74  C74        -0.2156
   1591  C1'       -7.4140  -16.2290    4.5460 C.3    74  C74         0.2420
   1592  N1        -7.1940  -15.7690    5.9370 N.ar   74  C74        -0.2535
   1593  C2        -6.2030  -14.8180    6.1830 C.ar   74  C74         0.3532
   1594  O2        -5.5350  -14.3730    5.2390 O.2    74  C74        -0.2443
   1595  N3        -5.9980  -14.3980    7.4510 N.ar   74  C74        -0.1739
   1596  C4        -6.7350  -14.8910    8.4510 C.ar   74  C74         0.1759
   1597  N4        -6.4880  -14.4400    9.6830 N.pl3  74  C74        -0.1070
   1598  C5        -7.7520  -15.8640    8.2370 C.ar   74  C74         0.0566
   1599  C6        -7.9420  -16.2660    6.9730 C.ar   74  C74         0.0850
   1600  OP1      -11.4910  -20.5990    6.6760 O.2    74  C74        -0.5172
   1601  OP2      -10.7070  -19.0030    8.5000 O.co2  74  C74        -0.4373
   1602  P         -6.1290  -20.8600    4.7430 P.3    75  A75         0.2141
   1603  C5'       -4.1750  -19.8660    3.3140 C.3    75  A75         0.1812
   1604  O5'       -4.6590  -20.2610    4.5910 O.3    75  A75        -0.3114
   1605  C4'       -2.9410  -19.0100    3.4280 C.3    75  A75         0.1773
   1606  O4'       -3.2890  -17.6860    3.9120 O.3    75  A75        -0.3307
   1607  C3'       -1.9010  -19.4970    4.4150 C.3    75  A75         0.1860
   1608  O3'       -1.0930  -20.5340    3.8970 O.3    75  A75        -0.3112
   1609  C2'       -1.1320  -18.2280    4.7380 C.3    75  A75         0.2309
   1610  O2'       -0.2390  -17.9100    3.6800 O.3    75  A75        -0.2156
   1611  C1'       -2.2590  -17.1960    4.7510 C.3    75  A75         0.2408
   1612  N1        -1.8390  -14.7880    9.3440 N.ar   75  A75        -0.2040
   1613  C2        -1.0660  -14.7560    8.2480 C.ar   75  A75         0.2016
   1614  N3        -1.2210  -15.4030    7.0920 N.ar   75  A75        -0.2048
   1615  C4        -2.3280  -16.1690    7.1090 C.ar   75  A75         0.1692
   1616  C5        -3.2190  -16.2980    8.1640 C.ar   75  A75         0.1518
   1617  C6        -2.9480  -15.5650    9.3300 C.ar   75  A75         0.1919
   1618  N6        -3.7350  -15.6190   10.4100 N.pl3  75  A75        -0.1054
   1619  N7        -4.2540  -17.1660    7.8500 N.ar   75  A75        -0.2193
   1620  C8        -3.9700  -17.5410    6.6210 C.ar   75  A75         0.1816
   1621  N9        -2.8190  -16.9820    6.1050 N.ar   75  A75        -0.2693
   1622  OP1       -6.2020  -22.1600    4.0220 O.2    75  A75        -0.5172
   1623  OP2       -6.5080  -20.8290    6.1790 O.co2  75  A75        -0.4373
   1624  P         -0.5890  -21.7110    4.8650 P.3    76  U76         0.2141
   1625  C5'        1.6870  -20.4060    4.9140 C.3    76  U76         0.1812
   1626  O5'        0.6600  -21.0770    5.6250 O.3    76  U76        -0.3114
   1627  C4'        2.4790  -19.5010    5.8220 C.3    76  U76         0.1773
   1628  O4'        1.6940  -18.3280    6.1820 O.3    76  U76        -0.3307
   1629  C3'        2.8630  -20.0790    7.1700 C.3    76  U76         0.1860
   1630  O3'        3.9190  -21.0180    7.1350 O.3    76  U76        -0.3112
   1631  C2'        3.1650  -18.8260    7.9730 C.3    76  U76         0.2309
   1632  O2'        4.3980  -18.2600    7.5560 O.3    76  U76        -0.2156
   1633  C1'        2.0380  -17.9130    7.4970 C.3    76  U76         0.2420
   1634  N1         0.8500  -18.0260    8.3830 N.ar   76  U76        -0.2534
   1635  C2         0.8810  -17.3640    9.6060 C.ar   76  U76         0.3546
   1636  O2         1.8240  -16.6870    9.9870 O.2    76  U76        -0.2443
   1637  N3        -0.2430  -17.5130   10.3820 N.ar   76  U76        -0.1530
   1638  C4        -1.3740  -18.2470   10.0710 C.ar   76  U76         0.2846
   1639  O4        -2.3100  -18.2860   10.8720 O.2    76  U76        -0.2650
   1640  C5        -1.3360  -18.9110    8.8010 C.ar   76  U76         0.0814
   1641  C6        -0.2510  -18.7770    8.0280 C.ar   76  U76         0.0870
   1642  OP1       -0.1350  -22.8280    3.9910 O.2    76  U76        -0.5172
   1643  OP2       -1.6390  -21.9650    5.8840 O.co2  76  U76        -0.4373
   1644  P          3.8570  -22.2810    8.1280 P.3    77  U77         0.2141
   1645  C5'        5.1940  -20.9100    9.9190 C.3    77  U77         0.1812
   1646  O5'        4.0260  -21.6350    9.5710 O.3    77  U77        -0.3114
   1647  C4'        5.0180  -20.1830   11.2330 C.3    77  U77         0.1773
   1648  O4'        3.8460  -19.3330   11.1770 O.3    77  U77        -0.3307
   1649  C3'        4.7710  -21.0490   12.4550 C.3    77  U77         0.1860
   1650  O3'        5.9540  -21.6340   12.9590 O.3    77  U77        -0.3112
   1651  C2'        4.1190  -20.0690   13.4230 C.3    77  U77         0.2309
   1652  O2'        5.0990  -19.2370   14.0280 O.3    77  U77        -0.2156
   1653  C1'        3.2740  -19.2200   12.4640 C.3    77  U77         0.2420
   1654  N1         1.8750  -19.6950   12.4030 N.ar   77  U77        -0.2534
   1655  C2         1.0660  -19.3450   13.4610 C.ar   77  U77         0.3546
   1656  O2         1.4740  -18.6700   14.3890 O.2    77  U77        -0.2443
   1657  N3        -0.2200  -19.8060   13.3840 N.ar   77  U77        -0.1530
   1658  C4        -0.7770  -20.5690   12.3870 C.ar   77  U77         0.2846
   1659  O4        -1.9610  -20.9120   12.4790 O.2    77  U77        -0.2650
   1660  C5         0.1240  -20.9010   11.3240 C.ar   77  U77         0.0814
   1661  C6         1.3880  -20.4610   11.3730 C.ar   77  U77         0.0870
   1662  OP1        5.0220  -23.1620    7.8510 O.2    77  U77        -0.5172
   1663  OP2        2.4730  -22.8160    8.0590 O.co2  77  U77        -0.4373
   1664  P          5.9180  -23.1120   13.5760 P.3    78  G78         0.2141
   1665  C5'        5.7650  -22.1450   16.0100 C.3    78  G78         0.1812
   1666  O5'        5.1840  -22.9240   14.9780 O.3    78  G78        -0.3114
   1667  C4'        4.7740  -21.8770   17.1210 C.3    78  G78         0.1773
   1668  O4'        3.6780  -21.0570   16.6300 O.3    78  G78        -0.3307
   1669  C3'        4.0820  -23.0980   17.7100 C.3    78  G78         0.1860
   1670  O3'        4.8950  -23.7960   18.6420 O.3    78  G78        -0.3112
   1671  C2'        2.8250  -22.4920   18.3250 C.3    78  G78         0.2309
   1672  O2'        3.1380  -21.8560   19.5560 O.3    78  G78        -0.2156
   1673  C1'        2.4820  -21.4070   17.2920 C.3    78  G78         0.2408
   1674  N1        -2.4200  -22.2330   16.3770 N.ar   78  G78        -0.1709
   1675  C2        -1.8070  -21.7260   17.4970 C.ar   78  G78         0.2606
   1676  N2        -2.6140  -21.3960   18.5230 N.pl3  78  G78        -0.0859
   1677  N3        -0.5000  -21.5520   17.6040 N.ar   78  G78        -0.1918
   1678  C4         0.1560  -21.9500   16.4860 C.ar   78  G78         0.1723
   1679  C5        -0.3580  -22.4700   15.3210 C.ar   78  G78         0.1748
   1680  C6        -1.7630  -22.6400   15.2140 C.ar   78  G78         0.3023
   1681  O6        -2.4190  -23.0850   14.2590 O.2    78  G78        -0.2633
   1682  N7         0.6590  -22.7350   14.4130 N.ar   78  G78        -0.2173
   1683  C8         1.7530  -22.3800   15.0340 C.ar   78  G78         0.1817
   1684  N9         1.5130  -21.8930   16.2950 N.ar   78  G78        -0.2693
   1685  OP1        7.3320  -23.4960   13.8310 O.3    78  G78        -0.4373
   1686  OP2        5.0190  -23.9610   12.7540 O.co2  78  G78        -0.5172
   1687  P          4.6800  -25.3660   18.9080 P.3    79  C79         0.2141
   1688  C5'        3.5660  -24.8170   21.2180 C.3    79  C79         0.1812
   1689  O5'        4.6110  -25.4500   20.4930 O.3    79  C79        -0.3114
   1690  C4'        3.8810  -24.8380   22.6860 C.3    79  C79         0.1773
   1691  O4'        2.7340  -24.3610   23.4500 O.3    79  C79        -0.3307
   1692  C3'        4.2130  -26.2330   23.2400 C.3    79  C79         0.1860
   1693  O3'        5.2780  -26.1380   24.1920 O.3    79  C79        -0.3112
   1694  C2'        2.9150  -26.6140   23.9440 C.3    79  C79         0.2309
   1695  O2'        3.0220  -27.6030   24.9430 O.3    79  C79        -0.2156
   1696  C1'        2.5100  -25.2600   24.5070 C.3    79  C79         0.2420
   1697  N1         1.1430  -25.2070   25.0380 N.ar   79  C79        -0.2535
   1698  C2         0.9150  -24.4060   26.1640 C.ar   79  C79         0.3532
   1699  O2         1.8310  -23.6870   26.5900 O.2    79  C79        -0.2443
   1700  N3        -0.3070  -24.3970   26.7320 N.ar   79  C79        -0.1739
   1701  C4        -1.2640  -25.1700   26.2410 C.ar   79  C79         0.1759
   1702  N4        -2.4510  -25.1280   26.8540 N.pl3  79  C79        -0.1070
   1703  C5        -1.0540  -26.0230   25.1200 C.ar   79  C79         0.0566
   1704  C6         0.1640  -26.0280   24.5660 C.ar   79  C79         0.0850
   1705  OP1        5.9060  -26.0920   18.5030 O.3    79  C79        -0.4373
   1706  OP2        3.3690  -25.8350   18.3800 O.co2  79  C79        -0.5172
   1707  P          6.5460  -27.1330   24.0770 P.3    80  A80         0.2141
   1708  C5'        8.1410  -26.1000   25.9290 C.3    80  A80         0.1812
   1709  O5'        7.1960  -27.0860   25.5360 O.3    80  A80        -0.3114
   1710  C4'        8.1900  -25.9760   27.4360 C.3    80  A80         0.1773
   1711  O4'        7.1120  -25.1120   27.8810 O.3    80  A80        -0.3307
   1712  C3'        7.9790  -27.2730   28.2090 C.3    80  A80         0.1860
   1713  O3'        9.1730  -28.0250   28.3490 O.3    80  A80        -0.3112
   1714  C2'        7.3820  -26.7930   29.5310 C.3    80  A80         0.2309
   1715  O2'        8.3920  -26.3100   30.4010 O.3    80  A80        -0.2156
   1716  C1'        6.5420  -25.6060   29.0700 C.3    80  A80         0.2408
   1717  N1         1.8360  -26.6520   30.8910 N.ar   80  A80        -0.2040
   1718  C2         2.9810  -26.3260   31.5080 C.ar   80  A80         0.2016
   1719  N3         4.1800  -26.0670   30.9800 N.ar   80  A80        -0.2048
   1720  C4         4.1290  -26.1740   29.6430 C.ar   80  A80         0.1692
   1721  C5         3.0360  -26.5100   28.8660 C.ar   80  A80         0.1518
   1722  C6         1.8260  -26.7490   29.5360 C.ar   80  A80         0.1919
   1723  N6         0.6830  -27.0850   28.9180 N.pl3  80  A80        -0.1054
   1724  N7         3.3730  -26.5150   27.5110 N.ar   80  A80        -0.2193
   1725  C8         4.6440  -26.1940   27.5130 C.ar   80  A80         0.1816
   1726  N9         5.1590  -25.9900   28.7630 N.ar   80  A80        -0.2693
   1727  OP1        7.5150  -26.5710   23.1050 O.2    80  A80        -0.5172
   1728  OP2        6.0210  -28.5110   23.8820 O.co2  80  A80        -0.4373
   1729  P          9.1280  -29.6300   28.4130 P.3    81  U81         0.2141
   1730  C5'        9.2480  -29.6350   31.0370 C.3    81  U81         0.1812
   1731  O5'        8.5190  -29.9210   29.8540 O.3    81  U81        -0.3114
   1732  C4'        8.5740  -30.2600   32.2320 C.3    81  U81         0.1773
   1733  O4'        7.3630  -29.5280   32.5440 O.3    81  U81        -0.3307
   1734  C3'        8.1120  -31.6940   32.0230 C.3    81  U81         0.1860
   1735  O3'        9.1510  -32.6230   32.2750 O.3    81  U81        -0.3112
   1736  C2'        6.9300  -31.8240   32.9760 C.3    81  U81         0.2309
   1737  O2'        7.3870  -32.0360   34.3030 O.3    81  U81        -0.2156
   1738  C1'        6.3320  -30.4180   32.9120 C.3    81  U81         0.2420
   1739  N1         5.2450  -30.2820   31.9190 N.ar   81  U81        -0.2534
   1740  C2         3.9600  -30.4730   32.3580 C.ar   81  U81         0.3546
   1741  O2         3.6910  -30.7940   33.5100 O.2    81  U81        -0.2443
   1742  N3         3.0000  -30.3010   31.3970 N.ar   81  U81        -0.1530
   1743  C4         3.1870  -29.9360   30.0800 C.ar   81  U81         0.2846
   1744  O4         2.2040  -29.8100   29.3510 O.2    81  U81        -0.2650
   1745  C5         4.5480  -29.7440   29.6990 C.ar   81  U81         0.0814
   1746  C6         5.5000  -29.9110   30.6180 C.ar   81  U81         0.0870
   1747  OP1       10.5390  -30.0970   28.3830 O.3    81  U81        -0.4373
   1748  OP2        8.1500  -30.1670   27.4310 O.co2  81  U81        -0.5172
   1749  P          9.1810  -34.0240   31.5100 P.3    82  C82         0.2141
   1750  C5'        7.0980  -35.5860   31.5030 C.3    82  C82         0.1812
   1751  O5'        8.0460  -34.8480   32.2450 O.3    82  C82        -0.3114
   1752  C4'        5.8610  -35.8190   32.3240 C.3    82  C82         0.1773
   1753  O4'        5.1330  -34.5710   32.4900 O.3    82  C82        -0.3307
   1754  C3'        4.8460  -36.7620   31.7170 C.3    82  C82         0.1860
   1755  O3'        5.1840  -38.1220   31.9350 O.3    82  C82        -0.3112
   1756  C2'        3.5650  -36.3430   32.4220 C.3    82  C82         0.2309
   1757  O2'        3.5710  -36.8310   33.7550 O.3    82  C82        -0.2156
   1758  C1'        3.7450  -34.8240   32.4740 C.3    82  C82         0.2420
   1759  N1         3.1520  -34.1640   31.2850 N.ar   82  C82        -0.2535
   1760  C2         1.7650  -34.0260   31.2330 C.ar   82  C82         0.3532
   1761  O2         1.0910  -34.4540   32.1870 O.2    82  C82        -0.2443
   1762  N3         1.1930  -33.4350   30.1510 N.ar   82  C82        -0.1739
   1763  C4         1.9520  -33.0000   29.1460 C.ar   82  C82         0.1759
   1764  N4         1.3340  -32.4280   28.1000 N.pl3  82  C82        -0.1070
   1765  C5         3.3720  -33.1240   29.1770 C.ar   82  C82         0.0566
   1766  C6         3.9230  -33.7080   30.2530 C.ar   82  C82         0.0850
   1767  OP1       10.4580  -34.7040   31.8460 O.3    82  C82        -0.4373
   1768  OP2        8.7660  -33.8720   30.0930 O.co2  82  C82        -0.5172
   1769  P          5.2450  -39.1600   30.7140 P.3    83  C83         0.2141
   1770  C5'        2.9740  -40.2130   31.4320 C.3    83  C83         0.1812
   1771  O5'        3.7160  -39.5200   30.4390 O.3    83  C83        -0.3114
   1772  C4'        1.4890  -40.0400   31.2700 C.3    83  C83         0.1773
   1773  O4'        1.1160  -38.6390   31.3600 O.3    83  C83        -0.3307
   1774  C3'        0.8930  -40.4610   29.9410 C.3    83  C83         0.1860
   1775  O3'        0.8020  -41.8540   29.7770 O.3    83  C83        -0.3112
   1776  C2'       -0.4530  -39.7670   29.9920 C.3    83  C83         0.2309
   1777  O2'       -1.2960  -40.4240   30.9250 O.3    83  C83        -0.2156
   1778  C1'       -0.0440  -38.4150   30.5770 C.3    83  C83         0.2420
   1779  N1         0.2900  -37.4820   29.4810 N.ar   83  C83        -0.2535
   1780  C2        -0.7730  -36.9220   28.7860 C.ar   83  C83         0.3532
   1781  O2        -1.9200  -37.1950   29.1630 O.2    83  C83        -0.2443
   1782  N3        -0.5310  -36.1000   27.7490 N.ar   83  C83        -0.1739
   1783  C4         0.7210  -35.8290   27.3870 C.ar   83  C83         0.1759
   1784  N4         0.9200  -35.0000   26.3520 N.pl3  83  C83        -0.1070
   1785  C5         1.8340  -36.4010   28.0650 C.ar   83  C83         0.0566
   1786  C6         1.5680  -37.2200   29.0910 C.ar   83  C83         0.0850
   1787  OP1        5.8580  -40.4050   31.2760 O.3    83  C83        -0.4373
   1788  OP2        5.8370  -38.4810   29.5370 O.co2  83  C83        -0.5172
   1789  P          0.9720  -42.4960   28.3100 P.3    84  G84         0.2141
   1790  C5'       -1.6290  -42.4320   27.9410 C.3    84  G84         0.1812
   1791  O5'       -0.3300  -42.0440   27.5180 O.3    84  G84        -0.3114
   1792  C4'       -2.6910  -41.6670   27.1870 C.3    84  G84         0.1773
   1793  O4'       -2.4230  -40.2460   27.2740 O.3    84  G84        -0.3307
   1794  C3'       -2.7650  -41.9260   25.6920 C.3    84  G84         0.1860
   1795  O3'       -3.4570  -43.1160   25.3800 O.3    84  G84        -0.3112
   1796  C2'       -3.4580  -40.6720   25.1830 C.3    84  G84         0.2309
   1797  O2'       -4.8450  -40.7410   25.4680 O.3    84  G84        -0.2156
   1798  C1'       -2.8510  -39.6070   26.0920 C.3    84  G84         0.2408
   1799  N1        -1.3990  -36.4420   22.4590 N.ar   84  G84        -0.1709
   1800  C2        -2.6490  -36.9280   22.7590 C.ar   84  G84         0.2606
   1801  N2        -3.6630  -36.5160   21.9840 N.pl3  84  G84        -0.0859
   1802  N3        -2.9040  -37.7620   23.7530 N.ar   84  G84        -0.1918
   1803  C4        -1.7700  -38.0760   24.4170 C.ar   84  G84         0.1723
   1804  C5        -0.4750  -37.6570   24.1960 C.ar   84  G84         0.1748
   1805  C6        -0.2220  -36.7490   23.1390 C.ar   84  G84         0.3023
   1806  O6         0.8600  -36.2460   22.7930 O.2    84  G84        -0.2633
   1807  N7         0.3960  -38.2250   25.1160 N.ar   84  G84        -0.2173
   1808  C8        -0.3810  -38.9700   25.8580 C.ar   84  G84         0.1817
   1809  N9        -1.7000  -38.9290   25.4790 N.ar   84  G84        -0.2693
   1810  OP1        0.9300  -43.9570   28.5610 O.3    84  G84        -0.4373
   1811  OP2        2.0990  -41.8790   27.5770 O.co2  84  G84        -0.5172
   1812  P         -3.0850  -43.9480   24.0600 P.3    85  C85         0.2141
   1813  C5'       -4.8490  -42.6230   22.6120 C.3    85  C85         0.1812
   1814  O5'       -3.5040  -43.0060   22.8460 O.3    85  C85        -0.3114
   1815  C4'       -4.9210  -41.6840   21.4350 C.3    85  C85         0.1773
   1816  O4'       -4.2130  -40.4610   21.7430 O.3    85  C85        -0.3307
   1817  C3'       -4.2500  -42.1870   20.1690 C.3    85  C85         0.1860
   1818  O3'       -5.0810  -43.0640   19.4350 O.3    85  C85        -0.3112
   1819  C2'       -3.9060  -40.9000   19.4270 C.3    85  C85         0.2309
   1820  O2'       -5.0440  -40.3930   18.7480 O.3    85  C85        -0.2156
   1821  C1'       -3.5860  -39.9560   20.5840 C.3    85  C85         0.2420
   1822  N1        -2.1370  -39.8290   20.8450 N.ar   85  C85        -0.2535
   1823  C2        -1.3610  -39.0280   20.0050 C.ar   85  C85         0.3532
   1824  O2        -1.9000  -38.4680   19.0410 O.2    85  C85        -0.2443
   1825  N3        -0.0370  -38.8870   20.2410 N.ar   85  C85        -0.1739
   1826  C4         0.5090  -39.5030   21.2960 C.ar   85  C85         0.1759
   1827  N4         1.8180  -39.3250   21.5020 N.pl3  85  C85        -0.1070
   1828  C5        -0.2540  -40.3230   22.1780 C.ar   85  C85         0.0566
   1829  C6        -1.5640  -40.4540   21.9190 C.ar   85  C85         0.0850
   1830  OP1       -3.9600  -45.1400   24.1170 O.3    85  C85        -0.4373
   1831  OP2       -1.6040  -44.0190   23.9240 O.co2  85  C85        -0.5172
   1832  P         -4.4450  -44.3130   18.6510 P.3    86  U86         0.2141
   1833  C5'       -4.4030  -42.9780   16.4000 C.3    86  U86         0.1812
   1834  O5'       -3.6800  -43.6510   17.4210 O.3    86  U86        -0.3114
   1835  C4'       -3.4860  -42.3850   15.3580 C.3    86  U86         0.1773
   1836  O4'       -2.7660  -41.2590   15.9140 O.3    86  U86        -0.3307
   1837  C3'       -2.3890  -43.2950   14.8300 C.3    86  U86         0.1860
   1838  O3'       -2.8580  -44.2080   13.8520 O.3    86  U86        -0.3112
   1839  C2'       -1.3560  -42.3010   14.3090 C.3    86  U86         0.2309
   1840  O2'       -1.7430  -41.7890   13.0420 O.3    86  U86        -0.2156
   1841  C1'       -1.4830  -41.1680   15.3310 C.3    86  U86         0.2420
   1842  N1        -0.4600  -41.2290   16.4020 N.ar   86  U86        -0.2534
   1843  C2         0.7660  -40.6650   16.1240 C.ar   86  U86         0.3546
   1844  O2         1.0180  -40.1490   15.0460 O.2    86  U86        -0.2443
   1845  N3         1.6930  -40.7140   17.1370 N.ar   86  U86        -0.1530
   1846  C4         1.5210  -41.2630   18.3890 C.ar   86  U86         0.2846
   1847  O4         2.4610  -41.2260   19.1890 O.2    86  U86        -0.2650
   1848  C5         0.2200  -41.8260   18.6120 C.ar   86  U86         0.0814
   1849  C6        -0.7040  -41.7820   17.6380 C.ar   86  U86         0.0870
   1850  OP1       -5.6000  -45.1110   18.1570 O.2    86  U86        -0.5172
   1851  OP2       -3.4090  -44.9220   19.5150 O.co2  86  U86        -0.4373
   1852  P         -2.1230  -45.6250   13.6400 P.3    87  C87         0.2141
   1853  C5'       -0.7060  -44.6360   11.6670 C.3    87  C87         0.1812
   1854  O5'       -0.7350  -45.2280   12.9530 O.3    87  C87        -0.3114
   1855  C4'        0.6750  -44.1490   11.3000 C.3    87  C87         0.1773
   1856  O4'        1.0910  -43.0950   12.2040 O.3    87  C87        -0.3307
   1857  C3'        1.8060  -45.1580   11.3860 C.3    87  C87         0.1860
   1858  O3'        1.8380  -46.0520   10.2830 O.3    87  C87        -0.3112
   1859  C2'        3.0330  -44.2530   11.4860 C.3    87  C87         0.2309
   1860  O2'        3.3460  -43.6910   10.2210 O.3    87  C87        -0.2156
   1861  C1'        2.4950  -43.1250   12.3670 C.3    87  C87         0.2420
   1862  N1         2.8070  -43.3180   13.8040 N.ar   87  C87        -0.2535
   1863  C2         4.0530  -42.9140   14.2800 C.ar   87  C87         0.3532
   1864  O2         4.8480  -42.4270   13.4710 O.2    87  C87        -0.2443
   1865  N3         4.3600  -43.0610   15.5920 N.ar   87  C87        -0.1739
   1866  C4         3.4630  -43.6030   16.4260 C.ar   87  C87         0.1759
   1867  N4         3.7830  -43.7420   17.7170 N.pl3  87  C87        -0.1070
   1868  C5         2.1780  -44.0230   15.9750 C.ar   87  C87         0.0566
   1869  C6         1.8960  -43.8600   14.6730 C.ar   87  C87         0.0850
   1870  OP1       -2.9640  -46.4220   12.7100 O.2    87  C87        -0.5172
   1871  OP2       -1.8000  -46.2110   14.9660 O.co2  87  C87        -0.4373
   1872  P          2.4090  -47.5510   10.4510 P.3    88  C88         0.2141
   1873  C5'        4.8220  -46.8420    9.7140 C.3    88  C88         0.1812
   1874  O5'        3.9640  -47.3330   10.7300 O.3    88  C88        -0.3114
   1875  C4'        6.2170  -46.5700   10.2250 C.3    88  C88         0.1773
   1876  O4'        6.1940  -45.5420   11.2480 O.3    88  C88        -0.3307
   1877  C3'        6.9440  -47.7170   10.9010 C.3    88  C88         0.1860
   1878  O3'        7.4580  -48.6790    9.9990 O.3    88  C88        -0.3112
   1879  C2'        8.0290  -46.9860   11.6750 C.3    88  C88         0.2309
   1880  O2'        9.0580  -46.5640   10.7940 O.3    88  C88        -0.2156
   1881  C1'        7.2690  -45.7450   12.1470 C.3    88  C88         0.2420
   1882  N1         6.7310  -45.9250   13.5140 N.ar   88  C88        -0.2535
   1883  C2         7.6120  -45.8220   14.5930 C.ar   88  C88         0.3532
   1884  O2         8.8110  -45.5850   14.3900 O.2    88  C88        -0.2443
   1885  N3         7.1440  -45.9770   15.8460 N.ar   88  C88        -0.1739
   1886  C4         5.8540  -46.2370   16.0460 C.ar   88  C88         0.1759
   1887  N4         5.4640  -46.3840   17.3130 N.pl3  88  C88        -0.1070
   1888  C5         4.9240  -46.3530   14.9750 C.ar   88  C88         0.0566
   1889  C6         5.4070  -46.1910   13.7340 C.ar   88  C88         0.0850
   1890  OP1        2.2240  -48.2050    9.1290 O.2    88  C88        -0.5172
   1891  OP2        1.8260  -48.2320   11.6360 O.co2  88  C88        -0.4373
   1892  P          7.6030  -50.2150   10.4520 P.3    89  A89         0.2141
   1893  C5'       10.0600  -50.0670   11.3630 C.3    89  A89         0.1813
   1894  O5'        8.6720  -50.2030   11.6380 O.3    89  A89        -0.3114
   1895  C4'       10.8800  -49.8830   12.6170 C.3    89  A89         0.1801
   1896  O4'       10.3100  -48.8250   13.4320 O.3    89  A89        -0.3306
   1897  C3'       10.9550  -51.0720   13.5630 C.3    89  A89         0.2161
   1898  O3'       11.8870  -52.0550   13.1450 O.3    89  A89        -0.2175
   1899  C2'       11.3100  -50.4170   14.8920 C.3    89  A89         0.2337
   1900  O2'       12.6980  -50.1200   14.9630 O.3    89  A89        -0.2155
   1901  C1'       10.5290  -49.1000   14.8010 C.3    89  A89         0.2409
   1902  N1         8.2260  -49.2670   19.3450 N.ar   89  A89        -0.2040
   1903  C2         9.5100  -49.1220   18.9800 C.ar   89  A89         0.2016
   1904  N3        10.0340  -49.0770   17.7560 N.ar   89  A89        -0.2048
   1905  C4         9.0680  -49.2140   16.8370 C.ar   89  A89         0.1692
   1906  C5         7.7150  -49.3750   17.0470 C.ar   89  A89         0.1518
   1907  C6         7.2840  -49.3960   18.3790 C.ar   89  A89         0.1919
   1908  N6         6.0030  -49.5450   18.7260 N.pl3  89  A89        -0.1054
   1909  N7         7.0370  -49.4790   15.8380 N.ar   89  A89        -0.2193
   1910  C8         7.9820  -49.3870   14.9370 C.ar   89  A89         0.1816
   1911  N9         9.2300  -49.2160   15.4790 N.ar   89  A89        -0.2693
   1912  OP1        8.2340  -50.9150    9.3060 O.2    89  A89        -0.5172
   1913  OP2        6.3090  -50.6950   10.9940 O.co2  89  A89        -0.4373
@<TRIPOS>BOND
     1  1292  1291    1
     2  1310  1309    1
     3  1286  1291   ar
     4  1286  1287   ar
     5  1291  1290   ar
     6  1332  1331   ar
     7  1332  1333   ar
     8  1287  1288   ar
     9  1309  1308   ar
    10  1309  1311   ar
    11  1331  1336   ar
    12  1333  1334   ar
    13  1308  1314   ar
    14  1290  1293   ar
    15  1290  1289   ar
    16  1288  1289   ar
    17  1311  1312   ar
    18  1293  1294   ar
    19  1289  1295   ar
    20  1336  1337    1
    21  1336  1335   ar
    22  1334  1335   ar
    23  1334  1340   ar
    24  1314  1315    2
    25  1314  1313   ar
    26  1329  1328    1
    27  1312  1313   ar
    28  1312  1318   ar
    29  1294  1295   ar
    30  1330  1340    1
    31  1330  1325    1
    32  1330  1328    1
    33  1335  1338   ar
    34  1295  1285    1
    35  1340  1339   ar
    36  1313  1316   ar
    37  1325  1324    1
    38  1328  1326    1
    39  1318  1307    1
    40  1318  1317   ar
    41  1285  1280    1
    42  1285  1283    1
    43  1306  1305    1
    44  1307  1305    1
    45  1307  1302    1
    46  1338  1339   ar
    47  1316  1317   ar
    48  1324  1326    1
    49  1324  1322    1
    50  1280  1279    1
    51  1305  1303    1
    52  1326  1327    1
    53  1296  1276    2
    54  1351  1350    1
    55  1302  1301    1
    56  1283  1284    1
    57  1283  1281    1
    58  1261  1260    1
    59  1327  1343    1
    60  1322  1323    1
    61  1345  1344    1
    62  1345  1343    1
    63  1346  1347    1
    64  1346  1344    1
    65  1346  1348    1
    66  1367  1369    1
    67  1367  1368    1
    68  1349  1348    1
    69  1349  1366    1
    70  1384  1366    2
    71   327   309    2
    72  1347  1352    1
    73  1259  1276    1
    74  1259  1258    1
    75  1301  1303    1
    76  1301  1299    1
    77  1279  1281    1
    78  1279  1277    1
    79  1303  1304    1
    80  1276  1278    1
    81  1276  1297    1
    82  1350  1352    1
    83  1350  1348    1
    84  1281  1282    1
    85  1369  1370    1
    86  1369  1371    1
    87  1323  1321    1
    88  1352  1363    1
    89  1343  1364    2
    90  1343  1365    1
    91  1278  1277    1
    92  1260  1258    1
    93  1260  1262    1
    94  1366  1368    1
    95  1366  1385    1
    96  1407  1386    2
    97  1372  1371    1
    98  1372  1386    1
    99  1304  1321    1
   100  1265  1264    1
   101   295   309    1
   102   295   294    1
   103  1370  1375    1
   104  1258  1256    1
   105  1299  1300    1
   106   309   311    1
   107   309   328    1
   108  1374  1373    1
   109   290   292    1
   110   290   291    1
   111  1371  1373    1
   112   297   296    1
   113   310   311    1
   114   310   312    1
   115   292   294    1
   116   292   293    1
   117   307   289    2
   118  1282  1298    1
   119  1256  1257    1
   120  1256  1254    1
   121  1300  1298    1
   122  1321  1342    2
   123  1321  1341    1
   124  1266  1264   ar
   125  1266  1267   ar
   126  1262  1257    1
   127  1262  1273    1
   128   347   329    2
   129  1386  1388    1
   130  1386  1408    1
   131  1363  1357   ar
   132  1363  1362   ar
   133  1264  1263   ar
   134   294   296    1
   135  1375  1373    1
   136  1375  1376    1
   137   275   274    1
   138  1356  1357   ar
   139  1356  1354   ar
   140  1298  1320    2
   141  1298  1319    1
   142  1254  1255    1
   143   293   298    1
   144   312   314    1
   145   312   313    1
   146   296   298    1
   147   273   289    1
   148   273   272    1
   149   291   289    1
   150  1357  1358   ar
   151  1362  1361   ar
   152  1388  1387    1
   153   315   329    1
   154   315   314    1
   155   289   308    1
   156  1267  1273   ar
   157  1267  1268   ar
   158  1273  1272   ar
   159   329   348    1
   160   329   331    1
   161  1355  1354    1
   162  1263  1269   ar
   163   298   299    1
   164  1354  1353   ar
   165  1376  1383   ar
   166  1376  1377   ar
   167   314   316    1
   168   274   272    1
   169   274   276    1
   170  1383  1382   ar
   171   313   318    1
   172  1255  1253    1
   173   272   270    1
   174  1590  1589    1
   175   270   268    1
   176   270   271    1
   177  1361  1358   ar
   178  1358  1359   ar
   179  1268  1269   ar
   180  1268  1271   ar
   181  1387  1389    1
   182  1272  1271   ar
   183  1378  1377    2
   184  1269  1270    2
   185  1603  1605    1
   186  1603  1604    1
   187  1274  1253    2
   188   331   330    1
   189  1605  1606    1
   190  1605  1607    1
   191  1377  1379   ar
   192   330   332    1
   193   317   316    1
   194   276   271    1
   195   276   286    1
   196  1353  1359   ar
   197   268   269    1
   198  1241  1240    1
   199  1610  1609    1
   200   316   318    1
   201   299   306   ar
   202   299   300   ar
   203  1382  1380   ar
   204  1389  1390    1
   205  1389  1391    1
   206   318   319    1
   207  1608  1607    1
   208  1608  1624    1
   209  1253  1239    1
   210  1253  1275    1
   211  1606  1611    1
   212  1588  1587    1
   213  1588  1602    1
   214  1359  1360    2
   215  1642  1624    2
   216  1390  1395    1
   217  1622  1602    2
   218  1245  1244    2
   219  1585  1586    1
   220  1585  1587    1
   221  1585  1583    1
   222  1589  1587    1
   223  1589  1591    1
   224   301   300    2
   225   306   305   ar
   226  1240  1238    1
   227  1240  1242    1
   228  1607  1609    1
   229  1586  1591    1
   230   326   319   ar
   231   326   325   ar
   232  1239  1238    1
   233   279   278   ar
   234   279   280   ar
   235  1591  1592    1
   236   300   302   ar
   237  1604  1602    1
   238  1379  1380   ar
   239  1609  1611    1
   240  1602  1623    1
   241  1583  1584    1
   242  1611  1621    1
   243  1570  1569    1
   244  1380  1381    1
   245   269   267    1
   246   319   320   ar
   247   286   280   ar
   248   286   285   ar
   249  1624  1626    1
   250  1624  1643    1
   251   332   333    1
   252   332   334    1
   253  1625  1626    1
   254  1625  1627    1
   255  1244  1246   ar
   256  1244  1243   ar
   257   278   277   ar
   258   287   267    2
   259  1238  1236    1
   260  1395  1393    1
   261  1395  1406    1
   262   252   251    1
   263   280   281   ar
   264  1392  1391    1
   265  1392  1409    1
   266  1391  1393    1
   267  1594  1593    2
   268  1222  1221    1
   269   325   323   ar
   270  1394  1393    1
   271  1246  1247   ar
   272  1242  1243    1
   273  1242  1237    1
   274   305   303   ar
   275   371   349    2
   276   335   334    1
   277   335   349    1
   278   333   338    1
   279  1427  1409    2
   280  1574  1573    2
   281   370   349    1
   282   256   255    1
   283  1405  1406   ar
   284  1405  1404   ar
   285   334   336    1
   286  1627  1628    1
   287  1627  1629    1
   288  1428  1409    1
   289   267   250    1
   290   267   288    1
   291   302   303   ar
   292  1592  1593   ar
   293  1592  1599   ar
   294  1243  1250   ar
   295   285   284   ar
   296   349   351    1
   297  1409  1411    1
   298  1569  1571    1
   299  1569  1567    1
   300  1406  1400   ar
   301  1621  1620   ar
   302  1621  1615   ar
   303  1584  1582    1
   304   250   249    1
   305   320   321    2
   306   320   322   ar
   307  1628  1633    1
   308  1593  1595   ar
   309   346   345   ar
   310   346   339   ar
   311  1236  1237    1
   312  1236  1234    1
   313   251   249    1
   314   251   253    1
   315   277   282   ar
   316   303   304    2
   317  1221  1220   ar
   318  1221  1223   ar
   319   345   343   ar
   320   281   284   ar
   321   281   282   ar
   322  1571  1566    1
   323  1571  1572    1
   324  1620  1619   ar
   325  1247  1248    1
   326  1247  1249   ar
   327  1568  1582    1
   328  1568  1567    1
   329  1220  1226   ar
   330  1600  1582    2
   331   323   322   ar
   332   323   324    2
   333  1404  1401   ar
   334   255   257   ar
   335   255   254   ar
   336   257   258   ar
   337  1573  1572   ar
   338  1573  1575   ar
   339   338   336    1
   340   338   339    1
   341  1599  1598   ar
   342  1582  1601    1
   343   249   247    1
   344  1567  1565    1
   345  1614  1615   ar
   346  1614  1613   ar
   347  1615  1616   ar
   348  1630  1629    1
   349  1630  1644    1
   350  1250  1249   ar
   351  1204  1203    1
   352   336   337    1
   353  1629  1631    1
   354  1198  1203   ar
   355  1198  1199   ar
   356   282   283    1
   357   339   340   ar
   358  1566  1565    1
   359  1565  1563    1
   360  1400  1401   ar
   361  1400  1399   ar
   362  1223  1224   ar
   363   253   248    1
   364   253   264    1
   365  1595  1596   ar
   366  1572  1579   ar
   367  1633  1631    1
   368  1633  1634    1
   369  1551  1550   ar
   370  1551  1552   ar
   371  1411  1410    1
   372  1632  1631    1
   373  1234  1235    1
   374   351   350    1
   375  1401  1402   ar
   376  1575  1576   ar
   377   247   248    1
   378   247   245    1
   379  1203  1202   ar
   380   343   344    1
   381   343   342   ar
   382  1619  1616   ar
   383  1662  1644    2
   384  1226  1227    2
   385  1226  1225   ar
   386   254   260   ar
   387  1199  1200   ar
   388  1550  1555   ar
   389  1410  1412    1
   390   258   264   ar
   391   258   259   ar
   392  1641  1634   ar
   393  1641  1640   ar
   394  1663  1644    1
   395  1399  1397   ar
   396  1644  1646    1
   397  1616  1617   ar
   398  1552  1553   ar
   399  1598  1596   ar
   400  1613  1612   ar
   401   264   263   ar
   402  1634  1635   ar
   403   350   352    1
   404  1235  1233    1
   405  1596  1597    1
   406   340   342   ar
   407   340   341    2
   408  1425  1426   ar
   409  1425  1423   ar
   410  1224  1225   ar
   411  1224  1230   ar
   412  1563  1564    1
   413  1640  1638   ar
   414  1579  1578   ar
   415  1225  1228   ar
   416  1426  1419   ar
   417   245   246    1
   418  1402  1403    2
   419  1402  1396   ar
   420   260   259   ar
   421   260   261    2
   422  1576  1578   ar
   423  1576  1577    2
   424   259   262   ar
   425  1890  1872    2
   426  1200  1201   ar
   427  1413  1412    1
   428  1413  1418    1
   429  1202  1201   ar
   430  1202  1205   ar
   431  1218  1217    1
   432  1555  1556    1
   433  1555  1554   ar
   434  1424  1423    1
   435  1412  1414    1
   436  1912  1892    2
   437  1397  1396   ar
   438  1397  1398    1
   439  1548  1547    1
   440  1617  1612   ar
   441  1617  1618    1
   442   368   367   ar
   443   368   369   ar
   444  1217  1219    1
   445  1217  1215    1
   446   367   364   ar
   447  1553  1554   ar
   448  1553  1559   ar
   449  1423  1422   ar
   450  1646  1645    1
   451  1635  1636    2
   452  1635  1637   ar
   453   263   262   ar
   454  1873  1875    1
   455  1873  1874    1
   456  1230  1219    1
   457  1230  1229   ar
   458  1201  1207   ar
   459   353   352    1
   460   353   358    1
   461  1564  1562    1
   462  1528  1529   ar
   463  1528  1533   ar
   464   352   354    1
   465   246   244    1
   466  1645  1647    1
   467  1233  1251    2
   468  1233  1252    1
   469  1233  1216    1
   470  1219  1214    1
   471  1419  1418    1
   472  1419  1420   ar
   473  1878  1892    1
   474  1878  1877    1
   475  1547  1549    1
   476  1547  1545    1
   477  1554  1557   ar
   478  1638  1637   ar
   479  1638  1639    2
   480  1205  1206   ar
   481  1529  1530   ar
   482  1228  1229   ar
   483  1860  1859    1
   484  1875  1877    1
   485  1875  1876    1
   486   236   235    2
   487  1858  1872    1
   488  1858  1857    1
   489  1418  1416    1
   490  1414  1415    1
   491  1414  1416    1
   492  1534  1533    1
   493  1549  1559    1
   494  1549  1544    1
   495  1872  1874    1
   496  1872  1891    1
   497  1892  1913    1
   498  1892  1894    1
   499  1559  1558   ar
   500  1422  1420   ar
   501  1215  1216    1
   502  1215  1213    1
   503   369   358    1
   504   369   363   ar
   505   391   372    2
   506  1533  1532   ar
   507   232   231    1
   508  1451  1429    2
   509  1490  1489    2
   510  1880  1879    1
   511   387   386    1
   512   364   365   ar
   513   364   363   ar
   514   354   355    1
   515   354   356    1
   516  1512  1511    2
   517  1420  1421    2
   518  1877  1879    1
   519   358   356    1
   520  1415  1429    1
   521  1207  1206   ar
   522  1207  1197    1
   523   409   408    2
   524   366   365    2
   525  1446  1445    2
   526   265   244    2
   527  1648  1647    1
   528  1648  1653    1
   529   430   429    2
   530   235   237   ar
   531   235   234   ar
   532  1647  1649    1
   533  1876  1881    1
   534  1562  1546    1
   535  1562  1580    2
   536  1562  1581    1
   537  1855  1857    1
   538  1855  1853    1
   539  1855  1856    1
   540  1530  1531   ar
   541  1416  1417    1
   542  1660  1661   ar
   543  1660  1658   ar
   544   244   230    1
   545   244   266    1
   546   231   233    1
   547   231   229    1
   548   237   238   ar
   549  1546  1545    1
   550  1893  1894    1
   551  1893  1895    1
   552  1545  1543    1
   553   355   372    1
   554  1661  1654   ar
   555  1214  1213    1
   556  1857  1859    1
   557  1557  1558   ar
   558  1859  1861    1
   559   365   359   ar
   560  1447  1448   ar
   561  1447  1444   ar
   562   363   362   ar
   563  1505  1511   ar
   564  1505  1506   ar
   565  1853  1854    1
   566  1429  1450    1
   567  1429  1431    1
   568  1544  1543    1
   569  1879  1881    1
   570   388   386   ar
   571   388   389   ar
   572   372   390    1
   573   372   374    1
   574  1511  1510   ar
   575  1213  1211    1
   576   356   357    1
   577   386   385   ar
   578   428   429   ar
   579   428   426   ar
   580   230   229    1
   581  1197  1192    1
   582  1197  1195    1
   583  1489  1488   ar
   584  1489  1491   ar
   585  1532  1531   ar
   586  1532  1535   ar
   587   112    92    2
   588  1445  1444   ar
   589  1445  1439   ar
   590   429   431   ar
   591  1881  1882    1
   592  1507  1506    1
   593  1543  1541    1
   594   135   114    2
   595   233   234    1
   596   233   228    1
   597   408   402   ar
   598   408   407   ar
   599  1856  1861    1
   600    55    54    1
   601  1531  1537   ar
   602  1448  1449   ar
   603   234   241   ar
   604   239   238    2
   605  1861  1862    1
   606   229   227    1
   607   238   240   ar
   608  1658  1659    2
   609  1658  1657   ar
   610  1444  1443   ar
   611  1654  1653    1
   612  1654  1655   ar
   613    93    95    1
   614    93    94    1
   615  1192  1191    1
   616  1649  1650    1
   617  1649  1651    1
   618    77    76    1
   619  1653  1651    1
   620    75    92    1
   621    75    74    1
   622  1506  1508   ar
   623   402   403   ar
   624  1895  1896    1
   625  1895  1897    1
   626   427   426    2
   627  1488  1486   ar
   628  1870  1852    2
   629    72    70    1
   630    72    74    1
   631    72    73    1
   632  1686  1664    2
   633    70    71    1
   634   389   382   ar
   635  1431  1430    1
   636   359   360   ar
   637   426   425   ar
   638   212   213   ar
   639   212   217   ar
   640   362   360   ar
   641  1491  1492   ar
   642    95    96    1
   643    95    97    1
   644  1854  1852    1
   645  1650  1664    1
   646    98   114    1
   647    98    97    1
   648  1840  1839    1
   649   374   373    1
   650   385   383   ar
   651  1196  1195    1
   652  1211  1212    1
   653  1898  1897    1
   654  1510  1513   ar
   655  1510  1509   ar
   656    92    94    1
   657    92   113    1
   658  1535  1536   ar
   659   213   214   ar
   660  1195  1193    1
   661   407   410   ar
   662   407   406   ar
   663   410   411   ar
   664   114   136    1
   665   114   116    1
   666  1439  1440   ar
   667   218   217    1
   668   241   240   ar
   669    74    76    1
   670  1657  1655   ar
   671  1651  1652    1
   672  1896  1901    1
   673  1655  1656    2
   674  1864  1863    2
   675   431   432   ar
   676    73    78    1
   677   228   227    1
   678  1882  1889   ar
   679  1882  1883   ar
   680   360   361    1
   681   227   225    1
   682  1897  1899    1
   683  1664  1685    1
   684  1664  1666    1
   685  1537  1536   ar
   686  1537  1527    1
   687  1449  1443   ar
   688  1449  1438    1
   689    54    56    1
   690    54    52    1
   691  1852  1838    1
   692  1852  1871    1
   693    53    52    1
   694    53    69    1
   695    76    78    1
   696  1541  1542    1
   697  1443  1442   ar
   698   217   216   ar
   699  1889  1888   ar
   700    90    69    2
   701  1513  1514   ar
   702    96   101    1
   703  1862  1863   ar
   704  1862  1869   ar
   705    97    99    1
   706  1191  1193    1
   707  1191  1189    1
   708  1838  1837    1
   709  1508  1509   ar
   710  1194  1193    1
   711  1194  1210    1
   712   403   404    1
   713   403   405   ar
   714  1542  1540    1
   715  1430  1432    1
   716    50    52    1
   717    50    51    1
   718    50    48    1
   719  1486  1487    2
   720  1486  1485   ar
   721   100    99    1
   722    78    89    1
   723   382   383   ar
   724   382   381    1
   725  1509  1515   ar
   726    36    35    1
   727    71    69    1
   728   425   432   ar
   729   425   424    1
   730    56    51    1
   731    56    66    1
   732   383   384    2
   733  1212  1210    1
   734  1525  1526    1
   735  1525  1527    1
   736  1525  1523    1
   737  1492  1485   ar
   738   373   375    1
   739  1681  1680    2
   740  1863  1865   ar
   741  1527  1522    1
   742  1839  1837    1
   743  1839  1841    1
   744  1232  1210    2
   745   214   215   ar
   746  1190  1189    1
   747  1190  1188    1
   748    69    91    1
   749  1884  1883    2
   750  1682  1683   ar
   751  1682  1679   ar
   752  1494  1475    2
   753   406   405   ar
   754   406   412   ar
   755  1440  1442   ar
   756  1440  1441    1
   757   411   412   ar
   758  1883  1885   ar
   759  1433  1438    1
   760  1433  1432    1
   761   116   115    1
   762    59    58   ar
   763    59    60   ar
   764  1869  1868   ar
   765    99   101    1
   766   115   117    1
   767   414   392    2
   768  1438  1436    1
   769  1210  1231    1
   770  1485  1484    1
   771    48    49    1
   772  1901  1899    1
   773  1901  1911    1
   774  1837  1835    1
   775   376   381    1
   776   376   375    1
   777   101   111    1
   778  1436  1437    1
   779  1436  1434    1
   780   225   226    1
   781  1899  1900    1
   782    32    31    1
   783   216   215   ar
   784   216   219   ar
   785  1910  1911   ar
   786  1910  1909   ar
   787  1208  1188    2
   788  1888  1886   ar
   789  1666  1665    1
   790  1683  1684   ar
   791  1844  1843    2
   792  1514  1515   ar
   793  1432  1434    1
   794   226   224    1
   795   215   221   ar
   796   424   422    1
   797   424   419    1
   798    58    57   ar
   799   422   423    1
   800   422   420    1
   801  1680  1679   ar
   802  1680  1674   ar
   803   381   379    1
   804   375   377    1
   805  1515  1504    1
   806  1679  1678   ar
   807  1841  1836    1
   808  1841  1842    1
   809    35    37   ar
   810    35    34   ar
   811  1835  1836    1
   812  1835  1833    1
   813  1561  1540    2
   814   412   401    1
   815    66    60   ar
   816    66    65   ar
   817  1540  1524    1
   818  1540  1560    1
   819  1911  1905   ar
   820    89    88   ar
   821    89    83   ar
   822   453   435    2
   823  1523  1524    1
   824  1523  1521    1
   825    37    38   ar
   826   377   379    1
   827   377   378    1
   828  1188  1209    1
   829  1188  1172    1
   830  1865  1866   ar
   831    60    61   ar
   832  1522  1521    1
   833  1434  1435    1
   834   196   195    2
   835  1909  1906   ar
   836  1885  1886   ar
   837  1460  1459    1
   838   219   220   ar
   839  1868  1866   ar
   840    82    83   ar
   841    82    80   ar
   842  1475  1458    1
   843  1475  1477    1
   844  1475  1493    1
   845  1665  1667    1
   846  1886  1887    1
   847    31    33    1
   848    31    29    1
   849   379   380    1
   850  1843  1842   ar
   851  1843  1845   ar
   852   111   110   ar
   853   111   105   ar
   854   450   449    2
   855   117   118    1
   856   117   119    1
   857    49    47    1
   858   392   378    1
   859   392   394    1
   860   392   413    1
   861  1458  1457    1
   862   420   421    1
   863   420   418    1
   864   454   435    1
   865  1464  1463    1
   866  1484  1479    1
   867  1484  1482    1
   868    88    87   ar
   869  1684  1678   ar
   870  1684  1673    1
   871  1477  1476    1
   872    83    84   ar
   873    34    40   ar
   874   110   109   ar
   875  1674  1675   ar
   876   221   220   ar
   877   221   211    1
   878  1833  1834    1
   879  1842  1849   ar
   880  1866  1867    1
   881   471   470    1
   882   419   418    1
   883  1521  1519    1
   884    57    62   ar
   885  1678  1677   ar
   886   243   224    2
   887   435   421    1
   888   435   437    1
   889  1172  1171    1
   890   209   210    1
   891   209   211    1
   892   209   207    1
   893    13    12    1
   894   224   242    1
   895   224   208    1
   896    33    44    1
   897    33    28    1
   898  1504  1502    1
   899  1504  1499    1
   900   451   449   ar
   901   451   452   ar
   902   195   189   ar
   903   195   194   ar
   904  1668  1667    1
   905  1668  1673    1
   906   189   190   ar
   907   394   393    1
   908   118   123    1
   909    65    64   ar
   910    67    47    2
   911   155   137    2
   912   465   470   ar
   913   465   466   ar
   914  1517  1495    2
   915  1905  1906   ar
   916  1905  1904   ar
   917    38    44   ar
   918    38    39   ar
   919  1479  1478    1
   920   401   396    1
   921   401   399    1
   922    81    80    1
   923  1482  1480    1
   924  1482  1483    1
   925    30    47    1
   926    30    29    1
   927   156   137    1
   928   449   448   ar
   929    61    62   ar
   930    61    64   ar
   931  1435  1452    1
   932    80    79   ar
   933  1502  1500    1
   934  1502  1503    1
   935  1906  1907   ar
   936   120   119    1
   937   120   137    1
   938   119   121    1
   939   211   206    1
   940   434   415    2
   941  1667  1669    1
   942  1845  1846   ar
   943    47    68    1
   944   470   469   ar
   945   418   416    1
   946    29    27    1
   947  1520  1519    1
   948  1520  1518    1
   949  1459  1457    1
   950  1459  1461    1
   951  1673  1671    1
   952   105   104   ar
   953   105   106   ar
   954  1465  1463   ar
   955  1465  1466   ar
   956   137   139    1
   957  1480  1478    1
   958  1480  1481    1
   959   396   395    1
   960  1457  1455    1
   961    44    43   ar
   962   133   132   ar
   963   133   134   ar
   964   207   208    1
   965   207   205    1
   966  1463  1462   ar
   967  1834  1832    1
   968   417   416    1
   969   417   415    1
   970    62    63    1
   971  1455  1456    1
   972  1455  1453    1
   973   399   397    1
   974   399   400    1
   975    28    27    1
   976  1675  1677   ar
   977  1675  1676    1
   978   191   190    1
   979    87    84   ar
   980   466   467   ar
   981   109   106   ar
   982  1499  1498    1
   983   104   103   ar
   984  1539  1518    2
   985  1476  1478    1
   986  1174  1173    1
   987   452   445   ar
   988    84    85   ar
   989    27    25    1
   990  1849  1848   ar
   991   190   192   ar
   992    40    39   ar
   993    40    41    2
   994  1669  1671    1
   995  1669  1670    1
   996  1461  1456    1
   997  1461  1472    1
   998   397   395    1
   999   397   398    1
  1000  1904  1903   ar
  1001   194   197   ar
  1002   194   193   ar
  1003    12    11   ar
  1004    12    14   ar
  1005   132   129   ar
  1006   437   436    1
  1007  1500  1498    1
  1008  1500  1501    1
  1009  1474  1452    2
  1010  1171  1173    1
  1011  1171  1169    1
  1012  1497  1495    1
  1013  1497  1496    1
  1014    39    42   ar
  1015    11    17   ar
  1016  1454  1453    1
  1017  1454  1452    1
  1018   393   395    1
  1019   123   134    1
  1020   123   121    1
  1021   197   198   ar
  1022  1495  1481    1
  1023  1495  1516    1
  1024  1850  1832    2
  1025  1452  1473    1
  1026   415   398    1
  1027   415   433    1
  1028   106   107   ar
  1029   770   769    1
  1030   134   128   ar
  1031   511   510    1
  1032   487   488   ar
  1033   487   492   ar
  1034   448   446   ar
  1035  1518  1501    1
  1036  1518  1538    1
  1037  1671  1672    1
  1038  1178  1177   ar
  1039  1178  1179   ar
  1040    79    85   ar
  1041  1907  1908    1
  1042  1907  1902   ar
  1043  1706  1687    2
  1044  1846  1848   ar
  1045  1846  1847    2
  1046  1177  1176   ar
  1047   206   205    1
  1048   121   122    1
  1049  1173  1175    1
  1050   469   468   ar
  1051   469   472   ar
  1052  1705  1687    1
  1053  1466  1472   ar
  1054  1466  1467   ar
  1055  1498  1496    1
  1056   493   492    1
  1057  1462  1468   ar
  1058  1670  1687    1
  1059  1832  1818    1
  1060  1832  1851    1
  1061   223   202    2
  1062  1169  1170    1
  1063  1169  1167    1
  1064    85    86    2
  1065   193   192   ar
  1066   193   199   ar
  1067    43    42   ar
  1068   488   489   ar
  1069  1820  1819    1
  1070   205   203    1
  1071   467   468   ar
  1072  1175  1170    1
  1073  1175  1185    1
  1074  1472  1471   ar
  1075    14    15   ar
  1076   103   102   ar
  1077  1687  1689    1
  1078   139   138    1
  1079   445   446   ar
  1080   445   444    1
  1081   436   438    1
  1082   204   202    1
  1083   204   203    1
  1084  1903  1902   ar
  1085   492   491   ar
  1086    25    26    1
  1087  1824  1823    2
  1088   129   128   ar
  1089   129   130   ar
  1090   468   474   ar
  1091    17    18    2
  1092    17    16   ar
  1093   178   157    2
  1094   472   473   ar
  1095   198   199   ar
  1096   446   447    2
  1097   128   127   ar
  1098   769   768   ar
  1099   769   771   ar
  1100  1819  1817    1
  1101  1819  1821    1
  1102  1179  1185   ar
  1103  1179  1180   ar
  1104  1818  1817    1
  1105  1176  1181   ar
  1106   510   512   ar
  1107   510   509   ar
  1108   107   102   ar
  1109   107   108    1
  1110   138   140    1
  1111   202   222    1
  1112   202   185    1
  1113   199   188    1
  1114  1185  1184   ar
  1115  1167  1168    1
  1116   768   774   ar
  1117  1467  1468   ar
  1118  1467  1470   ar
  1119   439   444    1
  1120   439   438    1
  1121   489   490   ar
  1122  1468  1469    2
  1123   512   513   ar
  1124   442   444    1
  1125   442   443    1
  1126   442   440    1
  1127   131   130    2
  1128    26    24    1
  1129    15    16   ar
  1130    15    21   ar
  1131   130   124   ar
  1132  1823  1825   ar
  1133  1823  1822   ar
  1134   177   157    1
  1135   438   440    1
  1136  1471  1470   ar
  1137  1817  1815    1
  1138   771   772   ar
  1139   491   490   ar
  1140   491   494   ar
  1141   509   515   ar
  1142  1825  1826   ar
  1143    16    19   ar
  1144   157   143    1
  1145   157   159    1
  1146   530   529    1
  1147   473   474   ar
  1148   474   464    1
  1149   127   125   ar
  1150   153   154   ar
  1151   153   151   ar
  1152   173   172    1
  1153  1689  1688    1
  1154   802   781    2
  1155   507   506    1
  1156  1181  1180   ar
  1157  1181  1182    1
  1158   490   496   ar
  1159  1180  1183   ar
  1160     9     8    1
  1161   440   441    1
  1162  1821  1822    1
  1163  1821  1816    1
  1164   184   186    1
  1165   184   185    1
  1166   184   182    1
  1167  1168  1166    1
  1168   186   188    1
  1169   186   187    1
  1170  1822  1829   ar
  1171     8    10    1
  1172     8     6    1
  1173   143   142    1
  1174   154   147   ar
  1175   188   183    1
  1176   774   775    2
  1177   774   773   ar
  1178  1184  1183   ar
  1179   140   142    1
  1180   140   141    1
  1181   201   179    2
  1182   526   531    1
  1183   526   525    1
  1184   152   151    2
  1185   142   144    1
  1186   513   519   ar
  1187   513   514   ar
  1188   124   125   ar
  1189   174   171   ar
  1190   174   175   ar
  1191   459   464    1
  1192   459   458    1
  1193   494   495   ar
  1194  1186  1166    2
  1195   531   529    1
  1196   531   532    1
  1197    21    10    1
  1198    21    20   ar
  1199  1688  1690    1
  1200   766   765    1
  1201   125   126    1
  1202  1826  1827    1
  1203  1826  1828   ar
  1204   508   506    1
  1205   508   519    1
  1206   508   503    1
  1207   772   773   ar
  1208   772   778   ar
  1209   151   150   ar
  1210   525   523    1
  1211   525   527    1
  1212  1155  1154    1
  1213  1815  1816    1
  1214  1815  1813    1
  1215   464   462    1
  1216   515   514   ar
  1217   515   516    2
  1218    10     5    1
  1219   506   504    1
  1220   159   158    1
  1221   180   182    1
  1222   180   181    1
  1223   529   527    1
  1224    24    45    2
  1225    24     7    1
  1226    24    46    1
  1227   183   182    1
  1228   534   533    2
  1229   172   171   ar
  1230   172   167   ar
  1231    19    20   ar
  1232   141   146    1
  1233   496   495   ar
  1234   496   486    1
  1235   773   776   ar
  1236  1151  1150    1
  1237   519   518   ar
  1238   764   781    1
  1239   764   763    1
  1240  1166  1149    1
  1241  1166  1187    1
  1242   171   170   ar
  1243     7     6    1
  1244   175   176   ar
  1245   781   783    1
  1246   781   803    1
  1247  1829  1828   ar
  1248   514   517   ar
  1249   523   524    1
  1250     6     4    1
  1251   441   455    1
  1252  1801  1800    1
  1253   503   502    1
  1254   147   146    1
  1255   147   148   ar
  1256   527   528    1
  1257   528   542    1
  1258   767   778    1
  1259   767   765    1
  1260   767   762    1
  1261   778   777   ar
  1262   456   458    1
  1263   456   457    1
  1264   532   533   ar
  1265   532   539   ar
  1266   458   460    1
  1267   179   181    1
  1268   179   200    1
  1269   179   163    1
  1270   783   782    1
  1271   533   535   ar
  1272   765   763    1
  1273  1149  1148    1
  1274  1799  1800   ar
  1275  1799  1805   ar
  1276   486   484    1
  1277   486   481    1
  1278   457   455    1
  1279   144   146    1
  1280   144   145    1
  1281  1154  1156   ar
  1282  1154  1153   ar
  1283   150   148   ar
  1284   167   168   ar
  1285   782   784    1
  1286  1813  1814    1
  1287   476   455    2
  1288  1690  1692    1
  1289  1690  1691    1
  1290   158   160    1
  1291  1150  1148    1
  1292  1150  1152    1
  1293  1800  1802   ar
  1294   462   463    1
  1295   462   460    1
  1296  1806  1805    2
  1297   543   545    1
  1298   543   544    1
  1299   785   784    1
  1300   785   790    1
  1301  1156  1157   ar
  1302  1814  1812    1
  1303   502   504    1
  1304   502   500    1
  1305   504   505    1
  1306     5     4    1
  1307   763   761    1
  1308   455   475    1
  1309   518   517   ar
  1310   546   545    1
  1311   546   551    1
  1312   776   777   ar
  1313   148   149    2
  1314   800   799   ar
  1315   800   801   ar
  1316   176   170   ar
  1317   176   166    1
  1318   170   169   ar
  1319  1727  1707    2
  1320  1805  1804   ar
  1321   545   547    1
  1322   505   522    1
  1323   484   485    1
  1324   484   482    1
  1325   524   522    1
  1326     4     2    1
  1327  1692  1694    1
  1328  1692  1693    1
  1329   539   538   ar
  1330   162   163    1
  1331   162   160    1
  1332   162   164    1
  1333   762   761    1
  1334  1153  1159   ar
  1335   799   796   ar
  1336   563   542    2
  1337   784   786    1
  1338  1148  1146    1
  1339   535   536   ar
  1340  1691  1696    1
  1341   481   480    1
  1342   460   461    1
  1343   542   544    1
  1344   542   564    1
  1345   761   759    1
  1346   168   169   ar
  1347   160   161    1
  1348  1802  1803   ar
  1349   790   801    1
  1350   790   788    1
  1351   801   795   ar
  1352  1728  1707    1
  1353  1831  1812    2
  1354  1152  1163    1
  1355  1152  1147    1
  1356   551   549    1
  1357   551   562    1
  1358  1694  1696    1
  1359  1694  1695    1
  1360   161   166    1
  1361  1157  1163   ar
  1362  1157  1158   ar
  1363   461   477    1
  1364   550   549    1
  1365   522   540    2
  1366   522   541    1
  1367  1812  1830    1
  1368  1812  1795    1
  1369  1707  1693    1
  1370  1707  1709    1
  1371   164   166    1
  1372   164   165    1
  1373  1804  1803   ar
  1374  1804  1807   ar
  1375   993   975    2
  1376   500   501    1
  1377   538   536   ar
  1378  1146  1147    1
  1379  1146  1144    1
  1380   796   795   ar
  1381   796   797   ar
  1382   536   537    2
  1383  1803  1809   ar
  1384  1159  1158   ar
  1385  1159  1160    2
  1386     2     3    1
  1387  1696  1697    1
  1388  1163  1162   ar
  1389  1704  1697   ar
  1390  1704  1703   ar
  1391   482   480    1
  1392   482   483    1
  1393   547   549    1
  1394   547   548    1
  1395   961   975    1
  1396   961   960    1
  1397   940   939    1
  1398   956   958    1
  1399   956   957    1
  1400   795   794   ar
  1401     3     1    1
  1402   480   478    1
  1403   958   960    1
  1404   958   959    1
  1405   963   962    1
  1406  1158  1161   ar
  1407   786   788    1
  1408   786   787    1
  1409   973   955    2
  1410   562   561   ar
  1411   562   556   ar
  1412   501   499    1
  1413   548   565    1
  1414   798   797    2
  1415   561   560   ar
  1416  1697  1698   ar
  1417   759   760    1
  1418   797   791   ar
  1419  1807  1808   ar
  1420  1703  1701   ar
  1421   788   789    1
  1422  1796  1797    1
  1423  1796  1794    1
  1424  1796  1798    1
  1425   976   977    1
  1426   976   978    1
  1427   975   977    1
  1428   975   994    1
  1429  1795  1794    1
  1430  1144  1145    1
  1431  1809  1808   ar
  1432  1809  1798    1
  1433   960   962    1
  1434   760   758    1
  1435  1709  1708    1
  1436   483   499    1
  1437   477   479    1
  1438   477   498    2
  1439   477   497    1
  1440   938   955    1
  1441   938   937    1
  1442   787   804    1
  1443   479   478    1
  1444   746   745    1
  1445   959   964    1
  1446  1794  1792    1
  1447  1162  1161   ar
  1448   794   792   ar
  1449   556   555   ar
  1450   556   557   ar
  1451   957   955    1
  1452  1708  1710    1
  1453   962   964    1
  1454   560   557   ar
  1455   955   974    1
  1456   555   553   ar
  1457   939   937    1
  1458   939   941    1
  1459  1798  1793    1
  1460  1015   995    2
  1461   791   792   ar
  1462   499   521    2
  1463   499   520    1
  1464  1698  1699    2
  1465  1698  1700   ar
  1466     1    23    1
  1467     1    22    1
  1468   978   979    1
  1469   978   980    1
  1470  1701  1700   ar
  1471  1701  1702    1
  1472  1145  1143    1
  1473  1784  1783    1
  1474   565   583    2
  1475   565   584    1
  1476   565   567    1
  1477   792   793    1
  1478   964   965    1
  1479   557   558   ar
  1480   744   758    1
  1481   744   743    1
  1482   981   995    1
  1483   981   980    1
  1484   937   935    1
  1485   826   804    2
  1486   935   936    1
  1487   935   933    1
  1488   758   779    2
  1489   758   780    1
  1490   944   943    1
  1491   941   936    1
  1492   941   952    1
  1493   553   554    1
  1494   553   552   ar
  1495   804   825    1
  1496   804   806    1
  1497   745   743    1
  1498   745   747    1
  1499   995  1016    1
  1500   995   997    1
  1501   979   984    1
  1502   980   982    1
  1503   566   567    1
  1504   566   568    1
  1505  1792  1793    1
  1506  1792  1790    1
  1507   945   943   ar
  1508   945   946   ar
  1509  1783  1782   ar
  1510  1783  1785   ar
  1511  1748  1729    2
  1512   558   552   ar
  1513   558   559    2
  1514  1710  1711    1
  1515  1710  1712    1
  1516   743   741    1
  1517  1131  1130    1
  1518  1135  1134    2
  1519  1724  1725   ar
  1520  1724  1721   ar
  1521  1725  1726   ar
  1522  1791  1790    1
  1523  1791  1789    1
  1524  1811  1789    2
  1525  1164  1143    2
  1526   943   942   ar
  1527   933   934    1
  1528  1782  1780   ar
  1529   822   823   ar
  1530   822   819   ar
  1531  1143  1129    1
  1532  1143  1165    1
  1533   965   972   ar
  1534   965   966   ar
  1535   750   749    2
  1536  1711  1716    1
  1537   741   742    1
  1538   741   739    1
  1539   983   982    1
  1540   747   742    1
  1541   747   748    1
  1542   821   820    2
  1543   806   805    1
  1544   569   568    1
  1545   569   574    1
  1546  1785  1786   ar
  1547  1130  1128    1
  1548  1130  1132    1
  1549  1764  1763    1
  1550   952   946   ar
  1551   952   951   ar
  1552   823   824   ar
  1553  1712  1713    1
  1554  1712  1714    1
  1555   568   570    1
  1556  1136  1134   ar
  1557  1136  1137   ar
  1558  1134  1133   ar
  1559   946   947   ar
  1560   982   984    1
  1561   996   997    1
  1562   996   998    1
  1563  1789  1810    1
  1564  1789  1775    1
  1565   972   971   ar
  1566  1713  1729    1
  1567   967   966    2
  1568   984   985    1
  1569  1747  1729    1
  1570  1729  1731    1
  1571  1129  1128    1
  1572   724   723    1
  1573   805   807    1
  1574   966   968   ar
  1575   819   820   ar
  1576   819   818   ar
  1577  1726  1716    1
  1578  1726  1720   ar
  1579  1780  1781    2
  1580  1780  1779   ar
  1581   820   814   ar
  1582   582   581   ar
  1583   582   575   ar
  1584  1721  1722   ar
  1585  1721  1720   ar
  1586  1723  1722    1
  1587   749   748   ar
  1588   749   751   ar
  1589   739   740    1
  1590   934   932    1
  1591   992   985   ar
  1592   992   991   ar
  1593   727   728   ar
  1594   727   726   ar
  1595  1128  1126    1
  1596   740   738    1
  1597  1138  1137    1
  1598   942   948   ar
  1599  1716  1714    1
  1600  1132  1133    1
  1601  1132  1127    1
  1602   581   579   ar
  1603  1786  1779   ar
  1604  1137  1139   ar
  1605   728   729   ar
  1606   748   755   ar
  1607  1763  1765   ar
  1608  1763  1762   ar
  1609  1133  1140   ar
  1610   808   807    1
  1611   808   813    1
  1612  1765  1766   ar
  1613   881   880    1
  1614   574   575    1
  1615   574   572    1
  1616   824   818   ar
  1617   824   813    1
  1618  1744  1743    2
  1619   985   986   ar
  1620   951   950   ar
  1621   907   906    2
  1622  1779  1778    1
  1623  1714  1715    1
  1624   879   880   ar
  1625   879   885   ar
  1626  1722  1717   ar
  1627  1788  1769    2
  1628   575   576   ar
  1629   953   932    2
  1630   723   725    1
  1631   723   721    1
  1632   947   948   ar
  1633   947   950   ar
  1634   971   969   ar
  1635  1720  1719   ar
  1636   886   885    2
  1637   570   571    1
  1638   570   572    1
  1639   998   999    1
  1640   998  1000    1
  1641  1745  1743   ar
  1642  1745  1746   ar
  1643   818   817   ar
  1644   807   809    1
  1645  1775  1774    1
  1646  1035  1017    2
  1647  1731  1730    1
  1648   756   738    2
  1649   991   989   ar
  1650   905   906   ar
  1651   905   903   ar
  1652   814   815   ar
  1653  1036  1017    1
  1654   726   731   ar
  1655  1774  1776    1
  1656  1774  1772    1
  1657  1776  1778    1
  1658  1776  1777    1
  1659  1140  1139   ar
  1660   813   811    1
  1661   968   969   ar
  1662   751   752   ar
  1663  1111  1112   ar
  1664  1111  1116   ar
  1665  1743  1742   ar
  1666  1768  1749    2
  1667   948   949    2
  1668   880   882   ar
  1669   579   580    2
  1670   579   578   ar
  1671  1762  1760   ar
  1672   571   585    1
  1673   843   842    1
  1674   932   918    1
  1675   932   954    1
  1676   725   735    1
  1677   725   720    1
  1678  1126  1127    1
  1679  1126  1124    1
  1680  1001  1017    1
  1681  1001  1000    1
  1682   885   884   ar
  1683   904   903    2
  1684   738   722    1
  1685   738   757    1
  1686  1766  1759   ar
  1687   906   908   ar
  1688   755   754   ar
  1689   722   721    1
  1690   572   573    1
  1691   729   735   ar
  1692   729   730   ar
  1693  1017  1019    1
  1694  1117  1116    1
  1695  1771  1769    1
  1696  1771  1770    1
  1697   999  1004    1
  1698  1112  1113   ar
  1699   920   919    1
  1700  1000  1002    1
  1701  1778  1773    1
  1702   969   970    2
  1703   864   863    2
  1704  1746  1739   ar
  1705   576   578   ar
  1706   576   577    2
  1707   918   917    1
  1708   903   902   ar
  1709  1769  1787    1
  1710  1769  1755    1
  1711   986   987    2
  1712   986   988   ar
  1713   721   719    1
  1714   809   811    1
  1715   809   810    1
  1716  1116  1115   ar
  1717   817   815   ar
  1718   815   816    1
  1719  1717  1718   ar
  1720   735   734   ar
  1721  1719  1718   ar
  1722   607   585    2
  1723  1730  1732    1
  1724   924   923    2
  1725   720   719    1
  1726   719   717    1
  1727  1013  1012   ar
  1728  1013  1014   ar
  1729   731   730   ar
  1730   731   732    1
  1731  1760  1759   ar
  1732  1760  1761    2
  1733   989   988   ar
  1734   989   990    1
  1735  1772  1773    1
  1736  1772  1770    1
  1737  1759  1758    1
  1738   585   606    1
  1739   585   587    1
  1740   844   841   ar
  1741   844   845   ar
  1742   811   812    1
  1743   752   754   ar
  1744   752   753    2
  1745   705   704   ar
  1746   705   706   ar
  1747   842   841   ar
  1748   842   837   ar
  1749  1742  1740   ar
  1750   882   883   ar
  1751   730   733   ar
  1752  1124  1125    1
  1753  1750  1751    1
  1754  1750  1752    1
  1755   848   827    2
  1756  1749  1767    1
  1757  1749  1751    1
  1758  1749  1735    1
  1759  1113  1114   ar
  1760   884   883   ar
  1761   884   887   ar
  1762  1754  1755    1
  1763  1754  1752    1
  1764  1754  1756    1
  1765   908   909   ar
  1766   810   827    1
  1767   704   709   ar
  1768   863   862   ar
  1769   863   865   ar
  1770  1012  1009   ar
  1771   919   917    1
  1772   919   921    1
  1773  1004  1002    1
  1774  1004  1014    1
  1775   841   840   ar
  1776   917   915    1
  1777  1125  1123    1
  1778  1739  1740   ar
  1779  1739  1738    1
  1780  1002  1003    1
  1781  1115  1114   ar
  1782  1115  1118   ar
  1783  1019  1018    1
  1784  1734  1732    1
  1785  1734  1735    1
  1786  1734  1736    1
  1787   706   707   ar
  1788   902   909   ar
  1789   902   901    1
  1790  1014  1008   ar
  1791   883   889   ar
  1792   923   925   ar
  1793   923   922   ar
  1794   837   838   ar
  1795   845   846   ar
  1796   921   922    1
  1797   921   916    1
  1798  1114  1120   ar
  1799  1732  1733    1
  1800   734   733   ar
  1801   862   860   ar
  1802  1752  1753    1
  1803  1740  1741    2
  1804  1756  1758    1
  1805  1756  1757    1
  1806  1758  1753    1
  1807   827   829    1
  1808   827   847    1
  1809  1733  1738    1
  1810  1095  1094    1
  1811   717   718    1
  1812   587   586    1
  1813   925   926   ar
  1814   865   866   ar
  1815   887   888   ar
  1816  1018  1020    1
  1817   922   929   ar
  1818  1118  1119   ar
  1819  1738  1736    1
  1820   901   899    1
  1821   901   896    1
  1822  1736  1737    1
  1823   915   916    1
  1824   915   913    1
  1825   709   710    1
  1826   709   708   ar
  1827   840   846   ar
  1828   840   839   ar
  1829   586   588    1
  1830  1009  1008   ar
  1831  1009  1010   ar
  1832   899   900    1
  1833   899   897    1
  1834  1089  1094   ar
  1835  1089  1090   ar
  1836   603   604   ar
  1837   603   600   ar
  1838  1033  1034   ar
  1839  1033  1031   ar
  1840   702   701    1
  1841   829   828    1
  1842   846   836    1
  1843  1008  1007   ar
  1844  1120  1119   ar
  1845  1120  1110    1
  1846  1123  1142    2
  1847  1123  1141    1
  1848  1123  1107    1
  1849   707   708   ar
  1850   707   713   ar
  1851   838   839   ar
  1852   604   605   ar
  1853  1094  1093   ar
  1854  1108  1109    1
  1855  1108  1110    1
  1856  1108  1106    1
  1857   889   888   ar
  1858   889   878    1
  1859   718   716    1
  1860   860   861    2
  1861   860   859   ar
  1862   683   682    1
  1863  1034  1027   ar
  1864   926   927    1
  1865   926   928   ar
  1866  1032  1031    1
  1867  1058  1037    2
  1868   866   859   ar
  1869   708   711   ar
  1870   701   703    1
  1871   701   699    1
  1872   929   928   ar
  1873   589   588    1
  1874   589   594    1
  1875   602   601    2
  1876  1110  1105    1
  1877  1090  1091   ar
  1878   896   895    1
  1879  1031  1030   ar
  1880  1020  1021    1
  1881  1020  1022    1
  1882  1011  1010    1
  1883  1010  1005   ar
  1884   831   836    1
  1885   831   830    1
  1886   600   601   ar
  1887   600   599   ar
  1888   703   713    1
  1889   703   698    1
  1890  1107  1106    1
  1891   913   914    1
  1892  1106  1104    1
  1893   588   590    1
  1894   859   858    1
  1895   681   682   ar
  1896   681   687   ar
  1897   713   712   ar
  1898   878   876    1
  1899   878   873    1
  1900   897   898    1
  1901   897   895    1
  1902  1021  1026    1
  1903  1007  1006   ar
  1904   836   834    1
  1905   605   594    1
  1906   605   599   ar
  1907   828   830    1
  1908  1093  1096   ar
  1909  1093  1092   ar
  1910  1074  1073    1
  1911   682   684   ar
  1912   601   595   ar
  1913  1022  1023    1
  1914  1022  1024    1
  1915   876   877    1
  1916   876   874    1
  1917   914   912    1
  1918  1037  1057    1
  1919  1037  1023    1
  1920  1037  1039    1
  1921   688   687    2
  1922  1027  1026    1
  1923  1027  1028   ar
  1924   594   592    1
  1925   716   700    1
  1926   716   736    2
  1927   716   737    1
  1928   898   912    1
  1929   599   598   ar
  1930  1096  1097   ar
  1931   895   893    1
  1932   830   832    1
  1933   700   699    1
  1934  1091  1092   ar
  1935   699   697    1
  1936   711   712   ar
  1937   687   686   ar
  1938   868   849    2
  1939  1053  1052    1
  1940   590   591    1
  1941   590   592    1
  1942  1105  1104    1
  1943   623   622    2
  1944  1092  1098   ar
  1945  1005  1006   ar
  1946  1030  1028   ar
  1947  1026  1024    1
  1948   832   834    1
  1949   832   833    1
  1950   873   872    1
  1951   698   697    1
  1952   834   835    1
  1953  1104  1102    1
  1954   627   608    2
  1955   894   893    1
  1956   894   892    1
  1957   858   853    1
  1958   858   856    1
  1959   911   892    2
  1960   645   644    2
  1961   684   685   ar
  1962  1073  1075   ar
  1963  1073  1072   ar
  1964  1054  1055   ar
  1965  1054  1051   ar
  1966   912   930    2
  1967   912   931    1
  1968  1028  1029    2
  1969   595   596   ar
  1970  1024  1025    1
  1971   697   695    1
  1972   874   872    1
  1973   874   875    1
  1974   591   608    1
  1975   592   593    1
  1976  1103  1102    1
  1977  1103  1101    1
  1978  1039  1038    1
  1979  1097  1098   ar
  1980  1075  1076   ar
  1981   853   852    1
  1982   624   622   ar
  1983   624   625   ar
  1984   622   621   ar
  1985   598   596   ar
  1986  1122  1101    2
  1987  1098  1088    1
  1988  1052  1051   ar
  1989  1052  1047   ar
  1990   856   854    1
  1991   856   857    1
  1992   892   875    1
  1993   892   910    1
  1994   686   685   ar
  1995   686   689   ar
  1996   833   849    1
  1997   849   851    1
  1998   849   867    1
  1999  1055  1056   ar
  2000   851   850    1
  2001   596   597    1
  2002   608   626    1
  2003   608   610    1
  2004  1072  1070   ar
  2005   872   870    1
  2006  1051  1050   ar
  2007   666   665    2
  2008   685   691   ar
  2009  1078  1059    2
  2010   644   638   ar
  2011   644   643   ar
  2012   854   852    1
  2013   854   855    1
  2014  1101  1121    1
  2015  1101  1085    1
  2016   871   870    1
  2017   871   869    1
  2018   891   869    2
  2019   625   618   ar
  2020  1086  1088    1
  2021  1086  1084    1
  2022  1086  1087    1
  2023   852   850    1
  2024   638   639   ar
  2025  1038  1040    1
  2026   621   619   ar
  2027   695   696    1
  2028  1076  1069   ar
  2029  1047  1048   ar
  2030  1088  1083    1
  2031  1100  1079    2
  2032   689   690   ar
  2033   665   664   ar
  2034   665   667   ar
  2035   610   609    1
  2036   664   662   ar
  2037   696   694    1
  2038  1070  1069   ar
  2039  1070  1071    2
  2040  1056  1050   ar
  2041  1056  1046    1
  2042  1084  1085    1
  2043  1084  1082    1
  2044  1050  1049   ar
  2045   643   646   ar
  2046   643   642   ar
  2047   646   647   ar
  2048   691   690   ar
  2049   691   680    1
  2050   869   855    1
  2051   869   890    1
  2052  1059  1061    1
  2053  1059  1077    1
  2054  1059  1043    1
  2055  1069  1068    1
  2056   618   619   ar
  2057   618   617    1
  2058   678   679    1
  2059   678   680    1
  2060   678   676    1
  2061  1042  1040    1
  2062  1042  1043    1
  2063  1042  1044    1
  2064   619   620    2
  2065  1040  1041    1
  2066  1081  1079    1
  2067  1081  1080    1
  2068  1041  1046    1
  2069  1083  1082    1
  2070   639   640    1
  2071   639   641   ar
  2072  1048  1049   ar
  2073   680   675    1
  2074  1061  1060    1
  2075   663   662    2
  2076  1079  1099    1
  2077  1079  1065    1
  2078   662   661   ar
  2079  1046  1044    1
  2080   609   611    1
  2081   667   668   ar
  2082  1082  1080    1
  2083   612   617    1
  2084   612   611    1
  2085   642   641   ar
  2086   642   648   ar
  2087   647   648   ar
  2088   715   694    2
  2089   694   677    1
  2090   694   714    1
  2091  1044  1045    1
  2092  1064  1066    1
  2093  1064  1065    1
  2094  1064  1062    1
  2095   617   615    1
  2096   676   677    1
  2097   676   674    1
  2098  1068  1066    1
  2099  1068  1063    1
  2100  1066  1067    1
  2101   650   628    2
  2102   611   613    1
  2103   648   637    1
  2104   675   674    1
  2105  1060  1062    1
  2106   661   668   ar
  2107   661   660    1
  2108  1063  1062    1
  2109   613   615    1
  2110   613   614    1
  2111   615   616    1
  2112   674   672    1
  2113   614   628    1
  2114   628   630    1
  2115   628   649    1
  2116   660   658    1
  2117   660   655    1
  2118   637   632    1
  2119   637   635    1
  2120   630   629    1
  2121   672   673    1
  2122   658   659    1
  2123   658   656    1
  2124   632   631    1
  2125   635   633    1
  2126   635   636    1
  2127   670   651    2
  2128   655   654    1
  2129   633   631    1
  2130   633   634    1
  2131   629   631    1
  2132   673   671    1
  2133   656   654    1
  2134   656   657    1
  2135   653   651    1
  2136   653   652    1
  2137   693   671    2
  2138   654   652    1
  2139   651   634    1
  2140   651   669    1
  2141   671   657    1
  2142   671   692    1
