ligand
 OpenBabel11021811513D
libRbt.so/2013.1/901 2013/11/27
 10 11  0  0  0  0  0  0  0  0999 V2000
    5.8450   17.2794    2.5495 N   0  0  0  0  0  0  0  0  0  0  0  0
    6.7802   18.2314    2.4467 C   0  0  0  0  0  0  0  0  0  0  0  0
    7.2249   19.0733    3.3785 N   0  0  0  0  0  0  0  0  0  0  0  0
    6.5957   18.8673    4.5459 C   0  0  0  0  0  0  0  0  0  0  0  0
    5.6148   17.9298    4.8058 C   0  0  0  0  0  0  0  0  0  0  0  0
    5.2305   17.0964    3.7368 C   0  0  0  0  0  0  0  0  0  0  0  0
    4.2964   16.1463    3.8438 N   0  0  0  0  0  0  0  0  0  0  0  0
    5.1982   18.0078    6.1244 N   0  0  0  0  0  0  0  0  0  0  0  0
    5.9244   18.9781    6.6270 C   0  0  0  0  0  0  0  0  0  0  0  0
    6.7890   19.5414    5.7300 N   0  0  0  0  0  0  0  0  0  0  0  0
  1  2  2  0  0  0  0
  1  6  1  0  0  0  0
  2  3  1  0  0  0  0
  3  4  2  0  0  0  0
  4  5  1  0  0  0  0
  4 10  1  0  0  0  0
  5  6  2  0  0  0  0
  5  8  1  0  0  0  0
  6  7  1  0  0  0  0
  8  9  1  0  0  0  0
  9 10  2  0  0  0  0
M  END
>  <CHROM.1>
5.94381784,18.10705170,4.37473168,-1.82989456,0.77917158,1.19369956

>  <Name>
ligand

>  <RI>
0

>  <Rbt.Current_Directory>
/home/itssahil/PROJECTS/Mol_Feturizer/New_Systems/rnas/4XNR

>  <Rbt.Executable>
rbdock ($Id: //depot/dev/client3/rdock/2013.1/src/exe/rbdock.cxx#4 $)

>  <Rbt.Library>
libRbt.so (2013.1, Build901 2013/11/27)

>  <Rbt.Parameter_File>
/export/apps/rDock/src/rDock_2013.1_src/data/scripts/dock_solv.prm

>  <Rbt.Receptor>
prm/pocket_docking_7.prm

>  <SCORE>
-14.513

>  <SCORE.INTER>
-14.513

>  <SCORE.INTER.CONST>
1

>  <SCORE.INTER.POLAR>
0

>  <SCORE.INTER.ROT>
0

>  <SCORE.INTER.SOLV>
7.27895

>  <SCORE.INTER.VDW>
-15.7017

>  <SCORE.INTER.norm>
-1.4513

>  <SCORE.INTRA>
0

>  <SCORE.INTRA.DIHEDRAL>
0

>  <SCORE.INTRA.DIHEDRAL.0>
0

>  <SCORE.INTRA.POLAR>
0

>  <SCORE.INTRA.POLAR.0>
0

>  <SCORE.INTRA.REPUL>
0

>  <SCORE.INTRA.REPUL.0>
0

>  <SCORE.INTRA.SOLV>
0

>  <SCORE.INTRA.SOLV.lig_0>
-23.8918

>  <SCORE.INTRA.VDW>
0

>  <SCORE.INTRA.VDW.0>
0

>  <SCORE.INTRA.norm>
0

>  <SCORE.RESTR>
0

>  <SCORE.RESTR.CAVITY>
0

>  <SCORE.RESTR.norm>
0

>  <SCORE.SYSTEM>
0

>  <SCORE.SYSTEM.CONST>
0

>  <SCORE.SYSTEM.DIHEDRAL>
0

>  <SCORE.SYSTEM.SOLV>
0

>  <SCORE.SYSTEM.norm>
0

>  <SCORE.heavy>
10

>  <SCORE.norm>
-1.4513

>  <RMSD>
0.627

$$$$
ligand
 OpenBabel11021811513D
libRbt.so/2013.1/901 2013/11/27
 10 11  0  0  0  0  0  0  0  0999 V2000
    5.8365   17.3364    2.5331 N   0  0  0  0  0  0  0  0  0  0  0  0
    6.7029   18.3503    2.4205 C   0  0  0  0  0  0  0  0  0  0  0  0
    7.1118   19.2105    3.3519 N   0  0  0  0  0  0  0  0  0  0  0  0
    6.5255   18.9505    4.5308 C   0  0  0  0  0  0  0  0  0  0  0  0
    5.6161   17.9464    4.8017 C   0  0  0  0  0  0  0  0  0  0  0  0
    5.2636   17.1001    3.7318 C   0  0  0  0  0  0  0  0  0  0  0  0
    4.3982   16.0882    3.8487 N   0  0  0  0  0  0  0  0  0  0  0  0
    5.2263   17.9825    6.1302 N   0  0  0  0  0  0  0  0  0  0  0  0
    5.8972   18.9943    6.6278 C   0  0  0  0  0  0  0  0  0  0  0  0
    6.7008   19.6239    5.7181 N   0  0  0  0  0  0  0  0  0  0  0  0
  1  2  2  0  0  0  0
  1  6  1  0  0  0  0
  2  3  1  0  0  0  0
  3  4  2  0  0  0  0
  4  5  1  0  0  0  0
  4 10  1  0  0  0  0
  5  6  2  0  0  0  0
  5  8  1  0  0  0  0
  6  7  1  0  0  0  0
  8  9  1  0  0  0  0
  9 10  2  0  0  0  0
M  END
>  <CHROM.1>
5.92228689,18.14987070,4.36538171,-1.82549635,0.85030109,1.20164561

>  <Name>
ligand

>  <RI>
0

>  <Rbt.Current_Directory>
/home/itssahil/PROJECTS/Mol_Feturizer/New_Systems/rnas/4XNR

>  <Rbt.Executable>
rbdock ($Id: //depot/dev/client3/rdock/2013.1/src/exe/rbdock.cxx#4 $)

>  <Rbt.Library>
libRbt.so (2013.1, Build901 2013/11/27)

>  <Rbt.Parameter_File>
/export/apps/rDock/src/rDock_2013.1_src/data/scripts/dock_solv.prm

>  <Rbt.Receptor>
prm/pocket_docking_5.prm

>  <SCORE>
-14.5534

>  <SCORE.INTER>
-14.5534

>  <SCORE.INTER.CONST>
1

>  <SCORE.INTER.POLAR>
0

>  <SCORE.INTER.ROT>
0

>  <SCORE.INTER.SOLV>
7.65031

>  <SCORE.INTER.VDW>
-15.8524

>  <SCORE.INTER.norm>
-1.45534

>  <SCORE.INTRA>
0

>  <SCORE.INTRA.DIHEDRAL>
0

>  <SCORE.INTRA.DIHEDRAL.0>
0

>  <SCORE.INTRA.POLAR>
0

>  <SCORE.INTRA.POLAR.0>
0

>  <SCORE.INTRA.REPUL>
0

>  <SCORE.INTRA.REPUL.0>
0

>  <SCORE.INTRA.SOLV>
0

>  <SCORE.INTRA.SOLV.lig_0>
-23.8918

>  <SCORE.INTRA.VDW>
0

>  <SCORE.INTRA.VDW.0>
0

>  <SCORE.INTRA.norm>
0

>  <SCORE.RESTR>
0

>  <SCORE.RESTR.CAVITY>
0

>  <SCORE.RESTR.norm>
0

>  <SCORE.SYSTEM>
0

>  <SCORE.SYSTEM.CONST>
0

>  <SCORE.SYSTEM.DIHEDRAL>
0

>  <SCORE.SYSTEM.SOLV>
0

>  <SCORE.SYSTEM.norm>
0

>  <SCORE.heavy>
10

>  <SCORE.norm>
-1.45534

>  <RMSD>
0.628

$$$$
ligand
 OpenBabel11021811513D
libRbt.so/2013.1/901 2013/11/27
 10 11  0  0  0  0  0  0  0  0999 V2000
    5.7835   17.3653    2.5238 N   0  0  0  0  0  0  0  0  0  0  0  0
    6.6526   18.3758    2.4020 C   0  0  0  0  0  0  0  0  0  0  0  0
    7.0817   19.2287    3.3310 N   0  0  0  0  0  0  0  0  0  0  0  0
    6.5147   18.9645    4.5184 C   0  0  0  0  0  0  0  0  0  0  0  0
    5.6054   17.9630    4.7994 C   0  0  0  0  0  0  0  0  0  0  0  0
    5.2304   17.1247    3.7309 C   0  0  0  0  0  0  0  0  0  0  0  0
    4.3623   16.1161    3.8569 N   0  0  0  0  0  0  0  0  0  0  0  0
    5.2389   17.9932    6.1346 N   0  0  0  0  0  0  0  0  0  0  0  0
    5.9231   18.9989    6.6263 C   0  0  0  0  0  0  0  0  0  0  0  0
    6.7138   19.6300    5.7064 N   0  0  0  0  0  0  0  0  0  0  0  0
  1  2  2  0  0  0  0
  1  6  1  0  0  0  0
  2  3  1  0  0  0  0
  3  4  2  0  0  0  0
  4  5  1  0  0  0  0
  4 10  1  0  0  0  0
  5  6  2  0  0  0  0
  5  8  1  0  0  0  0
  6  7  1  0  0  0  0
  8  9  1  0  0  0  0
  9 10  2  0  0  0  0
M  END
>  <CHROM.1>
5.90491157,18.16762682,4.35894973,-1.85266767,0.85196741,1.22789359

>  <Name>
ligand

>  <RI>
0

>  <Rbt.Current_Directory>
/home/itssahil/PROJECTS/Mol_Feturizer/New_Systems/rnas/4XNR

>  <Rbt.Executable>
rbdock ($Id: //depot/dev/client3/rdock/2013.1/src/exe/rbdock.cxx#4 $)

>  <Rbt.Library>
libRbt.so (2013.1, Build901 2013/11/27)

>  <Rbt.Parameter_File>
/export/apps/rDock/src/rDock_2013.1_src/data/scripts/dock_solv.prm

>  <Rbt.Receptor>
prm/blind_docking_40.prm

>  <SCORE>
-14.5207

>  <SCORE.INTER>
-14.5207

>  <SCORE.INTER.CONST>
1

>  <SCORE.INTER.POLAR>
0

>  <SCORE.INTER.ROT>
0

>  <SCORE.INTER.SOLV>
7.53447

>  <SCORE.INTER.VDW>
-15.792

>  <SCORE.INTER.norm>
-1.45207

>  <SCORE.INTRA>
0

>  <SCORE.INTRA.DIHEDRAL>
0

>  <SCORE.INTRA.DIHEDRAL.0>
0

>  <SCORE.INTRA.POLAR>
0

>  <SCORE.INTRA.POLAR.0>
0

>  <SCORE.INTRA.REPUL>
0

>  <SCORE.INTRA.REPUL.0>
0

>  <SCORE.INTRA.SOLV>
0

>  <SCORE.INTRA.SOLV.lig_0>
-23.8918

>  <SCORE.INTRA.VDW>
0

>  <SCORE.INTRA.VDW.0>
0

>  <SCORE.INTRA.norm>
0

>  <SCORE.RESTR>
0

>  <SCORE.RESTR.CAVITY>
0

>  <SCORE.RESTR.norm>
0

>  <SCORE.SYSTEM>
0

>  <SCORE.SYSTEM.CONST>
0

>  <SCORE.SYSTEM.DIHEDRAL>
0

>  <SCORE.SYSTEM.SOLV>
0

>  <SCORE.SYSTEM.norm>
0

>  <SCORE.heavy>
10

>  <SCORE.norm>
-1.45207

>  <RMSD>
0.634

$$$$
ligand
 OpenBabel11021811513D
libRbt.so/2013.1/901 2013/11/27
 10 11  0  0  0  0  0  0  0  0999 V2000
    5.8473   17.3415    2.5418 N   0  0  0  0  0  0  0  0  0  0  0  0
    6.7177   18.3520    2.4292 C   0  0  0  0  0  0  0  0  0  0  0  0
    7.1296   19.2109    3.3604 N   0  0  0  0  0  0  0  0  0  0  0  0
    6.5419   18.9536    4.5391 C   0  0  0  0  0  0  0  0  0  0  0  0
    5.6285   17.9532    4.8101 C   0  0  0  0  0  0  0  0  0  0  0  0
    5.2731   17.1079    3.7404 C   0  0  0  0  0  0  0  0  0  0  0  0
    4.4036   16.0994    3.8573 N   0  0  0  0  0  0  0  0  0  0  0  0
    5.2383   17.9913    6.1385 N   0  0  0  0  0  0  0  0  0  0  0  0
    5.9130   19.0006    6.6359 C   0  0  0  0  0  0  0  0  0  0  0  0
    6.7194   19.6267    5.7263 N   0  0  0  0  0  0  0  0  0  0  0  0
  1  2  2  0  0  0  0
  1  6  1  0  0  0  0
  2  3  1  0  0  0  0
  3  4  2  0  0  0  0
  4  5  1  0  0  0  0
  4 10  1  0  0  0  0
  5  6  2  0  0  0  0
  5  8  1  0  0  0  0
  6  7  1  0  0  0  0
  8  9  1  0  0  0  0
  9 10  2  0  0  0  0
M  END
>  <CHROM.1>
5.93558955,18.15530661,4.37383523,-1.82710063,0.84651463,1.20247694

>  <Name>
ligand

>  <RI>
0

>  <Rbt.Current_Directory>
/home/itssahil/PROJECTS/Mol_Feturizer/New_Systems/rnas/4XNR

>  <Rbt.Executable>
rbdock ($Id: //depot/dev/client3/rdock/2013.1/src/exe/rbdock.cxx#4 $)

>  <Rbt.Library>
libRbt.so (2013.1, Build901 2013/11/27)

>  <Rbt.Parameter_File>
/export/apps/rDock/src/rDock_2013.1_src/data/scripts/dock_solv.prm

>  <Rbt.Receptor>
prm/pocket_docking_7.prm

>  <SCORE>
-14.5642

>  <SCORE.INTER>
-14.5642

>  <SCORE.INTER.CONST>
1

>  <SCORE.INTER.POLAR>
0

>  <SCORE.INTER.ROT>
0

>  <SCORE.INTER.SOLV>
7.64721

>  <SCORE.INTER.VDW>
-15.8585

>  <SCORE.INTER.norm>
-1.45642

>  <SCORE.INTRA>
0

>  <SCORE.INTRA.DIHEDRAL>
0

>  <SCORE.INTRA.DIHEDRAL.0>
0

>  <SCORE.INTRA.POLAR>
0

>  <SCORE.INTRA.POLAR.0>
0

>  <SCORE.INTRA.REPUL>
0

>  <SCORE.INTRA.REPUL.0>
0

>  <SCORE.INTRA.SOLV>
0

>  <SCORE.INTRA.SOLV.lig_0>
-23.8918

>  <SCORE.INTRA.VDW>
0

>  <SCORE.INTRA.VDW.0>
0

>  <SCORE.INTRA.norm>
0

>  <SCORE.RESTR>
0

>  <SCORE.RESTR.CAVITY>
0

>  <SCORE.RESTR.norm>
0

>  <SCORE.SYSTEM>
0

>  <SCORE.SYSTEM.CONST>
0

>  <SCORE.SYSTEM.DIHEDRAL>
0

>  <SCORE.SYSTEM.SOLV>
0

>  <SCORE.SYSTEM.norm>
0

>  <SCORE.heavy>
10

>  <SCORE.norm>
-1.45642

>  <RMSD>
0.637

$$$$
ligand
 OpenBabel11021811513D
libRbt.so/2013.1/901 2013/11/27
 10 11  0  0  0  0  0  0  0  0999 V2000
    5.7597   17.3911    2.5118 N   0  0  0  0  0  0  0  0  0  0  0  0
    6.6425   18.3906    2.3976 C   0  0  0  0  0  0  0  0  0  0  0  0
    7.0822   19.2313    3.3328 N   0  0  0  0  0  0  0  0  0  0  0  0
    6.5107   18.9666    4.5179 C   0  0  0  0  0  0  0  0  0  0  0  0
    5.5877   17.9755    4.7913 C   0  0  0  0  0  0  0  0  0  0  0  0
    5.2024   17.1497    3.7168 C   0  0  0  0  0  0  0  0  0  0  0  0
    4.3208   16.1520    3.8352 N   0  0  0  0  0  0  0  0  0  0  0  0
    5.2205   18.0015    6.1264 N   0  0  0  0  0  0  0  0  0  0  0  0
    5.9177   18.9945    6.6255 C   0  0  0  0  0  0  0  0  0  0  0  0
    6.7176   19.6213    5.7106 N   0  0  0  0  0  0  0  0  0  0  0  0
  1  2  2  0  0  0  0
  1  6  1  0  0  0  0
  2  3  1  0  0  0  0
  3  4  2  0  0  0  0
  4  5  1  0  0  0  0
  4 10  1  0  0  0  0
  5  6  2  0  0  0  0
  5  8  1  0  0  0  0
  6  7  1  0  0  0  0
  8  9  1  0  0  0  0
  9 10  2  0  0  0  0
M  END
>  <CHROM.1>
5.89034136,18.17911789,4.35252890,-1.85819664,0.83899006,1.23887376

>  <Name>
ligand

>  <RI>
0

>  <Rbt.Current_Directory>
/home/itssahil/PROJECTS/Mol_Feturizer/New_Systems/rnas/4XNR

>  <Rbt.Executable>
rbdock ($Id: //depot/dev/client3/rdock/2013.1/src/exe/rbdock.cxx#4 $)

>  <Rbt.Library>
libRbt.so (2013.1, Build901 2013/11/27)

>  <Rbt.Parameter_File>
/export/apps/rDock/src/rDock_2013.1_src/data/scripts/dock_solv.prm

>  <Rbt.Receptor>
prm/pocket_docking_6.prm

>  <SCORE>
-14.522

>  <SCORE.INTER>
-14.522

>  <SCORE.INTER.CONST>
1

>  <SCORE.INTER.POLAR>
0

>  <SCORE.INTER.ROT>
0

>  <SCORE.INTER.SOLV>
7.35711

>  <SCORE.INTER.VDW>
-15.7337

>  <SCORE.INTER.norm>
-1.4522

>  <SCORE.INTRA>
0

>  <SCORE.INTRA.DIHEDRAL>
0

>  <SCORE.INTRA.DIHEDRAL.0>
0

>  <SCORE.INTRA.POLAR>
0

>  <SCORE.INTRA.POLAR.0>
0

>  <SCORE.INTRA.REPUL>
0

>  <SCORE.INTRA.REPUL.0>
0

>  <SCORE.INTRA.SOLV>
0

>  <SCORE.INTRA.SOLV.lig_0>
-23.8918

>  <SCORE.INTRA.VDW>
0

>  <SCORE.INTRA.VDW.0>
0

>  <SCORE.INTRA.norm>
0

>  <SCORE.RESTR>
0

>  <SCORE.RESTR.CAVITY>
0

>  <SCORE.RESTR.norm>
0

>  <SCORE.SYSTEM>
0

>  <SCORE.SYSTEM.CONST>
0

>  <SCORE.SYSTEM.DIHEDRAL>
0

>  <SCORE.SYSTEM.SOLV>
0

>  <SCORE.SYSTEM.norm>
0

>  <SCORE.heavy>
10

>  <SCORE.norm>
-1.4522

>  <RMSD>
0.640

$$$$
ligand
 OpenBabel11021811513D
libRbt.so/2013.1/901 2013/11/27
 10 11  0  0  0  0  0  0  0  0999 V2000
    5.8196   17.3845    2.5247 N   0  0  0  0  0  0  0  0  0  0  0  0
    6.6824   18.4012    2.4102 C   0  0  0  0  0  0  0  0  0  0  0  0
    7.1028   19.2527    3.3445 N   0  0  0  0  0  0  0  0  0  0  0  0
    6.5339   18.9794    4.5289 C   0  0  0  0  0  0  0  0  0  0  0  0
    5.6303   17.9707    4.8024 C   0  0  0  0  0  0  0  0  0  0  0  0
    5.2643   17.1347    3.7290 C   0  0  0  0  0  0  0  0  0  0  0  0
    4.4025   16.1198    3.8476 N   0  0  0  0  0  0  0  0  0  0  0  0
    5.2593   17.9924    6.1366 N   0  0  0  0  0  0  0  0  0  0  0  0
    5.9353   19.0003    6.6349 C   0  0  0  0  0  0  0  0  0  0  0  0
    6.7247   19.6409    5.7205 N   0  0  0  0  0  0  0  0  0  0  0  0
  1  2  2  0  0  0  0
  1  6  1  0  0  0  0
  2  3  1  0  0  0  0
  3  4  2  0  0  0  0
  4  5  1  0  0  0  0
  4 10  1  0  0  0  0
  5  6  2  0  0  0  0
  5  8  1  0  0  0  0
  6  7  1  0  0  0  0
  8  9  1  0  0  0  0
  9 10  2  0  0  0  0
M  END
>  <CHROM.1>
5.92986563,18.17924538,4.36385277,-1.84465851,0.85711724,1.22636215

>  <Name>
ligand

>  <RI>
0

>  <Rbt.Current_Directory>
/home/itssahil/PROJECTS/Mol_Feturizer/New_Systems/rnas/4XNR

>  <Rbt.Executable>
rbdock ($Id: //depot/dev/client3/rdock/2013.1/src/exe/rbdock.cxx#4 $)

>  <Rbt.Library>
libRbt.so (2013.1, Build901 2013/11/27)

>  <Rbt.Parameter_File>
/export/apps/rDock/src/rDock_2013.1_src/data/scripts/dock_solv.prm

>  <Rbt.Receptor>
prm/blind_docking_100.prm

>  <SCORE>
-14.5258

>  <SCORE.INTER>
-14.5258

>  <SCORE.INTER.CONST>
1

>  <SCORE.INTER.POLAR>
0

>  <SCORE.INTER.ROT>
0

>  <SCORE.INTER.SOLV>
7.60167

>  <SCORE.INTER.VDW>
-15.8177

>  <SCORE.INTER.norm>
-1.45258

>  <SCORE.INTRA>
0

>  <SCORE.INTRA.DIHEDRAL>
0

>  <SCORE.INTRA.DIHEDRAL.0>
0

>  <SCORE.INTRA.POLAR>
0

>  <SCORE.INTRA.POLAR.0>
0

>  <SCORE.INTRA.REPUL>
0

>  <SCORE.INTRA.REPUL.0>
0

>  <SCORE.INTRA.SOLV>
0

>  <SCORE.INTRA.SOLV.lig_0>
-23.8918

>  <SCORE.INTRA.VDW>
0

>  <SCORE.INTRA.VDW.0>
0

>  <SCORE.INTRA.norm>
0

>  <SCORE.RESTR>
0

>  <SCORE.RESTR.CAVITY>
0

>  <SCORE.RESTR.norm>
0

>  <SCORE.SYSTEM>
0

>  <SCORE.SYSTEM.CONST>
0

>  <SCORE.SYSTEM.DIHEDRAL>
0

>  <SCORE.SYSTEM.SOLV>
0

>  <SCORE.SYSTEM.norm>
0

>  <SCORE.heavy>
10

>  <SCORE.norm>
-1.45258

>  <RMSD>
0.642

$$$$
ligand
 OpenBabel11021811513D
libRbt.so/2013.1/901 2013/11/27
 10 11  0  0  0  0  0  0  0  0999 V2000
    5.9924   17.4241    2.4946 N   0  0  0  0  0  0  0  0  0  0  0  0
    6.8089   18.4826    2.4297 C   0  0  0  0  0  0  0  0  0  0  0  0
    7.1541   19.3350    3.3936 N   0  0  0  0  0  0  0  0  0  0  0  0
    6.5567   19.0125    4.5512 C   0  0  0  0  0  0  0  0  0  0  0  0
    5.6934   17.9570    4.7736 C   0  0  0  0  0  0  0  0  0  0  0  0
    5.4068   17.1253    3.6731 C   0  0  0  0  0  0  0  0  0  0  0  0
    4.5911   16.0687    3.7422 N   0  0  0  0  0  0  0  0  0  0  0  0
    5.2740   17.9356    6.0934 N   0  0  0  0  0  0  0  0  0  0  0  0
    5.8824   18.9648    6.6338 C   0  0  0  0  0  0  0  0  0  0  0  0
    6.6725   19.6593    5.7604 N   0  0  0  0  0  0  0  0  0  0  0  0
  1  2  2  0  0  0  0
  1  6  1  0  0  0  0
  2  3  1  0  0  0  0
  3  4  2  0  0  0  0
  4  5  1  0  0  0  0
  4 10  1  0  0  0  0
  5  6  2  0  0  0  0
  5  8  1  0  0  0  0
  6  7  1  0  0  0  0
  8  9  1  0  0  0  0
  9 10  2  0  0  0  0
M  END
>  <CHROM.1>
5.99813540,18.18790736,4.35013459,-1.76513487,0.88867993,1.18368167

>  <Name>
ligand

>  <RI>
0

>  <Rbt.Current_Directory>
/home/itssahil/PROJECTS/Mol_Feturizer/New_Systems/rnas/4XNR

>  <Rbt.Executable>
rbdock ($Id: //depot/dev/client3/rdock/2013.1/src/exe/rbdock.cxx#4 $)

>  <Rbt.Library>
libRbt.so (2013.1, Build901 2013/11/27)

>  <Rbt.Parameter_File>
/export/apps/rDock/src/rDock_2013.1_src/data/scripts/dock_solv.prm

>  <Rbt.Receptor>
prm/pocket_docking_4.prm

>  <SCORE>
-14.5366

>  <SCORE.INTER>
-14.5366

>  <SCORE.INTER.CONST>
1

>  <SCORE.INTER.POLAR>
0

>  <SCORE.INTER.ROT>
0

>  <SCORE.INTER.SOLV>
7.93763

>  <SCORE.INTER.VDW>
-15.937

>  <SCORE.INTER.norm>
-1.45366

>  <SCORE.INTRA>
0

>  <SCORE.INTRA.DIHEDRAL>
0

>  <SCORE.INTRA.DIHEDRAL.0>
0

>  <SCORE.INTRA.POLAR>
0

>  <SCORE.INTRA.POLAR.0>
0

>  <SCORE.INTRA.REPUL>
0

>  <SCORE.INTRA.REPUL.0>
0

>  <SCORE.INTRA.SOLV>
0

>  <SCORE.INTRA.SOLV.lig_0>
-23.8918

>  <SCORE.INTRA.VDW>
0

>  <SCORE.INTRA.VDW.0>
0

>  <SCORE.INTRA.norm>
0

>  <SCORE.RESTR>
0

>  <SCORE.RESTR.CAVITY>
0

>  <SCORE.RESTR.norm>
0

>  <SCORE.SYSTEM>
0

>  <SCORE.SYSTEM.CONST>
0

>  <SCORE.SYSTEM.DIHEDRAL>
0

>  <SCORE.SYSTEM.SOLV>
0

>  <SCORE.SYSTEM.norm>
0

>  <SCORE.heavy>
10

>  <SCORE.norm>
-1.45366

>  <RMSD>
0.643

$$$$
ligand
 OpenBabel11021811513D
libRbt.so/2013.1/901 2013/11/27
 10 11  0  0  0  0  0  0  0  0999 V2000
    5.9956   17.4497    2.4782 N   0  0  0  0  0  0  0  0  0  0  0  0
    6.7594   18.5464    2.4077 C   0  0  0  0  0  0  0  0  0  0  0  0
    7.0723   19.4130    3.3698 N   0  0  0  0  0  0  0  0  0  0  0  0
    6.5023   19.0603    4.5325 C   0  0  0  0  0  0  0  0  0  0  0  0
    5.6932   17.9640    4.7610 C   0  0  0  0  0  0  0  0  0  0  0  0
    5.4364   17.1212    3.6616 C   0  0  0  0  0  0  0  0  0  0  0  0
    4.6734   16.0263    3.7365 N   0  0  0  0  0  0  0  0  0  0  0  0
    5.2880   17.9204    6.0847 N   0  0  0  0  0  0  0  0  0  0  0  0
    5.8513   18.9769    6.6213 C   0  0  0  0  0  0  0  0  0  0  0  0
    6.5985   19.7101    5.7418 N   0  0  0  0  0  0  0  0  0  0  0  0
  1  2  2  0  0  0  0
  1  6  1  0  0  0  0
  2  3  1  0  0  0  0
  3  4  2  0  0  0  0
  4  5  1  0  0  0  0
  4 10  1  0  0  0  0
  5  6  2  0  0  0  0
  5  8  1  0  0  0  0
  6  7  1  0  0  0  0
  8  9  1  0  0  0  0
  9 10  2  0  0  0  0
M  END
>  <CHROM.1>
5.98232184,18.21000852,4.33511844,-1.74942849,0.93696386,1.17300461

>  <Name>
ligand

>  <RI>
0

>  <Rbt.Current_Directory>
/home/itssahil/PROJECTS/Mol_Feturizer/New_Systems/rnas/4XNR

>  <Rbt.Executable>
rbdock ($Id: //depot/dev/client3/rdock/2013.1/src/exe/rbdock.cxx#4 $)

>  <Rbt.Library>
libRbt.so (2013.1, Build901 2013/11/27)

>  <Rbt.Parameter_File>
/export/apps/rDock/src/rDock_2013.1_src/data/scripts/dock_solv.prm

>  <Rbt.Receptor>
prm/pocket_docking_5.prm

>  <SCORE>
-14.5201

>  <SCORE.INTER>
-14.5201

>  <SCORE.INTER.CONST>
1

>  <SCORE.INTER.POLAR>
0

>  <SCORE.INTER.ROT>
0

>  <SCORE.INTER.SOLV>
8.26441

>  <SCORE.INTER.VDW>
-16.0348

>  <SCORE.INTER.norm>
-1.45201

>  <SCORE.INTRA>
0

>  <SCORE.INTRA.DIHEDRAL>
0

>  <SCORE.INTRA.DIHEDRAL.0>
0

>  <SCORE.INTRA.POLAR>
0

>  <SCORE.INTRA.POLAR.0>
0

>  <SCORE.INTRA.REPUL>
0

>  <SCORE.INTRA.REPUL.0>
0

>  <SCORE.INTRA.SOLV>
0

>  <SCORE.INTRA.SOLV.lig_0>
-23.8918

>  <SCORE.INTRA.VDW>
0

>  <SCORE.INTRA.VDW.0>
0

>  <SCORE.INTRA.norm>
0

>  <SCORE.RESTR>
0

>  <SCORE.RESTR.CAVITY>
0

>  <SCORE.RESTR.norm>
0

>  <SCORE.SYSTEM>
0

>  <SCORE.SYSTEM.CONST>
0

>  <SCORE.SYSTEM.DIHEDRAL>
0

>  <SCORE.SYSTEM.SOLV>
0

>  <SCORE.SYSTEM.norm>
0

>  <SCORE.heavy>
10

>  <SCORE.norm>
-1.45201

>  <RMSD>
0.648

$$$$
ligand
 OpenBabel11021811513D
libRbt.so/2013.1/901 2013/11/27
 10 11  0  0  0  0  0  0  0  0999 V2000
    5.8105   17.3302    2.5402 N   0  0  0  0  0  0  0  0  0  0  0  0
    6.7705   18.2583    2.4489 C   0  0  0  0  0  0  0  0  0  0  0  0
    7.2386   19.0753    3.3913 N   0  0  0  0  0  0  0  0  0  0  0  0
    6.6056   18.8702    4.5568 C   0  0  0  0  0  0  0  0  0  0  0  0
    5.6005   17.9557    4.8055 C   0  0  0  0  0  0  0  0  0  0  0  0
    5.1928   17.1475    3.7259 C   0  0  0  0  0  0  0  0  0  0  0  0
    4.2339   16.2211    3.8215 N   0  0  0  0  0  0  0  0  0  0  0  0
    5.1877   18.0269    6.1257 N   0  0  0  0  0  0  0  0  0  0  0  0
    5.9400   18.9706    6.6403 C   0  0  0  0  0  0  0  0  0  0  0  0
    6.8182   19.5229    5.7496 N   0  0  0  0  0  0  0  0  0  0  0  0
  1  2  2  0  0  0  0
  1  6  1  0  0  0  0
  2  3  1  0  0  0  0
  3  4  2  0  0  0  0
  4  5  1  0  0  0  0
  4 10  1  0  0  0  0
  5  6  2  0  0  0  0
  5  8  1  0  0  0  0
  6  7  1  0  0  0  0
  8  9  1  0  0  0  0
  9 10  2  0  0  0  0
M  END
>  <CHROM.1>
5.93352649,18.13000068,4.37636329,-1.84489579,0.75483180,1.21767567

>  <Name>
ligand

>  <RI>
0

>  <Rbt.Current_Directory>
/home/itssahil/PROJECTS/Mol_Feturizer/New_Systems/rnas/4XNR

>  <Rbt.Executable>
rbdock ($Id: //depot/dev/client3/rdock/2013.1/src/exe/rbdock.cxx#4 $)

>  <Rbt.Library>
libRbt.so (2013.1, Build901 2013/11/27)

>  <Rbt.Parameter_File>
/export/apps/rDock/src/rDock_2013.1_src/data/scripts/dock_solv.prm

>  <Rbt.Receptor>
prm/pocket_docking_5.prm

>  <SCORE>
-14.5224

>  <SCORE.INTER>
-14.5224

>  <SCORE.INTER.CONST>
1

>  <SCORE.INTER.POLAR>
0

>  <SCORE.INTER.ROT>
0

>  <SCORE.INTER.SOLV>
7.05813

>  <SCORE.INTER.VDW>
-15.6343

>  <SCORE.INTER.norm>
-1.45224

>  <SCORE.INTRA>
0

>  <SCORE.INTRA.DIHEDRAL>
0

>  <SCORE.INTRA.DIHEDRAL.0>
0

>  <SCORE.INTRA.POLAR>
0

>  <SCORE.INTRA.POLAR.0>
0

>  <SCORE.INTRA.REPUL>
0

>  <SCORE.INTRA.REPUL.0>
0

>  <SCORE.INTRA.SOLV>
0

>  <SCORE.INTRA.SOLV.lig_0>
-23.8918

>  <SCORE.INTRA.VDW>
0

>  <SCORE.INTRA.VDW.0>
0

>  <SCORE.INTRA.norm>
0

>  <SCORE.RESTR>
0

>  <SCORE.RESTR.CAVITY>
0

>  <SCORE.RESTR.norm>
0

>  <SCORE.SYSTEM>
0

>  <SCORE.SYSTEM.CONST>
0

>  <SCORE.SYSTEM.DIHEDRAL>
0

>  <SCORE.SYSTEM.SOLV>
0

>  <SCORE.SYSTEM.norm>
0

>  <SCORE.heavy>
10

>  <SCORE.norm>
-1.45224

>  <RMSD>
0.648

$$$$
ligand
 OpenBabel11021811513D
libRbt.so/2013.1/901 2013/11/27
 10 11  0  0  0  0  0  0  0  0999 V2000
    5.8165   17.3277    2.5656 N   0  0  0  0  0  0  0  0  0  0  0  0
    6.6821   18.3399    2.4336 C   0  0  0  0  0  0  0  0  0  0  0  0
    7.1087   19.2031    3.3543 N   0  0  0  0  0  0  0  0  0  0  0  0
    6.5431   18.9484    4.5444 C   0  0  0  0  0  0  0  0  0  0  0  0
    5.6374   17.9466    4.8354 C   0  0  0  0  0  0  0  0  0  0  0  0
    5.2648   17.0967    3.7753 C   0  0  0  0  0  0  0  0  0  0  0  0
    4.4003   16.0864    3.9114 N   0  0  0  0  0  0  0  0  0  0  0  0
    5.2714   17.9883    6.1705 N   0  0  0  0  0  0  0  0  0  0  0  0
    5.9524   19.0011    6.6521 C   0  0  0  0  0  0  0  0  0  0  0  0
    6.7404   19.6261    5.7259 N   0  0  0  0  0  0  0  0  0  0  0  0
  1  2  2  0  0  0  0
  1  6  1  0  0  0  0
  2  3  1  0  0  0  0
  3  4  2  0  0  0  0
  4  5  1  0  0  0  0
  4 10  1  0  0  0  0
  5  6  2  0  0  0  0
  5  8  1  0  0  0  0
  6  7  1  0  0  0  0
  8  9  1  0  0  0  0
  9 10  2  0  0  0  0
M  END
>  <CHROM.1>
5.93600070,18.14798960,4.39290350,-1.85154415,0.85534711,1.21742034

>  <Name>
ligand

>  <RI>
0

>  <Rbt.Current_Directory>
/home/itssahil/PROJECTS/Mol_Feturizer/New_Systems/rnas/4XNR

>  <Rbt.Executable>
rbdock ($Id: //depot/dev/client3/rdock/2013.1/src/exe/rbdock.cxx#4 $)

>  <Rbt.Library>
libRbt.so (2013.1, Build901 2013/11/27)

>  <Rbt.Parameter_File>
/export/apps/rDock/src/rDock_2013.1_src/data/scripts/dock_solv.prm

>  <Rbt.Receptor>
prm/blind_docking_100.prm

>  <SCORE>
-14.5494

>  <SCORE.INTER>
-14.5494

>  <SCORE.INTER.CONST>
1

>  <SCORE.INTER.POLAR>
0

>  <SCORE.INTER.ROT>
0

>  <SCORE.INTER.SOLV>
7.75154

>  <SCORE.INTER.VDW>
-15.8835

>  <SCORE.INTER.norm>
-1.45494

>  <SCORE.INTRA>
0

>  <SCORE.INTRA.DIHEDRAL>
0

>  <SCORE.INTRA.DIHEDRAL.0>
0

>  <SCORE.INTRA.POLAR>
0

>  <SCORE.INTRA.POLAR.0>
0

>  <SCORE.INTRA.REPUL>
0

>  <SCORE.INTRA.REPUL.0>
0

>  <SCORE.INTRA.SOLV>
0

>  <SCORE.INTRA.SOLV.lig_0>
-23.8918

>  <SCORE.INTRA.VDW>
0

>  <SCORE.INTRA.VDW.0>
0

>  <SCORE.INTRA.norm>
0

>  <SCORE.RESTR>
0

>  <SCORE.RESTR.CAVITY>
0

>  <SCORE.RESTR.norm>
0

>  <SCORE.SYSTEM>
0

>  <SCORE.SYSTEM.CONST>
0

>  <SCORE.SYSTEM.DIHEDRAL>
0

>  <SCORE.SYSTEM.SOLV>
0

>  <SCORE.SYSTEM.norm>
0

>  <SCORE.heavy>
10

>  <SCORE.norm>
-1.45494

>  <RMSD>
0.649

$$$$
ligand
 OpenBabel11021811513D
libRbt.so/2013.1/901 2013/11/27
 10 11  0  0  0  0  0  0  0  0999 V2000
    5.9981   17.4500    2.4844 N   0  0  0  0  0  0  0  0  0  0  0  0
    6.8036   18.5176    2.4319 C   0  0  0  0  0  0  0  0  0  0  0  0
    7.1353   19.3657    3.4041 N   0  0  0  0  0  0  0  0  0  0  0  0
    6.5360   19.0274    4.5563 C   0  0  0  0  0  0  0  0  0  0  0  0
    5.6830   17.9611    4.7662 C   0  0  0  0  0  0  0  0  0  0  0  0
    5.4103   17.1355    3.6577 C   0  0  0  0  0  0  0  0  0  0  0  0
    4.6056   16.0697    3.7145 N   0  0  0  0  0  0  0  0  0  0  0  0
    5.2579   17.9245    6.0838 N   0  0  0  0  0  0  0  0  0  0  0  0
    5.8529   18.9556    6.6353 C   0  0  0  0  0  0  0  0  0  0  0  0
    6.6395   19.6657    5.7712 N   0  0  0  0  0  0  0  0  0  0  0  0
  1  2  2  0  0  0  0
  1  6  1  0  0  0  0
  2  3  1  0  0  0  0
  3  4  2  0  0  0  0
  4  5  1  0  0  0  0
  4 10  1  0  0  0  0
  5  6  2  0  0  0  0
  5  8  1  0  0  0  0
  6  7  1  0  0  0  0
  8  9  1  0  0  0  0
  9 10  2  0  0  0  0
M  END
>  <CHROM.1>
5.98722798,18.19867854,4.34602547,-1.75194159,0.89677109,1.18152189

>  <Name>
ligand

>  <RI>
0

>  <Rbt.Current_Directory>
/home/itssahil/PROJECTS/Mol_Feturizer/New_Systems/rnas/4XNR

>  <Rbt.Executable>
rbdock ($Id: //depot/dev/client3/rdock/2013.1/src/exe/rbdock.cxx#4 $)

>  <Rbt.Library>
libRbt.so (2013.1, Build901 2013/11/27)

>  <Rbt.Parameter_File>
/export/apps/rDock/src/rDock_2013.1_src/data/scripts/dock_solv.prm

>  <Rbt.Receptor>
prm/pocket_docking_3.prm

>  <SCORE>
-14.5286

>  <SCORE.INTER>
-14.5286

>  <SCORE.INTER.CONST>
1

>  <SCORE.INTER.POLAR>
0

>  <SCORE.INTER.ROT>
0

>  <SCORE.INTER.SOLV>
7.94801

>  <SCORE.INTER.VDW>
-15.9351

>  <SCORE.INTER.norm>
-1.45286

>  <SCORE.INTRA>
0

>  <SCORE.INTRA.DIHEDRAL>
0

>  <SCORE.INTRA.DIHEDRAL.0>
0

>  <SCORE.INTRA.POLAR>
0

>  <SCORE.INTRA.POLAR.0>
0

>  <SCORE.INTRA.REPUL>
0

>  <SCORE.INTRA.REPUL.0>
0

>  <SCORE.INTRA.SOLV>
0

>  <SCORE.INTRA.SOLV.lig_0>
-23.8918

>  <SCORE.INTRA.VDW>
0

>  <SCORE.INTRA.VDW.0>
0

>  <SCORE.INTRA.norm>
0

>  <SCORE.RESTR>
0

>  <SCORE.RESTR.CAVITY>
0

>  <SCORE.RESTR.norm>
0

>  <SCORE.SYSTEM>
0

>  <SCORE.SYSTEM.CONST>
0

>  <SCORE.SYSTEM.DIHEDRAL>
0

>  <SCORE.SYSTEM.SOLV>
0

>  <SCORE.SYSTEM.norm>
0

>  <SCORE.heavy>
10

>  <SCORE.norm>
-1.45286

>  <RMSD>
0.651

$$$$
ligand
 OpenBabel11021811513D
libRbt.so/2013.1/901 2013/11/27
 10 11  0  0  0  0  0  0  0  0999 V2000
    5.8153   17.3491    2.5551 N   0  0  0  0  0  0  0  0  0  0  0  0
    6.7005   18.3462    2.4392 C   0  0  0  0  0  0  0  0  0  0  0  0
    7.1303   19.1975    3.3694 N   0  0  0  0  0  0  0  0  0  0  0  0
    6.5449   18.9476    4.5508 C   0  0  0  0  0  0  0  0  0  0  0  0
    5.6176   17.9609    4.8253 C   0  0  0  0  0  0  0  0  0  0  0  0
    5.2438   17.1226    3.7564 C   0  0  0  0  0  0  0  0  0  0  0  0
    4.3596   16.1274    3.8764 N   0  0  0  0  0  0  0  0  0  0  0  0
    5.2350   18.0032    6.1557 N   0  0  0  0  0  0  0  0  0  0  0  0
    5.9276   19.0013    6.6509 C   0  0  0  0  0  0  0  0  0  0  0  0
    6.7388   19.6163    5.7380 N   0  0  0  0  0  0  0  0  0  0  0  0
  1  2  2  0  0  0  0
  1  6  1  0  0  0  0
  2  3  1  0  0  0  0
  3  4  2  0  0  0  0
  4  5  1  0  0  0  0
  4 10  1  0  0  0  0
  5  6  2  0  0  0  0
  5  8  1  0  0  0  0
  6  7  1  0  0  0  0
  8  9  1  0  0  0  0
  9 10  2  0  0  0  0
M  END
>  <CHROM.1>
5.92554432,18.15888553,4.38765623,-1.84251154,0.83403512,1.21530180

>  <Name>
ligand

>  <RI>
0

>  <Rbt.Current_Directory>
/home/itssahil/PROJECTS/Mol_Feturizer/New_Systems/rnas/4XNR

>  <Rbt.Executable>
rbdock ($Id: //depot/dev/client3/rdock/2013.1/src/exe/rbdock.cxx#4 $)

>  <Rbt.Library>
libRbt.so (2013.1, Build901 2013/11/27)

>  <Rbt.Parameter_File>
/export/apps/rDock/src/rDock_2013.1_src/data/scripts/dock_solv.prm

>  <Rbt.Receptor>
prm/blind_docking_40.prm

>  <SCORE>
-14.5785

>  <SCORE.INTER>
-14.5785

>  <SCORE.INTER.CONST>
1

>  <SCORE.INTER.POLAR>
0

>  <SCORE.INTER.ROT>
0

>  <SCORE.INTER.SOLV>
7.52474

>  <SCORE.INTER.VDW>
-15.8272

>  <SCORE.INTER.norm>
-1.45785

>  <SCORE.INTRA>
0

>  <SCORE.INTRA.DIHEDRAL>
0

>  <SCORE.INTRA.DIHEDRAL.0>
0

>  <SCORE.INTRA.POLAR>
0

>  <SCORE.INTRA.POLAR.0>
0

>  <SCORE.INTRA.REPUL>
0

>  <SCORE.INTRA.REPUL.0>
0

>  <SCORE.INTRA.SOLV>
0

>  <SCORE.INTRA.SOLV.lig_0>
-23.8918

>  <SCORE.INTRA.VDW>
0

>  <SCORE.INTRA.VDW.0>
0

>  <SCORE.INTRA.norm>
0

>  <SCORE.RESTR>
0

>  <SCORE.RESTR.CAVITY>
0

>  <SCORE.RESTR.norm>
0

>  <SCORE.SYSTEM>
0

>  <SCORE.SYSTEM.CONST>
0

>  <SCORE.SYSTEM.DIHEDRAL>
0

>  <SCORE.SYSTEM.SOLV>
0

>  <SCORE.SYSTEM.norm>
0

>  <SCORE.heavy>
10

>  <SCORE.norm>
-1.45785

>  <RMSD>
0.653

$$$$
ligand
 OpenBabel11021811513D
libRbt.so/2013.1/901 2013/11/27
 10 11  0  0  0  0  0  0  0  0999 V2000
    5.8283   17.3469    2.5573 N   0  0  0  0  0  0  0  0  0  0  0  0
    6.6576   18.3901    2.4335 C   0  0  0  0  0  0  0  0  0  0  0  0
    7.0524   19.2615    3.3606 N   0  0  0  0  0  0  0  0  0  0  0  0
    6.4951   18.9786    4.5482 C   0  0  0  0  0  0  0  0  0  0  0  0
    5.6251   17.9433    4.8311 C   0  0  0  0  0  0  0  0  0  0  0  0
    5.2840   17.0881    3.7646 C   0  0  0  0  0  0  0  0  0  0  0  0
    4.4557   16.0469    3.8927 N   0  0  0  0  0  0  0  0  0  0  0  0
    5.2565   17.9627    6.1660 N   0  0  0  0  0  0  0  0  0  0  0  0
    5.9007   18.9956    6.6555 C   0  0  0  0  0  0  0  0  0  0  0  0
    6.6670   19.6546    5.7346 N   0  0  0  0  0  0  0  0  0  0  0  0
  1  2  2  0  0  0  0
  1  6  1  0  0  0  0
  2  3  1  0  0  0  0
  3  4  2  0  0  0  0
  4  5  1  0  0  0  0
  4 10  1  0  0  0  0
  5  6  2  0  0  0  0
  5  8  1  0  0  0  0
  6  7  1  0  0  0  0
  8  9  1  0  0  0  0
  9 10  2  0  0  0  0
M  END
>  <CHROM.1>
5.91685144,18.15820396,4.39040326,-1.83060541,0.88817170,1.20833955

>  <Name>
ligand

>  <RI>
0

>  <Rbt.Current_Directory>
/home/itssahil/PROJECTS/Mol_Feturizer/New_Systems/rnas/4XNR

>  <Rbt.Executable>
rbdock ($Id: //depot/dev/client3/rdock/2013.1/src/exe/rbdock.cxx#4 $)

>  <Rbt.Library>
libRbt.so (2013.1, Build901 2013/11/27)

>  <Rbt.Parameter_File>
/export/apps/rDock/src/rDock_2013.1_src/data/scripts/dock_solv.prm

>  <Rbt.Receptor>
prm/pocket_docking_7.prm

>  <SCORE>
-14.5239

>  <SCORE.INTER>
-14.5239

>  <SCORE.INTER.CONST>
1

>  <SCORE.INTER.POLAR>
0

>  <SCORE.INTER.ROT>
0

>  <SCORE.INTER.SOLV>
7.94849

>  <SCORE.INTER.VDW>
-15.9321

>  <SCORE.INTER.norm>
-1.45239

>  <SCORE.INTRA>
0

>  <SCORE.INTRA.DIHEDRAL>
0

>  <SCORE.INTRA.DIHEDRAL.0>
0

>  <SCORE.INTRA.POLAR>
0

>  <SCORE.INTRA.POLAR.0>
0

>  <SCORE.INTRA.REPUL>
0

>  <SCORE.INTRA.REPUL.0>
0

>  <SCORE.INTRA.SOLV>
0

>  <SCORE.INTRA.SOLV.lig_0>
-23.8918

>  <SCORE.INTRA.VDW>
0

>  <SCORE.INTRA.VDW.0>
0

>  <SCORE.INTRA.norm>
0

>  <SCORE.RESTR>
0

>  <SCORE.RESTR.CAVITY>
0

>  <SCORE.RESTR.norm>
0

>  <SCORE.SYSTEM>
0

>  <SCORE.SYSTEM.CONST>
0

>  <SCORE.SYSTEM.DIHEDRAL>
0

>  <SCORE.SYSTEM.SOLV>
0

>  <SCORE.SYSTEM.norm>
0

>  <SCORE.heavy>
10

>  <SCORE.norm>
-1.45239

>  <RMSD>
0.653

$$$$
ligand
 OpenBabel11021811513D
libRbt.so/2013.1/901 2013/11/27
 10 11  0  0  0  0  0  0  0  0999 V2000
    5.8204   17.3470    2.5573 N   0  0  0  0  0  0  0  0  0  0  0  0
    6.7041   18.3458    2.4437 C   0  0  0  0  0  0  0  0  0  0  0  0
    7.1316   19.1965    3.3754 N   0  0  0  0  0  0  0  0  0  0  0  0
    6.5454   18.9440    4.5560 C   0  0  0  0  0  0  0  0  0  0  0  0
    5.6195   17.9554    4.8282 C   0  0  0  0  0  0  0  0  0  0  0  0
    5.2481   17.1180    3.7577 C   0  0  0  0  0  0  0  0  0  0  0  0
    4.3655   16.1211    3.8756 N   0  0  0  0  0  0  0  0  0  0  0  0
    5.2354   17.9953    6.1582 N   0  0  0  0  0  0  0  0  0  0  0  0
    5.9259   18.9939    6.6555 C   0  0  0  0  0  0  0  0  0  0  0  0
    6.7370   19.6114    5.7442 N   0  0  0  0  0  0  0  0  0  0  0  0
  1  2  2  0  0  0  0
  1  6  1  0  0  0  0
  2  3  1  0  0  0  0
  3  4  2  0  0  0  0
  4  5  1  0  0  0  0
  4 10  1  0  0  0  0
  5  6  2  0  0  0  0
  5  8  1  0  0  0  0
  6  7  1  0  0  0  0
  8  9  1  0  0  0  0
  9 10  2  0  0  0  0
M  END
>  <CHROM.1>
5.92752685,18.15450394,4.39111280,-1.84023803,0.83524187,1.21495452

>  <Name>
ligand

>  <RI>
0

>  <Rbt.Current_Directory>
/home/itssahil/PROJECTS/Mol_Feturizer/New_Systems/rnas/4XNR

>  <Rbt.Executable>
rbdock ($Id: //depot/dev/client3/rdock/2013.1/src/exe/rbdock.cxx#4 $)

>  <Rbt.Library>
libRbt.so (2013.1, Build901 2013/11/27)

>  <Rbt.Parameter_File>
/export/apps/rDock/src/rDock_2013.1_src/data/scripts/dock_solv.prm

>  <Rbt.Receptor>
prm/pocket_docking_8.prm

>  <SCORE>
-14.5757

>  <SCORE.INTER>
-14.5757

>  <SCORE.INTER.CONST>
1

>  <SCORE.INTER.POLAR>
0

>  <SCORE.INTER.ROT>
0

>  <SCORE.INTER.SOLV>
7.54586

>  <SCORE.INTER.VDW>
-15.8324

>  <SCORE.INTER.norm>
-1.45757

>  <SCORE.INTRA>
0

>  <SCORE.INTRA.DIHEDRAL>
0

>  <SCORE.INTRA.DIHEDRAL.0>
0

>  <SCORE.INTRA.POLAR>
0

>  <SCORE.INTRA.POLAR.0>
0

>  <SCORE.INTRA.REPUL>
0

>  <SCORE.INTRA.REPUL.0>
0

>  <SCORE.INTRA.SOLV>
0

>  <SCORE.INTRA.SOLV.lig_0>
-23.8918

>  <SCORE.INTRA.VDW>
0

>  <SCORE.INTRA.VDW.0>
0

>  <SCORE.INTRA.norm>
0

>  <SCORE.RESTR>
0

>  <SCORE.RESTR.CAVITY>
0

>  <SCORE.RESTR.norm>
0

>  <SCORE.SYSTEM>
0

>  <SCORE.SYSTEM.CONST>
0

>  <SCORE.SYSTEM.DIHEDRAL>
0

>  <SCORE.SYSTEM.SOLV>
0

>  <SCORE.SYSTEM.norm>
0

>  <SCORE.heavy>
10

>  <SCORE.norm>
-1.45757

>  <RMSD>
0.654

$$$$
ligand
 OpenBabel11021811513D
libRbt.so/2013.1/901 2013/11/27
 10 11  0  0  0  0  0  0  0  0999 V2000
    5.8179   17.3500    2.5560 N   0  0  0  0  0  0  0  0  0  0  0  0
    6.7039   18.3468    2.4424 C   0  0  0  0  0  0  0  0  0  0  0  0
    7.1328   19.1969    3.3741 N   0  0  0  0  0  0  0  0  0  0  0  0
    6.5453   18.9463    4.5544 C   0  0  0  0  0  0  0  0  0  0  0  0
    5.6171   17.9599    4.8265 C   0  0  0  0  0  0  0  0  0  0  0  0
    5.2444   17.1228    3.7562 C   0  0  0  0  0  0  0  0  0  0  0  0
    4.3595   16.1280    3.8740 N   0  0  0  0  0  0  0  0  0  0  0  0
    5.2324   18.0012    6.1564 N   0  0  0  0  0  0  0  0  0  0  0  0
    5.9249   18.9985    6.6535 C   0  0  0  0  0  0  0  0  0  0  0  0
    6.7378   19.6138    5.7424 N   0  0  0  0  0  0  0  0  0  0  0  0
  1  2  2  0  0  0  0
  1  6  1  0  0  0  0
  2  3  1  0  0  0  0
  3  4  2  0  0  0  0
  4  5  1  0  0  0  0
  4 10  1  0  0  0  0
  5  6  2  0  0  0  0
  5  8  1  0  0  0  0
  6  7  1  0  0  0  0
  8  9  1  0  0  0  0
  9 10  2  0  0  0  0
M  END
>  <CHROM.1>
5.92579608,18.15811770,4.38953303,-1.84063934,0.83292855,1.21480990

>  <Name>
ligand

>  <RI>
0

>  <Rbt.Current_Directory>
/home/itssahil/PROJECTS/Mol_Feturizer/New_Systems/rnas/4XNR

>  <Rbt.Executable>
rbdock ($Id: //depot/dev/client3/rdock/2013.1/src/exe/rbdock.cxx#4 $)

>  <Rbt.Library>
libRbt.so (2013.1, Build901 2013/11/27)

>  <Rbt.Parameter_File>
/export/apps/rDock/src/rDock_2013.1_src/data/scripts/dock_solv.prm

>  <Rbt.Receptor>
prm/blind_docking_60.prm

>  <SCORE>
-14.5784

>  <SCORE.INTER>
-14.5784

>  <SCORE.INTER.CONST>
1

>  <SCORE.INTER.POLAR>
0

>  <SCORE.INTER.ROT>
0

>  <SCORE.INTER.SOLV>
7.51933

>  <SCORE.INTER.VDW>
-15.8254

>  <SCORE.INTER.norm>
-1.45784

>  <SCORE.INTRA>
0

>  <SCORE.INTRA.DIHEDRAL>
0

>  <SCORE.INTRA.DIHEDRAL.0>
0

>  <SCORE.INTRA.POLAR>
0

>  <SCORE.INTRA.POLAR.0>
0

>  <SCORE.INTRA.REPUL>
0

>  <SCORE.INTRA.REPUL.0>
0

>  <SCORE.INTRA.SOLV>
0

>  <SCORE.INTRA.SOLV.lig_0>
-23.8918

>  <SCORE.INTRA.VDW>
0

>  <SCORE.INTRA.VDW.0>
0

>  <SCORE.INTRA.norm>
0

>  <SCORE.RESTR>
0

>  <SCORE.RESTR.CAVITY>
0

>  <SCORE.RESTR.norm>
0

>  <SCORE.SYSTEM>
0

>  <SCORE.SYSTEM.CONST>
0

>  <SCORE.SYSTEM.DIHEDRAL>
0

>  <SCORE.SYSTEM.SOLV>
0

>  <SCORE.SYSTEM.norm>
0

>  <SCORE.heavy>
10

>  <SCORE.norm>
-1.45784

>  <RMSD>
0.655

$$$$
ligand
 OpenBabel11021811513D
libRbt.so/2013.1/901 2013/11/27
 10 11  0  0  0  0  0  0  0  0999 V2000
    5.8047   17.4854    2.4693 N   0  0  0  0  0  0  0  0  0  0  0  0
    6.7074   18.4705    2.3915 C   0  0  0  0  0  0  0  0  0  0  0  0
    7.1502   19.2792    3.3531 N   0  0  0  0  0  0  0  0  0  0  0  0
    6.5582   18.9961    4.5238 C   0  0  0  0  0  0  0  0  0  0  0  0
    5.6134   18.0163    4.7604 C   0  0  0  0  0  0  0  0  0  0  0  0
    5.2270   17.2248    3.6607 C   0  0  0  0  0  0  0  0  0  0  0  0
    4.3254   16.2414    3.7428 N   0  0  0  0  0  0  0  0  0  0  0  0
    5.2289   18.0161    6.0909 N   0  0  0  0  0  0  0  0  0  0  0  0
    5.9380   18.9830    6.6236 C   0  0  0  0  0  0  0  0  0  0  0  0
    6.7615   19.6169    5.7351 N   0  0  0  0  0  0  0  0  0  0  0  0
  1  2  2  0  0  0  0
  1  6  1  0  0  0  0
  2  3  1  0  0  0  0
  3  4  2  0  0  0  0
  4  5  1  0  0  0  0
  4 10  1  0  0  0  0
  5  6  2  0  0  0  0
  5  8  1  0  0  0  0
  6  7  1  0  0  0  0
  8  9  1  0  0  0  0
  9 10  2  0  0  0  0
M  END
>  <CHROM.1>
5.92553918,18.22488257,4.33075705,-1.84872846,0.81699262,1.25682729

>  <Name>
ligand

>  <RI>
0

>  <Rbt.Current_Directory>
/home/itssahil/PROJECTS/Mol_Feturizer/New_Systems/rnas/4XNR

>  <Rbt.Executable>
rbdock ($Id: //depot/dev/client3/rdock/2013.1/src/exe/rbdock.cxx#4 $)

>  <Rbt.Library>
libRbt.so (2013.1, Build901 2013/11/27)

>  <Rbt.Parameter_File>
/export/apps/rDock/src/rDock_2013.1_src/data/scripts/dock_solv.prm

>  <Rbt.Receptor>
prm/pocket_docking_3.prm

>  <SCORE>
-14.5367

>  <SCORE.INTER>
-14.5367

>  <SCORE.INTER.CONST>
1

>  <SCORE.INTER.POLAR>
0

>  <SCORE.INTER.ROT>
0

>  <SCORE.INTER.SOLV>
7.07671

>  <SCORE.INTER.VDW>
-15.65

>  <SCORE.INTER.norm>
-1.45367

>  <SCORE.INTRA>
0

>  <SCORE.INTRA.DIHEDRAL>
0

>  <SCORE.INTRA.DIHEDRAL.0>
0

>  <SCORE.INTRA.POLAR>
0

>  <SCORE.INTRA.POLAR.0>
0

>  <SCORE.INTRA.REPUL>
0

>  <SCORE.INTRA.REPUL.0>
0

>  <SCORE.INTRA.SOLV>
0

>  <SCORE.INTRA.SOLV.lig_0>
-23.8918

>  <SCORE.INTRA.VDW>
0

>  <SCORE.INTRA.VDW.0>
0

>  <SCORE.INTRA.norm>
0

>  <SCORE.RESTR>
0

>  <SCORE.RESTR.CAVITY>
0

>  <SCORE.RESTR.norm>
0

>  <SCORE.SYSTEM>
0

>  <SCORE.SYSTEM.CONST>
0

>  <SCORE.SYSTEM.DIHEDRAL>
0

>  <SCORE.SYSTEM.SOLV>
0

>  <SCORE.SYSTEM.norm>
0

>  <SCORE.heavy>
10

>  <SCORE.norm>
-1.45367

>  <RMSD>
0.655

$$$$
ligand
 OpenBabel11021811513D
libRbt.so/2013.1/901 2013/11/27
 10 11  0  0  0  0  0  0  0  0999 V2000
    5.8250   17.3532    2.5568 N   0  0  0  0  0  0  0  0  0  0  0  0
    6.7127   18.3483    2.4430 C   0  0  0  0  0  0  0  0  0  0  0  0
    7.1434   19.1977    3.3745 N   0  0  0  0  0  0  0  0  0  0  0  0
    6.5557   18.9482    4.5549 C   0  0  0  0  0  0  0  0  0  0  0  0
    5.6257   17.9635    4.8272 C   0  0  0  0  0  0  0  0  0  0  0  0
    5.2513   17.1271    3.7571 C   0  0  0  0  0  0  0  0  0  0  0  0
    4.3646   16.1338    3.8751 N   0  0  0  0  0  0  0  0  0  0  0  0
    5.2413   18.0056    6.1572 N   0  0  0  0  0  0  0  0  0  0  0  0
    5.9357   19.0017    6.6542 C   0  0  0  0  0  0  0  0  0  0  0  0
    6.7496   19.6154    5.7429 N   0  0  0  0  0  0  0  0  0  0  0  0
  1  2  2  0  0  0  0
  1  6  1  0  0  0  0
  2  3  1  0  0  0  0
  3  4  2  0  0  0  0
  4  5  1  0  0  0  0
  4 10  1  0  0  0  0
  5  6  2  0  0  0  0
  5  8  1  0  0  0  0
  6  7  1  0  0  0  0
  8  9  1  0  0  0  0
  9 10  2  0  0  0  0
M  END
>  <CHROM.1>
5.93467125,18.16113890,4.39020769,-1.84183753,0.83129055,1.21564517

>  <Name>
ligand

>  <RI>
0

>  <Rbt.Current_Directory>
/home/itssahil/PROJECTS/Mol_Feturizer/New_Systems/rnas/4XNR

>  <Rbt.Executable>
rbdock ($Id: //depot/dev/client3/rdock/2013.1/src/exe/rbdock.cxx#4 $)

>  <Rbt.Library>
libRbt.so (2013.1, Build901 2013/11/27)

>  <Rbt.Parameter_File>
/export/apps/rDock/src/rDock_2013.1_src/data/scripts/dock_solv.prm

>  <Rbt.Receptor>
prm/pocket_docking_4.prm

>  <SCORE>
-14.5452

>  <SCORE.INTER>
-14.5452

>  <SCORE.INTER.CONST>
1

>  <SCORE.INTER.POLAR>
0

>  <SCORE.INTER.ROT>
0

>  <SCORE.INTER.SOLV>
7.51768

>  <SCORE.INTER.VDW>
-15.8027

>  <SCORE.INTER.norm>
-1.45452

>  <SCORE.INTRA>
0

>  <SCORE.INTRA.DIHEDRAL>
0

>  <SCORE.INTRA.DIHEDRAL.0>
0

>  <SCORE.INTRA.POLAR>
0

>  <SCORE.INTRA.POLAR.0>
0

>  <SCORE.INTRA.REPUL>
0

>  <SCORE.INTRA.REPUL.0>
0

>  <SCORE.INTRA.SOLV>
0

>  <SCORE.INTRA.SOLV.lig_0>
-23.8918

>  <SCORE.INTRA.VDW>
0

>  <SCORE.INTRA.VDW.0>
0

>  <SCORE.INTRA.norm>
0

>  <SCORE.RESTR>
0

>  <SCORE.RESTR.CAVITY>
0

>  <SCORE.RESTR.norm>
0

>  <SCORE.SYSTEM>
0

>  <SCORE.SYSTEM.CONST>
0

>  <SCORE.SYSTEM.DIHEDRAL>
0

>  <SCORE.SYSTEM.SOLV>
0

>  <SCORE.SYSTEM.norm>
0

>  <SCORE.heavy>
10

>  <SCORE.norm>
-1.45452

>  <RMSD>
0.656

$$$$
ligand
 OpenBabel11021811513D
libRbt.so/2013.1/901 2013/11/27
 10 11  0  0  0  0  0  0  0  0999 V2000
    5.8131   17.3361    2.5668 N   0  0  0  0  0  0  0  0  0  0  0  0
    6.6900   18.3400    2.4460 C   0  0  0  0  0  0  0  0  0  0  0  0
    7.1173   19.1956    3.3734 N   0  0  0  0  0  0  0  0  0  0  0  0
    6.5389   18.9424    4.5577 C   0  0  0  0  0  0  0  0  0  0  0  0
    5.6206   17.9487    4.8372 C   0  0  0  0  0  0  0  0  0  0  0  0
    5.2486   17.1065    3.7708 C   0  0  0  0  0  0  0  0  0  0  0  0
    4.3728   16.1045    3.8957 N   0  0  0  0  0  0  0  0  0  0  0  0
    5.2434   17.9894    6.1692 N   0  0  0  0  0  0  0  0  0  0  0  0
    5.9305   18.9935    6.6604 C   0  0  0  0  0  0  0  0  0  0  0  0
    6.7328   19.6138    5.7433 N   0  0  0  0  0  0  0  0  0  0  0  0
  1  2  2  0  0  0  0
  1  6  1  0  0  0  0
  2  3  1  0  0  0  0
  3  4  2  0  0  0  0
  4  5  1  0  0  0  0
  4 10  1  0  0  0  0
  5  6  2  0  0  0  0
  5  8  1  0  0  0  0
  6  7  1  0  0  0  0
  8  9  1  0  0  0  0
  9 10  2  0  0  0  0
M  END
>  <CHROM.1>
5.92506173,18.14866932,4.39803273,-1.84457189,0.84285409,1.21580887

>  <Name>
ligand

>  <RI>
0

>  <Rbt.Current_Directory>
/home/itssahil/PROJECTS/Mol_Feturizer/New_Systems/rnas/4XNR

>  <Rbt.Executable>
rbdock ($Id: //depot/dev/client3/rdock/2013.1/src/exe/rbdock.cxx#4 $)

>  <Rbt.Library>
libRbt.so (2013.1, Build901 2013/11/27)

>  <Rbt.Parameter_File>
/export/apps/rDock/src/rDock_2013.1_src/data/scripts/dock_solv.prm

>  <Rbt.Receptor>
prm/pocket_docking_5.prm

>  <SCORE>
-14.5672

>  <SCORE.INTER>
-14.5672

>  <SCORE.INTER.CONST>
1

>  <SCORE.INTER.POLAR>
0

>  <SCORE.INTER.ROT>
0

>  <SCORE.INTER.SOLV>
7.62371

>  <SCORE.INTER.VDW>
-15.8527

>  <SCORE.INTER.norm>
-1.45672

>  <SCORE.INTRA>
0

>  <SCORE.INTRA.DIHEDRAL>
0

>  <SCORE.INTRA.DIHEDRAL.0>
0

>  <SCORE.INTRA.POLAR>
0

>  <SCORE.INTRA.POLAR.0>
0

>  <SCORE.INTRA.REPUL>
0

>  <SCORE.INTRA.REPUL.0>
0

>  <SCORE.INTRA.SOLV>
0

>  <SCORE.INTRA.SOLV.lig_0>
-23.8918

>  <SCORE.INTRA.VDW>
0

>  <SCORE.INTRA.VDW.0>
0

>  <SCORE.INTRA.norm>
0

>  <SCORE.RESTR>
0

>  <SCORE.RESTR.CAVITY>
0

>  <SCORE.RESTR.norm>
0

>  <SCORE.SYSTEM>
0

>  <SCORE.SYSTEM.CONST>
0

>  <SCORE.SYSTEM.DIHEDRAL>
0

>  <SCORE.SYSTEM.SOLV>
0

>  <SCORE.SYSTEM.norm>
0

>  <SCORE.heavy>
10

>  <SCORE.norm>
-1.45672

>  <RMSD>
0.656

$$$$
ligand
 OpenBabel11021811513D
libRbt.so/2013.1/901 2013/11/27
 10 11  0  0  0  0  0  0  0  0999 V2000
    5.8273   17.3557    2.5549 N   0  0  0  0  0  0  0  0  0  0  0  0
    6.7233   18.3439    2.4458 C   0  0  0  0  0  0  0  0  0  0  0  0
    7.1569   19.1889    3.3800 N   0  0  0  0  0  0  0  0  0  0  0  0
    6.5624   18.9427    4.5578 C   0  0  0  0  0  0  0  0  0  0  0  0
    5.6237   17.9650    4.8252 C   0  0  0  0  0  0  0  0  0  0  0  0
    5.2470   17.1328    3.7526 C   0  0  0  0  0  0  0  0  0  0  0  0
    4.3521   16.1464    3.8659 N   0  0  0  0  0  0  0  0  0  0  0  0
    5.2343   18.0086    6.1536 N   0  0  0  0  0  0  0  0  0  0  0  0
    5.9344   18.9987    6.6545 C   0  0  0  0  0  0  0  0  0  0  0  0
    6.7568   19.6070    5.7472 N   0  0  0  0  0  0  0  0  0  0  0  0
  1  2  2  0  0  0  0
  1  6  1  0  0  0  0
  2  3  1  0  0  0  0
  3  4  2  0  0  0  0
  4  5  1  0  0  0  0
  4 10  1  0  0  0  0
  5  6  2  0  0  0  0
  5  8  1  0  0  0  0
  6  7  1  0  0  0  0
  8  9  1  0  0  0  0
  9 10  2  0  0  0  0
M  END
>  <CHROM.1>
5.93596667,18.16070546,4.38964096,-1.84029108,0.82251791,1.21564375

>  <Name>
ligand

>  <RI>
0

>  <Rbt.Current_Directory>
/home/itssahil/PROJECTS/Mol_Feturizer/New_Systems/rnas/4XNR

>  <Rbt.Executable>
rbdock ($Id: //depot/dev/client3/rdock/2013.1/src/exe/rbdock.cxx#4 $)

>  <Rbt.Library>
libRbt.so (2013.1, Build901 2013/11/27)

>  <Rbt.Parameter_File>
/export/apps/rDock/src/rDock_2013.1_src/data/scripts/dock_solv.prm

>  <Rbt.Receptor>
prm/pocket_docking_7.prm

>  <SCORE>
-14.5464

>  <SCORE.INTER>
-14.5464

>  <SCORE.INTER.CONST>
1

>  <SCORE.INTER.POLAR>
0

>  <SCORE.INTER.ROT>
0

>  <SCORE.INTER.SOLV>
7.4532

>  <SCORE.INTER.VDW>
-15.782

>  <SCORE.INTER.norm>
-1.45464

>  <SCORE.INTRA>
0

>  <SCORE.INTRA.DIHEDRAL>
0

>  <SCORE.INTRA.DIHEDRAL.0>
0

>  <SCORE.INTRA.POLAR>
0

>  <SCORE.INTRA.POLAR.0>
0

>  <SCORE.INTRA.REPUL>
0

>  <SCORE.INTRA.REPUL.0>
0

>  <SCORE.INTRA.SOLV>
0

>  <SCORE.INTRA.SOLV.lig_0>
-23.8918

>  <SCORE.INTRA.VDW>
0

>  <SCORE.INTRA.VDW.0>
0

>  <SCORE.INTRA.norm>
0

>  <SCORE.RESTR>
0

>  <SCORE.RESTR.CAVITY>
0

>  <SCORE.RESTR.norm>
0

>  <SCORE.SYSTEM>
0

>  <SCORE.SYSTEM.CONST>
0

>  <SCORE.SYSTEM.DIHEDRAL>
0

>  <SCORE.SYSTEM.SOLV>
0

>  <SCORE.SYSTEM.norm>
0

>  <SCORE.heavy>
10

>  <SCORE.norm>
-1.45464

>  <RMSD>
0.657

$$$$
ligand
 OpenBabel11021811513D
libRbt.so/2013.1/901 2013/11/27
 10 11  0  0  0  0  0  0  0  0999 V2000
    5.8187   17.3419    2.5692 N   0  0  0  0  0  0  0  0  0  0  0  0
    6.6986   18.3433    2.4498 C   0  0  0  0  0  0  0  0  0  0  0  0
    7.1271   19.1975    3.3780 N   0  0  0  0  0  0  0  0  0  0  0  0
    6.5465   18.9456    4.5615 C   0  0  0  0  0  0  0  0  0  0  0  0
    5.6251   17.9545    4.8396 C   0  0  0  0  0  0  0  0  0  0  0  0
    5.2520   17.1136    3.7725 C   0  0  0  0  0  0  0  0  0  0  0  0
    4.3732   16.1140    3.8961 N   0  0  0  0  0  0  0  0  0  0  0  0
    5.2463   17.9960    6.1711 N   0  0  0  0  0  0  0  0  0  0  0  0
    5.9355   18.9980    6.6634 C   0  0  0  0  0  0  0  0  0  0  0  0
    6.7408   19.6162    5.7475 N   0  0  0  0  0  0  0  0  0  0  0  0
  1  2  2  0  0  0  0
  1  6  1  0  0  0  0
  2  3  1  0  0  0  0
  3  4  2  0  0  0  0
  4  5  1  0  0  0  0
  4 10  1  0  0  0  0
  5  6  2  0  0  0  0
  5  8  1  0  0  0  0
  6  7  1  0  0  0  0
  8  9  1  0  0  0  0
  9 10  2  0  0  0  0
M  END
>  <CHROM.1>
5.93061358,18.15371114,4.40083669,-1.84426265,0.83975853,1.21579016

>  <Name>
ligand

>  <RI>
0

>  <Rbt.Current_Directory>
/home/itssahil/PROJECTS/Mol_Feturizer/New_Systems/rnas/4XNR

>  <Rbt.Executable>
rbdock ($Id: //depot/dev/client3/rdock/2013.1/src/exe/rbdock.cxx#4 $)

>  <Rbt.Library>
libRbt.so (2013.1, Build901 2013/11/27)

>  <Rbt.Parameter_File>
/export/apps/rDock/src/rDock_2013.1_src/data/scripts/dock_solv.prm

>  <Rbt.Receptor>
prm/pocket_docking_8.prm

>  <SCORE>
-14.5705

>  <SCORE.INTER>
-14.5705

>  <SCORE.INTER.CONST>
1

>  <SCORE.INTER.POLAR>
0

>  <SCORE.INTER.ROT>
0

>  <SCORE.INTER.SOLV>
7.60916

>  <SCORE.INTER.VDW>
-15.85

>  <SCORE.INTER.norm>
-1.45705

>  <SCORE.INTRA>
0

>  <SCORE.INTRA.DIHEDRAL>
0

>  <SCORE.INTRA.DIHEDRAL.0>
0

>  <SCORE.INTRA.POLAR>
0

>  <SCORE.INTRA.POLAR.0>
0

>  <SCORE.INTRA.REPUL>
0

>  <SCORE.INTRA.REPUL.0>
0

>  <SCORE.INTRA.SOLV>
0

>  <SCORE.INTRA.SOLV.lig_0>
-23.8918

>  <SCORE.INTRA.VDW>
0

>  <SCORE.INTRA.VDW.0>
0

>  <SCORE.INTRA.norm>
0

>  <SCORE.RESTR>
0

>  <SCORE.RESTR.CAVITY>
0

>  <SCORE.RESTR.norm>
0

>  <SCORE.SYSTEM>
0

>  <SCORE.SYSTEM.CONST>
0

>  <SCORE.SYSTEM.DIHEDRAL>
0

>  <SCORE.SYSTEM.SOLV>
0

>  <SCORE.SYSTEM.norm>
0

>  <SCORE.heavy>
10

>  <SCORE.norm>
-1.45705

>  <RMSD>
0.661

$$$$
ligand
 OpenBabel11021811513D
libRbt.so/2013.1/901 2013/11/27
 10 11  0  0  0  0  0  0  0  0999 V2000
    5.8137   17.3370    2.5723 N   0  0  0  0  0  0  0  0  0  0  0  0
    6.6919   18.3400    2.4529 C   0  0  0  0  0  0  0  0  0  0  0  0
    7.1189   19.1949    3.3811 N   0  0  0  0  0  0  0  0  0  0  0  0
    6.5389   18.9420    4.5646 C   0  0  0  0  0  0  0  0  0  0  0  0
    5.6192   17.9492    4.8427 C   0  0  0  0  0  0  0  0  0  0  0  0
    5.2476   17.1077    3.7756 C   0  0  0  0  0  0  0  0  0  0  0  0
    4.3705   16.1066    3.8992 N   0  0  0  0  0  0  0  0  0  0  0  0
    5.2405   17.9900    6.1743 N   0  0  0  0  0  0  0  0  0  0  0  0
    5.9280   18.9932    6.6665 C   0  0  0  0  0  0  0  0  0  0  0  0
    6.7321   19.6128    5.7506 N   0  0  0  0  0  0  0  0  0  0  0  0
  1  2  2  0  0  0  0
  1  6  1  0  0  0  0
  2  3  1  0  0  0  0
  3  4  2  0  0  0  0
  4  5  1  0  0  0  0
  4 10  1  0  0  0  0
  5  6  2  0  0  0  0
  5  8  1  0  0  0  0
  6  7  1  0  0  0  0
  8  9  1  0  0  0  0
  9 10  2  0  0  0  0
M  END
>  <CHROM.1>
5.92436500,18.14895848,4.40396173,-1.84345210,0.84143068,1.21523022

>  <Name>
ligand

>  <RI>
0

>  <Rbt.Current_Directory>
/home/itssahil/PROJECTS/Mol_Feturizer/New_Systems/rnas/4XNR

>  <Rbt.Executable>
rbdock ($Id: //depot/dev/client3/rdock/2013.1/src/exe/rbdock.cxx#4 $)

>  <Rbt.Library>
libRbt.so (2013.1, Build901 2013/11/27)

>  <Rbt.Parameter_File>
/export/apps/rDock/src/rDock_2013.1_src/data/scripts/dock_solv.prm

>  <Rbt.Receptor>
prm/blind_docking_100.prm

>  <SCORE>
-14.5658

>  <SCORE.INTER>
-14.5658

>  <SCORE.INTER.CONST>
1

>  <SCORE.INTER.POLAR>
0

>  <SCORE.INTER.ROT>
0

>  <SCORE.INTER.SOLV>
7.62506

>  <SCORE.INTER.VDW>
-15.8522

>  <SCORE.INTER.norm>
-1.45658

>  <SCORE.INTRA>
0

>  <SCORE.INTRA.DIHEDRAL>
0

>  <SCORE.INTRA.DIHEDRAL.0>
0

>  <SCORE.INTRA.POLAR>
0

>  <SCORE.INTRA.POLAR.0>
0

>  <SCORE.INTRA.REPUL>
0

>  <SCORE.INTRA.REPUL.0>
0

>  <SCORE.INTRA.SOLV>
0

>  <SCORE.INTRA.SOLV.lig_0>
-23.8918

>  <SCORE.INTRA.VDW>
0

>  <SCORE.INTRA.VDW.0>
0

>  <SCORE.INTRA.norm>
0

>  <SCORE.RESTR>
0

>  <SCORE.RESTR.CAVITY>
0

>  <SCORE.RESTR.norm>
0

>  <SCORE.SYSTEM>
0

>  <SCORE.SYSTEM.CONST>
0

>  <SCORE.SYSTEM.DIHEDRAL>
0

>  <SCORE.SYSTEM.SOLV>
0

>  <SCORE.SYSTEM.norm>
0

>  <SCORE.heavy>
10

>  <SCORE.norm>
-1.45658

>  <RMSD>
0.662

$$$$
ligand
 OpenBabel11021811513D
libRbt.so/2013.1/901 2013/11/27
 10 11  0  0  0  0  0  0  0  0999 V2000
    5.8228   17.4900    2.4740 N   0  0  0  0  0  0  0  0  0  0  0  0
    6.7234   18.4779    2.4075 C   0  0  0  0  0  0  0  0  0  0  0  0
    7.1548   19.2852    3.3754 N   0  0  0  0  0  0  0  0  0  0  0  0
    6.5525   18.9971    4.5397 C   0  0  0  0  0  0  0  0  0  0  0  0
    5.6084   18.0140    4.7646 C   0  0  0  0  0  0  0  0  0  0  0  0
    5.2347   17.2244    3.6591 C   0  0  0  0  0  0  0  0  0  0  0  0
    4.3352   16.2382    3.7300 N   0  0  0  0  0  0  0  0  0  0  0  0
    5.2114   18.0089    6.0915 N   0  0  0  0  0  0  0  0  0  0  0  0
    5.9125   18.9764    6.6335 C   0  0  0  0  0  0  0  0  0  0  0  0
    6.7426   19.6152    5.7545 N   0  0  0  0  0  0  0  0  0  0  0  0
  1  2  2  0  0  0  0
  1  6  1  0  0  0  0
  2  3  1  0  0  0  0
  3  4  2  0  0  0  0
  4  5  1  0  0  0  0
  4 10  1  0  0  0  0
  5  6  2  0  0  0  0
  5  8  1  0  0  0  0
  6  7  1  0  0  0  0
  8  9  1  0  0  0  0
  9 10  2  0  0  0  0
M  END
>  <CHROM.1>
5.92395664,18.22466289,4.33852451,-1.83430879,0.81678319,1.24910113

>  <Name>
ligand

>  <RI>
0

>  <Rbt.Current_Directory>
/home/itssahil/PROJECTS/Mol_Feturizer/New_Systems/rnas/4XNR

>  <Rbt.Executable>
rbdock ($Id: //depot/dev/client3/rdock/2013.1/src/exe/rbdock.cxx#4 $)

>  <Rbt.Library>
libRbt.so (2013.1, Build901 2013/11/27)

>  <Rbt.Parameter_File>
/export/apps/rDock/src/rDock_2013.1_src/data/scripts/dock_solv.prm

>  <Rbt.Receptor>
prm/pocket_docking_6.prm

>  <SCORE>
-14.5038

>  <SCORE.INTER>
-14.5038

>  <SCORE.INTER.CONST>
1

>  <SCORE.INTER.POLAR>
0

>  <SCORE.INTER.ROT>
0

>  <SCORE.INTER.SOLV>
7.0893

>  <SCORE.INTER.VDW>
-15.6323

>  <SCORE.INTER.norm>
-1.45038

>  <SCORE.INTRA>
0

>  <SCORE.INTRA.DIHEDRAL>
0

>  <SCORE.INTRA.DIHEDRAL.0>
0

>  <SCORE.INTRA.POLAR>
0

>  <SCORE.INTRA.POLAR.0>
0

>  <SCORE.INTRA.REPUL>
0

>  <SCORE.INTRA.REPUL.0>
0

>  <SCORE.INTRA.SOLV>
0

>  <SCORE.INTRA.SOLV.lig_0>
-23.8918

>  <SCORE.INTRA.VDW>
0

>  <SCORE.INTRA.VDW.0>
0

>  <SCORE.INTRA.norm>
0

>  <SCORE.RESTR>
0

>  <SCORE.RESTR.CAVITY>
0

>  <SCORE.RESTR.norm>
0

>  <SCORE.SYSTEM>
0

>  <SCORE.SYSTEM.CONST>
0

>  <SCORE.SYSTEM.DIHEDRAL>
0

>  <SCORE.SYSTEM.SOLV>
0

>  <SCORE.SYSTEM.norm>
0

>  <SCORE.heavy>
10

>  <SCORE.norm>
-1.45038

>  <RMSD>
0.662

$$$$
ligand
 OpenBabel11021811513D
libRbt.so/2013.1/901 2013/11/27
 10 11  0  0  0  0  0  0  0  0999 V2000
    5.8196   17.3389    2.5708 N   0  0  0  0  0  0  0  0  0  0  0  0
    6.6979   18.3423    2.4563 C   0  0  0  0  0  0  0  0  0  0  0  0
    7.1196   19.1972    3.3869 N   0  0  0  0  0  0  0  0  0  0  0  0
    6.5331   18.9439    4.5672 C   0  0  0  0  0  0  0  0  0  0  0  0
    5.6123   17.9507    4.8401 C   0  0  0  0  0  0  0  0  0  0  0  0
    5.2469   17.1092    3.7709 C   0  0  0  0  0  0  0  0  0  0  0  0
    4.3696   16.1077    3.8896 N   0  0  0  0  0  0  0  0  0  0  0  0
    5.2263   17.9911    6.1696 N   0  0  0  0  0  0  0  0  0  0  0  0
    5.9107   18.9945    6.6658 C   0  0  0  0  0  0  0  0  0  0  0  0
    6.7196   19.6147    5.7543 N   0  0  0  0  0  0  0  0  0  0  0  0
  1  2  2  0  0  0  0
  1  6  1  0  0  0  0
  2  3  1  0  0  0  0
  3  4  2  0  0  0  0
  4  5  1  0  0  0  0
  4 10  1  0  0  0  0
  5  6  2  0  0  0  0
  5  8  1  0  0  0  0
  6  7  1  0  0  0  0
  8  9  1  0  0  0  0
  9 10  2  0  0  0  0
M  END
>  <CHROM.1>
5.91983815,18.15065969,4.40307849,-1.83555939,0.83988475,1.20949376

>  <Name>
ligand

>  <RI>
0

>  <Rbt.Current_Directory>
/home/itssahil/PROJECTS/Mol_Feturizer/New_Systems/rnas/4XNR

>  <Rbt.Executable>
rbdock ($Id: //depot/dev/client3/rdock/2013.1/src/exe/rbdock.cxx#4 $)

>  <Rbt.Library>
libRbt.so (2013.1, Build901 2013/11/27)

>  <Rbt.Parameter_File>
/export/apps/rDock/src/rDock_2013.1_src/data/scripts/dock_solv.prm

>  <Rbt.Receptor>
prm/pocket_docking_6.prm

>  <SCORE>
-14.5656

>  <SCORE.INTER>
-14.5656

>  <SCORE.INTER.CONST>
1

>  <SCORE.INTER.POLAR>
0

>  <SCORE.INTER.ROT>
0

>  <SCORE.INTER.SOLV>
7.60649

>  <SCORE.INTER.VDW>
-15.8459

>  <SCORE.INTER.norm>
-1.45656

>  <SCORE.INTRA>
0

>  <SCORE.INTRA.DIHEDRAL>
0

>  <SCORE.INTRA.DIHEDRAL.0>
0

>  <SCORE.INTRA.POLAR>
0

>  <SCORE.INTRA.POLAR.0>
0

>  <SCORE.INTRA.REPUL>
0

>  <SCORE.INTRA.REPUL.0>
0

>  <SCORE.INTRA.SOLV>
0

>  <SCORE.INTRA.SOLV.lig_0>
-23.8918

>  <SCORE.INTRA.VDW>
0

>  <SCORE.INTRA.VDW.0>
0

>  <SCORE.INTRA.norm>
0

>  <SCORE.RESTR>
0

>  <SCORE.RESTR.CAVITY>
0

>  <SCORE.RESTR.norm>
0

>  <SCORE.SYSTEM>
0

>  <SCORE.SYSTEM.CONST>
0

>  <SCORE.SYSTEM.DIHEDRAL>
0

>  <SCORE.SYSTEM.SOLV>
0

>  <SCORE.SYSTEM.norm>
0

>  <SCORE.heavy>
10

>  <SCORE.norm>
-1.45656

>  <RMSD>
0.663

$$$$
ligand
 OpenBabel11021811513D
libRbt.so/2013.1/901 2013/11/27
 10 11  0  0  0  0  0  0  0  0999 V2000
    5.8053   17.3558    2.5630 N   0  0  0  0  0  0  0  0  0  0  0  0
    6.6819   18.3609    2.4508 C   0  0  0  0  0  0  0  0  0  0  0  0
    7.1061   19.2110    3.3847 N   0  0  0  0  0  0  0  0  0  0  0  0
    6.5247   18.9501    4.5658 C   0  0  0  0  0  0  0  0  0  0  0  0
    5.6062   17.9543    4.8366 C   0  0  0  0  0  0  0  0  0  0  0  0
    5.2376   17.1184    3.7640 C   0  0  0  0  0  0  0  0  0  0  0  0
    4.3621   16.1152    3.8803 N   0  0  0  0  0  0  0  0  0  0  0  0
    5.2253   17.9865    6.1678 N   0  0  0  0  0  0  0  0  0  0  0  0
    5.9104   18.9879    6.6670 C   0  0  0  0  0  0  0  0  0  0  0  0
    6.7149   19.6143    5.7560 N   0  0  0  0  0  0  0  0  0  0  0  0
  1  2  2  0  0  0  0
  1  6  1  0  0  0  0
  2  3  1  0  0  0  0
  3  4  2  0  0  0  0
  4  5  1  0  0  0  0
  4 10  1  0  0  0  0
  5  6  2  0  0  0  0
  5  8  1  0  0  0  0
  6  7  1  0  0  0  0
  8  9  1  0  0  0  0
  9 10  2  0  0  0  0
M  END
>  <CHROM.1>
5.91171867,18.15709581,4.39950156,-1.84040310,0.84245188,1.21886128

>  <Name>
ligand

>  <RI>
0

>  <Rbt.Current_Directory>
/home/itssahil/PROJECTS/Mol_Feturizer/New_Systems/rnas/4XNR

>  <Rbt.Executable>
rbdock ($Id: //depot/dev/client3/rdock/2013.1/src/exe/rbdock.cxx#4 $)

>  <Rbt.Library>
libRbt.so (2013.1, Build901 2013/11/27)

>  <Rbt.Parameter_File>
/export/apps/rDock/src/rDock_2013.1_src/data/scripts/dock_solv.prm

>  <Rbt.Receptor>
prm/pocket_docking_5.prm

>  <SCORE>
-14.5655

>  <SCORE.INTER>
-14.5655

>  <SCORE.INTER.CONST>
1

>  <SCORE.INTER.POLAR>
0

>  <SCORE.INTER.ROT>
0

>  <SCORE.INTER.SOLV>
7.56756

>  <SCORE.INTER.VDW>
-15.8328

>  <SCORE.INTER.norm>
-1.45655

>  <SCORE.INTRA>
0

>  <SCORE.INTRA.DIHEDRAL>
0

>  <SCORE.INTRA.DIHEDRAL.0>
0

>  <SCORE.INTRA.POLAR>
0

>  <SCORE.INTRA.POLAR.0>
0

>  <SCORE.INTRA.REPUL>
0

>  <SCORE.INTRA.REPUL.0>
0

>  <SCORE.INTRA.SOLV>
0

>  <SCORE.INTRA.SOLV.lig_0>
-23.8918

>  <SCORE.INTRA.VDW>
0

>  <SCORE.INTRA.VDW.0>
0

>  <SCORE.INTRA.norm>
0

>  <SCORE.RESTR>
0

>  <SCORE.RESTR.CAVITY>
0

>  <SCORE.RESTR.norm>
0

>  <SCORE.SYSTEM>
0

>  <SCORE.SYSTEM.CONST>
0

>  <SCORE.SYSTEM.DIHEDRAL>
0

>  <SCORE.SYSTEM.SOLV>
0

>  <SCORE.SYSTEM.norm>
0

>  <SCORE.heavy>
10

>  <SCORE.norm>
-1.45655

>  <RMSD>
0.664

$$$$
ligand
 OpenBabel11021811513D
libRbt.so/2013.1/901 2013/11/27
 10 11  0  0  0  0  0  0  0  0999 V2000
    5.7936   17.4851    2.4798 N   0  0  0  0  0  0  0  0  0  0  0  0
    6.6851   18.4808    2.4067 C   0  0  0  0  0  0  0  0  0  0  0  0
    7.1158   19.2924    3.3712 N   0  0  0  0  0  0  0  0  0  0  0  0
    6.5238   18.9999    4.5396 C   0  0  0  0  0  0  0  0  0  0  0  0
    5.5898   18.0087    4.7714 C   0  0  0  0  0  0  0  0  0  0  0  0
    5.2157   17.2152    3.6689 C   0  0  0  0  0  0  0  0  0  0  0  0
    4.3254   16.2212    3.7463 N   0  0  0  0  0  0  0  0  0  0  0  0
    5.2017   18.0011    6.1009 N   0  0  0  0  0  0  0  0  0  0  0  0
    5.8979   18.9750    6.6376 C   0  0  0  0  0  0  0  0  0  0  0  0
    6.7165   19.6204    5.7528 N   0  0  0  0  0  0  0  0  0  0  0  0
  1  2  2  0  0  0  0
  1  6  1  0  0  0  0
  2  3  1  0  0  0  0
  3  4  2  0  0  0  0
  4  5  1  0  0  0  0
  4 10  1  0  0  0  0
  5  6  2  0  0  0  0
  5  8  1  0  0  0  0
  6  7  1  0  0  0  0
  8  9  1  0  0  0  0
  9 10  2  0  0  0  0
M  END
>  <CHROM.1>
5.90070128,18.22187184,4.34312968,-1.83951241,0.82715591,1.25226143

>  <Name>
ligand

>  <RI>
0

>  <Rbt.Current_Directory>
/home/itssahil/PROJECTS/Mol_Feturizer/New_Systems/rnas/4XNR

>  <Rbt.Executable>
rbdock ($Id: //depot/dev/client3/rdock/2013.1/src/exe/rbdock.cxx#4 $)

>  <Rbt.Library>
libRbt.so (2013.1, Build901 2013/11/27)

>  <Rbt.Parameter_File>
/export/apps/rDock/src/rDock_2013.1_src/data/scripts/dock_solv.prm

>  <Rbt.Receptor>
prm/pocket_docking_6.prm

>  <SCORE>
-14.5205

>  <SCORE.INTER>
-14.5205

>  <SCORE.INTER.CONST>
1

>  <SCORE.INTER.POLAR>
0

>  <SCORE.INTER.ROT>
0

>  <SCORE.INTER.SOLV>
7.14032

>  <SCORE.INTER.VDW>
-15.6605

>  <SCORE.INTER.norm>
-1.45205

>  <SCORE.INTRA>
0

>  <SCORE.INTRA.DIHEDRAL>
0

>  <SCORE.INTRA.DIHEDRAL.0>
0

>  <SCORE.INTRA.POLAR>
0

>  <SCORE.INTRA.POLAR.0>
0

>  <SCORE.INTRA.REPUL>
0

>  <SCORE.INTRA.REPUL.0>
0

>  <SCORE.INTRA.SOLV>
0

>  <SCORE.INTRA.SOLV.lig_0>
-23.8918

>  <SCORE.INTRA.VDW>
0

>  <SCORE.INTRA.VDW.0>
0

>  <SCORE.INTRA.norm>
0

>  <SCORE.RESTR>
0

>  <SCORE.RESTR.CAVITY>
0

>  <SCORE.RESTR.norm>
0

>  <SCORE.SYSTEM>
0

>  <SCORE.SYSTEM.CONST>
0

>  <SCORE.SYSTEM.DIHEDRAL>
0

>  <SCORE.SYSTEM.SOLV>
0

>  <SCORE.SYSTEM.norm>
0

>  <SCORE.heavy>
10

>  <SCORE.norm>
-1.45205

>  <RMSD>
0.664

$$$$
ligand
 OpenBabel11021811513D
libRbt.so/2013.1/901 2013/11/27
 10 11  0  0  0  0  0  0  0  0999 V2000
    5.8188   17.3451    2.5695 N   0  0  0  0  0  0  0  0  0  0  0  0
    6.7025   18.3438    2.4550 C   0  0  0  0  0  0  0  0  0  0  0  0
    7.1303   19.1951    3.3861 N   0  0  0  0  0  0  0  0  0  0  0  0
    6.5445   18.9433    4.5670 C   0  0  0  0  0  0  0  0  0  0  0  0
    5.6187   17.9549    4.8400 C   0  0  0  0  0  0  0  0  0  0  0  0
    5.2469   17.1168    3.7702 C   0  0  0  0  0  0  0  0  0  0  0  0
    4.3643   16.1200    3.8890 N   0  0  0  0  0  0  0  0  0  0  0  0
    5.2351   17.9955    6.1702 N   0  0  0  0  0  0  0  0  0  0  0  0
    5.9258   18.9944    6.6666 C   0  0  0  0  0  0  0  0  0  0  0  0
    6.7365   19.6114    5.7547 N   0  0  0  0  0  0  0  0  0  0  0  0
  1  2  2  0  0  0  0
  1  6  1  0  0  0  0
  2  3  1  0  0  0  0
  3  4  2  0  0  0  0
  4  5  1  0  0  0  0
  4 10  1  0  0  0  0
  5  6  2  0  0  0  0
  5  8  1  0  0  0  0
  6  7  1  0  0  0  0
  8  9  1  0  0  0  0
  9 10  2  0  0  0  0
M  END
>  <CHROM.1>
5.92655217,18.15370869,4.40277121,-1.84073887,0.83533898,1.21474742

>  <Name>
ligand

>  <RI>
0

>  <Rbt.Current_Directory>
/home/itssahil/PROJECTS/Mol_Feturizer/New_Systems/rnas/4XNR

>  <Rbt.Executable>
rbdock ($Id: //depot/dev/client3/rdock/2013.1/src/exe/rbdock.cxx#4 $)

>  <Rbt.Library>
libRbt.so (2013.1, Build901 2013/11/27)

>  <Rbt.Parameter_File>
/export/apps/rDock/src/rDock_2013.1_src/data/scripts/dock_solv.prm

>  <Rbt.Receptor>
prm/pocket_docking_6.prm

>  <SCORE>
-14.5705

>  <SCORE.INTER>
-14.5705

>  <SCORE.INTER.CONST>
1

>  <SCORE.INTER.POLAR>
0

>  <SCORE.INTER.ROT>
0

>  <SCORE.INTER.SOLV>
7.57154

>  <SCORE.INTER.VDW>
-15.8375

>  <SCORE.INTER.norm>
-1.45705

>  <SCORE.INTRA>
0

>  <SCORE.INTRA.DIHEDRAL>
0

>  <SCORE.INTRA.DIHEDRAL.0>
0

>  <SCORE.INTRA.POLAR>
0

>  <SCORE.INTRA.POLAR.0>
0

>  <SCORE.INTRA.REPUL>
0

>  <SCORE.INTRA.REPUL.0>
0

>  <SCORE.INTRA.SOLV>
0

>  <SCORE.INTRA.SOLV.lig_0>
-23.8918

>  <SCORE.INTRA.VDW>
0

>  <SCORE.INTRA.VDW.0>
0

>  <SCORE.INTRA.norm>
0

>  <SCORE.RESTR>
0

>  <SCORE.RESTR.CAVITY>
0

>  <SCORE.RESTR.norm>
0

>  <SCORE.SYSTEM>
0

>  <SCORE.SYSTEM.CONST>
0

>  <SCORE.SYSTEM.DIHEDRAL>
0

>  <SCORE.SYSTEM.SOLV>
0

>  <SCORE.SYSTEM.norm>
0

>  <SCORE.heavy>
10

>  <SCORE.norm>
-1.45705

>  <RMSD>
0.664

$$$$
ligand
 OpenBabel11021811513D
libRbt.so/2013.1/901 2013/11/27
 10 11  0  0  0  0  0  0  0  0999 V2000
    5.8015   17.4885    2.4786 N   0  0  0  0  0  0  0  0  0  0  0  0
    6.7027   18.4748    2.3990 C   0  0  0  0  0  0  0  0  0  0  0  0
    7.1448   19.2855    3.3592 N   0  0  0  0  0  0  0  0  0  0  0  0
    6.5537   19.0033    4.5305 C   0  0  0  0  0  0  0  0  0  0  0  0
    5.6105   18.0224    4.7689 C   0  0  0  0  0  0  0  0  0  0  0  0
    5.2248   17.2287    3.6706 C   0  0  0  0  0  0  0  0  0  0  0  0
    4.3246   16.2441    3.7545 N   0  0  0  0  0  0  0  0  0  0  0  0
    5.2266   18.0235    6.0997 N   0  0  0  0  0  0  0  0  0  0  0  0
    5.9345   18.9923    6.6306 C   0  0  0  0  0  0  0  0  0  0  0  0
    6.7566   19.6262    5.7408 N   0  0  0  0  0  0  0  0  0  0  0  0
  1  2  2  0  0  0  0
  1  6  1  0  0  0  0
  2  3  1  0  0  0  0
  3  4  2  0  0  0  0
  4  5  1  0  0  0  0
  4 10  1  0  0  0  0
  5  6  2  0  0  0  0
  5  8  1  0  0  0  0
  6  7  1  0  0  0  0
  8  9  1  0  0  0  0
  9 10  2  0  0  0  0
M  END
>  <CHROM.1>
5.92212935,18.23085001,4.33890357,-1.84870159,0.81853064,1.25537122

>  <Name>
ligand

>  <RI>
0

>  <Rbt.Current_Directory>
/home/itssahil/PROJECTS/Mol_Feturizer/New_Systems/rnas/4XNR

>  <Rbt.Executable>
rbdock ($Id: //depot/dev/client3/rdock/2013.1/src/exe/rbdock.cxx#4 $)

>  <Rbt.Library>
libRbt.so (2013.1, Build901 2013/11/27)

>  <Rbt.Parameter_File>
/export/apps/rDock/src/rDock_2013.1_src/data/scripts/dock_solv.prm

>  <Rbt.Receptor>
prm/pocket_docking_7.prm

>  <SCORE>
-14.538

>  <SCORE.INTER>
-14.538

>  <SCORE.INTER.CONST>
1

>  <SCORE.INTER.POLAR>
0

>  <SCORE.INTER.ROT>
0

>  <SCORE.INTER.SOLV>
7.0904

>  <SCORE.INTER.VDW>
-15.6555

>  <SCORE.INTER.norm>
-1.4538

>  <SCORE.INTRA>
0

>  <SCORE.INTRA.DIHEDRAL>
0

>  <SCORE.INTRA.DIHEDRAL.0>
0

>  <SCORE.INTRA.POLAR>
0

>  <SCORE.INTRA.POLAR.0>
0

>  <SCORE.INTRA.REPUL>
0

>  <SCORE.INTRA.REPUL.0>
0

>  <SCORE.INTRA.SOLV>
0

>  <SCORE.INTRA.SOLV.lig_0>
-23.8918

>  <SCORE.INTRA.VDW>
0

>  <SCORE.INTRA.VDW.0>
0

>  <SCORE.INTRA.norm>
0

>  <SCORE.RESTR>
0

>  <SCORE.RESTR.CAVITY>
0

>  <SCORE.RESTR.norm>
0

>  <SCORE.SYSTEM>
0

>  <SCORE.SYSTEM.CONST>
0

>  <SCORE.SYSTEM.DIHEDRAL>
0

>  <SCORE.SYSTEM.SOLV>
0

>  <SCORE.SYSTEM.norm>
0

>  <SCORE.heavy>
10

>  <SCORE.norm>
-1.4538

>  <RMSD>
0.664

$$$$
ligand
 OpenBabel11021811513D
libRbt.so/2013.1/901 2013/11/27
 10 11  0  0  0  0  0  0  0  0999 V2000
    5.8120   17.3425    2.5708 N   0  0  0  0  0  0  0  0  0  0  0  0
    6.6953   18.3414    2.4551 C   0  0  0  0  0  0  0  0  0  0  0  0
    7.1225   19.1941    3.3852 N   0  0  0  0  0  0  0  0  0  0  0  0
    6.5363   18.9438    4.5663 C   0  0  0  0  0  0  0  0  0  0  0  0
    5.6108   17.9553    4.8404 C   0  0  0  0  0  0  0  0  0  0  0  0
    5.2397   17.1157    3.7716 C   0  0  0  0  0  0  0  0  0  0  0  0
    4.3575   16.1187    3.8914 N   0  0  0  0  0  0  0  0  0  0  0  0
    5.2267   17.9977    6.1704 N   0  0  0  0  0  0  0  0  0  0  0  0
    5.9168   18.9976    6.6656 C   0  0  0  0  0  0  0  0  0  0  0  0
    6.7276   19.6136    5.7531 N   0  0  0  0  0  0  0  0  0  0  0  0
  1  2  2  0  0  0  0
  1  6  1  0  0  0  0
  2  3  1  0  0  0  0
  3  4  2  0  0  0  0
  4  5  1  0  0  0  0
  4 10  1  0  0  0  0
  5  6  2  0  0  0  0
  5  8  1  0  0  0  0
  6  7  1  0  0  0  0
  8  9  1  0  0  0  0
  9 10  2  0  0  0  0
M  END
>  <CHROM.1>
5.91873573,18.15368824,4.40293729,-1.84004138,0.83558290,1.21283517

>  <Name>
ligand

>  <RI>
0

>  <Rbt.Current_Directory>
/home/itssahil/PROJECTS/Mol_Feturizer/New_Systems/rnas/4XNR

>  <Rbt.Executable>
rbdock ($Id: //depot/dev/client3/rdock/2013.1/src/exe/rbdock.cxx#4 $)

>  <Rbt.Library>
libRbt.so (2013.1, Build901 2013/11/27)

>  <Rbt.Parameter_File>
/export/apps/rDock/src/rDock_2013.1_src/data/scripts/dock_solv.prm

>  <Rbt.Receptor>
prm/pocket_docking_8.prm

>  <SCORE>
-14.5655

>  <SCORE.INTER>
-14.5655

>  <SCORE.INTER.CONST>
1

>  <SCORE.INTER.POLAR>
0

>  <SCORE.INTER.ROT>
0

>  <SCORE.INTER.SOLV>
7.57202

>  <SCORE.INTER.VDW>
-15.8344

>  <SCORE.INTER.norm>
-1.45655

>  <SCORE.INTRA>
0

>  <SCORE.INTRA.DIHEDRAL>
0

>  <SCORE.INTRA.DIHEDRAL.0>
0

>  <SCORE.INTRA.POLAR>
0

>  <SCORE.INTRA.POLAR.0>
0

>  <SCORE.INTRA.REPUL>
0

>  <SCORE.INTRA.REPUL.0>
0

>  <SCORE.INTRA.SOLV>
0

>  <SCORE.INTRA.SOLV.lig_0>
-23.8918

>  <SCORE.INTRA.VDW>
0

>  <SCORE.INTRA.VDW.0>
0

>  <SCORE.INTRA.norm>
0

>  <SCORE.RESTR>
0

>  <SCORE.RESTR.CAVITY>
0

>  <SCORE.RESTR.norm>
0

>  <SCORE.SYSTEM>
0

>  <SCORE.SYSTEM.CONST>
0

>  <SCORE.SYSTEM.DIHEDRAL>
0

>  <SCORE.SYSTEM.SOLV>
0

>  <SCORE.SYSTEM.norm>
0

>  <SCORE.heavy>
10

>  <SCORE.norm>
-1.45655

>  <RMSD>
0.665

$$$$
ligand
 OpenBabel11021811513D
libRbt.so/2013.1/901 2013/11/27
 10 11  0  0  0  0  0  0  0  0999 V2000
    5.8076   17.3411    2.5712 N   0  0  0  0  0  0  0  0  0  0  0  0
    6.6927   18.3391    2.4622 C   0  0  0  0  0  0  0  0  0  0  0  0
    7.1158   19.1898    3.3961 N   0  0  0  0  0  0  0  0  0  0  0  0
    6.5227   18.9381    4.5734 C   0  0  0  0  0  0  0  0  0  0  0  0
    5.5946   17.9503    4.8407 C   0  0  0  0  0  0  0  0  0  0  0  0
    5.2284   17.1129    3.7684 C   0  0  0  0  0  0  0  0  0  0  0  0
    4.3443   16.1168    3.8816 N   0  0  0  0  0  0  0  0  0  0  0  0
    5.2031   17.9908    6.1686 N   0  0  0  0  0  0  0  0  0  0  0  0
    5.8917   18.9890    6.6694 C   0  0  0  0  0  0  0  0  0  0  0  0
    6.7083   19.6056    5.7625 N   0  0  0  0  0  0  0  0  0  0  0  0
  1  2  2  0  0  0  0
  1  6  1  0  0  0  0
  2  3  1  0  0  0  0
  3  4  2  0  0  0  0
  4  5  1  0  0  0  0
  4 10  1  0  0  0  0
  5  6  2  0  0  0  0
  5  8  1  0  0  0  0
  6  7  1  0  0  0  0
  8  9  1  0  0  0  0
  9 10  2  0  0  0  0
M  END
>  <CHROM.1>
5.90516586,18.14901723,4.40532847,-1.83291686,0.83250759,1.20928500

>  <Name>
ligand

>  <RI>
0

>  <Rbt.Current_Directory>
/home/itssahil/PROJECTS/Mol_Feturizer/New_Systems/rnas/4XNR

>  <Rbt.Executable>
rbdock ($Id: //depot/dev/client3/rdock/2013.1/src/exe/rbdock.cxx#4 $)

>  <Rbt.Library>
libRbt.so (2013.1, Build901 2013/11/27)

>  <Rbt.Parameter_File>
/export/apps/rDock/src/rDock_2013.1_src/data/scripts/dock_solv.prm

>  <Rbt.Receptor>
prm/blind_docking_40.prm

>  <SCORE>
-14.5872

>  <SCORE.INTER>
-14.5872

>  <SCORE.INTER.CONST>
1

>  <SCORE.INTER.POLAR>
0

>  <SCORE.INTER.ROT>
0

>  <SCORE.INTER.SOLV>
7.53489

>  <SCORE.INTER.VDW>
-15.8364

>  <SCORE.INTER.norm>
-1.45872

>  <SCORE.INTRA>
0

>  <SCORE.INTRA.DIHEDRAL>
0

>  <SCORE.INTRA.DIHEDRAL.0>
0

>  <SCORE.INTRA.POLAR>
0

>  <SCORE.INTRA.POLAR.0>
0

>  <SCORE.INTRA.REPUL>
0

>  <SCORE.INTRA.REPUL.0>
0

>  <SCORE.INTRA.SOLV>
0

>  <SCORE.INTRA.SOLV.lig_0>
-23.8918

>  <SCORE.INTRA.VDW>
0

>  <SCORE.INTRA.VDW.0>
0

>  <SCORE.INTRA.norm>
0

>  <SCORE.RESTR>
0

>  <SCORE.RESTR.CAVITY>
0

>  <SCORE.RESTR.norm>
0

>  <SCORE.SYSTEM>
0

>  <SCORE.SYSTEM.CONST>
0

>  <SCORE.SYSTEM.DIHEDRAL>
0

>  <SCORE.SYSTEM.SOLV>
0

>  <SCORE.SYSTEM.norm>
0

>  <SCORE.heavy>
10

>  <SCORE.norm>
-1.45872

>  <RMSD>
0.667

$$$$
ligand
 OpenBabel11021811513D
libRbt.so/2013.1/901 2013/11/27
 10 11  0  0  0  0  0  0  0  0999 V2000
    5.7924   17.4914    2.4834 N   0  0  0  0  0  0  0  0  0  0  0  0
    6.6910   18.4801    2.4037 C   0  0  0  0  0  0  0  0  0  0  0  0
    7.1332   19.2901    3.3645 N   0  0  0  0  0  0  0  0  0  0  0  0
    6.5454   19.0041    4.5366 C   0  0  0  0  0  0  0  0  0  0  0  0
    5.6051   18.0204    4.7752 C   0  0  0  0  0  0  0  0  0  0  0  0
    5.2190   17.2279    3.6762 C   0  0  0  0  0  0  0  0  0  0  0  0
    4.3215   16.2409    3.7601 N   0  0  0  0  0  0  0  0  0  0  0  0
    5.2242   18.0180    6.1068 N   0  0  0  0  0  0  0  0  0  0  0  0
    5.9308   18.9875    6.6380 C   0  0  0  0  0  0  0  0  0  0  0  0
    6.7494   19.6251    5.7476 N   0  0  0  0  0  0  0  0  0  0  0  0
  1  2  2  0  0  0  0
  1  6  1  0  0  0  0
  2  3  1  0  0  0  0
  3  4  2  0  0  0  0
  4  5  1  0  0  0  0
  4 10  1  0  0  0  0
  5  6  2  0  0  0  0
  5  8  1  0  0  0  0
  6  7  1  0  0  0  0
  8  9  1  0  0  0  0
  9 10  2  0  0  0  0
M  END
>  <CHROM.1>
5.91528497,18.23046516,4.34486002,-1.85066172,0.82159333,1.25874295

>  <Name>
ligand

>  <RI>
0

>  <Rbt.Current_Directory>
/home/itssahil/PROJECTS/Mol_Feturizer/New_Systems/rnas/4XNR

>  <Rbt.Executable>
rbdock ($Id: //depot/dev/client3/rdock/2013.1/src/exe/rbdock.cxx#4 $)

>  <Rbt.Library>
libRbt.so (2013.1, Build901 2013/11/27)

>  <Rbt.Parameter_File>
/export/apps/rDock/src/rDock_2013.1_src/data/scripts/dock_solv.prm

>  <Rbt.Receptor>
prm/pocket_docking_7.prm

>  <SCORE>
-14.5364

>  <SCORE.INTER>
-14.5364

>  <SCORE.INTER.CONST>
1

>  <SCORE.INTER.POLAR>
0

>  <SCORE.INTER.ROT>
0

>  <SCORE.INTER.SOLV>
7.10058

>  <SCORE.INTER.VDW>
-15.6578

>  <SCORE.INTER.norm>
-1.45364

>  <SCORE.INTRA>
0

>  <SCORE.INTRA.DIHEDRAL>
0

>  <SCORE.INTRA.DIHEDRAL.0>
0

>  <SCORE.INTRA.POLAR>
0

>  <SCORE.INTRA.POLAR.0>
0

>  <SCORE.INTRA.REPUL>
0

>  <SCORE.INTRA.REPUL.0>
0

>  <SCORE.INTRA.SOLV>
0

>  <SCORE.INTRA.SOLV.lig_0>
-23.8918

>  <SCORE.INTRA.VDW>
0

>  <SCORE.INTRA.VDW.0>
0

>  <SCORE.INTRA.norm>
0

>  <SCORE.RESTR>
0

>  <SCORE.RESTR.CAVITY>
0

>  <SCORE.RESTR.norm>
0

>  <SCORE.SYSTEM>
0

>  <SCORE.SYSTEM.CONST>
0

>  <SCORE.SYSTEM.DIHEDRAL>
0

>  <SCORE.SYSTEM.SOLV>
0

>  <SCORE.SYSTEM.norm>
0

>  <SCORE.heavy>
10

>  <SCORE.norm>
-1.45364

>  <RMSD>
0.669

$$$$
ligand
 OpenBabel11021811513D
libRbt.so/2013.1/901 2013/11/27
 10 11  0  0  0  0  0  0  0  0999 V2000
    5.8088   17.4013    2.5431 N   0  0  0  0  0  0  0  0  0  0  0  0
    6.7007   18.3938    2.4402 C   0  0  0  0  0  0  0  0  0  0  0  0
    7.1356   19.2306    3.3812 N   0  0  0  0  0  0  0  0  0  0  0  0
    6.5475   18.9700    4.5591 C   0  0  0  0  0  0  0  0  0  0  0  0
    5.6135   17.9862    4.8206 C   0  0  0  0  0  0  0  0  0  0  0  0
    5.2348   17.1638    3.7411 C   0  0  0  0  0  0  0  0  0  0  0  0
    4.3439   16.1731    3.8482 N   0  0  0  0  0  0  0  0  0  0  0  0
    5.2300   18.0145    6.1512 N   0  0  0  0  0  0  0  0  0  0  0  0
    5.9290   19.0018    6.6592 C   0  0  0  0  0  0  0  0  0  0  0  0
    6.7449   19.6226    5.7546 N   0  0  0  0  0  0  0  0  0  0  0  0
  1  2  2  0  0  0  0
  1  6  1  0  0  0  0
  2  3  1  0  0  0  0
  3  4  2  0  0  0  0
  4  5  1  0  0  0  0
  4 10  1  0  0  0  0
  5  6  2  0  0  0  0
  5  8  1  0  0  0  0
  6  7  1  0  0  0  0
  8  9  1  0  0  0  0
  9 10  2  0  0  0  0
M  END
>  <CHROM.1>
5.92301809,18.18753620,4.38568542,-1.84485320,0.82747306,1.22943707

>  <Name>
ligand

>  <RI>
0

>  <Rbt.Current_Directory>
/home/itssahil/PROJECTS/Mol_Feturizer/New_Systems/rnas/4XNR

>  <Rbt.Executable>
rbdock ($Id: //depot/dev/client3/rdock/2013.1/src/exe/rbdock.cxx#4 $)

>  <Rbt.Library>
libRbt.so (2013.1, Build901 2013/11/27)

>  <Rbt.Parameter_File>
/export/apps/rDock/src/rDock_2013.1_src/data/scripts/dock_solv.prm

>  <Rbt.Receptor>
prm/blind_docking_80.prm

>  <SCORE>
-14.5194

>  <SCORE.INTER>
-14.5194

>  <SCORE.INTER.CONST>
1

>  <SCORE.INTER.POLAR>
0

>  <SCORE.INTER.ROT>
0

>  <SCORE.INTER.SOLV>
7.37684

>  <SCORE.INTER.VDW>
-15.7386

>  <SCORE.INTER.norm>
-1.45194

>  <SCORE.INTRA>
0

>  <SCORE.INTRA.DIHEDRAL>
0

>  <SCORE.INTRA.DIHEDRAL.0>
0

>  <SCORE.INTRA.POLAR>
0

>  <SCORE.INTRA.POLAR.0>
0

>  <SCORE.INTRA.REPUL>
0

>  <SCORE.INTRA.REPUL.0>
0

>  <SCORE.INTRA.SOLV>
0

>  <SCORE.INTRA.SOLV.lig_0>
-23.8918

>  <SCORE.INTRA.VDW>
0

>  <SCORE.INTRA.VDW.0>
0

>  <SCORE.INTRA.norm>
0

>  <SCORE.RESTR>
0

>  <SCORE.RESTR.CAVITY>
0

>  <SCORE.RESTR.norm>
0

>  <SCORE.SYSTEM>
0

>  <SCORE.SYSTEM.CONST>
0

>  <SCORE.SYSTEM.DIHEDRAL>
0

>  <SCORE.SYSTEM.SOLV>
0

>  <SCORE.SYSTEM.norm>
0

>  <SCORE.heavy>
10

>  <SCORE.norm>
-1.45194

>  <RMSD>
0.670

$$$$
ligand
 OpenBabel11021811513D
libRbt.so/2013.1/901 2013/11/27
 10 11  0  0  0  0  0  0  0  0999 V2000
    6.0075   17.3895    2.5444 N   0  0  0  0  0  0  0  0  0  0  0  0
    6.8217   18.4498    2.4806 C   0  0  0  0  0  0  0  0  0  0  0  0
    7.1483   19.3146    3.4399 N   0  0  0  0  0  0  0  0  0  0  0  0
    6.5329   19.0036    4.5913 C   0  0  0  0  0  0  0  0  0  0  0  0
    5.6693   17.9479    4.8118 C   0  0  0  0  0  0  0  0  0  0  0  0
    5.4035   17.1025    3.7165 C   0  0  0  0  0  0  0  0  0  0  0  0
    4.5900   16.0441    3.7847 N   0  0  0  0  0  0  0  0  0  0  0  0
    5.2283   17.9405    6.1247 N   0  0  0  0  0  0  0  0  0  0  0  0
    5.8246   18.9779    6.6629 C   0  0  0  0  0  0  0  0  0  0  0  0
    6.6268   19.6649    5.7945 N   0  0  0  0  0  0  0  0  0  0  0  0
  1  2  2  0  0  0  0
  1  6  1  0  0  0  0
  2  3  1  0  0  0  0
  3  4  2  0  0  0  0
  4  5  1  0  0  0  0
  4 10  1  0  0  0  0
  5  6  2  0  0  0  0
  5  8  1  0  0  0  0
  6  7  1  0  0  0  0
  8  9  1  0  0  0  0
  9 10  2  0  0  0  0
M  END
>  <CHROM.1>
5.98029209,18.17487823,4.39072114,-1.73918427,0.88518297,1.15187246

>  <Name>
ligand

>  <RI>
0

>  <Rbt.Current_Directory>
/home/itssahil/PROJECTS/Mol_Feturizer/New_Systems/rnas/4XNR

>  <Rbt.Executable>
rbdock ($Id: //depot/dev/client3/rdock/2013.1/src/exe/rbdock.cxx#4 $)

>  <Rbt.Library>
libRbt.so (2013.1, Build901 2013/11/27)

>  <Rbt.Parameter_File>
/export/apps/rDock/src/rDock_2013.1_src/data/scripts/dock_solv.prm

>  <Rbt.Receptor>
prm/blind_docking_80.prm

>  <SCORE>
-14.4794

>  <SCORE.INTER>
-14.4794

>  <SCORE.INTER.CONST>
1

>  <SCORE.INTER.POLAR>
0

>  <SCORE.INTER.ROT>
0

>  <SCORE.INTER.SOLV>
8.08159

>  <SCORE.INTER.VDW>
-15.9468

>  <SCORE.INTER.norm>
-1.44794

>  <SCORE.INTRA>
0

>  <SCORE.INTRA.DIHEDRAL>
0

>  <SCORE.INTRA.DIHEDRAL.0>
0

>  <SCORE.INTRA.POLAR>
0

>  <SCORE.INTRA.POLAR.0>
0

>  <SCORE.INTRA.REPUL>
0

>  <SCORE.INTRA.REPUL.0>
0

>  <SCORE.INTRA.SOLV>
0

>  <SCORE.INTRA.SOLV.lig_0>
-23.8918

>  <SCORE.INTRA.VDW>
0

>  <SCORE.INTRA.VDW.0>
0

>  <SCORE.INTRA.norm>
0

>  <SCORE.RESTR>
0

>  <SCORE.RESTR.CAVITY>
0

>  <SCORE.RESTR.norm>
0

>  <SCORE.SYSTEM>
0

>  <SCORE.SYSTEM.CONST>
0

>  <SCORE.SYSTEM.DIHEDRAL>
0

>  <SCORE.SYSTEM.SOLV>
0

>  <SCORE.SYSTEM.norm>
0

>  <SCORE.heavy>
10

>  <SCORE.norm>
-1.44794

>  <RMSD>
0.671

$$$$
ligand
 OpenBabel11021811513D
libRbt.so/2013.1/901 2013/11/27
 10 11  0  0  0  0  0  0  0  0999 V2000
    5.7947   17.4922    2.4872 N   0  0  0  0  0  0  0  0  0  0  0  0
    6.6976   18.4764    2.4017 C   0  0  0  0  0  0  0  0  0  0  0  0
    7.1469   19.2870    3.3587 N   0  0  0  0  0  0  0  0  0  0  0  0
    6.5618   19.0070    4.5336 C   0  0  0  0  0  0  0  0  0  0  0  0
    5.6177   18.0285    4.7781 C   0  0  0  0  0  0  0  0  0  0  0  0
    5.2241   17.2347    3.6827 C   0  0  0  0  0  0  0  0  0  0  0  0
    4.3223   16.2521    3.7725 N   0  0  0  0  0  0  0  0  0  0  0  0
    5.2414   18.0316    6.1110 N   0  0  0  0  0  0  0  0  0  0  0  0
    5.9543   18.9992    6.6371 C   0  0  0  0  0  0  0  0  0  0  0  0
    6.7728   19.6305    5.7422 N   0  0  0  0  0  0  0  0  0  0  0  0
  1  2  2  0  0  0  0
  1  6  1  0  0  0  0
  2  3  1  0  0  0  0
  3  4  2  0  0  0  0
  4  5  1  0  0  0  0
  4 10  1  0  0  0  0
  5  6  2  0  0  0  0
  5  8  1  0  0  0  0
  6  7  1  0  0  0  0
  8  9  1  0  0  0  0
  9 10  2  0  0  0  0
M  END
>  <CHROM.1>
5.92739998,18.23585642,4.34616850,-1.85750062,0.81819000,1.26092807

>  <Name>
ligand

>  <RI>
0

>  <Rbt.Current_Directory>
/home/itssahil/PROJECTS/Mol_Feturizer/New_Systems/rnas/4XNR

>  <Rbt.Executable>
rbdock ($Id: //depot/dev/client3/rdock/2013.1/src/exe/rbdock.cxx#4 $)

>  <Rbt.Library>
libRbt.so (2013.1, Build901 2013/11/27)

>  <Rbt.Parameter_File>
/export/apps/rDock/src/rDock_2013.1_src/data/scripts/dock_solv.prm

>  <Rbt.Receptor>
prm/pocket_docking_4.prm

>  <SCORE>
-14.5355

>  <SCORE.INTER>
-14.5355

>  <SCORE.INTER.CONST>
1

>  <SCORE.INTER.POLAR>
0

>  <SCORE.INTER.ROT>
0

>  <SCORE.INTER.SOLV>
7.09255

>  <SCORE.INTER.VDW>
-15.6545

>  <SCORE.INTER.norm>
-1.45355

>  <SCORE.INTRA>
0

>  <SCORE.INTRA.DIHEDRAL>
0

>  <SCORE.INTRA.DIHEDRAL.0>
0

>  <SCORE.INTRA.POLAR>
0

>  <SCORE.INTRA.POLAR.0>
0

>  <SCORE.INTRA.REPUL>
0

>  <SCORE.INTRA.REPUL.0>
0

>  <SCORE.INTRA.SOLV>
0

>  <SCORE.INTRA.SOLV.lig_0>
-23.8918

>  <SCORE.INTRA.VDW>
0

>  <SCORE.INTRA.VDW.0>
0

>  <SCORE.INTRA.norm>
0

>  <SCORE.RESTR>
0

>  <SCORE.RESTR.CAVITY>
0

>  <SCORE.RESTR.norm>
0

>  <SCORE.SYSTEM>
0

>  <SCORE.SYSTEM.CONST>
0

>  <SCORE.SYSTEM.DIHEDRAL>
0

>  <SCORE.SYSTEM.SOLV>
0

>  <SCORE.SYSTEM.norm>
0

>  <SCORE.heavy>
10

>  <SCORE.norm>
-1.45355

>  <RMSD>
0.672

$$$$
ligand
 OpenBabel11021811513D
libRbt.so/2013.1/901 2013/11/27
 10 11  0  0  0  0  0  0  0  0999 V2000
    6.0006   17.3297    2.5854 N   0  0  0  0  0  0  0  0  0  0  0  0
    6.8228   18.3815    2.4912 C   0  0  0  0  0  0  0  0  0  0  0  0
    7.1701   19.2605    3.4302 N   0  0  0  0  0  0  0  0  0  0  0  0
    6.5681   18.9756    4.5953 C   0  0  0  0  0  0  0  0  0  0  0  0
    5.6987   17.9318    4.8468 C   0  0  0  0  0  0  0  0  0  0  0  0
    5.4105   17.0692    3.7707 C   0  0  0  0  0  0  0  0  0  0  0  0
    4.5891   16.0193    3.8691 N   0  0  0  0  0  0  0  0  0  0  0  0
    5.2760   17.9518    6.1655 N   0  0  0  0  0  0  0  0  0  0  0  0
    5.8885   18.9934    6.6766 C   0  0  0  0  0  0  0  0  0  0  0  0
    6.6843   19.6576    5.7850 N   0  0  0  0  0  0  0  0  0  0  0  0
  1  2  2  0  0  0  0
  1  6  1  0  0  0  0
  2  3  1  0  0  0  0
  3  4  2  0  0  0  0
  4  5  1  0  0  0  0
  4 10  1  0  0  0  0
  5  6  2  0  0  0  0
  5  8  1  0  0  0  0
  6  7  1  0  0  0  0
  8  9  1  0  0  0  0
  9 10  2  0  0  0  0
M  END
>  <CHROM.1>
6.00573756,18.14834818,4.41740838,-1.76465086,0.88288219,1.15353806

>  <Name>
ligand

>  <RI>
0

>  <Rbt.Current_Directory>
/home/itssahil/PROJECTS/Mol_Feturizer/New_Systems/rnas/4XNR

>  <Rbt.Executable>
rbdock ($Id: //depot/dev/client3/rdock/2013.1/src/exe/rbdock.cxx#4 $)

>  <Rbt.Library>
libRbt.so (2013.1, Build901 2013/11/27)

>  <Rbt.Parameter_File>
/export/apps/rDock/src/rDock_2013.1_src/data/scripts/dock_solv.prm

>  <Rbt.Receptor>
prm/pocket_docking_3.prm

>  <SCORE>
-14.5372

>  <SCORE.INTER>
-14.5372

>  <SCORE.INTER.CONST>
1

>  <SCORE.INTER.POLAR>
0

>  <SCORE.INTER.ROT>
0

>  <SCORE.INTER.SOLV>
8.27207

>  <SCORE.INTER.VDW>
-16.0488

>  <SCORE.INTER.norm>
-1.45372

>  <SCORE.INTRA>
0

>  <SCORE.INTRA.DIHEDRAL>
0

>  <SCORE.INTRA.DIHEDRAL.0>
0

>  <SCORE.INTRA.POLAR>
0

>  <SCORE.INTRA.POLAR.0>
0

>  <SCORE.INTRA.REPUL>
0

>  <SCORE.INTRA.REPUL.0>
0

>  <SCORE.INTRA.SOLV>
0

>  <SCORE.INTRA.SOLV.lig_0>
-23.8918

>  <SCORE.INTRA.VDW>
0

>  <SCORE.INTRA.VDW.0>
0

>  <SCORE.INTRA.norm>
0

>  <SCORE.RESTR>
0

>  <SCORE.RESTR.CAVITY>
0

>  <SCORE.RESTR.norm>
0

>  <SCORE.SYSTEM>
0

>  <SCORE.SYSTEM.CONST>
0

>  <SCORE.SYSTEM.DIHEDRAL>
0

>  <SCORE.SYSTEM.SOLV>
0

>  <SCORE.SYSTEM.norm>
0

>  <SCORE.heavy>
10

>  <SCORE.norm>
-1.45372

>  <RMSD>
0.673

$$$$
ligand
 OpenBabel11021811513D
libRbt.so/2013.1/901 2013/11/27
 10 11  0  0  0  0  0  0  0  0999 V2000
    6.0253   17.5046    2.4728 N   0  0  0  0  0  0  0  0  0  0  0  0
    6.8026   18.5932    2.4245 C   0  0  0  0  0  0  0  0  0  0  0  0
    7.1191   19.4409    3.4022 N   0  0  0  0  0  0  0  0  0  0  0  0
    6.5370   19.0768    4.5554 C   0  0  0  0  0  0  0  0  0  0  0  0
    5.7134   17.9870    4.7613 C   0  0  0  0  0  0  0  0  0  0  0  0
    5.4542   17.1645    3.6472 C   0  0  0  0  0  0  0  0  0  0  0  0
    4.6777   16.0777    3.6997 N   0  0  0  0  0  0  0  0  0  0  0  0
    5.2987   17.9275    6.0814 N   0  0  0  0  0  0  0  0  0  0  0  0
    5.8707   18.9687    6.6382 C   0  0  0  0  0  0  0  0  0  0  0  0
    6.6325   19.7066    5.7753 N   0  0  0  0  0  0  0  0  0  0  0  0
  1  2  2  0  0  0  0
  1  6  1  0  0  0  0
  2  3  1  0  0  0  0
  3  4  2  0  0  0  0
  4  5  1  0  0  0  0
  4 10  1  0  0  0  0
  5  6  2  0  0  0  0
  5  8  1  0  0  0  0
  6  7  1  0  0  0  0
  8  9  1  0  0  0  0
  9 10  2  0  0  0  0
M  END
>  <CHROM.1>
6.00833096,18.23605841,4.34124180,-1.74657028,0.92338439,1.18634289

>  <Name>
ligand

>  <RI>
0

>  <Rbt.Current_Directory>
/home/itssahil/PROJECTS/Mol_Feturizer/New_Systems/rnas/4XNR

>  <Rbt.Executable>
rbdock ($Id: //depot/dev/client3/rdock/2013.1/src/exe/rbdock.cxx#4 $)

>  <Rbt.Library>
libRbt.so (2013.1, Build901 2013/11/27)

>  <Rbt.Parameter_File>
/export/apps/rDock/src/rDock_2013.1_src/data/scripts/dock_solv.prm

>  <Rbt.Receptor>
prm/blind_docking_60.prm

>  <SCORE>
-14.5246

>  <SCORE.INTER>
-14.5246

>  <SCORE.INTER.CONST>
1

>  <SCORE.INTER.POLAR>
0

>  <SCORE.INTER.ROT>
0

>  <SCORE.INTER.SOLV>
8.08573

>  <SCORE.INTER.VDW>
-15.9783

>  <SCORE.INTER.norm>
-1.45246

>  <SCORE.INTRA>
0

>  <SCORE.INTRA.DIHEDRAL>
0

>  <SCORE.INTRA.DIHEDRAL.0>
0

>  <SCORE.INTRA.POLAR>
0

>  <SCORE.INTRA.POLAR.0>
0

>  <SCORE.INTRA.REPUL>
0

>  <SCORE.INTRA.REPUL.0>
0

>  <SCORE.INTRA.SOLV>
0

>  <SCORE.INTRA.SOLV.lig_0>
-23.8918

>  <SCORE.INTRA.VDW>
0

>  <SCORE.INTRA.VDW.0>
0

>  <SCORE.INTRA.norm>
0

>  <SCORE.RESTR>
0

>  <SCORE.RESTR.CAVITY>
0

>  <SCORE.RESTR.norm>
0

>  <SCORE.SYSTEM>
0

>  <SCORE.SYSTEM.CONST>
0

>  <SCORE.SYSTEM.DIHEDRAL>
0

>  <SCORE.SYSTEM.SOLV>
0

>  <SCORE.SYSTEM.norm>
0

>  <SCORE.heavy>
10

>  <SCORE.norm>
-1.45246

>  <RMSD>
0.674

$$$$
ligand
 OpenBabel11021811513D
libRbt.so/2013.1/901 2013/11/27
 10 11  0  0  0  0  0  0  0  0999 V2000
    5.7878   17.4936    2.4874 N   0  0  0  0  0  0  0  0  0  0  0  0
    6.6888   18.4801    2.4068 C   0  0  0  0  0  0  0  0  0  0  0  0
    7.1316   19.2909    3.3666 N   0  0  0  0  0  0  0  0  0  0  0  0
    6.5418   19.0086    4.5385 C   0  0  0  0  0  0  0  0  0  0  0  0
    5.5989   18.0275    4.7779 C   0  0  0  0  0  0  0  0  0  0  0  0
    5.2123   17.2337    3.6800 C   0  0  0  0  0  0  0  0  0  0  0  0
    4.3125   16.2490    3.7648 N   0  0  0  0  0  0  0  0  0  0  0  0
    5.2164   18.0286    6.1091 N   0  0  0  0  0  0  0  0  0  0  0  0
    5.9246   18.9975    6.6392 C   0  0  0  0  0  0  0  0  0  0  0  0
    6.7458   19.6315    5.7486 N   0  0  0  0  0  0  0  0  0  0  0  0
  1  2  2  0  0  0  0
  1  6  1  0  0  0  0
  2  3  1  0  0  0  0
  3  4  2  0  0  0  0
  4  5  1  0  0  0  0
  4 10  1  0  0  0  0
  5  6  2  0  0  0  0
  5  8  1  0  0  0  0
  6  7  1  0  0  0  0
  8  9  1  0  0  0  0
  9 10  2  0  0  0  0
M  END
>  <CHROM.1>
5.91012445,18.23601524,4.34755198,-1.84999497,0.81903825,1.25628735

>  <Name>
ligand

>  <RI>
0

>  <Rbt.Current_Directory>
/home/itssahil/PROJECTS/Mol_Feturizer/New_Systems/rnas/4XNR

>  <Rbt.Executable>
rbdock ($Id: //depot/dev/client3/rdock/2013.1/src/exe/rbdock.cxx#4 $)

>  <Rbt.Library>
libRbt.so (2013.1, Build901 2013/11/27)

>  <Rbt.Parameter_File>
/export/apps/rDock/src/rDock_2013.1_src/data/scripts/dock_solv.prm

>  <Rbt.Receptor>
prm/pocket_docking_4.prm

>  <SCORE>
-14.5346

>  <SCORE.INTER>
-14.5346

>  <SCORE.INTER.CONST>
1

>  <SCORE.INTER.POLAR>
0

>  <SCORE.INTER.ROT>
0

>  <SCORE.INTER.SOLV>
7.08443

>  <SCORE.INTER.VDW>
-15.6512

>  <SCORE.INTER.norm>
-1.45346

>  <SCORE.INTRA>
0

>  <SCORE.INTRA.DIHEDRAL>
0

>  <SCORE.INTRA.DIHEDRAL.0>
0

>  <SCORE.INTRA.POLAR>
0

>  <SCORE.INTRA.POLAR.0>
0

>  <SCORE.INTRA.REPUL>
0

>  <SCORE.INTRA.REPUL.0>
0

>  <SCORE.INTRA.SOLV>
0

>  <SCORE.INTRA.SOLV.lig_0>
-23.8918

>  <SCORE.INTRA.VDW>
0

>  <SCORE.INTRA.VDW.0>
0

>  <SCORE.INTRA.norm>
0

>  <SCORE.RESTR>
0

>  <SCORE.RESTR.CAVITY>
0

>  <SCORE.RESTR.norm>
0

>  <SCORE.SYSTEM>
0

>  <SCORE.SYSTEM.CONST>
0

>  <SCORE.SYSTEM.DIHEDRAL>
0

>  <SCORE.SYSTEM.SOLV>
0

>  <SCORE.SYSTEM.norm>
0

>  <SCORE.heavy>
10

>  <SCORE.norm>
-1.45346

>  <RMSD>
0.675

$$$$
ligand
 OpenBabel11021811513D
libRbt.so/2013.1/901 2013/11/27
 10 11  0  0  0  0  0  0  0  0999 V2000
    5.7900   17.4926    2.4901 N   0  0  0  0  0  0  0  0  0  0  0  0
    6.6860   18.4835    2.4091 C   0  0  0  0  0  0  0  0  0  0  0  0
    7.1273   19.2949    3.3692 N   0  0  0  0  0  0  0  0  0  0  0  0
    6.5416   19.0077    4.5420 C   0  0  0  0  0  0  0  0  0  0  0  0
    5.6040   18.0217    4.7820 C   0  0  0  0  0  0  0  0  0  0  0  0
    5.2186   17.2280    3.6836 C   0  0  0  0  0  0  0  0  0  0  0  0
    4.3237   16.2387    3.7689 N   0  0  0  0  0  0  0  0  0  0  0  0
    5.2247   18.0187    6.1140 N   0  0  0  0  0  0  0  0  0  0  0  0
    5.9294   18.9901    6.6442 C   0  0  0  0  0  0  0  0  0  0  0  0
    6.7454   19.6296    5.7527 N   0  0  0  0  0  0  0  0  0  0  0  0
  1  2  2  0  0  0  0
  1  6  1  0  0  0  0
  2  3  1  0  0  0  0
  3  4  2  0  0  0  0
  4  5  1  0  0  0  0
  4 10  1  0  0  0  0
  5  6  2  0  0  0  0
  5  8  1  0  0  0  0
  6  7  1  0  0  0  0
  8  9  1  0  0  0  0
  9 10  2  0  0  0  0
M  END
>  <CHROM.1>
5.91317711,18.23245412,4.35123006,-1.85112911,0.82432919,1.25881757

>  <Name>
ligand

>  <RI>
0

>  <Rbt.Current_Directory>
/home/itssahil/PROJECTS/Mol_Feturizer/New_Systems/rnas/4XNR

>  <Rbt.Executable>
rbdock ($Id: //depot/dev/client3/rdock/2013.1/src/exe/rbdock.cxx#4 $)

>  <Rbt.Library>
libRbt.so (2013.1, Build901 2013/11/27)

>  <Rbt.Parameter_File>
/export/apps/rDock/src/rDock_2013.1_src/data/scripts/dock_solv.prm

>  <Rbt.Receptor>
prm/pocket_docking_7.prm

>  <SCORE>
-14.5342

>  <SCORE.INTER>
-14.5342

>  <SCORE.INTER.CONST>
1

>  <SCORE.INTER.POLAR>
0

>  <SCORE.INTER.ROT>
0

>  <SCORE.INTER.SOLV>
7.12483

>  <SCORE.INTER.VDW>
-15.6644

>  <SCORE.INTER.norm>
-1.45342

>  <SCORE.INTRA>
0

>  <SCORE.INTRA.DIHEDRAL>
0

>  <SCORE.INTRA.DIHEDRAL.0>
0

>  <SCORE.INTRA.POLAR>
0

>  <SCORE.INTRA.POLAR.0>
0

>  <SCORE.INTRA.REPUL>
0

>  <SCORE.INTRA.REPUL.0>
0

>  <SCORE.INTRA.SOLV>
0

>  <SCORE.INTRA.SOLV.lig_0>
-23.8918

>  <SCORE.INTRA.VDW>
0

>  <SCORE.INTRA.VDW.0>
0

>  <SCORE.INTRA.norm>
0

>  <SCORE.RESTR>
0

>  <SCORE.RESTR.CAVITY>
0

>  <SCORE.RESTR.norm>
0

>  <SCORE.SYSTEM>
0

>  <SCORE.SYSTEM.CONST>
0

>  <SCORE.SYSTEM.DIHEDRAL>
0

>  <SCORE.SYSTEM.SOLV>
0

>  <SCORE.SYSTEM.norm>
0

>  <SCORE.heavy>
10

>  <SCORE.norm>
-1.45342

>  <RMSD>
0.675

$$$$
ligand
 OpenBabel11021811513D
libRbt.so/2013.1/901 2013/11/27
 10 11  0  0  0  0  0  0  0  0999 V2000
    5.9367   17.4557    2.5198 N   0  0  0  0  0  0  0  0  0  0  0  0
    6.7537   18.5132    2.4460 C   0  0  0  0  0  0  0  0  0  0  0  0
    7.1121   19.3639    3.4065 N   0  0  0  0  0  0  0  0  0  0  0  0
    6.5289   19.0406    4.5712 C   0  0  0  0  0  0  0  0  0  0  0  0
    5.6672   17.9859    4.8031 C   0  0  0  0  0  0  0  0  0  0  0  0
    5.3656   17.1561    3.7051 C   0  0  0  0  0  0  0  0  0  0  0  0
    4.5495   16.1004    3.7832 N   0  0  0  0  0  0  0  0  0  0  0  0
    5.2644   17.9633    6.1280 N   0  0  0  0  0  0  0  0  0  0  0  0
    5.8810   18.9909    6.6620 C   0  0  0  0  0  0  0  0  0  0  0  0
    6.6609   19.6857    5.7796 N   0  0  0  0  0  0  0  0  0  0  0  0
  1  2  2  0  0  0  0
  1  6  1  0  0  0  0
  2  3  1  0  0  0  0
  3  4  2  0  0  0  0
  4  5  1  0  0  0  0
  4 10  1  0  0  0  0
  5  6  2  0  0  0  0
  5  8  1  0  0  0  0
  6  7  1  0  0  0  0
  8  9  1  0  0  0  0
  9 10  2  0  0  0  0
M  END
>  <CHROM.1>
5.96684178,18.21699445,4.37606698,-1.78452633,0.89216030,1.20008238

>  <Name>
ligand

>  <RI>
0

>  <Rbt.Current_Directory>
/home/itssahil/PROJECTS/Mol_Feturizer/New_Systems/rnas/4XNR

>  <Rbt.Executable>
rbdock ($Id: //depot/dev/client3/rdock/2013.1/src/exe/rbdock.cxx#4 $)

>  <Rbt.Library>
libRbt.so (2013.1, Build901 2013/11/27)

>  <Rbt.Parameter_File>
/export/apps/rDock/src/rDock_2013.1_src/data/scripts/dock_solv.prm

>  <Rbt.Receptor>
prm/pocket_docking_6.prm

>  <SCORE>
-14.4914

>  <SCORE.INTER>
-14.4914

>  <SCORE.INTER.CONST>
1

>  <SCORE.INTER.POLAR>
0

>  <SCORE.INTER.ROT>
0

>  <SCORE.INTER.SOLV>
7.8756

>  <SCORE.INTER.VDW>
-15.8861

>  <SCORE.INTER.norm>
-1.44914

>  <SCORE.INTRA>
0

>  <SCORE.INTRA.DIHEDRAL>
0

>  <SCORE.INTRA.DIHEDRAL.0>
0

>  <SCORE.INTRA.POLAR>
0

>  <SCORE.INTRA.POLAR.0>
0

>  <SCORE.INTRA.REPUL>
0

>  <SCORE.INTRA.REPUL.0>
0

>  <SCORE.INTRA.SOLV>
0

>  <SCORE.INTRA.SOLV.lig_0>
-23.8918

>  <SCORE.INTRA.VDW>
0

>  <SCORE.INTRA.VDW.0>
0

>  <SCORE.INTRA.norm>
0

>  <SCORE.RESTR>
0

>  <SCORE.RESTR.CAVITY>
0

>  <SCORE.RESTR.norm>
0

>  <SCORE.SYSTEM>
0

>  <SCORE.SYSTEM.CONST>
0

>  <SCORE.SYSTEM.DIHEDRAL>
0

>  <SCORE.SYSTEM.SOLV>
0

>  <SCORE.SYSTEM.norm>
0

>  <SCORE.heavy>
10

>  <SCORE.norm>
-1.44914

>  <RMSD>
0.678

$$$$
ligand
 OpenBabel11021811513D
libRbt.so/2013.1/901 2013/11/27
 10 11  0  0  0  0  0  0  0  0999 V2000
    5.8049   17.3660    2.5707 N   0  0  0  0  0  0  0  0  0  0  0  0
    6.6859   18.3680    2.4653 C   0  0  0  0  0  0  0  0  0  0  0  0
    7.1069   19.2158    3.4026 N   0  0  0  0  0  0  0  0  0  0  0  0
    6.5164   18.9563    4.5795 C   0  0  0  0  0  0  0  0  0  0  0  0
    5.5925   17.9636    4.8434 C   0  0  0  0  0  0  0  0  0  0  0  0
    5.2282   17.1299    3.7677 C   0  0  0  0  0  0  0  0  0  0  0  0
    4.3482   16.1297    3.8773 N   0  0  0  0  0  0  0  0  0  0  0  0
    5.2027   17.9963    6.1720 N   0  0  0  0  0  0  0  0  0  0  0  0
    5.8881   18.9948    6.6766 C   0  0  0  0  0  0  0  0  0  0  0  0
    6.7010   19.6189    5.7715 N   0  0  0  0  0  0  0  0  0  0  0  0
  1  2  2  0  0  0  0
  1  6  1  0  0  0  0
  2  3  1  0  0  0  0
  3  4  2  0  0  0  0
  4  5  1  0  0  0  0
  4 10  1  0  0  0  0
  5  6  2  0  0  0  0
  5  8  1  0  0  0  0
  6  7  1  0  0  0  0
  8  9  1  0  0  0  0
  9 10  2  0  0  0  0
M  END
>  <CHROM.1>
5.90174812,18.16560127,4.40853722,-1.83275204,0.83665438,1.21389096

>  <Name>
ligand

>  <RI>
0

>  <Rbt.Current_Directory>
/home/itssahil/PROJECTS/Mol_Feturizer/New_Systems/rnas/4XNR

>  <Rbt.Executable>
rbdock ($Id: //depot/dev/client3/rdock/2013.1/src/exe/rbdock.cxx#4 $)

>  <Rbt.Library>
libRbt.so (2013.1, Build901 2013/11/27)

>  <Rbt.Parameter_File>
/export/apps/rDock/src/rDock_2013.1_src/data/scripts/dock_solv.prm

>  <Rbt.Receptor>
prm/pocket_docking_8.prm

>  <SCORE>
-14.5567

>  <SCORE.INTER>
-14.5567

>  <SCORE.INTER.CONST>
1

>  <SCORE.INTER.POLAR>
0

>  <SCORE.INTER.ROT>
0

>  <SCORE.INTER.SOLV>
7.52089

>  <SCORE.INTER.VDW>
-15.8114

>  <SCORE.INTER.norm>
-1.45567

>  <SCORE.INTRA>
0

>  <SCORE.INTRA.DIHEDRAL>
0

>  <SCORE.INTRA.DIHEDRAL.0>
0

>  <SCORE.INTRA.POLAR>
0

>  <SCORE.INTRA.POLAR.0>
0

>  <SCORE.INTRA.REPUL>
0

>  <SCORE.INTRA.REPUL.0>
0

>  <SCORE.INTRA.SOLV>
0

>  <SCORE.INTRA.SOLV.lig_0>
-23.8918

>  <SCORE.INTRA.VDW>
0

>  <SCORE.INTRA.VDW.0>
0

>  <SCORE.INTRA.norm>
0

>  <SCORE.RESTR>
0

>  <SCORE.RESTR.CAVITY>
0

>  <SCORE.RESTR.norm>
0

>  <SCORE.SYSTEM>
0

>  <SCORE.SYSTEM.CONST>
0

>  <SCORE.SYSTEM.DIHEDRAL>
0

>  <SCORE.SYSTEM.SOLV>
0

>  <SCORE.SYSTEM.norm>
0

>  <SCORE.heavy>
10

>  <SCORE.norm>
-1.45567

>  <RMSD>
0.678

$$$$
ligand
 OpenBabel11021811513D
libRbt.so/2013.1/901 2013/11/27
 10 11  0  0  0  0  0  0  0  0999 V2000
    6.0088   17.3469    2.5887 N   0  0  0  0  0  0  0  0  0  0  0  0
    6.8510   18.3844    2.5136 C   0  0  0  0  0  0  0  0  0  0  0  0
    7.2026   19.2489    3.4643 N   0  0  0  0  0  0  0  0  0  0  0  0
    6.5814   18.9651    4.6195 C   0  0  0  0  0  0  0  0  0  0  0  0
    5.6903   17.9351    4.8514 C   0  0  0  0  0  0  0  0  0  0  0  0
    5.3997   17.0871    3.7644 C   0  0  0  0  0  0  0  0  0  0  0  0
    4.5582   16.0515    3.8438 N   0  0  0  0  0  0  0  0  0  0  0  0
    5.2519   17.9517    6.1650 N   0  0  0  0  0  0  0  0  0  0  0  0
    5.8768   18.9776    6.6926 C   0  0  0  0  0  0  0  0  0  0  0  0
    6.6954   19.6347    5.8164 N   0  0  0  0  0  0  0  0  0  0  0  0
  1  2  2  0  0  0  0
  1  6  1  0  0  0  0
  2  3  1  0  0  0  0
  3  4  2  0  0  0  0
  4  5  1  0  0  0  0
  4 10  1  0  0  0  0
  5  6  2  0  0  0  0
  5  8  1  0  0  0  0
  6  7  1  0  0  0  0
  8  9  1  0  0  0  0
  9 10  2  0  0  0  0
M  END
>  <CHROM.1>
6.00638727,18.14975121,4.42764175,-1.75874881,0.86138794,1.15763278

>  <Name>
ligand

>  <RI>
0

>  <Rbt.Current_Directory>
/home/itssahil/PROJECTS/Mol_Feturizer/New_Systems/rnas/4XNR

>  <Rbt.Executable>
rbdock ($Id: //depot/dev/client3/rdock/2013.1/src/exe/rbdock.cxx#4 $)

>  <Rbt.Library>
libRbt.so (2013.1, Build901 2013/11/27)

>  <Rbt.Parameter_File>
/export/apps/rDock/src/rDock_2013.1_src/data/scripts/dock_solv.prm

>  <Rbt.Receptor>
prm/pocket_docking_4.prm

>  <SCORE>
-14.523

>  <SCORE.INTER>
-14.523

>  <SCORE.INTER.CONST>
1

>  <SCORE.INTER.POLAR>
0

>  <SCORE.INTER.ROT>
0

>  <SCORE.INTER.SOLV>
8.07414

>  <SCORE.INTER.VDW>
-15.9734

>  <SCORE.INTER.norm>
-1.4523

>  <SCORE.INTRA>
0

>  <SCORE.INTRA.DIHEDRAL>
0

>  <SCORE.INTRA.DIHEDRAL.0>
0

>  <SCORE.INTRA.POLAR>
0

>  <SCORE.INTRA.POLAR.0>
0

>  <SCORE.INTRA.REPUL>
0

>  <SCORE.INTRA.REPUL.0>
0

>  <SCORE.INTRA.SOLV>
0

>  <SCORE.INTRA.SOLV.lig_0>
-23.8918

>  <SCORE.INTRA.VDW>
0

>  <SCORE.INTRA.VDW.0>
0

>  <SCORE.INTRA.norm>
0

>  <SCORE.RESTR>
0

>  <SCORE.RESTR.CAVITY>
0

>  <SCORE.RESTR.norm>
0

>  <SCORE.SYSTEM>
0

>  <SCORE.SYSTEM.CONST>
0

>  <SCORE.SYSTEM.DIHEDRAL>
0

>  <SCORE.SYSTEM.SOLV>
0

>  <SCORE.SYSTEM.norm>
0

>  <SCORE.heavy>
10

>  <SCORE.norm>
-1.4523

>  <RMSD>
0.686

$$$$
ligand
 OpenBabel11021811513D
libRbt.so/2013.1/901 2013/11/27
 10 11  0  0  0  0  0  0  0  0999 V2000
    6.0243   17.5091    2.4863 N   0  0  0  0  0  0  0  0  0  0  0  0
    6.7963   18.6013    2.4361 C   0  0  0  0  0  0  0  0  0  0  0  0
    7.1111   19.4507    3.4129 N   0  0  0  0  0  0  0  0  0  0  0  0
    6.5333   19.0842    4.5674 C   0  0  0  0  0  0  0  0  0  0  0  0
    5.7152   17.9905    4.7754 C   0  0  0  0  0  0  0  0  0  0  0  0
    5.4574   17.1665    3.6620 C   0  0  0  0  0  0  0  0  0  0  0  0
    4.6862   16.0761    3.7166 N   0  0  0  0  0  0  0  0  0  0  0  0
    5.3038   17.9294    6.0965 N   0  0  0  0  0  0  0  0  0  0  0  0
    5.8721   18.9734    6.6518 C   0  0  0  0  0  0  0  0  0  0  0  0
    6.6286   19.7146    5.7870 N   0  0  0  0  0  0  0  0  0  0  0  0
  1  2  2  0  0  0  0
  1  6  1  0  0  0  0
  2  3  1  0  0  0  0
  3  4  2  0  0  0  0
  4  5  1  0  0  0  0
  4 10  1  0  0  0  0
  5  6  2  0  0  0  0
  5  8  1  0  0  0  0
  6  7  1  0  0  0  0
  8  9  1  0  0  0  0
  9 10  2  0  0  0  0
M  END
>  <CHROM.1>
6.00806727,18.24085396,4.35464252,-1.74708728,0.92856752,1.18654303

>  <Name>
ligand

>  <RI>
0

>  <Rbt.Current_Directory>
/home/itssahil/PROJECTS/Mol_Feturizer/New_Systems/rnas/4XNR

>  <Rbt.Executable>
rbdock ($Id: //depot/dev/client3/rdock/2013.1/src/exe/rbdock.cxx#4 $)

>  <Rbt.Library>
libRbt.so (2013.1, Build901 2013/11/27)

>  <Rbt.Parameter_File>
/export/apps/rDock/src/rDock_2013.1_src/data/scripts/dock_solv.prm

>  <Rbt.Receptor>
prm/blind_docking_80.prm

>  <SCORE>
-14.528

>  <SCORE.INTER>
-14.528

>  <SCORE.INTER.CONST>
1

>  <SCORE.INTER.POLAR>
0

>  <SCORE.INTER.ROT>
0

>  <SCORE.INTER.SOLV>
8.13115

>  <SCORE.INTER.VDW>
-15.9957

>  <SCORE.INTER.norm>
-1.4528

>  <SCORE.INTRA>
0

>  <SCORE.INTRA.DIHEDRAL>
0

>  <SCORE.INTRA.DIHEDRAL.0>
0

>  <SCORE.INTRA.POLAR>
0

>  <SCORE.INTRA.POLAR.0>
0

>  <SCORE.INTRA.REPUL>
0

>  <SCORE.INTRA.REPUL.0>
0

>  <SCORE.INTRA.SOLV>
0

>  <SCORE.INTRA.SOLV.lig_0>
-23.8918

>  <SCORE.INTRA.VDW>
0

>  <SCORE.INTRA.VDW.0>
0

>  <SCORE.INTRA.norm>
0

>  <SCORE.RESTR>
0

>  <SCORE.RESTR.CAVITY>
0

>  <SCORE.RESTR.norm>
0

>  <SCORE.SYSTEM>
0

>  <SCORE.SYSTEM.CONST>
0

>  <SCORE.SYSTEM.DIHEDRAL>
0

>  <SCORE.SYSTEM.SOLV>
0

>  <SCORE.SYSTEM.norm>
0

>  <SCORE.heavy>
10

>  <SCORE.norm>
-1.4528

>  <RMSD>
0.687

$$$$
ligand
 OpenBabel11021811513D
libRbt.so/2013.1/901 2013/11/27
 10 11  0  0  0  0  0  0  0  0999 V2000
    6.0049   17.3043    2.6149 N   0  0  0  0  0  0  0  0  0  0  0  0
    6.8350   18.3506    2.5291 C   0  0  0  0  0  0  0  0  0  0  0  0
    7.1798   19.2262    3.4721 N   0  0  0  0  0  0  0  0  0  0  0  0
    6.5655   18.9442    4.6315 C   0  0  0  0  0  0  0  0  0  0  0  0
    5.6870   17.9059    4.8741 C   0  0  0  0  0  0  0  0  0  0  0  0
    5.4025   17.0465    3.7946 C   0  0  0  0  0  0  0  0  0  0  0  0
    4.5732   16.0020    3.8845 N   0  0  0  0  0  0  0  0  0  0  0  0
    5.2526   17.9275    6.1891 N   0  0  0  0  0  0  0  0  0  0  0  0
    5.8676   18.9644    6.7067 C   0  0  0  0  0  0  0  0  0  0  0  0
    6.6758   19.6241    5.8230 N   0  0  0  0  0  0  0  0  0  0  0  0
  1  2  2  0  0  0  0
  1  6  1  0  0  0  0
  2  3  1  0  0  0  0
  3  4  2  0  0  0  0
  4  5  1  0  0  0  0
  4 10  1  0  0  0  0
  5  6  2  0  0  0  0
  5  8  1  0  0  0  0
  6  7  1  0  0  0  0
  8  9  1  0  0  0  0
  9 10  2  0  0  0  0
M  END
>  <CHROM.1>
5.99922745,18.12092072,4.44771329,-1.75624243,0.87310689,1.14815304

>  <Name>
ligand

>  <RI>
0

>  <Rbt.Current_Directory>
/home/itssahil/PROJECTS/Mol_Feturizer/New_Systems/rnas/4XNR

>  <Rbt.Executable>
rbdock ($Id: //depot/dev/client3/rdock/2013.1/src/exe/rbdock.cxx#4 $)

>  <Rbt.Library>
libRbt.so (2013.1, Build901 2013/11/27)

>  <Rbt.Parameter_File>
/export/apps/rDock/src/rDock_2013.1_src/data/scripts/dock_solv.prm

>  <Rbt.Receptor>
prm/pocket_docking_5.prm

>  <SCORE>
-14.5346

>  <SCORE.INTER>
-14.5346

>  <SCORE.INTER.CONST>
1

>  <SCORE.INTER.POLAR>
0

>  <SCORE.INTER.ROT>
0

>  <SCORE.INTER.SOLV>
8.298

>  <SCORE.INTER.VDW>
-16.0557

>  <SCORE.INTER.norm>
-1.45346

>  <SCORE.INTRA>
0

>  <SCORE.INTRA.DIHEDRAL>
0

>  <SCORE.INTRA.DIHEDRAL.0>
0

>  <SCORE.INTRA.POLAR>
0

>  <SCORE.INTRA.POLAR.0>
0

>  <SCORE.INTRA.REPUL>
0

>  <SCORE.INTRA.REPUL.0>
0

>  <SCORE.INTRA.SOLV>
0

>  <SCORE.INTRA.SOLV.lig_0>
-23.8918

>  <SCORE.INTRA.VDW>
0

>  <SCORE.INTRA.VDW.0>
0

>  <SCORE.INTRA.norm>
0

>  <SCORE.RESTR>
0

>  <SCORE.RESTR.CAVITY>
0

>  <SCORE.RESTR.norm>
0

>  <SCORE.SYSTEM>
0

>  <SCORE.SYSTEM.CONST>
0

>  <SCORE.SYSTEM.DIHEDRAL>
0

>  <SCORE.SYSTEM.SOLV>
0

>  <SCORE.SYSTEM.norm>
0

>  <SCORE.heavy>
10

>  <SCORE.norm>
-1.45346

>  <RMSD>
0.689

$$$$
ligand
 OpenBabel11021811513D
libRbt.so/2013.1/901 2013/11/27
 10 11  0  0  0  0  0  0  0  0999 V2000
    6.0000   17.3267    2.6064 N   0  0  0  0  0  0  0  0  0  0  0  0
    6.8303   18.3738    2.5326 C   0  0  0  0  0  0  0  0  0  0  0  0
    7.1749   19.2388    3.4853 N   0  0  0  0  0  0  0  0  0  0  0  0
    6.5603   18.9440    4.6414 C   0  0  0  0  0  0  0  0  0  0  0  0
    5.6815   17.9033    4.8721 C   0  0  0  0  0  0  0  0  0  0  0  0
    5.3972   17.0559    3.7830 C   0  0  0  0  0  0  0  0  0  0  0  0
    4.5677   16.0106    3.8611 N   0  0  0  0  0  0  0  0  0  0  0  0
    5.2468   17.9102    6.1871 N   0  0  0  0  0  0  0  0  0  0  0  0
    5.8617   18.9412    6.7164 C   0  0  0  0  0  0  0  0  0  0  0  0
    6.6703   19.6106    5.8403 N   0  0  0  0  0  0  0  0  0  0  0  0
  1  2  2  0  0  0  0
  1  6  1  0  0  0  0
  2  3  1  0  0  0  0
  3  4  2  0  0  0  0
  4  5  1  0  0  0  0
  4 10  1  0  0  0  0
  5  6  2  0  0  0  0
  5  8  1  0  0  0  0
  6  7  1  0  0  0  0
  8  9  1  0  0  0  0
  9 10  2  0  0  0  0
M  END
>  <CHROM.1>
5.99392367,18.12291389,4.44822986,-1.75589789,0.87284252,1.15900335

>  <Name>
ligand

>  <RI>
0

>  <Rbt.Current_Directory>
/home/itssahil/PROJECTS/Mol_Feturizer/New_Systems/rnas/4XNR

>  <Rbt.Executable>
rbdock ($Id: //depot/dev/client3/rdock/2013.1/src/exe/rbdock.cxx#4 $)

>  <Rbt.Library>
libRbt.so (2013.1, Build901 2013/11/27)

>  <Rbt.Parameter_File>
/export/apps/rDock/src/rDock_2013.1_src/data/scripts/dock_solv.prm

>  <Rbt.Receptor>
prm/pocket_docking_7.prm

>  <SCORE>
-14.5128

>  <SCORE.INTER>
-14.5128

>  <SCORE.INTER.CONST>
1

>  <SCORE.INTER.POLAR>
0

>  <SCORE.INTER.ROT>
0

>  <SCORE.INTER.SOLV>
8.21407

>  <SCORE.INTER.VDW>
-16.0132

>  <SCORE.INTER.norm>
-1.45128

>  <SCORE.INTRA>
0

>  <SCORE.INTRA.DIHEDRAL>
0

>  <SCORE.INTRA.DIHEDRAL.0>
0

>  <SCORE.INTRA.POLAR>
0

>  <SCORE.INTRA.POLAR.0>
0

>  <SCORE.INTRA.REPUL>
0

>  <SCORE.INTRA.REPUL.0>
0

>  <SCORE.INTRA.SOLV>
0

>  <SCORE.INTRA.SOLV.lig_0>
-23.8918

>  <SCORE.INTRA.VDW>
0

>  <SCORE.INTRA.VDW.0>
0

>  <SCORE.INTRA.norm>
0

>  <SCORE.RESTR>
0

>  <SCORE.RESTR.CAVITY>
0

>  <SCORE.RESTR.norm>
0

>  <SCORE.SYSTEM>
0

>  <SCORE.SYSTEM.CONST>
0

>  <SCORE.SYSTEM.DIHEDRAL>
0

>  <SCORE.SYSTEM.SOLV>
0

>  <SCORE.SYSTEM.norm>
0

>  <SCORE.heavy>
10

>  <SCORE.norm>
-1.45128

>  <RMSD>
0.693

$$$$
ligand
 OpenBabel11021811513D
libRbt.so/2013.1/901 2013/11/27
 10 11  0  0  0  0  0  0  0  0999 V2000
    6.0308   17.5097    2.4912 N   0  0  0  0  0  0  0  0  0  0  0  0
    6.7902   18.6109    2.4465 C   0  0  0  0  0  0  0  0  0  0  0  0
    7.0890   19.4631    3.4258 N   0  0  0  0  0  0  0  0  0  0  0  0
    6.5087   19.0888    4.5766 C   0  0  0  0  0  0  0  0  0  0  0  0
    5.7024   17.9854    4.7788 C   0  0  0  0  0  0  0  0  0  0  0  0
    5.4609   17.1594    3.6632 C   0  0  0  0  0  0  0  0  0  0  0  0
    4.7023   16.0600    3.7123 N   0  0  0  0  0  0  0  0  0  0  0  0
    5.2838   17.9183    6.0974 N   0  0  0  0  0  0  0  0  0  0  0  0
    5.8365   18.9684    6.6569 C   0  0  0  0  0  0  0  0  0  0  0  0
    6.5893   19.7193    5.7972 N   0  0  0  0  0  0  0  0  0  0  0  0
  1  2  2  0  0  0  0
  1  6  1  0  0  0  0
  2  3  1  0  0  0  0
  3  4  2  0  0  0  0
  4  5  1  0  0  0  0
  4 10  1  0  0  0  0
  5  6  2  0  0  0  0
  5  8  1  0  0  0  0
  6  7  1  0  0  0  0
  8  9  1  0  0  0  0
  9 10  2  0  0  0  0
M  END
>  <CHROM.1>
5.99475961,18.23957479,4.36001410,-1.73028893,0.93718509,1.17389176

>  <Name>
ligand

>  <RI>
0

>  <Rbt.Current_Directory>
/home/itssahil/PROJECTS/Mol_Feturizer/New_Systems/rnas/4XNR

>  <Rbt.Executable>
rbdock ($Id: //depot/dev/client3/rdock/2013.1/src/exe/rbdock.cxx#4 $)

>  <Rbt.Library>
libRbt.so (2013.1, Build901 2013/11/27)

>  <Rbt.Parameter_File>
/export/apps/rDock/src/rDock_2013.1_src/data/scripts/dock_solv.prm

>  <Rbt.Receptor>
prm/blind_docking_40.prm

>  <SCORE>
-14.5631

>  <SCORE.INTER>
-14.5631

>  <SCORE.INTER.CONST>
1

>  <SCORE.INTER.POLAR>
0

>  <SCORE.INTER.ROT>
0

>  <SCORE.INTER.SOLV>
8.22593

>  <SCORE.INTER.VDW>
-16.0507

>  <SCORE.INTER.norm>
-1.45631

>  <SCORE.INTRA>
0

>  <SCORE.INTRA.DIHEDRAL>
0

>  <SCORE.INTRA.DIHEDRAL.0>
0

>  <SCORE.INTRA.POLAR>
0

>  <SCORE.INTRA.POLAR.0>
0

>  <SCORE.INTRA.REPUL>
0

>  <SCORE.INTRA.REPUL.0>
0

>  <SCORE.INTRA.SOLV>
0

>  <SCORE.INTRA.SOLV.lig_0>
-23.8918

>  <SCORE.INTRA.VDW>
0

>  <SCORE.INTRA.VDW.0>
0

>  <SCORE.INTRA.norm>
0

>  <SCORE.RESTR>
0

>  <SCORE.RESTR.CAVITY>
0

>  <SCORE.RESTR.norm>
0

>  <SCORE.SYSTEM>
0

>  <SCORE.SYSTEM.CONST>
0

>  <SCORE.SYSTEM.DIHEDRAL>
0

>  <SCORE.SYSTEM.SOLV>
0

>  <SCORE.SYSTEM.norm>
0

>  <SCORE.heavy>
10

>  <SCORE.norm>
-1.45631

>  <RMSD>
0.695

$$$$
ligand
 OpenBabel11021811513D
libRbt.so/2013.1/901 2013/11/27
 10 11  0  0  0  0  0  0  0  0999 V2000
    6.0281   17.5043    2.4972 N   0  0  0  0  0  0  0  0  0  0  0  0
    6.8054   18.5929    2.4503 C   0  0  0  0  0  0  0  0  0  0  0  0
    7.1146   19.4445    3.4269 N   0  0  0  0  0  0  0  0  0  0  0  0
    6.5244   19.0847    4.5773 C   0  0  0  0  0  0  0  0  0  0  0  0
    5.6997   17.9954    4.7816 C   0  0  0  0  0  0  0  0  0  0  0  0
    5.4488   17.1685    3.6688 C   0  0  0  0  0  0  0  0  0  0  0  0
    4.6723   16.0817    3.7200 N   0  0  0  0  0  0  0  0  0  0  0  0
    5.2756   17.9409    6.0989 N   0  0  0  0  0  0  0  0  0  0  0  0
    5.8433   18.9844    6.6558 C   0  0  0  0  0  0  0  0  0  0  0  0
    6.6111   19.7192    5.7954 N   0  0  0  0  0  0  0  0  0  0  0  0
  1  2  2  0  0  0  0
  1  6  1  0  0  0  0
  2  3  1  0  0  0  0
  3  4  2  0  0  0  0
  4  5  1  0  0  0  0
  4 10  1  0  0  0  0
  5  6  2  0  0  0  0
  5  8  1  0  0  0  0
  6  7  1  0  0  0  0
  8  9  1  0  0  0  0
  9 10  2  0  0  0  0
M  END
>  <CHROM.1>
5.99758503,18.24294304,4.36265587,-1.73542421,0.92098361,1.17359799

>  <Name>
ligand

>  <RI>
0

>  <Rbt.Current_Directory>
/home/itssahil/PROJECTS/Mol_Feturizer/New_Systems/rnas/4XNR

>  <Rbt.Executable>
rbdock ($Id: //depot/dev/client3/rdock/2013.1/src/exe/rbdock.cxx#4 $)

>  <Rbt.Library>
libRbt.so (2013.1, Build901 2013/11/27)

>  <Rbt.Parameter_File>
/export/apps/rDock/src/rDock_2013.1_src/data/scripts/dock_solv.prm

>  <Rbt.Receptor>
prm/blind_docking_60.prm

>  <SCORE>
-14.5535

>  <SCORE.INTER>
-14.5535

>  <SCORE.INTER.CONST>
1

>  <SCORE.INTER.POLAR>
0

>  <SCORE.INTER.ROT>
0

>  <SCORE.INTER.SOLV>
8.09033

>  <SCORE.INTER.VDW>
-15.9991

>  <SCORE.INTER.norm>
-1.45535

>  <SCORE.INTRA>
0

>  <SCORE.INTRA.DIHEDRAL>
0

>  <SCORE.INTRA.DIHEDRAL.0>
0

>  <SCORE.INTRA.POLAR>
0

>  <SCORE.INTRA.POLAR.0>
0

>  <SCORE.INTRA.REPUL>
0

>  <SCORE.INTRA.REPUL.0>
0

>  <SCORE.INTRA.SOLV>
0

>  <SCORE.INTRA.SOLV.lig_0>
-23.8918

>  <SCORE.INTRA.VDW>
0

>  <SCORE.INTRA.VDW.0>
0

>  <SCORE.INTRA.norm>
0

>  <SCORE.RESTR>
0

>  <SCORE.RESTR.CAVITY>
0

>  <SCORE.RESTR.norm>
0

>  <SCORE.SYSTEM>
0

>  <SCORE.SYSTEM.CONST>
0

>  <SCORE.SYSTEM.DIHEDRAL>
0

>  <SCORE.SYSTEM.SOLV>
0

>  <SCORE.SYSTEM.norm>
0

>  <SCORE.heavy>
10

>  <SCORE.norm>
-1.45535

>  <RMSD>
0.695

$$$$
ligand
 OpenBabel11021811513D
libRbt.so/2013.1/901 2013/11/27
 10 11  0  0  0  0  0  0  0  0999 V2000
    6.0304   17.4998    2.5011 N   0  0  0  0  0  0  0  0  0  0  0  0
    6.7839   18.6047    2.4488 C   0  0  0  0  0  0  0  0  0  0  0  0
    7.0832   19.4619    3.4236 N   0  0  0  0  0  0  0  0  0  0  0  0
    6.5104   19.0887    4.5785 C   0  0  0  0  0  0  0  0  0  0  0  0
    5.7106   17.9820    4.7886 C   0  0  0  0  0  0  0  0  0  0  0  0
    5.4680   17.1508    3.6771 C   0  0  0  0  0  0  0  0  0  0  0  0
    4.7152   16.0477    3.7338 N   0  0  0  0  0  0  0  0  0  0  0  0
    5.2988   17.9175    6.1094 N   0  0  0  0  0  0  0  0  0  0  0  0
    5.8489   18.9724    6.6625 C   0  0  0  0  0  0  0  0  0  0  0  0
    6.5937   19.7240    5.7965 N   0  0  0  0  0  0  0  0  0  0  0  0
  1  2  2  0  0  0  0
  1  6  1  0  0  0  0
  2  3  1  0  0  0  0
  3  4  2  0  0  0  0
  4  5  1  0  0  0  0
  4 10  1  0  0  0  0
  5  6  2  0  0  0  0
  5  8  1  0  0  0  0
  6  7  1  0  0  0  0
  8  9  1  0  0  0  0
  9 10  2  0  0  0  0
M  END
>  <CHROM.1>
5.99969693,18.23614261,4.36744793,-1.73454354,0.94374575,1.17375343

>  <Name>
ligand

>  <RI>
0

>  <Rbt.Current_Directory>
/home/itssahil/PROJECTS/Mol_Feturizer/New_Systems/rnas/4XNR

>  <Rbt.Executable>
rbdock ($Id: //depot/dev/client3/rdock/2013.1/src/exe/rbdock.cxx#4 $)

>  <Rbt.Library>
libRbt.so (2013.1, Build901 2013/11/27)

>  <Rbt.Parameter_File>
/export/apps/rDock/src/rDock_2013.1_src/data/scripts/dock_solv.prm

>  <Rbt.Receptor>
prm/pocket_docking_7.prm

>  <SCORE>
-14.5566

>  <SCORE.INTER>
-14.5566

>  <SCORE.INTER.CONST>
1

>  <SCORE.INTER.POLAR>
0

>  <SCORE.INTER.ROT>
0

>  <SCORE.INTER.SOLV>
8.3299

>  <SCORE.INTER.VDW>
-16.081

>  <SCORE.INTER.norm>
-1.45566

>  <SCORE.INTRA>
0

>  <SCORE.INTRA.DIHEDRAL>
0

>  <SCORE.INTRA.DIHEDRAL.0>
0

>  <SCORE.INTRA.POLAR>
0

>  <SCORE.INTRA.POLAR.0>
0

>  <SCORE.INTRA.REPUL>
0

>  <SCORE.INTRA.REPUL.0>
0

>  <SCORE.INTRA.SOLV>
0

>  <SCORE.INTRA.SOLV.lig_0>
-23.8918

>  <SCORE.INTRA.VDW>
0

>  <SCORE.INTRA.VDW.0>
0

>  <SCORE.INTRA.norm>
0

>  <SCORE.RESTR>
0

>  <SCORE.RESTR.CAVITY>
0

>  <SCORE.RESTR.norm>
0

>  <SCORE.SYSTEM>
0

>  <SCORE.SYSTEM.CONST>
0

>  <SCORE.SYSTEM.DIHEDRAL>
0

>  <SCORE.SYSTEM.SOLV>
0

>  <SCORE.SYSTEM.norm>
0

>  <SCORE.heavy>
10

>  <SCORE.norm>
-1.45566

>  <RMSD>
0.697

$$$$
ligand
 OpenBabel11021811513D
libRbt.so/2013.1/901 2013/11/27
 10 11  0  0  0  0  0  0  0  0999 V2000
    5.8342   17.4744    2.5490 N   0  0  0  0  0  0  0  0  0  0  0  0
    6.6761   18.5110    2.4595 C   0  0  0  0  0  0  0  0  0  0  0  0
    7.0822   19.3456    3.4151 N   0  0  0  0  0  0  0  0  0  0  0  0
    6.5223   19.0295    4.5931 C   0  0  0  0  0  0  0  0  0  0  0  0
    5.6400   17.9959    4.8419 C   0  0  0  0  0  0  0  0  0  0  0  0
    5.2876   17.1816    3.7475 C   0  0  0  0  0  0  0  0  0  0  0  0
    4.4468   16.1467    3.8412 N   0  0  0  0  0  0  0  0  0  0  0  0
    5.2727   17.9747    6.1771 N   0  0  0  0  0  0  0  0  0  0  0  0
    5.9298   18.9825    6.7004 C   0  0  0  0  0  0  0  0  0  0  0  0
    6.7034   19.6629    5.8015 N   0  0  0  0  0  0  0  0  0  0  0  0
  1  2  2  0  0  0  0
  1  6  1  0  0  0  0
  2  3  1  0  0  0  0
  3  4  2  0  0  0  0
  4  5  1  0  0  0  0
  4 10  1  0  0  0  0
  5  6  2  0  0  0  0
  5  8  1  0  0  0  0
  6  7  1  0  0  0  0
  8  9  1  0  0  0  0
  9 10  2  0  0  0  0
M  END
>  <CHROM.1>
5.93400762,18.22207589,4.40834256,-1.83846850,0.87699966,1.24822619

>  <Name>
ligand

>  <RI>
0

>  <Rbt.Current_Directory>
/home/itssahil/PROJECTS/Mol_Feturizer/New_Systems/rnas/4XNR

>  <Rbt.Executable>
rbdock ($Id: //depot/dev/client3/rdock/2013.1/src/exe/rbdock.cxx#4 $)

>  <Rbt.Library>
libRbt.so (2013.1, Build901 2013/11/27)

>  <Rbt.Parameter_File>
/export/apps/rDock/src/rDock_2013.1_src/data/scripts/dock_solv.prm

>  <Rbt.Receptor>
prm/pocket_docking_7.prm

>  <SCORE>
-14.5489

>  <SCORE.INTER>
-14.5489

>  <SCORE.INTER.CONST>
1

>  <SCORE.INTER.POLAR>
0

>  <SCORE.INTER.ROT>
0

>  <SCORE.INTER.SOLV>
7.66013

>  <SCORE.INTER.VDW>
-15.8526

>  <SCORE.INTER.norm>
-1.45489

>  <SCORE.INTRA>
0

>  <SCORE.INTRA.DIHEDRAL>
0

>  <SCORE.INTRA.DIHEDRAL.0>
0

>  <SCORE.INTRA.POLAR>
0

>  <SCORE.INTRA.POLAR.0>
0

>  <SCORE.INTRA.REPUL>
0

>  <SCORE.INTRA.REPUL.0>
0

>  <SCORE.INTRA.SOLV>
0

>  <SCORE.INTRA.SOLV.lig_0>
-23.8918

>  <SCORE.INTRA.VDW>
0

>  <SCORE.INTRA.VDW.0>
0

>  <SCORE.INTRA.norm>
0

>  <SCORE.RESTR>
0

>  <SCORE.RESTR.CAVITY>
0

>  <SCORE.RESTR.norm>
0

>  <SCORE.SYSTEM>
0

>  <SCORE.SYSTEM.CONST>
0

>  <SCORE.SYSTEM.DIHEDRAL>
0

>  <SCORE.SYSTEM.SOLV>
0

>  <SCORE.SYSTEM.norm>
0

>  <SCORE.heavy>
10

>  <SCORE.norm>
-1.45489

>  <RMSD>
0.707

$$$$
ligand
 OpenBabel11021811513D
libRbt.so/2013.1/901 2013/11/27
 10 11  0  0  0  0  0  0  0  0999 V2000
    6.0201   17.3256    2.6288 N   0  0  0  0  0  0  0  0  0  0  0  0
    6.8436   18.3764    2.5340 C   0  0  0  0  0  0  0  0  0  0  0  0
    7.1826   19.2625    3.4692 N   0  0  0  0  0  0  0  0  0  0  0  0
    6.5698   18.9869    4.6310 C   0  0  0  0  0  0  0  0  0  0  0  0
    5.6977   17.9454    4.8825 C   0  0  0  0  0  0  0  0  0  0  0  0
    5.4189   17.0745    3.8106 C   0  0  0  0  0  0  0  0  0  0  0  0
    4.5962   16.0257    3.9097 N   0  0  0  0  0  0  0  0  0  0  0  0
    5.2628   17.9759    6.1971 N   0  0  0  0  0  0  0  0  0  0  0  0
    5.8710   19.0212    6.7057 C   0  0  0  0  0  0  0  0  0  0  0  0
    6.6754   19.6781    5.8163 N   0  0  0  0  0  0  0  0  0  0  0  0
  1  2  2  0  0  0  0
  1  6  1  0  0  0  0
  2  3  1  0  0  0  0
  3  4  2  0  0  0  0
  4  5  1  0  0  0  0
  4 10  1  0  0  0  0
  5  6  2  0  0  0  0
  5  8  1  0  0  0  0
  6  7  1  0  0  0  0
  8  9  1  0  0  0  0
  9 10  2  0  0  0  0
M  END
>  <CHROM.1>
6.00870040,18.15850154,4.45432717,-1.75174159,0.87870056,1.13578036

>  <Name>
ligand

>  <RI>
0

>  <Rbt.Current_Directory>
/home/itssahil/PROJECTS/Mol_Feturizer/New_Systems/rnas/4XNR

>  <Rbt.Executable>
rbdock ($Id: //depot/dev/client3/rdock/2013.1/src/exe/rbdock.cxx#4 $)

>  <Rbt.Library>
libRbt.so (2013.1, Build901 2013/11/27)

>  <Rbt.Parameter_File>
/export/apps/rDock/src/rDock_2013.1_src/data/scripts/dock_solv.prm

>  <Rbt.Receptor>
prm/pocket_docking_4.prm

>  <SCORE>
-14.5526

>  <SCORE.INTER>
-14.5526

>  <SCORE.INTER.CONST>
1

>  <SCORE.INTER.POLAR>
0

>  <SCORE.INTER.ROT>
0

>  <SCORE.INTER.SOLV>
8.3838

>  <SCORE.INTER.VDW>
-16.0964

>  <SCORE.INTER.norm>
-1.45526

>  <SCORE.INTRA>
0

>  <SCORE.INTRA.DIHEDRAL>
0

>  <SCORE.INTRA.DIHEDRAL.0>
0

>  <SCORE.INTRA.POLAR>
0

>  <SCORE.INTRA.POLAR.0>
0

>  <SCORE.INTRA.REPUL>
0

>  <SCORE.INTRA.REPUL.0>
0

>  <SCORE.INTRA.SOLV>
0

>  <SCORE.INTRA.SOLV.lig_0>
-23.8918

>  <SCORE.INTRA.VDW>
0

>  <SCORE.INTRA.VDW.0>
0

>  <SCORE.INTRA.norm>
0

>  <SCORE.RESTR>
0

>  <SCORE.RESTR.CAVITY>
0

>  <SCORE.RESTR.norm>
0

>  <SCORE.SYSTEM>
0

>  <SCORE.SYSTEM.CONST>
0

>  <SCORE.SYSTEM.DIHEDRAL>
0

>  <SCORE.SYSTEM.SOLV>
0

>  <SCORE.SYSTEM.norm>
0

>  <SCORE.heavy>
10

>  <SCORE.norm>
-1.45526

>  <RMSD>
0.710

$$$$
ligand
 OpenBabel11021811513D
libRbt.so/2013.1/901 2013/11/27
 10 11  0  0  0  0  0  0  0  0999 V2000
    5.9058   17.3307    2.6336 N   0  0  0  0  0  0  0  0  0  0  0  0
    6.7593   18.3549    2.5149 C   0  0  0  0  0  0  0  0  0  0  0  0
    7.1506   19.2309    3.4391 N   0  0  0  0  0  0  0  0  0  0  0  0
    6.5603   18.9762    4.6172 C   0  0  0  0  0  0  0  0  0  0  0  0
    5.6629   17.9630    4.8938 C   0  0  0  0  0  0  0  0  0  0  0  0
    5.3286   17.1001    3.8314 C   0  0  0  0  0  0  0  0  0  0  0  0
    4.4762   16.0779    3.9542 N   0  0  0  0  0  0  0  0  0  0  0  0
    5.2641   18.0087    6.2193 N   0  0  0  0  0  0  0  0  0  0  0  0
    5.9182   19.0350    6.7096 C   0  0  0  0  0  0  0  0  0  0  0  0
    6.7190   19.6651    5.7979 N   0  0  0  0  0  0  0  0  0  0  0  0
  1  2  2  0  0  0  0
  1  6  1  0  0  0  0
  2  3  1  0  0  0  0
  3  4  2  0  0  0  0
  4  5  1  0  0  0  0
  4 10  1  0  0  0  0
  5  6  2  0  0  0  0
  5  8  1  0  0  0  0
  6  7  1  0  0  0  0
  8  9  1  0  0  0  0
  9 10  2  0  0  0  0
M  END
>  <CHROM.1>
5.96901269,18.16568185,4.45708514,-1.80891125,0.86049079,1.17787741

>  <Name>
ligand

>  <RI>
0

>  <Rbt.Current_Directory>
/home/itssahil/PROJECTS/Mol_Feturizer/New_Systems/rnas/4XNR

>  <Rbt.Executable>
rbdock ($Id: //depot/dev/client3/rdock/2013.1/src/exe/rbdock.cxx#4 $)

>  <Rbt.Library>
libRbt.so (2013.1, Build901 2013/11/27)

>  <Rbt.Parameter_File>
/export/apps/rDock/src/rDock_2013.1_src/data/scripts/dock_solv.prm

>  <Rbt.Receptor>
prm/pocket_docking_7.prm

>  <SCORE>
-14.5765

>  <SCORE.INTER>
-14.5765

>  <SCORE.INTER.CONST>
1

>  <SCORE.INTER.POLAR>
0

>  <SCORE.INTER.ROT>
0

>  <SCORE.INTER.SOLV>
8.05178

>  <SCORE.INTER.VDW>
-16.0016

>  <SCORE.INTER.norm>
-1.45765

>  <SCORE.INTRA>
0

>  <SCORE.INTRA.DIHEDRAL>
0

>  <SCORE.INTRA.DIHEDRAL.0>
0

>  <SCORE.INTRA.POLAR>
0

>  <SCORE.INTRA.POLAR.0>
0

>  <SCORE.INTRA.REPUL>
0

>  <SCORE.INTRA.REPUL.0>
0

>  <SCORE.INTRA.SOLV>
0

>  <SCORE.INTRA.SOLV.lig_0>
-23.8918

>  <SCORE.INTRA.VDW>
0

>  <SCORE.INTRA.VDW.0>
0

>  <SCORE.INTRA.norm>
0

>  <SCORE.RESTR>
0

>  <SCORE.RESTR.CAVITY>
0

>  <SCORE.RESTR.norm>
0

>  <SCORE.SYSTEM>
0

>  <SCORE.SYSTEM.CONST>
0

>  <SCORE.SYSTEM.DIHEDRAL>
0

>  <SCORE.SYSTEM.SOLV>
0

>  <SCORE.SYSTEM.norm>
0

>  <SCORE.heavy>
10

>  <SCORE.norm>
-1.45765

>  <RMSD>
0.711

$$$$
ligand
 OpenBabel11021811513D
libRbt.so/2013.1/901 2013/11/27
 10 11  0  0  0  0  0  0  0  0999 V2000
    5.8552   17.3832    2.6057 N   0  0  0  0  0  0  0  0  0  0  0  0
    6.7250   18.3958    2.5081 C   0  0  0  0  0  0  0  0  0  0  0  0
    7.1357   19.2416    3.4519 N   0  0  0  0  0  0  0  0  0  0  0  0
    6.5473   18.9670    4.6264 C   0  0  0  0  0  0  0  0  0  0  0  0
    5.6345   17.9620    4.8824 C   0  0  0  0  0  0  0  0  0  0  0  0
    5.2804   17.1320    3.8004 C   0  0  0  0  0  0  0  0  0  0  0  0
    4.4116   16.1212    3.9022 N   0  0  0  0  0  0  0  0  0  0  0  0
    5.2434   17.9808    6.2109 N   0  0  0  0  0  0  0  0  0  0  0  0
    5.9170   18.9833    6.7232 C   0  0  0  0  0  0  0  0  0  0  0  0
    6.7235   19.6230    5.8233 N   0  0  0  0  0  0  0  0  0  0  0  0
  1  2  2  0  0  0  0
  1  6  1  0  0  0  0
  2  3  1  0  0  0  0
  3  4  2  0  0  0  0
  4  5  1  0  0  0  0
  4 10  1  0  0  0  0
  5  6  2  0  0  0  0
  5  8  1  0  0  0  0
  6  7  1  0  0  0  0
  8  9  1  0  0  0  0
  9 10  2  0  0  0  0
M  END
>  <CHROM.1>
5.94173833,18.17064291,4.44926788,-1.82575048,0.84695796,1.21584342

>  <Name>
ligand

>  <RI>
0

>  <Rbt.Current_Directory>
/home/itssahil/PROJECTS/Mol_Feturizer/New_Systems/rnas/4XNR

>  <Rbt.Executable>
rbdock ($Id: //depot/dev/client3/rdock/2013.1/src/exe/rbdock.cxx#4 $)

>  <Rbt.Library>
libRbt.so (2013.1, Build901 2013/11/27)

>  <Rbt.Parameter_File>
/export/apps/rDock/src/rDock_2013.1_src/data/scripts/dock_solv.prm

>  <Rbt.Receptor>
prm/blind_docking_40.prm

>  <SCORE>
-14.5188

>  <SCORE.INTER>
-14.5188

>  <SCORE.INTER.CONST>
1

>  <SCORE.INTER.POLAR>
0

>  <SCORE.INTER.ROT>
0

>  <SCORE.INTER.SOLV>
7.71338

>  <SCORE.INTER.VDW>
-15.8503

>  <SCORE.INTER.norm>
-1.45188

>  <SCORE.INTRA>
0

>  <SCORE.INTRA.DIHEDRAL>
0

>  <SCORE.INTRA.DIHEDRAL.0>
0

>  <SCORE.INTRA.POLAR>
0

>  <SCORE.INTRA.POLAR.0>
0

>  <SCORE.INTRA.REPUL>
0

>  <SCORE.INTRA.REPUL.0>
0

>  <SCORE.INTRA.SOLV>
0

>  <SCORE.INTRA.SOLV.lig_0>
-23.8918

>  <SCORE.INTRA.VDW>
0

>  <SCORE.INTRA.VDW.0>
0

>  <SCORE.INTRA.norm>
0

>  <SCORE.RESTR>
0

>  <SCORE.RESTR.CAVITY>
0

>  <SCORE.RESTR.norm>
0

>  <SCORE.SYSTEM>
0

>  <SCORE.SYSTEM.CONST>
0

>  <SCORE.SYSTEM.DIHEDRAL>
0

>  <SCORE.SYSTEM.SOLV>
0

>  <SCORE.SYSTEM.norm>
0

>  <SCORE.heavy>
10

>  <SCORE.norm>
-1.45188

>  <RMSD>
0.713

$$$$
ligand
 OpenBabel11021811513D
libRbt.so/2013.1/901 2013/11/27
 10 11  0  0  0  0  0  0  0  0999 V2000
    5.9106   17.3271    2.6379 N   0  0  0  0  0  0  0  0  0  0  0  0
    6.7596   18.3548    2.5185 C   0  0  0  0  0  0  0  0  0  0  0  0
    7.1454   19.2346    3.4414 N   0  0  0  0  0  0  0  0  0  0  0  0
    6.5543   18.9799    4.6190 C   0  0  0  0  0  0  0  0  0  0  0  0
    5.6608   17.9633    4.8963 C   0  0  0  0  0  0  0  0  0  0  0  0
    5.3323   17.0966    3.8352 C   0  0  0  0  0  0  0  0  0  0  0  0
    4.4841   16.0708    3.9588 N   0  0  0  0  0  0  0  0  0  0  0  0
    5.2595   18.0101    6.2210 N   0  0  0  0  0  0  0  0  0  0  0  0
    5.9081   19.0404    6.7102 C   0  0  0  0  0  0  0  0  0  0  0  0
    6.7078   19.6721    5.7985 N   0  0  0  0  0  0  0  0  0  0  0  0
  1  2  2  0  0  0  0
  1  6  1  0  0  0  0
  2  3  1  0  0  0  0
  3  4  2  0  0  0  0
  4  5  1  0  0  0  0
  4 10  1  0  0  0  0
  5  6  2  0  0  0  0
  5  8  1  0  0  0  0
  6  7  1  0  0  0  0
  8  9  1  0  0  0  0
  9 10  2  0  0  0  0
M  END
>  <CHROM.1>
5.96682160,18.16636285,4.45968519,-1.80378869,0.86391080,1.17177955

>  <Name>
ligand

>  <RI>
0

>  <Rbt.Current_Directory>
/home/itssahil/PROJECTS/Mol_Feturizer/New_Systems/rnas/4XNR

>  <Rbt.Executable>
rbdock ($Id: //depot/dev/client3/rdock/2013.1/src/exe/rbdock.cxx#4 $)

>  <Rbt.Library>
libRbt.so (2013.1, Build901 2013/11/27)

>  <Rbt.Parameter_File>
/export/apps/rDock/src/rDock_2013.1_src/data/scripts/dock_solv.prm

>  <Rbt.Receptor>
prm/pocket_docking_4.prm

>  <SCORE>
-14.5705

>  <SCORE.INTER>
-14.5705

>  <SCORE.INTER.CONST>
1

>  <SCORE.INTER.POLAR>
0

>  <SCORE.INTER.ROT>
0

>  <SCORE.INTER.SOLV>
8.10084

>  <SCORE.INTER.VDW>
-16.0139

>  <SCORE.INTER.norm>
-1.45705

>  <SCORE.INTRA>
0

>  <SCORE.INTRA.DIHEDRAL>
0

>  <SCORE.INTRA.DIHEDRAL.0>
0

>  <SCORE.INTRA.POLAR>
0

>  <SCORE.INTRA.POLAR.0>
0

>  <SCORE.INTRA.REPUL>
0

>  <SCORE.INTRA.REPUL.0>
0

>  <SCORE.INTRA.SOLV>
0

>  <SCORE.INTRA.SOLV.lig_0>
-23.8918

>  <SCORE.INTRA.VDW>
0

>  <SCORE.INTRA.VDW.0>
0

>  <SCORE.INTRA.norm>
0

>  <SCORE.RESTR>
0

>  <SCORE.RESTR.CAVITY>
0

>  <SCORE.RESTR.norm>
0

>  <SCORE.SYSTEM>
0

>  <SCORE.SYSTEM.CONST>
0

>  <SCORE.SYSTEM.DIHEDRAL>
0

>  <SCORE.SYSTEM.SOLV>
0

>  <SCORE.SYSTEM.norm>
0

>  <SCORE.heavy>
10

>  <SCORE.norm>
-1.45705

>  <RMSD>
0.713

$$$$
ligand
 OpenBabel11021811513D
libRbt.so/2013.1/901 2013/11/27
 10 11  0  0  0  0  0  0  0  0999 V2000
    5.9152   17.3338    2.6343 N   0  0  0  0  0  0  0  0  0  0  0  0
    6.7684   18.3583    2.5173 C   0  0  0  0  0  0  0  0  0  0  0  0
    7.1578   19.2344    3.4422 N   0  0  0  0  0  0  0  0  0  0  0  0
    6.5656   18.9793    4.6192 C   0  0  0  0  0  0  0  0  0  0  0  0
    5.6680   17.9657    4.8941 C   0  0  0  0  0  0  0  0  0  0  0  0
    5.3359   17.1028    3.8310 C   0  0  0  0  0  0  0  0  0  0  0  0
    4.4836   16.0803    3.9522 N   0  0  0  0  0  0  0  0  0  0  0  0
    5.2669   18.0111    6.2190 N   0  0  0  0  0  0  0  0  0  0  0  0
    5.9197   19.0375    6.7105 C   0  0  0  0  0  0  0  0  0  0  0  0
    6.7219   19.6681    5.8003 N   0  0  0  0  0  0  0  0  0  0  0  0
  1  2  2  0  0  0  0
  1  6  1  0  0  0  0
  2  3  1  0  0  0  0
  3  4  2  0  0  0  0
  4  5  1  0  0  0  0
  4 10  1  0  0  0  0
  5  6  2  0  0  0  0
  5  8  1  0  0  0  0
  6  7  1  0  0  0  0
  8  9  1  0  0  0  0
  9 10  2  0  0  0  0
M  END
>  <CHROM.1>
5.97481730,18.16856809,4.45798883,-1.80621014,0.86015203,1.17596724

>  <Name>
ligand

>  <RI>
0

>  <Rbt.Current_Directory>
/home/itssahil/PROJECTS/Mol_Feturizer/New_Systems/rnas/4XNR

>  <Rbt.Executable>
rbdock ($Id: //depot/dev/client3/rdock/2013.1/src/exe/rbdock.cxx#4 $)

>  <Rbt.Library>
libRbt.so (2013.1, Build901 2013/11/27)

>  <Rbt.Parameter_File>
/export/apps/rDock/src/rDock_2013.1_src/data/scripts/dock_solv.prm

>  <Rbt.Receptor>
prm/pocket_docking_6.prm

>  <SCORE>
-14.5725

>  <SCORE.INTER>
-14.5725

>  <SCORE.INTER.CONST>
1

>  <SCORE.INTER.POLAR>
0

>  <SCORE.INTER.ROT>
0

>  <SCORE.INTER.SOLV>
8.05847

>  <SCORE.INTER.VDW>
-16.0011

>  <SCORE.INTER.norm>
-1.45725

>  <SCORE.INTRA>
0

>  <SCORE.INTRA.DIHEDRAL>
0

>  <SCORE.INTRA.DIHEDRAL.0>
0

>  <SCORE.INTRA.POLAR>
0

>  <SCORE.INTRA.POLAR.0>
0

>  <SCORE.INTRA.REPUL>
0

>  <SCORE.INTRA.REPUL.0>
0

>  <SCORE.INTRA.SOLV>
0

>  <SCORE.INTRA.SOLV.lig_0>
-23.8918

>  <SCORE.INTRA.VDW>
0

>  <SCORE.INTRA.VDW.0>
0

>  <SCORE.INTRA.norm>
0

>  <SCORE.RESTR>
0

>  <SCORE.RESTR.CAVITY>
0

>  <SCORE.RESTR.norm>
0

>  <SCORE.SYSTEM>
0

>  <SCORE.SYSTEM.CONST>
0

>  <SCORE.SYSTEM.DIHEDRAL>
0

>  <SCORE.SYSTEM.SOLV>
0

>  <SCORE.SYSTEM.norm>
0

>  <SCORE.heavy>
10

>  <SCORE.norm>
-1.45725

>  <RMSD>
0.713

$$$$
ligand
 OpenBabel11021811513D
libRbt.so/2013.1/901 2013/11/27
 10 11  0  0  0  0  0  0  0  0999 V2000
    5.8285   17.4331    2.5762 N   0  0  0  0  0  0  0  0  0  0  0  0
    6.7078   18.4384    2.4882 C   0  0  0  0  0  0  0  0  0  0  0  0
    7.1245   19.2728    3.4394 N   0  0  0  0  0  0  0  0  0  0  0  0
    6.5316   18.9941    4.6107 C   0  0  0  0  0  0  0  0  0  0  0  0
    5.6091   17.9957    4.8571 C   0  0  0  0  0  0  0  0  0  0  0  0
    5.2493   17.1776    3.7679 C   0  0  0  0  0  0  0  0  0  0  0  0
    4.3711   16.1741    3.8601 N   0  0  0  0  0  0  0  0  0  0  0  0
    5.2159   18.0074    6.1850 N   0  0  0  0  0  0  0  0  0  0  0  0
    5.8978   18.9995    6.7065 C   0  0  0  0  0  0  0  0  0  0  0  0
    6.7117   19.6390    5.8131 N   0  0  0  0  0  0  0  0  0  0  0  0
  1  2  2  0  0  0  0
  1  6  1  0  0  0  0
  2  3  1  0  0  0  0
  3  4  2  0  0  0  0
  4  5  1  0  0  0  0
  4 10  1  0  0  0  0
  5  6  2  0  0  0  0
  5  8  1  0  0  0  0
  6  7  1  0  0  0  0
  8  9  1  0  0  0  0
  9 10  2  0  0  0  0
M  END
>  <CHROM.1>
5.91904055,18.20487671,4.42615427,-1.82807281,0.83772655,1.22559064

>  <Name>
ligand

>  <RI>
0

>  <Rbt.Current_Directory>
/home/itssahil/PROJECTS/Mol_Feturizer/New_Systems/rnas/4XNR

>  <Rbt.Executable>
rbdock ($Id: //depot/dev/client3/rdock/2013.1/src/exe/rbdock.cxx#4 $)

>  <Rbt.Library>
libRbt.so (2013.1, Build901 2013/11/27)

>  <Rbt.Parameter_File>
/export/apps/rDock/src/rDock_2013.1_src/data/scripts/dock_solv.prm

>  <Rbt.Receptor>
prm/pocket_docking_5.prm

>  <SCORE>
-14.5029

>  <SCORE.INTER>
-14.5029

>  <SCORE.INTER.CONST>
1

>  <SCORE.INTER.POLAR>
0

>  <SCORE.INTER.ROT>
0

>  <SCORE.INTER.SOLV>
7.47022

>  <SCORE.INTER.VDW>
-15.7587

>  <SCORE.INTER.norm>
-1.45029

>  <SCORE.INTRA>
0

>  <SCORE.INTRA.DIHEDRAL>
0

>  <SCORE.INTRA.DIHEDRAL.0>
0

>  <SCORE.INTRA.POLAR>
0

>  <SCORE.INTRA.POLAR.0>
0

>  <SCORE.INTRA.REPUL>
0

>  <SCORE.INTRA.REPUL.0>
0

>  <SCORE.INTRA.SOLV>
0

>  <SCORE.INTRA.SOLV.lig_0>
-23.8918

>  <SCORE.INTRA.VDW>
0

>  <SCORE.INTRA.VDW.0>
0

>  <SCORE.INTRA.norm>
0

>  <SCORE.RESTR>
0

>  <SCORE.RESTR.CAVITY>
0

>  <SCORE.RESTR.norm>
0

>  <SCORE.SYSTEM>
0

>  <SCORE.SYSTEM.CONST>
0

>  <SCORE.SYSTEM.DIHEDRAL>
0

>  <SCORE.SYSTEM.SOLV>
0

>  <SCORE.SYSTEM.norm>
0

>  <SCORE.heavy>
10

>  <SCORE.norm>
-1.45029

>  <RMSD>
0.714

$$$$
ligand
 OpenBabel11021811513D
libRbt.so/2013.1/901 2013/11/27
 10 11  0  0  0  0  0  0  0  0999 V2000
    5.9652   17.3670    2.6130 N   0  0  0  0  0  0  0  0  0  0  0  0
    6.7841   18.4222    2.5275 C   0  0  0  0  0  0  0  0  0  0  0  0
    7.1344   19.2900    3.4756 N   0  0  0  0  0  0  0  0  0  0  0  0
    6.5400   18.9885    4.6405 C   0  0  0  0  0  0  0  0  0  0  0  0
    5.6749   17.9391    4.8835 C   0  0  0  0  0  0  0  0  0  0  0  0
    5.3827   17.0896    3.7982 C   0  0  0  0  0  0  0  0  0  0  0  0
    4.5648   16.0362    3.8878 N   0  0  0  0  0  0  0  0  0  0  0  0
    5.2598   17.9410    6.2049 N   0  0  0  0  0  0  0  0  0  0  0  0
    5.8725   18.9777    6.7258 C   0  0  0  0  0  0  0  0  0  0  0  0
    6.6613   19.6555    5.8382 N   0  0  0  0  0  0  0  0  0  0  0  0
  1  2  2  0  0  0  0
  1  6  1  0  0  0  0
  2  3  1  0  0  0  0
  3  4  2  0  0  0  0
  4  5  1  0  0  0  0
  4 10  1  0  0  0  0
  5  6  2  0  0  0  0
  5  8  1  0  0  0  0
  6  7  1  0  0  0  0
  8  9  1  0  0  0  0
  9 10  2  0  0  0  0
M  END
>  <CHROM.1>
5.97884180,18.16201740,4.45523754,-1.77135709,0.88770423,1.17158336

>  <Name>
ligand

>  <RI>
0

>  <Rbt.Current_Directory>
/home/itssahil/PROJECTS/Mol_Feturizer/New_Systems/rnas/4XNR

>  <Rbt.Executable>
rbdock ($Id: //depot/dev/client3/rdock/2013.1/src/exe/rbdock.cxx#4 $)

>  <Rbt.Library>
libRbt.so (2013.1, Build901 2013/11/27)

>  <Rbt.Parameter_File>
/export/apps/rDock/src/rDock_2013.1_src/data/scripts/dock_solv.prm

>  <Rbt.Receptor>
prm/pocket_docking_6.prm

>  <SCORE>
-14.4912

>  <SCORE.INTER>
-14.4912

>  <SCORE.INTER.CONST>
1

>  <SCORE.INTER.POLAR>
0

>  <SCORE.INTER.ROT>
0

>  <SCORE.INTER.SOLV>
8.23488

>  <SCORE.INTER.VDW>
-16.0058

>  <SCORE.INTER.norm>
-1.44912

>  <SCORE.INTRA>
0

>  <SCORE.INTRA.DIHEDRAL>
0

>  <SCORE.INTRA.DIHEDRAL.0>
0

>  <SCORE.INTRA.POLAR>
0

>  <SCORE.INTRA.POLAR.0>
0

>  <SCORE.INTRA.REPUL>
0

>  <SCORE.INTRA.REPUL.0>
0

>  <SCORE.INTRA.SOLV>
0

>  <SCORE.INTRA.SOLV.lig_0>
-23.8918

>  <SCORE.INTRA.VDW>
0

>  <SCORE.INTRA.VDW.0>
0

>  <SCORE.INTRA.norm>
0

>  <SCORE.RESTR>
0

>  <SCORE.RESTR.CAVITY>
0

>  <SCORE.RESTR.norm>
0

>  <SCORE.SYSTEM>
0

>  <SCORE.SYSTEM.CONST>
0

>  <SCORE.SYSTEM.DIHEDRAL>
0

>  <SCORE.SYSTEM.SOLV>
0

>  <SCORE.SYSTEM.norm>
0

>  <SCORE.heavy>
10

>  <SCORE.norm>
-1.44912

>  <RMSD>
0.714

$$$$
ligand
 OpenBabel11021811513D
libRbt.so/2013.1/901 2013/11/27
 10 11  0  0  0  0  0  0  0  0999 V2000
    5.8574   17.3793    2.6019 N   0  0  0  0  0  0  0  0  0  0  0  0
    6.7695   18.3558    2.5256 C   0  0  0  0  0  0  0  0  0  0  0  0
    7.1929   19.1834    3.4797 N   0  0  0  0  0  0  0  0  0  0  0  0
    6.5678   18.9318    4.6404 C   0  0  0  0  0  0  0  0  0  0  0  0
    5.6095   17.9646    4.8741 C   0  0  0  0  0  0  0  0  0  0  0  0
    5.2462   17.1505    3.7831 C   0  0  0  0  0  0  0  0  0  0  0  0
    4.3351   16.1758    3.8636 N   0  0  0  0  0  0  0  0  0  0  0  0
    5.1898   17.9980    6.1936 N   0  0  0  0  0  0  0  0  0  0  0  0
    5.8920   18.9719    6.7226 C   0  0  0  0  0  0  0  0  0  0  0  0
    6.7437   19.5792    5.8421 N   0  0  0  0  0  0  0  0  0  0  0  0
  1  2  2  0  0  0  0
  1  6  1  0  0  0  0
  2  3  1  0  0  0  0
  3  4  2  0  0  0  0
  4  5  1  0  0  0  0
  4 10  1  0  0  0  0
  5  6  2  0  0  0  0
  5  8  1  0  0  0  0
  6  7  1  0  0  0  0
  8  9  1  0  0  0  0
  9 10  2  0  0  0  0
M  END
>  <CHROM.1>
5.93451095,18.16090508,4.44834336,-1.81591013,0.80111020,1.20995012

>  <Name>
ligand

>  <RI>
0

>  <Rbt.Current_Directory>
/home/itssahil/PROJECTS/Mol_Feturizer/New_Systems/rnas/4XNR

>  <Rbt.Executable>
rbdock ($Id: //depot/dev/client3/rdock/2013.1/src/exe/rbdock.cxx#4 $)

>  <Rbt.Library>
libRbt.so (2013.1, Build901 2013/11/27)

>  <Rbt.Parameter_File>
/export/apps/rDock/src/rDock_2013.1_src/data/scripts/dock_solv.prm

>  <Rbt.Receptor>
prm/pocket_docking_5.prm

>  <SCORE>
-14.5558

>  <SCORE.INTER>
-14.5558

>  <SCORE.INTER.CONST>
1

>  <SCORE.INTER.POLAR>
0

>  <SCORE.INTER.ROT>
0

>  <SCORE.INTER.SOLV>
7.40499

>  <SCORE.INTER.VDW>
-15.7722

>  <SCORE.INTER.norm>
-1.45558

>  <SCORE.INTRA>
0

>  <SCORE.INTRA.DIHEDRAL>
0

>  <SCORE.INTRA.DIHEDRAL.0>
0

>  <SCORE.INTRA.POLAR>
0

>  <SCORE.INTRA.POLAR.0>
0

>  <SCORE.INTRA.REPUL>
0

>  <SCORE.INTRA.REPUL.0>
0

>  <SCORE.INTRA.SOLV>
0

>  <SCORE.INTRA.SOLV.lig_0>
-23.8918

>  <SCORE.INTRA.VDW>
0

>  <SCORE.INTRA.VDW.0>
0

>  <SCORE.INTRA.norm>
0

>  <SCORE.RESTR>
0

>  <SCORE.RESTR.CAVITY>
0

>  <SCORE.RESTR.norm>
0

>  <SCORE.SYSTEM>
0

>  <SCORE.SYSTEM.CONST>
0

>  <SCORE.SYSTEM.DIHEDRAL>
0

>  <SCORE.SYSTEM.SOLV>
0

>  <SCORE.SYSTEM.norm>
0

>  <SCORE.heavy>
10

>  <SCORE.norm>
-1.45558

>  <RMSD>
0.715

$$$$
ligand
 OpenBabel11021811513D
libRbt.so/2013.1/901 2013/11/27
 10 11  0  0  0  0  0  0  0  0999 V2000
    5.9056   17.3427    2.6336 N   0  0  0  0  0  0  0  0  0  0  0  0
    6.7705   18.3573    2.5158 C   0  0  0  0  0  0  0  0  0  0  0  0
    7.1731   19.2270    3.4412 N   0  0  0  0  0  0  0  0  0  0  0  0
    6.5816   18.9766    4.6196 C   0  0  0  0  0  0  0  0  0  0  0  0
    5.6730   17.9731    4.8954 C   0  0  0  0  0  0  0  0  0  0  0  0
    5.3275   17.1162    3.8317 C   0  0  0  0  0  0  0  0  0  0  0  0
    4.4636   16.1035    3.9537 N   0  0  0  0  0  0  0  0  0  0  0  0
    5.2767   18.0206    6.2216 N   0  0  0  0  0  0  0  0  0  0  0  0
    5.9431   19.0384    6.7130 C   0  0  0  0  0  0  0  0  0  0  0  0
    6.7498   19.6612    5.8015 N   0  0  0  0  0  0  0  0  0  0  0  0
  1  2  2  0  0  0  0
  1  6  1  0  0  0  0
  2  3  1  0  0  0  0
  3  4  2  0  0  0  0
  4  5  1  0  0  0  0
  4 10  1  0  0  0  0
  5  6  2  0  0  0  0
  5  8  1  0  0  0  0
  6  7  1  0  0  0  0
  8  9  1  0  0  0  0
  9 10  2  0  0  0  0
M  END
>  <CHROM.1>
5.98086578,18.17316585,4.45869666,-1.81752245,0.85047185,1.18641639

>  <Name>
ligand

>  <RI>
0

>  <Rbt.Current_Directory>
/home/itssahil/PROJECTS/Mol_Feturizer/New_Systems/rnas/4XNR

>  <Rbt.Executable>
rbdock ($Id: //depot/dev/client3/rdock/2013.1/src/exe/rbdock.cxx#4 $)

>  <Rbt.Library>
libRbt.so (2013.1, Build901 2013/11/27)

>  <Rbt.Parameter_File>
/export/apps/rDock/src/rDock_2013.1_src/data/scripts/dock_solv.prm

>  <Rbt.Receptor>
prm/blind_docking_100.prm

>  <SCORE>
-14.5874

>  <SCORE.INTER>
-14.5874

>  <SCORE.INTER.CONST>
1

>  <SCORE.INTER.POLAR>
0

>  <SCORE.INTER.ROT>
0

>  <SCORE.INTER.SOLV>
7.98381

>  <SCORE.INTER.VDW>
-15.9862

>  <SCORE.INTER.norm>
-1.45874

>  <SCORE.INTRA>
0

>  <SCORE.INTRA.DIHEDRAL>
0

>  <SCORE.INTRA.DIHEDRAL.0>
0

>  <SCORE.INTRA.POLAR>
0

>  <SCORE.INTRA.POLAR.0>
0

>  <SCORE.INTRA.REPUL>
0

>  <SCORE.INTRA.REPUL.0>
0

>  <SCORE.INTRA.SOLV>
0

>  <SCORE.INTRA.SOLV.lig_0>
-23.8918

>  <SCORE.INTRA.VDW>
0

>  <SCORE.INTRA.VDW.0>
0

>  <SCORE.INTRA.norm>
0

>  <SCORE.RESTR>
0

>  <SCORE.RESTR.CAVITY>
0

>  <SCORE.RESTR.norm>
0

>  <SCORE.SYSTEM>
0

>  <SCORE.SYSTEM.CONST>
0

>  <SCORE.SYSTEM.DIHEDRAL>
0

>  <SCORE.SYSTEM.SOLV>
0

>  <SCORE.SYSTEM.norm>
0

>  <SCORE.heavy>
10

>  <SCORE.norm>
-1.45874

>  <RMSD>
0.716

$$$$
ligand
 OpenBabel11021811513D
libRbt.so/2013.1/901 2013/11/27
 10 11  0  0  0  0  0  0  0  0999 V2000
    5.8961   17.3754    2.6064 N   0  0  0  0  0  0  0  0  0  0  0  0
    6.8051   18.3549    2.5315 C   0  0  0  0  0  0  0  0  0  0  0  0
    7.2246   19.1836    3.4865 N   0  0  0  0  0  0  0  0  0  0  0  0
    6.5987   18.9297    4.6462 C   0  0  0  0  0  0  0  0  0  0  0  0
    5.6432   17.9593    4.8784 C   0  0  0  0  0  0  0  0  0  0  0  0
    5.2841   17.1444    3.7867 C   0  0  0  0  0  0  0  0  0  0  0  0
    4.3761   16.1667    3.8657 N   0  0  0  0  0  0  0  0  0  0  0  0
    5.2217   17.9911    6.1973 N   0  0  0  0  0  0  0  0  0  0  0  0
    5.9199   18.9671    6.7275 C   0  0  0  0  0  0  0  0  0  0  0  0
    6.7709   19.5774    5.8483 N   0  0  0  0  0  0  0  0  0  0  0  0
  1  2  2  0  0  0  0
  1  6  1  0  0  0  0
  2  3  1  0  0  0  0
  3  4  2  0  0  0  0
  4  5  1  0  0  0  0
  4 10  1  0  0  0  0
  5  6  2  0  0  0  0
  5  8  1  0  0  0  0
  6  7  1  0  0  0  0
  8  9  1  0  0  0  0
  9 10  2  0  0  0  0
M  END
>  <CHROM.1>
5.96821073,18.15683246,4.45311516,-1.81241909,0.80365998,1.20769538

>  <Name>
ligand

>  <RI>
0

>  <Rbt.Current_Directory>
/home/itssahil/PROJECTS/Mol_Feturizer/New_Systems/rnas/4XNR

>  <Rbt.Executable>
rbdock ($Id: //depot/dev/client3/rdock/2013.1/src/exe/rbdock.cxx#4 $)

>  <Rbt.Library>
libRbt.so (2013.1, Build901 2013/11/27)

>  <Rbt.Parameter_File>
/export/apps/rDock/src/rDock_2013.1_src/data/scripts/dock_solv.prm

>  <Rbt.Receptor>
prm/blind_docking_40.prm

>  <SCORE>
-14.5609

>  <SCORE.INTER>
-14.5609

>  <SCORE.INTER.CONST>
1

>  <SCORE.INTER.POLAR>
0

>  <SCORE.INTER.ROT>
0

>  <SCORE.INTER.SOLV>
7.46605

>  <SCORE.INTER.VDW>
-15.796

>  <SCORE.INTER.norm>
-1.45609

>  <SCORE.INTRA>
0

>  <SCORE.INTRA.DIHEDRAL>
0

>  <SCORE.INTRA.DIHEDRAL.0>
0

>  <SCORE.INTRA.POLAR>
0

>  <SCORE.INTRA.POLAR.0>
0

>  <SCORE.INTRA.REPUL>
0

>  <SCORE.INTRA.REPUL.0>
0

>  <SCORE.INTRA.SOLV>
0

>  <SCORE.INTRA.SOLV.lig_0>
-23.8918

>  <SCORE.INTRA.VDW>
0

>  <SCORE.INTRA.VDW.0>
0

>  <SCORE.INTRA.norm>
0

>  <SCORE.RESTR>
0

>  <SCORE.RESTR.CAVITY>
0

>  <SCORE.RESTR.norm>
0

>  <SCORE.SYSTEM>
0

>  <SCORE.SYSTEM.CONST>
0

>  <SCORE.SYSTEM.DIHEDRAL>
0

>  <SCORE.SYSTEM.SOLV>
0

>  <SCORE.SYSTEM.norm>
0

>  <SCORE.heavy>
10

>  <SCORE.norm>
-1.45609

>  <RMSD>
0.716

$$$$
ligand
 OpenBabel11021811513D
libRbt.so/2013.1/901 2013/11/27
 10 11  0  0  0  0  0  0  0  0999 V2000
    5.8705   17.3731    2.6079 N   0  0  0  0  0  0  0  0  0  0  0  0
    6.7740   18.3574    2.5304 C   0  0  0  0  0  0  0  0  0  0  0  0
    7.1923   19.1879    3.4843 N   0  0  0  0  0  0  0  0  0  0  0  0
    6.5717   18.9303    4.6460 C   0  0  0  0  0  0  0  0  0  0  0  0
    5.6221   17.9547    4.8810 C   0  0  0  0  0  0  0  0  0  0  0  0
    5.2637   17.1383    3.7902 C   0  0  0  0  0  0  0  0  0  0  0  0
    4.3611   16.1558    3.8719 N   0  0  0  0  0  0  0  0  0  0  0  0
    5.2049   17.9838    6.2014 N   0  0  0  0  0  0  0  0  0  0  0  0
    5.8998   18.9633    6.7296 C   0  0  0  0  0  0  0  0  0  0  0  0
    6.7445   19.5783    5.8478 N   0  0  0  0  0  0  0  0  0  0  0  0
  1  2  2  0  0  0  0
  1  6  1  0  0  0  0
  2  3  1  0  0  0  0
  3  4  2  0  0  0  0
  4  5  1  0  0  0  0
  4 10  1  0  0  0  0
  5  6  2  0  0  0  0
  5  8  1  0  0  0  0
  6  7  1  0  0  0  0
  8  9  1  0  0  0  0
  9 10  2  0  0  0  0
M  END
>  <CHROM.1>
5.94465818,18.15411546,4.45471724,-1.81426605,0.80979671,1.20942518

>  <Name>
ligand

>  <RI>
0

>  <Rbt.Current_Directory>
/home/itssahil/PROJECTS/Mol_Feturizer/New_Systems/rnas/4XNR

>  <Rbt.Executable>
rbdock ($Id: //depot/dev/client3/rdock/2013.1/src/exe/rbdock.cxx#4 $)

>  <Rbt.Library>
libRbt.so (2013.1, Build901 2013/11/27)

>  <Rbt.Parameter_File>
/export/apps/rDock/src/rDock_2013.1_src/data/scripts/dock_solv.prm

>  <Rbt.Receptor>
prm/blind_docking_40.prm

>  <SCORE>
-14.6013

>  <SCORE.INTER>
-14.6013

>  <SCORE.INTER.CONST>
1

>  <SCORE.INTER.POLAR>
0

>  <SCORE.INTER.ROT>
0

>  <SCORE.INTER.SOLV>
7.47977

>  <SCORE.INTER.VDW>
-15.8274

>  <SCORE.INTER.norm>
-1.46013

>  <SCORE.INTRA>
0

>  <SCORE.INTRA.DIHEDRAL>
0

>  <SCORE.INTRA.DIHEDRAL.0>
0

>  <SCORE.INTRA.POLAR>
0

>  <SCORE.INTRA.POLAR.0>
0

>  <SCORE.INTRA.REPUL>
0

>  <SCORE.INTRA.REPUL.0>
0

>  <SCORE.INTRA.SOLV>
0

>  <SCORE.INTRA.SOLV.lig_0>
-23.8918

>  <SCORE.INTRA.VDW>
0

>  <SCORE.INTRA.VDW.0>
0

>  <SCORE.INTRA.norm>
0

>  <SCORE.RESTR>
0

>  <SCORE.RESTR.CAVITY>
0

>  <SCORE.RESTR.norm>
0

>  <SCORE.SYSTEM>
0

>  <SCORE.SYSTEM.CONST>
0

>  <SCORE.SYSTEM.DIHEDRAL>
0

>  <SCORE.SYSTEM.SOLV>
0

>  <SCORE.SYSTEM.norm>
0

>  <SCORE.heavy>
10

>  <SCORE.norm>
-1.46013

>  <RMSD>
0.716

$$$$
ligand
 OpenBabel11021811513D
libRbt.so/2013.1/901 2013/11/27
 10 11  0  0  0  0  0  0  0  0999 V2000
    5.8564   17.3658    2.6099 N   0  0  0  0  0  0  0  0  0  0  0  0
    6.7583   18.3517    2.5321 C   0  0  0  0  0  0  0  0  0  0  0  0
    7.1736   19.1847    3.4852 N   0  0  0  0  0  0  0  0  0  0  0  0
    6.5517   18.9279    4.6464 C   0  0  0  0  0  0  0  0  0  0  0  0
    5.6035   17.9509    4.8817 C   0  0  0  0  0  0  0  0  0  0  0  0
    5.2483   17.1320    3.7916 C   0  0  0  0  0  0  0  0  0  0  0  0
    4.3474   16.1479    3.8737 N   0  0  0  0  0  0  0  0  0  0  0  0
    5.1842   17.9814    6.2013 N   0  0  0  0  0  0  0  0  0  0  0  0
    5.8764   18.9632    6.7289 C   0  0  0  0  0  0  0  0  0  0  0  0
    6.7214   19.5783    5.8473 N   0  0  0  0  0  0  0  0  0  0  0  0
  1  2  2  0  0  0  0
  1  6  1  0  0  0  0
  2  3  1  0  0  0  0
  3  4  2  0  0  0  0
  4  5  1  0  0  0  0
  4 10  1  0  0  0  0
  5  6  2  0  0  0  0
  5  8  1  0  0  0  0
  6  7  1  0  0  0  0
  8  9  1  0  0  0  0
  9 10  2  0  0  0  0
M  END
>  <CHROM.1>
5.92633394,18.15019238,4.45549943,-1.81121392,0.81101879,1.20550364

>  <Name>
ligand

>  <RI>
0

>  <Rbt.Current_Directory>
/home/itssahil/PROJECTS/Mol_Feturizer/New_Systems/rnas/4XNR

>  <Rbt.Executable>
rbdock ($Id: //depot/dev/client3/rdock/2013.1/src/exe/rbdock.cxx#4 $)

>  <Rbt.Library>
libRbt.so (2013.1, Build901 2013/11/27)

>  <Rbt.Parameter_File>
/export/apps/rDock/src/rDock_2013.1_src/data/scripts/dock_solv.prm

>  <Rbt.Receptor>
prm/pocket_docking_3.prm

>  <SCORE>
-14.5819

>  <SCORE.INTER>
-14.5819

>  <SCORE.INTER.CONST>
1

>  <SCORE.INTER.POLAR>
0

>  <SCORE.INTER.ROT>
0

>  <SCORE.INTER.SOLV>
7.48359

>  <SCORE.INTER.VDW>
-15.8158

>  <SCORE.INTER.norm>
-1.45819

>  <SCORE.INTRA>
0

>  <SCORE.INTRA.DIHEDRAL>
0

>  <SCORE.INTRA.DIHEDRAL.0>
0

>  <SCORE.INTRA.POLAR>
0

>  <SCORE.INTRA.POLAR.0>
0

>  <SCORE.INTRA.REPUL>
0

>  <SCORE.INTRA.REPUL.0>
0

>  <SCORE.INTRA.SOLV>
0

>  <SCORE.INTRA.SOLV.lig_0>
-23.8918

>  <SCORE.INTRA.VDW>
0

>  <SCORE.INTRA.VDW.0>
0

>  <SCORE.INTRA.norm>
0

>  <SCORE.RESTR>
0

>  <SCORE.RESTR.CAVITY>
0

>  <SCORE.RESTR.norm>
0

>  <SCORE.SYSTEM>
0

>  <SCORE.SYSTEM.CONST>
0

>  <SCORE.SYSTEM.DIHEDRAL>
0

>  <SCORE.SYSTEM.SOLV>
0

>  <SCORE.SYSTEM.norm>
0

>  <SCORE.heavy>
10

>  <SCORE.norm>
-1.45819

>  <RMSD>
0.716

$$$$
ligand
 OpenBabel11021811513D
libRbt.so/2013.1/901 2013/11/27
 10 11  0  0  0  0  0  0  0  0999 V2000
    5.9128   17.3312    2.6386 N   0  0  0  0  0  0  0  0  0  0  0  0
    6.7658   18.3562    2.5232 C   0  0  0  0  0  0  0  0  0  0  0  0
    7.1511   19.2340    3.4482 N   0  0  0  0  0  0  0  0  0  0  0  0
    6.5548   18.9802    4.6234 C   0  0  0  0  0  0  0  0  0  0  0  0
    5.6569   17.9663    4.8966 C   0  0  0  0  0  0  0  0  0  0  0  0
    5.3294   17.1017    3.8335 C   0  0  0  0  0  0  0  0  0  0  0  0
    4.4774   16.0787    3.9531 N   0  0  0  0  0  0  0  0  0  0  0  0
    5.2509   18.0134    6.2199 N   0  0  0  0  0  0  0  0  0  0  0  0
    5.9012   19.0411    6.7123 C   0  0  0  0  0  0  0  0  0  0  0  0
    6.7063   19.6709    5.8041 N   0  0  0  0  0  0  0  0  0  0  0  0
  1  2  2  0  0  0  0
  1  6  1  0  0  0  0
  2  3  1  0  0  0  0
  3  4  2  0  0  0  0
  4  5  1  0  0  0  0
  4 10  1  0  0  0  0
  5  6  2  0  0  0  0
  5  8  1  0  0  0  0
  6  7  1  0  0  0  0
  8  9  1  0  0  0  0
  9 10  2  0  0  0  0
M  END
>  <CHROM.1>
5.96521612,18.16879363,4.46126321,-1.80061435,0.85940222,1.17022668

>  <Name>
ligand

>  <RI>
0

>  <Rbt.Current_Directory>
/home/itssahil/PROJECTS/Mol_Feturizer/New_Systems/rnas/4XNR

>  <Rbt.Executable>
rbdock ($Id: //depot/dev/client3/rdock/2013.1/src/exe/rbdock.cxx#4 $)

>  <Rbt.Library>
libRbt.so (2013.1, Build901 2013/11/27)

>  <Rbt.Parameter_File>
/export/apps/rDock/src/rDock_2013.1_src/data/scripts/dock_solv.prm

>  <Rbt.Receptor>
prm/pocket_docking_7.prm

>  <SCORE>
-14.5725

>  <SCORE.INTER>
-14.5725

>  <SCORE.INTER.CONST>
1

>  <SCORE.INTER.POLAR>
0

>  <SCORE.INTER.ROT>
0

>  <SCORE.INTER.SOLV>
8.05397

>  <SCORE.INTER.VDW>
-15.9996

>  <SCORE.INTER.norm>
-1.45725

>  <SCORE.INTRA>
0

>  <SCORE.INTRA.DIHEDRAL>
0

>  <SCORE.INTRA.DIHEDRAL.0>
0

>  <SCORE.INTRA.POLAR>
0

>  <SCORE.INTRA.POLAR.0>
0

>  <SCORE.INTRA.REPUL>
0

>  <SCORE.INTRA.REPUL.0>
0

>  <SCORE.INTRA.SOLV>
0

>  <SCORE.INTRA.SOLV.lig_0>
-23.8918

>  <SCORE.INTRA.VDW>
0

>  <SCORE.INTRA.VDW.0>
0

>  <SCORE.INTRA.norm>
0

>  <SCORE.RESTR>
0

>  <SCORE.RESTR.CAVITY>
0

>  <SCORE.RESTR.norm>
0

>  <SCORE.SYSTEM>
0

>  <SCORE.SYSTEM.CONST>
0

>  <SCORE.SYSTEM.DIHEDRAL>
0

>  <SCORE.SYSTEM.SOLV>
0

>  <SCORE.SYSTEM.norm>
0

>  <SCORE.heavy>
10

>  <SCORE.norm>
-1.45725

>  <RMSD>
0.716

$$$$
ligand
 OpenBabel11021811513D
libRbt.so/2013.1/901 2013/11/27
 10 11  0  0  0  0  0  0  0  0999 V2000
    5.8701   17.3737    2.6071 N   0  0  0  0  0  0  0  0  0  0  0  0
    6.7755   18.3566    2.5329 C   0  0  0  0  0  0  0  0  0  0  0  0
    7.1929   19.1855    3.4886 N   0  0  0  0  0  0  0  0  0  0  0  0
    6.5691   18.9277    4.6486 C   0  0  0  0  0  0  0  0  0  0  0  0
    5.6172   17.9535    4.8803 C   0  0  0  0  0  0  0  0  0  0  0  0
    5.2601   17.1388    3.7877 C   0  0  0  0  0  0  0  0  0  0  0  0
    4.3557   16.1577    3.8662 N   0  0  0  0  0  0  0  0  0  0  0  0
    5.1969   17.9818    6.1996 N   0  0  0  0  0  0  0  0  0  0  0  0
    5.8921   18.9596    6.7306 C   0  0  0  0  0  0  0  0  0  0  0  0
    6.7400   19.5742    5.8514 N   0  0  0  0  0  0  0  0  0  0  0  0
  1  2  2  0  0  0  0
  1  6  1  0  0  0  0
  2  3  1  0  0  0  0
  3  4  2  0  0  0  0
  4  5  1  0  0  0  0
  4 10  1  0  0  0  0
  5  6  2  0  0  0  0
  5  8  1  0  0  0  0
  6  7  1  0  0  0  0
  8  9  1  0  0  0  0
  9 10  2  0  0  0  0
M  END
>  <CHROM.1>
5.94113467,18.15274675,4.45495223,-1.81183273,0.80736905,1.20870896

>  <Name>
ligand

>  <RI>
0

>  <Rbt.Current_Directory>
/home/itssahil/PROJECTS/Mol_Feturizer/New_Systems/rnas/4XNR

>  <Rbt.Executable>
rbdock ($Id: //depot/dev/client3/rdock/2013.1/src/exe/rbdock.cxx#4 $)

>  <Rbt.Library>
libRbt.so (2013.1, Build901 2013/11/27)

>  <Rbt.Parameter_File>
/export/apps/rDock/src/rDock_2013.1_src/data/scripts/dock_solv.prm

>  <Rbt.Receptor>
prm/blind_docking_40.prm

>  <SCORE>
-14.5969

>  <SCORE.INTER>
-14.5969

>  <SCORE.INTER.CONST>
1

>  <SCORE.INTER.POLAR>
0

>  <SCORE.INTER.ROT>
0

>  <SCORE.INTER.SOLV>
7.45447

>  <SCORE.INTER.VDW>
-15.8161

>  <SCORE.INTER.norm>
-1.45969

>  <SCORE.INTRA>
0

>  <SCORE.INTRA.DIHEDRAL>
0

>  <SCORE.INTRA.DIHEDRAL.0>
0

>  <SCORE.INTRA.POLAR>
0

>  <SCORE.INTRA.POLAR.0>
0

>  <SCORE.INTRA.REPUL>
0

>  <SCORE.INTRA.REPUL.0>
0

>  <SCORE.INTRA.SOLV>
0

>  <SCORE.INTRA.SOLV.lig_0>
-23.8918

>  <SCORE.INTRA.VDW>
0

>  <SCORE.INTRA.VDW.0>
0

>  <SCORE.INTRA.norm>
0

>  <SCORE.RESTR>
0

>  <SCORE.RESTR.CAVITY>
0

>  <SCORE.RESTR.norm>
0

>  <SCORE.SYSTEM>
0

>  <SCORE.SYSTEM.CONST>
0

>  <SCORE.SYSTEM.DIHEDRAL>
0

>  <SCORE.SYSTEM.SOLV>
0

>  <SCORE.SYSTEM.norm>
0

>  <SCORE.heavy>
10

>  <SCORE.norm>
-1.45969

>  <RMSD>
0.717

$$$$
ligand
 OpenBabel11021811513D
libRbt.so/2013.1/901 2013/11/27
 10 11  0  0  0  0  0  0  0  0999 V2000
    6.0262   17.3413    2.6282 N   0  0  0  0  0  0  0  0  0  0  0  0
    6.8577   18.3861    2.5373 C   0  0  0  0  0  0  0  0  0  0  0  0
    7.2018   19.2674    3.4752 N   0  0  0  0  0  0  0  0  0  0  0  0
    6.5850   18.9936    4.6353 C   0  0  0  0  0  0  0  0  0  0  0  0
    5.7048   17.9579    4.8829 C   0  0  0  0  0  0  0  0  0  0  0  0
    5.4213   17.0918    3.8084 C   0  0  0  0  0  0  0  0  0  0  0  0
    4.5906   16.0489    3.9035 N   0  0  0  0  0  0  0  0  0  0  0  0
    5.2680   17.9885    6.1969 N   0  0  0  0  0  0  0  0  0  0  0  0
    5.8832   19.0280    6.7090 C   0  0  0  0  0  0  0  0  0  0  0  0
    6.6938   19.6811    5.8225 N   0  0  0  0  0  0  0  0  0  0  0  0
  1  2  2  0  0  0  0
  1  6  1  0  0  0  0
  2  3  1  0  0  0  0
  3  4  2  0  0  0  0
  4  5  1  0  0  0  0
  4 10  1  0  0  0  0
  5  6  2  0  0  0  0
  5  8  1  0  0  0  0
  6  7  1  0  0  0  0
  8  9  1  0  0  0  0
  9 10  2  0  0  0  0
M  END
>  <CHROM.1>
6.01809578,18.16979553,4.45572050,-1.75432000,0.87126846,1.14020484

>  <Name>
ligand

>  <RI>
0

>  <Rbt.Current_Directory>
/home/itssahil/PROJECTS/Mol_Feturizer/New_Systems/rnas/4XNR

>  <Rbt.Executable>
rbdock ($Id: //depot/dev/client3/rdock/2013.1/src/exe/rbdock.cxx#4 $)

>  <Rbt.Library>
libRbt.so (2013.1, Build901 2013/11/27)

>  <Rbt.Parameter_File>
/export/apps/rDock/src/rDock_2013.1_src/data/scripts/dock_solv.prm

>  <Rbt.Receptor>
prm/blind_docking_60.prm

>  <SCORE>
-14.5735

>  <SCORE.INTER>
-14.5735

>  <SCORE.INTER.CONST>
1

>  <SCORE.INTER.POLAR>
0

>  <SCORE.INTER.ROT>
0

>  <SCORE.INTER.SOLV>
8.30577

>  <SCORE.INTER.VDW>
-16.0842

>  <SCORE.INTER.norm>
-1.45735

>  <SCORE.INTRA>
0

>  <SCORE.INTRA.DIHEDRAL>
0

>  <SCORE.INTRA.DIHEDRAL.0>
0

>  <SCORE.INTRA.POLAR>
0

>  <SCORE.INTRA.POLAR.0>
0

>  <SCORE.INTRA.REPUL>
0

>  <SCORE.INTRA.REPUL.0>
0

>  <SCORE.INTRA.SOLV>
0

>  <SCORE.INTRA.SOLV.lig_0>
-23.8918

>  <SCORE.INTRA.VDW>
0

>  <SCORE.INTRA.VDW.0>
0

>  <SCORE.INTRA.norm>
0

>  <SCORE.RESTR>
0

>  <SCORE.RESTR.CAVITY>
0

>  <SCORE.RESTR.norm>
0

>  <SCORE.SYSTEM>
0

>  <SCORE.SYSTEM.CONST>
0

>  <SCORE.SYSTEM.DIHEDRAL>
0

>  <SCORE.SYSTEM.SOLV>
0

>  <SCORE.SYSTEM.norm>
0

>  <SCORE.heavy>
10

>  <SCORE.norm>
-1.45735

>  <RMSD>
0.717

$$$$
ligand
 OpenBabel11021811513D
libRbt.so/2013.1/901 2013/11/27
 10 11  0  0  0  0  0  0  0  0999 V2000
    5.8836   17.3739    2.6094 N   0  0  0  0  0  0  0  0  0  0  0  0
    6.7858   18.3595    2.5334 C   0  0  0  0  0  0  0  0  0  0  0  0
    7.2002   19.1917    3.4876 N   0  0  0  0  0  0  0  0  0  0  0  0
    6.5768   18.9343    4.6479 C   0  0  0  0  0  0  0  0  0  0  0  0
    5.6281   17.9574    4.8812 C   0  0  0  0  0  0  0  0  0  0  0  0
    5.2740   17.1394    3.7902 C   0  0  0  0  0  0  0  0  0  0  0  0
    4.3727   16.1555    3.8704 N   0  0  0  0  0  0  0  0  0  0  0  0
    5.2072   17.9871    6.2004 N   0  0  0  0  0  0  0  0  0  0  0  0
    5.8990   18.9683    6.7296 C   0  0  0  0  0  0  0  0  0  0  0  0
    6.7452   19.5838    5.8494 N   0  0  0  0  0  0  0  0  0  0  0  0
  1  2  2  0  0  0  0
  1  6  1  0  0  0  0
  2  3  1  0  0  0  0
  3  4  2  0  0  0  0
  4  5  1  0  0  0  0
  4 10  1  0  0  0  0
  5  6  2  0  0  0  0
  5  8  1  0  0  0  0
  6  7  1  0  0  0  0
  8  9  1  0  0  0  0
  9 10  2  0  0  0  0
M  END
>  <CHROM.1>
5.95146105,18.15690050,4.45560508,-1.80969074,0.81031495,1.20510029

>  <Name>
ligand

>  <RI>
0

>  <Rbt.Current_Directory>
/home/itssahil/PROJECTS/Mol_Feturizer/New_Systems/rnas/4XNR

>  <Rbt.Executable>
rbdock ($Id: //depot/dev/client3/rdock/2013.1/src/exe/rbdock.cxx#4 $)

>  <Rbt.Library>
libRbt.so (2013.1, Build901 2013/11/27)

>  <Rbt.Parameter_File>
/export/apps/rDock/src/rDock_2013.1_src/data/scripts/dock_solv.prm

>  <Rbt.Receptor>
prm/pocket_docking_3.prm

>  <SCORE>
-14.6009

>  <SCORE.INTER>
-14.6009

>  <SCORE.INTER.CONST>
1

>  <SCORE.INTER.POLAR>
0

>  <SCORE.INTER.ROT>
0

>  <SCORE.INTER.SOLV>
7.49499

>  <SCORE.INTER.VDW>
-15.8323

>  <SCORE.INTER.norm>
-1.46009

>  <SCORE.INTRA>
0

>  <SCORE.INTRA.DIHEDRAL>
0

>  <SCORE.INTRA.DIHEDRAL.0>
0

>  <SCORE.INTRA.POLAR>
0

>  <SCORE.INTRA.POLAR.0>
0

>  <SCORE.INTRA.REPUL>
0

>  <SCORE.INTRA.REPUL.0>
0

>  <SCORE.INTRA.SOLV>
0

>  <SCORE.INTRA.SOLV.lig_0>
-23.8918

>  <SCORE.INTRA.VDW>
0

>  <SCORE.INTRA.VDW.0>
0

>  <SCORE.INTRA.norm>
0

>  <SCORE.RESTR>
0

>  <SCORE.RESTR.CAVITY>
0

>  <SCORE.RESTR.norm>
0

>  <SCORE.SYSTEM>
0

>  <SCORE.SYSTEM.CONST>
0

>  <SCORE.SYSTEM.DIHEDRAL>
0

>  <SCORE.SYSTEM.SOLV>
0

>  <SCORE.SYSTEM.norm>
0

>  <SCORE.heavy>
10

>  <SCORE.norm>
-1.46009

>  <RMSD>
0.718

$$$$
ligand
 OpenBabel11021811513D
libRbt.so/2013.1/901 2013/11/27
 10 11  0  0  0  0  0  0  0  0999 V2000
    5.9300   17.3377    2.6377 N   0  0  0  0  0  0  0  0  0  0  0  0
    6.7829   18.3627    2.5226 C   0  0  0  0  0  0  0  0  0  0  0  0
    7.1684   19.2401    3.4479 N   0  0  0  0  0  0  0  0  0  0  0  0
    6.5722   18.9858    4.6231 C   0  0  0  0  0  0  0  0  0  0  0  0
    5.6744   17.9719    4.8959 C   0  0  0  0  0  0  0  0  0  0  0  0
    5.3467   17.1076    3.8326 C   0  0  0  0  0  0  0  0  0  0  0  0
    4.4947   16.0846    3.9519 N   0  0  0  0  0  0  0  0  0  0  0  0
    5.2685   18.0185    6.2193 N   0  0  0  0  0  0  0  0  0  0  0  0
    5.9189   19.0459    6.7120 C   0  0  0  0  0  0  0  0  0  0  0  0
    6.7238   19.6761    5.8040 N   0  0  0  0  0  0  0  0  0  0  0  0
  1  2  2  0  0  0  0
  1  6  1  0  0  0  0
  2  3  1  0  0  0  0
  3  4  2  0  0  0  0
  4  5  1  0  0  0  0
  4 10  1  0  0  0  0
  5  6  2  0  0  0  0
  5  8  1  0  0  0  0
  6  7  1  0  0  0  0
  8  9  1  0  0  0  0
  9 10  2  0  0  0  0
M  END
>  <CHROM.1>
5.98261732,18.17449838,4.46067277,-1.80075858,0.85945337,1.17072337

>  <Name>
ligand

>  <RI>
0

>  <Rbt.Current_Directory>
/home/itssahil/PROJECTS/Mol_Feturizer/New_Systems/rnas/4XNR

>  <Rbt.Executable>
rbdock ($Id: //depot/dev/client3/rdock/2013.1/src/exe/rbdock.cxx#4 $)

>  <Rbt.Library>
libRbt.so (2013.1, Build901 2013/11/27)

>  <Rbt.Parameter_File>
/export/apps/rDock/src/rDock_2013.1_src/data/scripts/dock_solv.prm

>  <Rbt.Receptor>
prm/pocket_docking_3.prm

>  <SCORE>
-14.5876

>  <SCORE.INTER>
-14.5876

>  <SCORE.INTER.CONST>
1

>  <SCORE.INTER.POLAR>
0

>  <SCORE.INTER.ROT>
0

>  <SCORE.INTER.SOLV>
8.07906

>  <SCORE.INTER.VDW>
-16.0181

>  <SCORE.INTER.norm>
-1.45876

>  <SCORE.INTRA>
0

>  <SCORE.INTRA.DIHEDRAL>
0

>  <SCORE.INTRA.DIHEDRAL.0>
0

>  <SCORE.INTRA.POLAR>
0

>  <SCORE.INTRA.POLAR.0>
0

>  <SCORE.INTRA.REPUL>
0

>  <SCORE.INTRA.REPUL.0>
0

>  <SCORE.INTRA.SOLV>
0

>  <SCORE.INTRA.SOLV.lig_0>
-23.8918

>  <SCORE.INTRA.VDW>
0

>  <SCORE.INTRA.VDW.0>
0

>  <SCORE.INTRA.norm>
0

>  <SCORE.RESTR>
0

>  <SCORE.RESTR.CAVITY>
0

>  <SCORE.RESTR.norm>
0

>  <SCORE.SYSTEM>
0

>  <SCORE.SYSTEM.CONST>
0

>  <SCORE.SYSTEM.DIHEDRAL>
0

>  <SCORE.SYSTEM.SOLV>
0

>  <SCORE.SYSTEM.norm>
0

>  <SCORE.heavy>
10

>  <SCORE.norm>
-1.45876

>  <RMSD>
0.718

$$$$
ligand
 OpenBabel11021811513D
libRbt.so/2013.1/901 2013/11/27
 10 11  0  0  0  0  0  0  0  0999 V2000
    5.8768   17.3724    2.6097 N   0  0  0  0  0  0  0  0  0  0  0  0
    6.7791   18.3581    2.5336 C   0  0  0  0  0  0  0  0  0  0  0  0
    7.1935   19.1903    3.4878 N   0  0  0  0  0  0  0  0  0  0  0  0
    6.5702   18.9329    4.6481 C   0  0  0  0  0  0  0  0  0  0  0  0
    5.6215   17.9561    4.8816 C   0  0  0  0  0  0  0  0  0  0  0  0
    5.2673   17.1380    3.7906 C   0  0  0  0  0  0  0  0  0  0  0  0
    4.3660   16.1542    3.8709 N   0  0  0  0  0  0  0  0  0  0  0  0
    5.2007   17.9858    6.2008 N   0  0  0  0  0  0  0  0  0  0  0  0
    5.8926   18.9670    6.7299 C   0  0  0  0  0  0  0  0  0  0  0  0
    6.7387   19.5824    5.8496 N   0  0  0  0  0  0  0  0  0  0  0  0
  1  2  2  0  0  0  0
  1  6  1  0  0  0  0
  2  3  1  0  0  0  0
  3  4  2  0  0  0  0
  4  5  1  0  0  0  0
  4 10  1  0  0  0  0
  5  6  2  0  0  0  0
  5  8  1  0  0  0  0
  6  7  1  0  0  0  0
  8  9  1  0  0  0  0
  9 10  2  0  0  0  0
M  END
>  <CHROM.1>
5.94484304,18.15552850,4.45593997,-1.80982810,0.81030439,1.20517447

>  <Name>
ligand

>  <RI>
0

>  <Rbt.Current_Directory>
/home/itssahil/PROJECTS/Mol_Feturizer/New_Systems/rnas/4XNR

>  <Rbt.Executable>
rbdock ($Id: //depot/dev/client3/rdock/2013.1/src/exe/rbdock.cxx#4 $)

>  <Rbt.Library>
libRbt.so (2013.1, Build901 2013/11/27)

>  <Rbt.Parameter_File>
/export/apps/rDock/src/rDock_2013.1_src/data/scripts/dock_solv.prm

>  <Rbt.Receptor>
prm/pocket_docking_6.prm

>  <SCORE>
-14.5987

>  <SCORE.INTER>
-14.5987

>  <SCORE.INTER.CONST>
1

>  <SCORE.INTER.POLAR>
0

>  <SCORE.INTER.ROT>
0

>  <SCORE.INTER.SOLV>
7.48833

>  <SCORE.INTER.VDW>
-15.8286

>  <SCORE.INTER.norm>
-1.45987

>  <SCORE.INTRA>
0

>  <SCORE.INTRA.DIHEDRAL>
0

>  <SCORE.INTRA.DIHEDRAL.0>
0

>  <SCORE.INTRA.POLAR>
0

>  <SCORE.INTRA.POLAR.0>
0

>  <SCORE.INTRA.REPUL>
0

>  <SCORE.INTRA.REPUL.0>
0

>  <SCORE.INTRA.SOLV>
0

>  <SCORE.INTRA.SOLV.lig_0>
-23.8918

>  <SCORE.INTRA.VDW>
0

>  <SCORE.INTRA.VDW.0>
0

>  <SCORE.INTRA.norm>
0

>  <SCORE.RESTR>
0

>  <SCORE.RESTR.CAVITY>
0

>  <SCORE.RESTR.norm>
0

>  <SCORE.SYSTEM>
0

>  <SCORE.SYSTEM.CONST>
0

>  <SCORE.SYSTEM.DIHEDRAL>
0

>  <SCORE.SYSTEM.SOLV>
0

>  <SCORE.SYSTEM.norm>
0

>  <SCORE.heavy>
10

>  <SCORE.norm>
-1.45987

>  <RMSD>
0.718

$$$$
ligand
 OpenBabel11021811513D
libRbt.so/2013.1/901 2013/11/27
 10 11  0  0  0  0  0  0  0  0999 V2000
    5.8824   17.3623    2.6179 N   0  0  0  0  0  0  0  0  0  0  0  0
    6.7781   18.3533    2.5349 C   0  0  0  0  0  0  0  0  0  0  0  0
    7.1953   19.1876    3.4860 N   0  0  0  0  0  0  0  0  0  0  0  0
    6.5829   18.9261    4.6513 C   0  0  0  0  0  0  0  0  0  0  0  0
    5.6420   17.9436    4.8920 C   0  0  0  0  0  0  0  0  0  0  0  0
    5.2838   17.1238    3.8036 C   0  0  0  0  0  0  0  0  0  0  0  0
    4.3891   16.1346    3.8908 N   0  0  0  0  0  0  0  0  0  0  0  0
    5.2317   17.9704    6.2146 N   0  0  0  0  0  0  0  0  0  0  0  0
    5.9220   18.9555    6.7384 C   0  0  0  0  0  0  0  0  0  0  0  0
    6.7573   19.5762    5.8516 N   0  0  0  0  0  0  0  0  0  0  0  0
  1  2  2  0  0  0  0
  1  6  1  0  0  0  0
  2  3  1  0  0  0  0
  3  4  2  0  0  0  0
  4  5  1  0  0  0  0
  4 10  1  0  0  0  0
  5  6  2  0  0  0  0
  5  8  1  0  0  0  0
  6  7  1  0  0  0  0
  8  9  1  0  0  0  0
  9 10  2  0  0  0  0
M  END
>  <CHROM.1>
5.96067630,18.14512267,4.46383381,-1.81776588,0.81872872,1.21131819

>  <Name>
ligand

>  <RI>
0

>  <Rbt.Current_Directory>
/home/itssahil/PROJECTS/Mol_Feturizer/New_Systems/rnas/4XNR

>  <Rbt.Executable>
rbdock ($Id: //depot/dev/client3/rdock/2013.1/src/exe/rbdock.cxx#4 $)

>  <Rbt.Library>
libRbt.so (2013.1, Build901 2013/11/27)

>  <Rbt.Parameter_File>
/export/apps/rDock/src/rDock_2013.1_src/data/scripts/dock_solv.prm

>  <Rbt.Receptor>
prm/pocket_docking_7.prm

>  <SCORE>
-14.5601

>  <SCORE.INTER>
-14.5601

>  <SCORE.INTER.CONST>
1

>  <SCORE.INTER.POLAR>
0

>  <SCORE.INTER.ROT>
0

>  <SCORE.INTER.SOLV>
7.59527

>  <SCORE.INTER.VDW>
-15.8385

>  <SCORE.INTER.norm>
-1.45601

>  <SCORE.INTRA>
0

>  <SCORE.INTRA.DIHEDRAL>
0

>  <SCORE.INTRA.DIHEDRAL.0>
0

>  <SCORE.INTRA.POLAR>
0

>  <SCORE.INTRA.POLAR.0>
0

>  <SCORE.INTRA.REPUL>
0

>  <SCORE.INTRA.REPUL.0>
0

>  <SCORE.INTRA.SOLV>
0

>  <SCORE.INTRA.SOLV.lig_0>
-23.8918

>  <SCORE.INTRA.VDW>
0

>  <SCORE.INTRA.VDW.0>
0

>  <SCORE.INTRA.norm>
0

>  <SCORE.RESTR>
0

>  <SCORE.RESTR.CAVITY>
0

>  <SCORE.RESTR.norm>
0

>  <SCORE.SYSTEM>
0

>  <SCORE.SYSTEM.CONST>
0

>  <SCORE.SYSTEM.DIHEDRAL>
0

>  <SCORE.SYSTEM.SOLV>
0

>  <SCORE.SYSTEM.norm>
0

>  <SCORE.heavy>
10

>  <SCORE.norm>
-1.45601

>  <RMSD>
0.718

$$$$
ligand
 OpenBabel11021811513D
libRbt.so/2013.1/901 2013/11/27
 10 11  0  0  0  0  0  0  0  0999 V2000
    5.8824   17.3699    2.6124 N   0  0  0  0  0  0  0  0  0  0  0  0
    6.7807   18.3590    2.5342 C   0  0  0  0  0  0  0  0  0  0  0  0
    7.1952   19.1919    3.4877 N   0  0  0  0  0  0  0  0  0  0  0  0
    6.5767   18.9311    4.6499 C   0  0  0  0  0  0  0  0  0  0  0  0
    5.6323   17.9506    4.8856 C   0  0  0  0  0  0  0  0  0  0  0  0
    5.2776   17.1322    3.7951 C   0  0  0  0  0  0  0  0  0  0  0  0
    4.3802   16.1449    3.8775 N   0  0  0  0  0  0  0  0  0  0  0  0
    5.2158   17.9777    6.2062 N   0  0  0  0  0  0  0  0  0  0  0  0
    5.9058   18.9609    6.7339 C   0  0  0  0  0  0  0  0  0  0  0  0
    6.7467   19.5803    5.8514 N   0  0  0  0  0  0  0  0  0  0  0  0
  1  2  2  0  0  0  0
  1  6  1  0  0  0  0
  2  3  1  0  0  0  0
  3  4  2  0  0  0  0
  4  5  1  0  0  0  0
  4 10  1  0  0  0  0
  5  6  2  0  0  0  0
  5  8  1  0  0  0  0
  6  7  1  0  0  0  0
  8  9  1  0  0  0  0
  9 10  2  0  0  0  0
M  END
>  <CHROM.1>
5.95355515,18.15164724,4.45906809,-1.81236697,0.81494206,1.20789462

>  <Name>
ligand

>  <RI>
0

>  <Rbt.Current_Directory>
/home/itssahil/PROJECTS/Mol_Feturizer/New_Systems/rnas/4XNR

>  <Rbt.Executable>
rbdock ($Id: //depot/dev/client3/rdock/2013.1/src/exe/rbdock.cxx#4 $)

>  <Rbt.Library>
libRbt.so (2013.1, Build901 2013/11/27)

>  <Rbt.Parameter_File>
/export/apps/rDock/src/rDock_2013.1_src/data/scripts/dock_solv.prm

>  <Rbt.Receptor>
prm/pocket_docking_7.prm

>  <SCORE>
-14.5635

>  <SCORE.INTER>
-14.5635

>  <SCORE.INTER.CONST>
1

>  <SCORE.INTER.POLAR>
0

>  <SCORE.INTER.ROT>
0

>  <SCORE.INTER.SOLV>
7.53847

>  <SCORE.INTER.VDW>
-15.8218

>  <SCORE.INTER.norm>
-1.45635

>  <SCORE.INTRA>
0

>  <SCORE.INTRA.DIHEDRAL>
0

>  <SCORE.INTRA.DIHEDRAL.0>
0

>  <SCORE.INTRA.POLAR>
0

>  <SCORE.INTRA.POLAR.0>
0

>  <SCORE.INTRA.REPUL>
0

>  <SCORE.INTRA.REPUL.0>
0

>  <SCORE.INTRA.SOLV>
0

>  <SCORE.INTRA.SOLV.lig_0>
-23.8918

>  <SCORE.INTRA.VDW>
0

>  <SCORE.INTRA.VDW.0>
0

>  <SCORE.INTRA.norm>
0

>  <SCORE.RESTR>
0

>  <SCORE.RESTR.CAVITY>
0

>  <SCORE.RESTR.norm>
0

>  <SCORE.SYSTEM>
0

>  <SCORE.SYSTEM.CONST>
0

>  <SCORE.SYSTEM.DIHEDRAL>
0

>  <SCORE.SYSTEM.SOLV>
0

>  <SCORE.SYSTEM.norm>
0

>  <SCORE.heavy>
10

>  <SCORE.norm>
-1.45635

>  <RMSD>
0.718

$$$$
ligand
 OpenBabel11021811513D
libRbt.so/2013.1/901 2013/11/27
 10 11  0  0  0  0  0  0  0  0999 V2000
    5.8647   17.4380    2.5797 N   0  0  0  0  0  0  0  0  0  0  0  0
    6.7516   18.4371    2.4988 C   0  0  0  0  0  0  0  0  0  0  0  0
    7.1685   19.2669    3.4539 N   0  0  0  0  0  0  0  0  0  0  0  0
    6.5666   18.9905    4.6212 C   0  0  0  0  0  0  0  0  0  0  0  0
    5.6355   17.9982    4.8602 C   0  0  0  0  0  0  0  0  0  0  0  0
    5.2765   17.1846    3.7675 C   0  0  0  0  0  0  0  0  0  0  0  0
    4.3906   16.1873    3.8526 N   0  0  0  0  0  0  0  0  0  0  0  0
    5.2343   18.0105    6.1858 N   0  0  0  0  0  0  0  0  0  0  0  0
    5.9201   18.9969    6.7131 C   0  0  0  0  0  0  0  0  0  0  0  0
    6.7440   19.6320    5.8257 N   0  0  0  0  0  0  0  0  0  0  0  0
  1  2  2  0  0  0  0
  1  6  1  0  0  0  0
  2  3  1  0  0  0  0
  3  4  2  0  0  0  0
  4  5  1  0  0  0  0
  4 10  1  0  0  0  0
  5  6  2  0  0  0  0
  5  8  1  0  0  0  0
  6  7  1  0  0  0  0
  8  9  1  0  0  0  0
  9 10  2  0  0  0  0
M  END
>  <CHROM.1>
5.94950504,18.20597014,4.43152313,-1.82322003,0.82896627,1.22370617

>  <Name>
ligand

>  <RI>
0

>  <Rbt.Current_Directory>
/home/itssahil/PROJECTS/Mol_Feturizer/New_Systems/rnas/4XNR

>  <Rbt.Executable>
rbdock ($Id: //depot/dev/client3/rdock/2013.1/src/exe/rbdock.cxx#4 $)

>  <Rbt.Library>
libRbt.so (2013.1, Build901 2013/11/27)

>  <Rbt.Parameter_File>
/export/apps/rDock/src/rDock_2013.1_src/data/scripts/dock_solv.prm

>  <Rbt.Receptor>
prm/pocket_docking_8.prm

>  <SCORE>
-14.5268

>  <SCORE.INTER>
-14.5268

>  <SCORE.INTER.CONST>
1

>  <SCORE.INTER.POLAR>
0

>  <SCORE.INTER.ROT>
0

>  <SCORE.INTER.SOLV>
7.4626

>  <SCORE.INTER.VDW>
-15.772

>  <SCORE.INTER.norm>
-1.45268

>  <SCORE.INTRA>
0

>  <SCORE.INTRA.DIHEDRAL>
0

>  <SCORE.INTRA.DIHEDRAL.0>
0

>  <SCORE.INTRA.POLAR>
0

>  <SCORE.INTRA.POLAR.0>
0

>  <SCORE.INTRA.REPUL>
0

>  <SCORE.INTRA.REPUL.0>
0

>  <SCORE.INTRA.SOLV>
0

>  <SCORE.INTRA.SOLV.lig_0>
-23.8918

>  <SCORE.INTRA.VDW>
0

>  <SCORE.INTRA.VDW.0>
0

>  <SCORE.INTRA.norm>
0

>  <SCORE.RESTR>
0

>  <SCORE.RESTR.CAVITY>
0

>  <SCORE.RESTR.norm>
0

>  <SCORE.SYSTEM>
0

>  <SCORE.SYSTEM.CONST>
0

>  <SCORE.SYSTEM.DIHEDRAL>
0

>  <SCORE.SYSTEM.SOLV>
0

>  <SCORE.SYSTEM.norm>
0

>  <SCORE.heavy>
10

>  <SCORE.norm>
-1.45268

>  <RMSD>
0.719

$$$$
ligand
 OpenBabel11021811513D
libRbt.so/2013.1/901 2013/11/27
 10 11  0  0  0  0  0  0  0  0999 V2000
    5.8871   17.3529    2.6278 N   0  0  0  0  0  0  0  0  0  0  0  0
    6.7690   18.3553    2.5341 C   0  0  0  0  0  0  0  0  0  0  0  0
    7.1755   19.2047    3.4765 N   0  0  0  0  0  0  0  0  0  0  0  0
    6.5679   18.9462    4.6449 C   0  0  0  0  0  0  0  0  0  0  0  0
    5.6408   17.9533    4.8963 C   0  0  0  0  0  0  0  0  0  0  0  0
    5.2930   17.1179    3.8164 C   0  0  0  0  0  0  0  0  0  0  0  0
    4.4121   16.1173    3.9144 N   0  0  0  0  0  0  0  0  0  0  0  0
    5.2315   17.9874    6.2190 N   0  0  0  0  0  0  0  0  0  0  0  0
    5.9086   18.9870    6.7324 C   0  0  0  0  0  0  0  0  0  0  0  0
    6.7344   19.6105    5.8386 N   0  0  0  0  0  0  0  0  0  0  0  0
  1  2  2  0  0  0  0
  1  6  1  0  0  0  0
  2  3  1  0  0  0  0
  3  4  2  0  0  0  0
  4  5  1  0  0  0  0
  4 10  1  0  0  0  0
  5  6  2  0  0  0  0
  5  8  1  0  0  0  0
  6  7  1  0  0  0  0
  8  9  1  0  0  0  0
  9 10  2  0  0  0  0
M  END
>  <CHROM.1>
5.95632669,18.15490879,4.46583044,-1.81186148,0.83199881,1.19711947

>  <Name>
ligand

>  <RI>
0

>  <Rbt.Current_Directory>
/home/itssahil/PROJECTS/Mol_Feturizer/New_Systems/rnas/4XNR

>  <Rbt.Executable>
rbdock ($Id: //depot/dev/client3/rdock/2013.1/src/exe/rbdock.cxx#4 $)

>  <Rbt.Library>
libRbt.so (2013.1, Build901 2013/11/27)

>  <Rbt.Parameter_File>
/export/apps/rDock/src/rDock_2013.1_src/data/scripts/dock_solv.prm

>  <Rbt.Receptor>
prm/blind_docking_100.prm

>  <SCORE>
-14.5576

>  <SCORE.INTER>
-14.5576

>  <SCORE.INTER.CONST>
1

>  <SCORE.INTER.POLAR>
0

>  <SCORE.INTER.ROT>
0

>  <SCORE.INTER.SOLV>
7.74767

>  <SCORE.INTER.VDW>
-15.8876

>  <SCORE.INTER.norm>
-1.45576

>  <SCORE.INTRA>
0

>  <SCORE.INTRA.DIHEDRAL>
0

>  <SCORE.INTRA.DIHEDRAL.0>
0

>  <SCORE.INTRA.POLAR>
0

>  <SCORE.INTRA.POLAR.0>
0

>  <SCORE.INTRA.REPUL>
0

>  <SCORE.INTRA.REPUL.0>
0

>  <SCORE.INTRA.SOLV>
0

>  <SCORE.INTRA.SOLV.lig_0>
-23.8918

>  <SCORE.INTRA.VDW>
0

>  <SCORE.INTRA.VDW.0>
0

>  <SCORE.INTRA.norm>
0

>  <SCORE.RESTR>
0

>  <SCORE.RESTR.CAVITY>
0

>  <SCORE.RESTR.norm>
0

>  <SCORE.SYSTEM>
0

>  <SCORE.SYSTEM.CONST>
0

>  <SCORE.SYSTEM.DIHEDRAL>
0

>  <SCORE.SYSTEM.SOLV>
0

>  <SCORE.SYSTEM.norm>
0

>  <SCORE.heavy>
10

>  <SCORE.norm>
-1.45576

>  <RMSD>
0.720

$$$$
ligand
 OpenBabel11021811513D
libRbt.so/2013.1/901 2013/11/27
 10 11  0  0  0  0  0  0  0  0999 V2000
    5.8737   17.3763    2.6095 N   0  0  0  0  0  0  0  0  0  0  0  0
    6.7792   18.3590    2.5351 C   0  0  0  0  0  0  0  0  0  0  0  0
    7.1968   19.1880    3.4907 N   0  0  0  0  0  0  0  0  0  0  0  0
    6.5729   18.9304    4.6507 C   0  0  0  0  0  0  0  0  0  0  0  0
    5.6209   17.9564    4.8826 C   0  0  0  0  0  0  0  0  0  0  0  0
    5.2636   17.1417    3.7901 C   0  0  0  0  0  0  0  0  0  0  0  0
    4.3590   16.1607    3.8687 N   0  0  0  0  0  0  0  0  0  0  0  0
    5.2006   17.9850    6.2019 N   0  0  0  0  0  0  0  0  0  0  0  0
    5.8959   18.9628    6.7327 C   0  0  0  0  0  0  0  0  0  0  0  0
    6.7439   19.5770    5.8534 N   0  0  0  0  0  0  0  0  0  0  0  0
  1  2  2  0  0  0  0
  1  6  1  0  0  0  0
  2  3  1  0  0  0  0
  3  4  2  0  0  0  0
  4  5  1  0  0  0  0
  4 10  1  0  0  0  0
  5  6  2  0  0  0  0
  5  8  1  0  0  0  0
  6  7  1  0  0  0  0
  8  9  1  0  0  0  0
  9 10  2  0  0  0  0
M  END
>  <CHROM.1>
5.94483077,18.15557984,4.45719761,-1.81194247,0.80721447,1.20864751

>  <Name>
ligand

>  <RI>
0

>  <Rbt.Current_Directory>
/home/itssahil/PROJECTS/Mol_Feturizer/New_Systems/rnas/4XNR

>  <Rbt.Executable>
rbdock ($Id: //depot/dev/client3/rdock/2013.1/src/exe/rbdock.cxx#4 $)

>  <Rbt.Library>
libRbt.so (2013.1, Build901 2013/11/27)

>  <Rbt.Parameter_File>
/export/apps/rDock/src/rDock_2013.1_src/data/scripts/dock_solv.prm

>  <Rbt.Receptor>
prm/pocket_docking_4.prm

>  <SCORE>
-14.5973

>  <SCORE.INTER>
-14.5973

>  <SCORE.INTER.CONST>
1

>  <SCORE.INTER.POLAR>
0

>  <SCORE.INTER.ROT>
0

>  <SCORE.INTER.SOLV>
7.46227

>  <SCORE.INTER.VDW>
-15.819

>  <SCORE.INTER.norm>
-1.45973

>  <SCORE.INTRA>
0

>  <SCORE.INTRA.DIHEDRAL>
0

>  <SCORE.INTRA.DIHEDRAL.0>
0

>  <SCORE.INTRA.POLAR>
0

>  <SCORE.INTRA.POLAR.0>
0

>  <SCORE.INTRA.REPUL>
0

>  <SCORE.INTRA.REPUL.0>
0

>  <SCORE.INTRA.SOLV>
0

>  <SCORE.INTRA.SOLV.lig_0>
-23.8918

>  <SCORE.INTRA.VDW>
0

>  <SCORE.INTRA.VDW.0>
0

>  <SCORE.INTRA.norm>
0

>  <SCORE.RESTR>
0

>  <SCORE.RESTR.CAVITY>
0

>  <SCORE.RESTR.norm>
0

>  <SCORE.SYSTEM>
0

>  <SCORE.SYSTEM.CONST>
0

>  <SCORE.SYSTEM.DIHEDRAL>
0

>  <SCORE.SYSTEM.SOLV>
0

>  <SCORE.SYSTEM.norm>
0

>  <SCORE.heavy>
10

>  <SCORE.norm>
-1.45973

>  <RMSD>
0.720

$$$$
ligand
 OpenBabel11021811513D
libRbt.so/2013.1/901 2013/11/27
 10 11  0  0  0  0  0  0  0  0999 V2000
    5.8968   17.3563    2.6332 N   0  0  0  0  0  0  0  0  0  0  0  0
    6.7490   18.3815    2.5138 C   0  0  0  0  0  0  0  0  0  0  0  0
    7.1460   19.2534    3.4394 N   0  0  0  0  0  0  0  0  0  0  0  0
    6.5636   18.9928    4.6201 C   0  0  0  0  0  0  0  0  0  0  0  0
    5.6684   17.9779    4.8979 C   0  0  0  0  0  0  0  0  0  0  0  0
    5.3276   17.1198    3.8336 C   0  0  0  0  0  0  0  0  0  0  0  0
    4.4764   16.0966    3.9573 N   0  0  0  0  0  0  0  0  0  0  0  0
    5.2784   18.0172    6.2262 N   0  0  0  0  0  0  0  0  0  0  0  0
    5.9352   19.0415    6.7170 C   0  0  0  0  0  0  0  0  0  0  0  0
    6.7297   19.6763    5.8031 N   0  0  0  0  0  0  0  0  0  0  0  0
  1  2  2  0  0  0  0
  1  6  1  0  0  0  0
  2  3  1  0  0  0  0
  3  4  2  0  0  0  0
  4  5  1  0  0  0  0
  4 10  1  0  0  0  0
  5  6  2  0  0  0  0
  5  8  1  0  0  0  0
  6  7  1  0  0  0  0
  8  9  1  0  0  0  0
  9 10  2  0  0  0  0
M  END
>  <CHROM.1>
5.97160890,18.18278468,4.46014430,-1.81799428,0.86339789,1.18946662

>  <Name>
ligand

>  <RI>
0

>  <Rbt.Current_Directory>
/home/itssahil/PROJECTS/Mol_Feturizer/New_Systems/rnas/4XNR

>  <Rbt.Executable>
rbdock ($Id: //depot/dev/client3/rdock/2013.1/src/exe/rbdock.cxx#4 $)

>  <Rbt.Library>
libRbt.so (2013.1, Build901 2013/11/27)

>  <Rbt.Parameter_File>
/export/apps/rDock/src/rDock_2013.1_src/data/scripts/dock_solv.prm

>  <Rbt.Receptor>
prm/pocket_docking_5.prm

>  <SCORE>
-14.5644

>  <SCORE.INTER>
-14.5644

>  <SCORE.INTER.CONST>
1

>  <SCORE.INTER.POLAR>
0

>  <SCORE.INTER.ROT>
0

>  <SCORE.INTER.SOLV>
8.03935

>  <SCORE.INTER.VDW>
-15.9894

>  <SCORE.INTER.norm>
-1.45644

>  <SCORE.INTRA>
0

>  <SCORE.INTRA.DIHEDRAL>
0

>  <SCORE.INTRA.DIHEDRAL.0>
0

>  <SCORE.INTRA.POLAR>
0

>  <SCORE.INTRA.POLAR.0>
0

>  <SCORE.INTRA.REPUL>
0

>  <SCORE.INTRA.REPUL.0>
0

>  <SCORE.INTRA.SOLV>
0

>  <SCORE.INTRA.SOLV.lig_0>
-23.8918

>  <SCORE.INTRA.VDW>
0

>  <SCORE.INTRA.VDW.0>
0

>  <SCORE.INTRA.norm>
0

>  <SCORE.RESTR>
0

>  <SCORE.RESTR.CAVITY>
0

>  <SCORE.RESTR.norm>
0

>  <SCORE.SYSTEM>
0

>  <SCORE.SYSTEM.CONST>
0

>  <SCORE.SYSTEM.DIHEDRAL>
0

>  <SCORE.SYSTEM.SOLV>
0

>  <SCORE.SYSTEM.norm>
0

>  <SCORE.heavy>
10

>  <SCORE.norm>
-1.45644

>  <RMSD>
0.721

$$$$
ligand
 OpenBabel11021811513D
libRbt.so/2013.1/901 2013/11/27
 10 11  0  0  0  0  0  0  0  0999 V2000
    5.8892   17.4053    2.6037 N   0  0  0  0  0  0  0  0  0  0  0  0
    6.7562   18.4203    2.5072 C   0  0  0  0  0  0  0  0  0  0  0  0
    7.1546   19.2744    3.4488 N   0  0  0  0  0  0  0  0  0  0  0  0
    6.5559   19.0060    4.6195 C   0  0  0  0  0  0  0  0  0  0  0  0
    5.6443   17.9996    4.8739 C   0  0  0  0  0  0  0  0  0  0  0  0
    5.3037   17.1605    3.7946 C   0  0  0  0  0  0  0  0  0  0  0  0
    4.4377   16.1473    3.8952 N   0  0  0  0  0  0  0  0  0  0  0  0
    5.2403   18.0265    6.1984 N   0  0  0  0  0  0  0  0  0  0  0  0
    5.9053   19.0351    6.7100 C   0  0  0  0  0  0  0  0  0  0  0  0
    6.7182   19.6713    5.8133 N   0  0  0  0  0  0  0  0  0  0  0  0
  1  2  2  0  0  0  0
  1  6  1  0  0  0  0
  2  3  1  0  0  0  0
  3  4  2  0  0  0  0
  4  5  1  0  0  0  0
  4 10  1  0  0  0  0
  5  6  2  0  0  0  0
  5  8  1  0  0  0  0
  6  7  1  0  0  0  0
  8  9  1  0  0  0  0
  9 10  2  0  0  0  0
M  END
>  <CHROM.1>
5.95497255,18.20622082,4.44226935,-1.81013453,0.84692175,1.19694950

>  <Name>
ligand

>  <RI>
0

>  <Rbt.Current_Directory>
/home/itssahil/PROJECTS/Mol_Feturizer/New_Systems/rnas/4XNR

>  <Rbt.Executable>
rbdock ($Id: //depot/dev/client3/rdock/2013.1/src/exe/rbdock.cxx#4 $)

>  <Rbt.Library>
libRbt.so (2013.1, Build901 2013/11/27)

>  <Rbt.Parameter_File>
/export/apps/rDock/src/rDock_2013.1_src/data/scripts/dock_solv.prm

>  <Rbt.Receptor>
prm/pocket_docking_5.prm

>  <SCORE>
-14.5368

>  <SCORE.INTER>
-14.5368

>  <SCORE.INTER.CONST>
1

>  <SCORE.INTER.POLAR>
0

>  <SCORE.INTER.ROT>
0

>  <SCORE.INTER.SOLV>
7.71091

>  <SCORE.INTER.VDW>
-15.8615

>  <SCORE.INTER.norm>
-1.45368

>  <SCORE.INTRA>
0

>  <SCORE.INTRA.DIHEDRAL>
0

>  <SCORE.INTRA.DIHEDRAL.0>
0

>  <SCORE.INTRA.POLAR>
0

>  <SCORE.INTRA.POLAR.0>
0

>  <SCORE.INTRA.REPUL>
0

>  <SCORE.INTRA.REPUL.0>
0

>  <SCORE.INTRA.SOLV>
0

>  <SCORE.INTRA.SOLV.lig_0>
-23.8918

>  <SCORE.INTRA.VDW>
0

>  <SCORE.INTRA.VDW.0>
0

>  <SCORE.INTRA.norm>
0

>  <SCORE.RESTR>
0

>  <SCORE.RESTR.CAVITY>
0

>  <SCORE.RESTR.norm>
0

>  <SCORE.SYSTEM>
0

>  <SCORE.SYSTEM.CONST>
0

>  <SCORE.SYSTEM.DIHEDRAL>
0

>  <SCORE.SYSTEM.SOLV>
0

>  <SCORE.SYSTEM.norm>
0

>  <SCORE.heavy>
10

>  <SCORE.norm>
-1.45368

>  <RMSD>
0.722

$$$$
ligand
 OpenBabel11021811513D
libRbt.so/2013.1/901 2013/11/27
 10 11  0  0  0  0  0  0  0  0999 V2000
    5.9274   17.3377    2.6408 N   0  0  0  0  0  0  0  0  0  0  0  0
    6.7837   18.3608    2.5347 C   0  0  0  0  0  0  0  0  0  0  0  0
    7.1634   19.2356    3.4649 N   0  0  0  0  0  0  0  0  0  0  0  0
    6.5567   18.9807    4.6345 C   0  0  0  0  0  0  0  0  0  0  0  0
    5.6542   17.9684    4.8979 C   0  0  0  0  0  0  0  0  0  0  0  0
    5.3334   17.1069    3.8303 C   0  0  0  0  0  0  0  0  0  0  0  0
    4.4780   16.0857    3.9405 N   0  0  0  0  0  0  0  0  0  0  0  0
    5.2373   18.0136    6.2179 N   0  0  0  0  0  0  0  0  0  0  0  0
    5.8859   19.0386    6.7180 C   0  0  0  0  0  0  0  0  0  0  0  0
    6.7000   19.6684    5.8180 N   0  0  0  0  0  0  0  0  0  0  0  0
  1  2  2  0  0  0  0
  1  6  1  0  0  0  0
  2  3  1  0  0  0  0
  3  4  2  0  0  0  0
  4  5  1  0  0  0  0
  4 10  1  0  0  0  0
  5  6  2  0  0  0  0
  5  8  1  0  0  0  0
  6  7  1  0  0  0  0
  8  9  1  0  0  0  0
  9 10  2  0  0  0  0
M  END
>  <CHROM.1>
5.96656398,18.17109375,4.46565877,-1.79033222,0.85391188,1.16466412

>  <Name>
ligand

>  <RI>
0

>  <Rbt.Current_Directory>
/home/itssahil/PROJECTS/Mol_Feturizer/New_Systems/rnas/4XNR

>  <Rbt.Executable>
rbdock ($Id: //depot/dev/client3/rdock/2013.1/src/exe/rbdock.cxx#4 $)

>  <Rbt.Library>
libRbt.so (2013.1, Build901 2013/11/27)

>  <Rbt.Parameter_File>
/export/apps/rDock/src/rDock_2013.1_src/data/scripts/dock_solv.prm

>  <Rbt.Receptor>
prm/pocket_docking_8.prm

>  <SCORE>
-14.5645

>  <SCORE.INTER>
-14.5645

>  <SCORE.INTER.CONST>
1

>  <SCORE.INTER.POLAR>
0

>  <SCORE.INTER.ROT>
0

>  <SCORE.INTER.SOLV>
8.01209

>  <SCORE.INTER.VDW>
-15.9804

>  <SCORE.INTER.norm>
-1.45645

>  <SCORE.INTRA>
0

>  <SCORE.INTRA.DIHEDRAL>
0

>  <SCORE.INTRA.DIHEDRAL.0>
0

>  <SCORE.INTRA.POLAR>
0

>  <SCORE.INTRA.POLAR.0>
0

>  <SCORE.INTRA.REPUL>
0

>  <SCORE.INTRA.REPUL.0>
0

>  <SCORE.INTRA.SOLV>
0

>  <SCORE.INTRA.SOLV.lig_0>
-23.8918

>  <SCORE.INTRA.VDW>
0

>  <SCORE.INTRA.VDW.0>
0

>  <SCORE.INTRA.norm>
0

>  <SCORE.RESTR>
0

>  <SCORE.RESTR.CAVITY>
0

>  <SCORE.RESTR.norm>
0

>  <SCORE.SYSTEM>
0

>  <SCORE.SYSTEM.CONST>
0

>  <SCORE.SYSTEM.DIHEDRAL>
0

>  <SCORE.SYSTEM.SOLV>
0

>  <SCORE.SYSTEM.norm>
0

>  <SCORE.heavy>
10

>  <SCORE.norm>
-1.45645

>  <RMSD>
0.723

$$$$
ligand
 OpenBabel11021811513D
libRbt.so/2013.1/901 2013/11/27
 10 11  0  0  0  0  0  0  0  0999 V2000
    5.9619   17.4724    2.5616 N   0  0  0  0  0  0  0  0  0  0  0  0
    6.7814   18.5293    2.5085 C   0  0  0  0  0  0  0  0  0  0  0  0
    7.1262   19.3720    3.4810 N   0  0  0  0  0  0  0  0  0  0  0  0
    6.5249   19.0404    4.6341 C   0  0  0  0  0  0  0  0  0  0  0  0
    5.6582   17.9853    4.8445 C   0  0  0  0  0  0  0  0  0  0  0  0
    5.3724   17.1645    3.7357 C   0  0  0  0  0  0  0  0  0  0  0  0
    4.5537   16.1094    3.7930 N   0  0  0  0  0  0  0  0  0  0  0  0
    5.2353   17.9529    6.1630 N   0  0  0  0  0  0  0  0  0  0  0  0
    5.8450   18.9755    6.7144 C   0  0  0  0  0  0  0  0  0  0  0  0
    6.6392   19.6759    5.8494 N   0  0  0  0  0  0  0  0  0  0  0  0
  1  2  2  0  0  0  0
  1  6  1  0  0  0  0
  2  3  1  0  0  0  0
  3  4  2  0  0  0  0
  4  5  1  0  0  0  0
  4 10  1  0  0  0  0
  5  6  2  0  0  0  0
  5  8  1  0  0  0  0
  6  7  1  0  0  0  0
  8  9  1  0  0  0  0
  9 10  2  0  0  0  0
M  END
>  <CHROM.1>
5.96471610,18.21922173,4.42400181,-1.76281401,0.88525310,1.19102963

>  <Name>
ligand

>  <RI>
0

>  <Rbt.Current_Directory>
/home/itssahil/PROJECTS/Mol_Feturizer/New_Systems/rnas/4XNR

>  <Rbt.Executable>
rbdock ($Id: //depot/dev/client3/rdock/2013.1/src/exe/rbdock.cxx#4 $)

>  <Rbt.Library>
libRbt.so (2013.1, Build901 2013/11/27)

>  <Rbt.Parameter_File>
/export/apps/rDock/src/rDock_2013.1_src/data/scripts/dock_solv.prm

>  <Rbt.Receptor>
prm/blind_docking_40.prm

>  <SCORE>
-14.5455

>  <SCORE.INTER>
-14.5455

>  <SCORE.INTER.CONST>
1

>  <SCORE.INTER.POLAR>
0

>  <SCORE.INTER.ROT>
0

>  <SCORE.INTER.SOLV>
7.88971

>  <SCORE.INTER.VDW>
-15.9269

>  <SCORE.INTER.norm>
-1.45455

>  <SCORE.INTRA>
0

>  <SCORE.INTRA.DIHEDRAL>
0

>  <SCORE.INTRA.DIHEDRAL.0>
0

>  <SCORE.INTRA.POLAR>
0

>  <SCORE.INTRA.POLAR.0>
0

>  <SCORE.INTRA.REPUL>
0

>  <SCORE.INTRA.REPUL.0>
0

>  <SCORE.INTRA.SOLV>
0

>  <SCORE.INTRA.SOLV.lig_0>
-23.8918

>  <SCORE.INTRA.VDW>
0

>  <SCORE.INTRA.VDW.0>
0

>  <SCORE.INTRA.norm>
0

>  <SCORE.RESTR>
0

>  <SCORE.RESTR.CAVITY>
0

>  <SCORE.RESTR.norm>
0

>  <SCORE.SYSTEM>
0

>  <SCORE.SYSTEM.CONST>
0

>  <SCORE.SYSTEM.DIHEDRAL>
0

>  <SCORE.SYSTEM.SOLV>
0

>  <SCORE.SYSTEM.norm>
0

>  <SCORE.heavy>
10

>  <SCORE.norm>
-1.45455

>  <RMSD>
0.724

$$$$
ligand
 OpenBabel11021811513D
libRbt.so/2013.1/901 2013/11/27
 10 11  0  0  0  0  0  0  0  0999 V2000
    5.9238   17.3454    2.6396 N   0  0  0  0  0  0  0  0  0  0  0  0
    6.7864   18.3627    2.5279 C   0  0  0  0  0  0  0  0  0  0  0  0
    7.1779   19.2352    3.4554 N   0  0  0  0  0  0  0  0  0  0  0  0
    6.5767   18.9848    4.6288 C   0  0  0  0  0  0  0  0  0  0  0  0
    5.6689   17.9788    4.8982 C   0  0  0  0  0  0  0  0  0  0  0  0
    5.3357   17.1191    3.8329 C   0  0  0  0  0  0  0  0  0  0  0  0
    4.4741   16.1037    3.9488 N   0  0  0  0  0  0  0  0  0  0  0  0
    5.2606   18.0272    6.2207 N   0  0  0  0  0  0  0  0  0  0  0  0
    5.9192   19.0479    6.7164 C   0  0  0  0  0  0  0  0  0  0  0  0
    6.7320   19.6719    5.8111 N   0  0  0  0  0  0  0  0  0  0  0  0
  1  2  2  0  0  0  0
  1  6  1  0  0  0  0
  2  3  1  0  0  0  0
  3  4  2  0  0  0  0
  4  5  1  0  0  0  0
  4 10  1  0  0  0  0
  5  6  2  0  0  0  0
  5  8  1  0  0  0  0
  6  7  1  0  0  0  0
  8  9  1  0  0  0  0
  9 10  2  0  0  0  0
M  END
>  <CHROM.1>
5.98001739,18.17915168,4.46391328,-1.80305224,0.85007762,1.17388657

>  <Name>
ligand

>  <RI>
0

>  <Rbt.Current_Directory>
/home/itssahil/PROJECTS/Mol_Feturizer/New_Systems/rnas/4XNR

>  <Rbt.Executable>
rbdock ($Id: //depot/dev/client3/rdock/2013.1/src/exe/rbdock.cxx#4 $)

>  <Rbt.Library>
libRbt.so (2013.1, Build901 2013/11/27)

>  <Rbt.Parameter_File>
/export/apps/rDock/src/rDock_2013.1_src/data/scripts/dock_solv.prm

>  <Rbt.Receptor>
prm/pocket_docking_4.prm

>  <SCORE>
-14.5868

>  <SCORE.INTER>
-14.5868

>  <SCORE.INTER.CONST>
1

>  <SCORE.INTER.POLAR>
0

>  <SCORE.INTER.ROT>
0

>  <SCORE.INTER.SOLV>
7.99362

>  <SCORE.INTER.VDW>
-15.9891

>  <SCORE.INTER.norm>
-1.45868

>  <SCORE.INTRA>
0

>  <SCORE.INTRA.DIHEDRAL>
0

>  <SCORE.INTRA.DIHEDRAL.0>
0

>  <SCORE.INTRA.POLAR>
0

>  <SCORE.INTRA.POLAR.0>
0

>  <SCORE.INTRA.REPUL>
0

>  <SCORE.INTRA.REPUL.0>
0

>  <SCORE.INTRA.SOLV>
0

>  <SCORE.INTRA.SOLV.lig_0>
-23.8918

>  <SCORE.INTRA.VDW>
0

>  <SCORE.INTRA.VDW.0>
0

>  <SCORE.INTRA.norm>
0

>  <SCORE.RESTR>
0

>  <SCORE.RESTR.CAVITY>
0

>  <SCORE.RESTR.norm>
0

>  <SCORE.SYSTEM>
0

>  <SCORE.SYSTEM.CONST>
0

>  <SCORE.SYSTEM.DIHEDRAL>
0

>  <SCORE.SYSTEM.SOLV>
0

>  <SCORE.SYSTEM.norm>
0

>  <SCORE.heavy>
10

>  <SCORE.norm>
-1.45868

>  <RMSD>
0.724

$$$$
ligand
 OpenBabel11021811513D
libRbt.so/2013.1/901 2013/11/27
 10 11  0  0  0  0  0  0  0  0999 V2000
    5.9157   17.3425    2.6414 N   0  0  0  0  0  0  0  0  0  0  0  0
    6.7799   18.3587    2.5329 C   0  0  0  0  0  0  0  0  0  0  0  0
    7.1701   19.2298    3.4623 N   0  0  0  0  0  0  0  0  0  0  0  0
    6.5655   18.9791    4.6339 C   0  0  0  0  0  0  0  0  0  0  0  0
    5.6557   17.9740    4.8999 C   0  0  0  0  0  0  0  0  0  0  0  0
    5.3241   17.1158    3.8329 C   0  0  0  0  0  0  0  0  0  0  0  0
    4.4608   16.1015    3.9456 N   0  0  0  0  0  0  0  0  0  0  0  0
    5.2439   18.0217    6.2214 N   0  0  0  0  0  0  0  0  0  0  0  0
    5.9027   19.0410    6.7198 C   0  0  0  0  0  0  0  0  0  0  0  0
    6.7186   19.6648    5.8172 N   0  0  0  0  0  0  0  0  0  0  0  0
  1  2  2  0  0  0  0
  1  6  1  0  0  0  0
  2  3  1  0  0  0  0
  3  4  2  0  0  0  0
  4  5  1  0  0  0  0
  4 10  1  0  0  0  0
  5  6  2  0  0  0  0
  5  8  1  0  0  0  0
  6  7  1  0  0  0  0
  8  9  1  0  0  0  0
  9 10  2  0  0  0  0
M  END
>  <CHROM.1>
5.96819486,18.17440784,4.46666660,-1.80019111,0.84782574,1.17271793

>  <Name>
ligand

>  <RI>
0

>  <Rbt.Current_Directory>
/home/itssahil/PROJECTS/Mol_Feturizer/New_Systems/rnas/4XNR

>  <Rbt.Executable>
rbdock ($Id: //depot/dev/client3/rdock/2013.1/src/exe/rbdock.cxx#4 $)

>  <Rbt.Library>
libRbt.so (2013.1, Build901 2013/11/27)

>  <Rbt.Parameter_File>
/export/apps/rDock/src/rDock_2013.1_src/data/scripts/dock_solv.prm

>  <Rbt.Receptor>
prm/blind_docking_100.prm

>  <SCORE>
-14.5636

>  <SCORE.INTER>
-14.5636

>  <SCORE.INTER.CONST>
1

>  <SCORE.INTER.POLAR>
0

>  <SCORE.INTER.ROT>
0

>  <SCORE.INTER.SOLV>
7.96627

>  <SCORE.INTER.VDW>
-15.9645

>  <SCORE.INTER.norm>
-1.45636

>  <SCORE.INTRA>
0

>  <SCORE.INTRA.DIHEDRAL>
0

>  <SCORE.INTRA.DIHEDRAL.0>
0

>  <SCORE.INTRA.POLAR>
0

>  <SCORE.INTRA.POLAR.0>
0

>  <SCORE.INTRA.REPUL>
0

>  <SCORE.INTRA.REPUL.0>
0

>  <SCORE.INTRA.SOLV>
0

>  <SCORE.INTRA.SOLV.lig_0>
-23.8918

>  <SCORE.INTRA.VDW>
0

>  <SCORE.INTRA.VDW.0>
0

>  <SCORE.INTRA.norm>
0

>  <SCORE.RESTR>
0

>  <SCORE.RESTR.CAVITY>
0

>  <SCORE.RESTR.norm>
0

>  <SCORE.SYSTEM>
0

>  <SCORE.SYSTEM.CONST>
0

>  <SCORE.SYSTEM.DIHEDRAL>
0

>  <SCORE.SYSTEM.SOLV>
0

>  <SCORE.SYSTEM.norm>
0

>  <SCORE.heavy>
10

>  <SCORE.norm>
-1.45636

>  <RMSD>
0.725

$$$$
ligand
 OpenBabel11021811513D
libRbt.so/2013.1/901 2013/11/27
 10 11  0  0  0  0  0  0  0  0999 V2000
    5.8921   17.3643    2.6249 N   0  0  0  0  0  0  0  0  0  0  0  0
    6.7847   18.3582    2.5431 C   0  0  0  0  0  0  0  0  0  0  0  0
    7.1943   19.1970    3.4936 N   0  0  0  0  0  0  0  0  0  0  0  0
    6.5771   18.9370    4.6566 C   0  0  0  0  0  0  0  0  0  0  0  0
    5.6384   17.9520    4.8959 C   0  0  0  0  0  0  0  0  0  0  0  0
    5.2885   17.1275    3.8083 C   0  0  0  0  0  0  0  0  0  0  0  0
    4.3967   16.1355    3.8943 N   0  0  0  0  0  0  0  0  0  0  0  0
    5.2215   17.9816    6.2163 N   0  0  0  0  0  0  0  0  0  0  0  0
    5.9058   18.9707    6.7404 C   0  0  0  0  0  0  0  0  0  0  0  0
    6.7433   19.5916    5.8558 N   0  0  0  0  0  0  0  0  0  0  0  0
  1  2  2  0  0  0  0
  1  6  1  0  0  0  0
  2  3  1  0  0  0  0
  3  4  2  0  0  0  0
  4  5  1  0  0  0  0
  4 10  1  0  0  0  0
  5  6  2  0  0  0  0
  5  8  1  0  0  0  0
  6  7  1  0  0  0  0
  8  9  1  0  0  0  0
  9 10  2  0  0  0  0
M  END
>  <CHROM.1>
5.95852438,18.15329326,4.46863779,-1.80920368,0.82022699,1.20187161

>  <Name>
ligand

>  <RI>
0

>  <Rbt.Current_Directory>
/home/itssahil/PROJECTS/Mol_Feturizer/New_Systems/rnas/4XNR

>  <Rbt.Executable>
rbdock ($Id: //depot/dev/client3/rdock/2013.1/src/exe/rbdock.cxx#4 $)

>  <Rbt.Library>
libRbt.so (2013.1, Build901 2013/11/27)

>  <Rbt.Parameter_File>
/export/apps/rDock/src/rDock_2013.1_src/data/scripts/dock_solv.prm

>  <Rbt.Receptor>
prm/pocket_docking_8.prm

>  <SCORE>
-14.5938

>  <SCORE.INTER>
-14.5938

>  <SCORE.INTER.CONST>
1

>  <SCORE.INTER.POLAR>
0

>  <SCORE.INTER.ROT>
0

>  <SCORE.INTER.SOLV>
7.62406

>  <SCORE.INTER.VDW>
-15.8705

>  <SCORE.INTER.norm>
-1.45938

>  <SCORE.INTRA>
0

>  <SCORE.INTRA.DIHEDRAL>
0

>  <SCORE.INTRA.DIHEDRAL.0>
0

>  <SCORE.INTRA.POLAR>
0

>  <SCORE.INTRA.POLAR.0>
0

>  <SCORE.INTRA.REPUL>
0

>  <SCORE.INTRA.REPUL.0>
0

>  <SCORE.INTRA.SOLV>
0

>  <SCORE.INTRA.SOLV.lig_0>
-23.8918

>  <SCORE.INTRA.VDW>
0

>  <SCORE.INTRA.VDW.0>
0

>  <SCORE.INTRA.norm>
0

>  <SCORE.RESTR>
0

>  <SCORE.RESTR.CAVITY>
0

>  <SCORE.RESTR.norm>
0

>  <SCORE.SYSTEM>
0

>  <SCORE.SYSTEM.CONST>
0

>  <SCORE.SYSTEM.DIHEDRAL>
0

>  <SCORE.SYSTEM.SOLV>
0

>  <SCORE.SYSTEM.norm>
0

>  <SCORE.heavy>
10

>  <SCORE.norm>
-1.45938

>  <RMSD>
0.725

$$$$
ligand
 OpenBabel11021811513D
libRbt.so/2013.1/901 2013/11/27
 10 11  0  0  0  0  0  0  0  0999 V2000
    5.8974   17.3675    2.6244 N   0  0  0  0  0  0  0  0  0  0  0  0
    6.7907   18.3611    2.5450 C   0  0  0  0  0  0  0  0  0  0  0  0
    7.1997   19.1983    3.4971 N   0  0  0  0  0  0  0  0  0  0  0  0
    6.5811   18.9371    4.6591 C   0  0  0  0  0  0  0  0  0  0  0  0
    5.6416   17.9522    4.8960 C   0  0  0  0  0  0  0  0  0  0  0  0
    5.2924   17.1294    3.8069 C   0  0  0  0  0  0  0  0  0  0  0  0
    4.4001   16.1377    3.8905 N   0  0  0  0  0  0  0  0  0  0  0  0
    5.2233   17.9801    6.2160 N   0  0  0  0  0  0  0  0  0  0  0  0
    5.9075   18.9682    6.7422 C   0  0  0  0  0  0  0  0  0  0  0  0
    6.7463   19.5899    5.8593 N   0  0  0  0  0  0  0  0  0  0  0  0
  1  2  2  0  0  0  0
  1  6  1  0  0  0  0
  2  3  1  0  0  0  0
  3  4  2  0  0  0  0
  4  5  1  0  0  0  0
  4 10  1  0  0  0  0
  5  6  2  0  0  0  0
  5  8  1  0  0  0  0
  6  7  1  0  0  0  0
  8  9  1  0  0  0  0
  9 10  2  0  0  0  0
M  END
>  <CHROM.1>
5.96227009,18.15391170,4.46935203,-1.80798895,0.81936213,1.20238195

>  <Name>
ligand

>  <RI>
0

>  <Rbt.Current_Directory>
/home/itssahil/PROJECTS/Mol_Feturizer/New_Systems/rnas/4XNR

>  <Rbt.Executable>
rbdock ($Id: //depot/dev/client3/rdock/2013.1/src/exe/rbdock.cxx#4 $)

>  <Rbt.Library>
libRbt.so (2013.1, Build901 2013/11/27)

>  <Rbt.Parameter_File>
/export/apps/rDock/src/rDock_2013.1_src/data/scripts/dock_solv.prm

>  <Rbt.Receptor>
prm/blind_docking_100.prm

>  <SCORE>
-14.5938

>  <SCORE.INTER>
-14.5938

>  <SCORE.INTER.CONST>
1

>  <SCORE.INTER.POLAR>
0

>  <SCORE.INTER.ROT>
0

>  <SCORE.INTER.SOLV>
7.61432

>  <SCORE.INTER.VDW>
-15.8673

>  <SCORE.INTER.norm>
-1.45938

>  <SCORE.INTRA>
0

>  <SCORE.INTRA.DIHEDRAL>
0

>  <SCORE.INTRA.DIHEDRAL.0>
0

>  <SCORE.INTRA.POLAR>
0

>  <SCORE.INTRA.POLAR.0>
0

>  <SCORE.INTRA.REPUL>
0

>  <SCORE.INTRA.REPUL.0>
0

>  <SCORE.INTRA.SOLV>
0

>  <SCORE.INTRA.SOLV.lig_0>
-23.8918

>  <SCORE.INTRA.VDW>
0

>  <SCORE.INTRA.VDW.0>
0

>  <SCORE.INTRA.norm>
0

>  <SCORE.RESTR>
0

>  <SCORE.RESTR.CAVITY>
0

>  <SCORE.RESTR.norm>
0

>  <SCORE.SYSTEM>
0

>  <SCORE.SYSTEM.CONST>
0

>  <SCORE.SYSTEM.DIHEDRAL>
0

>  <SCORE.SYSTEM.SOLV>
0

>  <SCORE.SYSTEM.norm>
0

>  <SCORE.heavy>
10

>  <SCORE.norm>
-1.45938

>  <RMSD>
0.726

$$$$
ligand
 OpenBabel11021811513D
libRbt.so/2013.1/901 2013/11/27
 10 11  0  0  0  0  0  0  0  0999 V2000
    5.8810   17.3641    2.6261 N   0  0  0  0  0  0  0  0  0  0  0  0
    6.7760   18.3557    2.5428 C   0  0  0  0  0  0  0  0  0  0  0  0
    7.1894   19.1934    3.4925 N   0  0  0  0  0  0  0  0  0  0  0  0
    6.5737   18.9350    4.6567 C   0  0  0  0  0  0  0  0  0  0  0  0
    5.6329   17.9523    4.8976 C   0  0  0  0  0  0  0  0  0  0  0  0
    5.2789   17.1288    3.8106 C   0  0  0  0  0  0  0  0  0  0  0  0
    4.3848   16.1390    3.8982 N   0  0  0  0  0  0  0  0  0  0  0  0
    5.2185   17.9828    6.2188 N   0  0  0  0  0  0  0  0  0  0  0  0
    5.9062   18.9702    6.7417 C   0  0  0  0  0  0  0  0  0  0  0  0
    6.7437   19.5890    5.8555 N   0  0  0  0  0  0  0  0  0  0  0  0
  1  2  2  0  0  0  0
  1  6  1  0  0  0  0
  2  3  1  0  0  0  0
  3  4  2  0  0  0  0
  4  5  1  0  0  0  0
  4 10  1  0  0  0  0
  5  6  2  0  0  0  0
  5  8  1  0  0  0  0
  6  7  1  0  0  0  0
  8  9  1  0  0  0  0
  9 10  2  0  0  0  0
M  END
>  <CHROM.1>
5.95275621,18.15280027,4.46975757,-1.81301520,0.81851456,1.20472116

>  <Name>
ligand

>  <RI>
0

>  <Rbt.Current_Directory>
/home/itssahil/PROJECTS/Mol_Feturizer/New_Systems/rnas/4XNR

>  <Rbt.Executable>
rbdock ($Id: //depot/dev/client3/rdock/2013.1/src/exe/rbdock.cxx#4 $)

>  <Rbt.Library>
libRbt.so (2013.1, Build901 2013/11/27)

>  <Rbt.Parameter_File>
/export/apps/rDock/src/rDock_2013.1_src/data/scripts/dock_solv.prm

>  <Rbt.Receptor>
prm/blind_docking_80.prm

>  <SCORE>
-14.5927

>  <SCORE.INTER>
-14.5927

>  <SCORE.INTER.CONST>
1

>  <SCORE.INTER.POLAR>
0

>  <SCORE.INTER.ROT>
0

>  <SCORE.INTER.SOLV>
7.60813

>  <SCORE.INTER.VDW>
-15.8645

>  <SCORE.INTER.norm>
-1.45927

>  <SCORE.INTRA>
0

>  <SCORE.INTRA.DIHEDRAL>
0

>  <SCORE.INTRA.DIHEDRAL.0>
0

>  <SCORE.INTRA.POLAR>
0

>  <SCORE.INTRA.POLAR.0>
0

>  <SCORE.INTRA.REPUL>
0

>  <SCORE.INTRA.REPUL.0>
0

>  <SCORE.INTRA.SOLV>
0

>  <SCORE.INTRA.SOLV.lig_0>
-23.8918

>  <SCORE.INTRA.VDW>
0

>  <SCORE.INTRA.VDW.0>
0

>  <SCORE.INTRA.norm>
0

>  <SCORE.RESTR>
0

>  <SCORE.RESTR.CAVITY>
0

>  <SCORE.RESTR.norm>
0

>  <SCORE.SYSTEM>
0

>  <SCORE.SYSTEM.CONST>
0

>  <SCORE.SYSTEM.DIHEDRAL>
0

>  <SCORE.SYSTEM.SOLV>
0

>  <SCORE.SYSTEM.norm>
0

>  <SCORE.heavy>
10

>  <SCORE.norm>
-1.45927

>  <RMSD>
0.726

$$$$
ligand
 OpenBabel11021811513D
libRbt.so/2013.1/901 2013/11/27
 10 11  0  0  0  0  0  0  0  0999 V2000
    5.8909   17.3875    2.6105 N   0  0  0  0  0  0  0  0  0  0  0  0
    6.8011   18.3662    2.5396 C   0  0  0  0  0  0  0  0  0  0  0  0
    7.2209   19.1911    3.4976 N   0  0  0  0  0  0  0  0  0  0  0  0
    6.5941   18.9339    4.6561 C   0  0  0  0  0  0  0  0  0  0  0  0
    5.6373   17.9638    4.8844 C   0  0  0  0  0  0  0  0  0  0  0  0
    5.2780   17.1530    3.7896 C   0  0  0  0  0  0  0  0  0  0  0  0
    4.3687   16.1761    3.8647 N   0  0  0  0  0  0  0  0  0  0  0  0
    5.2151   17.9914    6.2032 N   0  0  0  0  0  0  0  0  0  0  0  0
    5.9142   18.9648    6.7372 C   0  0  0  0  0  0  0  0  0  0  0  0
    6.7663   19.5771    5.8605 N   0  0  0  0  0  0  0  0  0  0  0  0
  1  2  2  0  0  0  0
  1  6  1  0  0  0  0
  2  3  1  0  0  0  0
  3  4  2  0  0  0  0
  4  5  1  0  0  0  0
  4 10  1  0  0  0  0
  5  6  2  0  0  0  0
  5  8  1  0  0  0  0
  6  7  1  0  0  0  0
  8  9  1  0  0  0  0
  9 10  2  0  0  0  0
M  END
>  <CHROM.1>
5.96282130,18.16236668,4.45995988,-1.81223921,0.80238207,1.21104658

>  <Name>
ligand

>  <RI>
0

>  <Rbt.Current_Directory>
/home/itssahil/PROJECTS/Mol_Feturizer/New_Systems/rnas/4XNR

>  <Rbt.Executable>
rbdock ($Id: //depot/dev/client3/rdock/2013.1/src/exe/rbdock.cxx#4 $)

>  <Rbt.Library>
libRbt.so (2013.1, Build901 2013/11/27)

>  <Rbt.Parameter_File>
/export/apps/rDock/src/rDock_2013.1_src/data/scripts/dock_solv.prm

>  <Rbt.Receptor>
prm/pocket_docking_3.prm

>  <SCORE>
-14.5618

>  <SCORE.INTER>
-14.5618

>  <SCORE.INTER.CONST>
1

>  <SCORE.INTER.POLAR>
0

>  <SCORE.INTER.ROT>
0

>  <SCORE.INTER.SOLV>
7.44018

>  <SCORE.INTER.VDW>
-15.7879

>  <SCORE.INTER.norm>
-1.45618

>  <SCORE.INTRA>
0

>  <SCORE.INTRA.DIHEDRAL>
0

>  <SCORE.INTRA.DIHEDRAL.0>
0

>  <SCORE.INTRA.POLAR>
0

>  <SCORE.INTRA.POLAR.0>
0

>  <SCORE.INTRA.REPUL>
0

>  <SCORE.INTRA.REPUL.0>
0

>  <SCORE.INTRA.SOLV>
0

>  <SCORE.INTRA.SOLV.lig_0>
-23.8918

>  <SCORE.INTRA.VDW>
0

>  <SCORE.INTRA.VDW.0>
0

>  <SCORE.INTRA.norm>
0

>  <SCORE.RESTR>
0

>  <SCORE.RESTR.CAVITY>
0

>  <SCORE.RESTR.norm>
0

>  <SCORE.SYSTEM>
0

>  <SCORE.SYSTEM.CONST>
0

>  <SCORE.SYSTEM.DIHEDRAL>
0

>  <SCORE.SYSTEM.SOLV>
0

>  <SCORE.SYSTEM.norm>
0

>  <SCORE.heavy>
10

>  <SCORE.norm>
-1.45618

>  <RMSD>
0.726

$$$$
ligand
 OpenBabel11021811513D
libRbt.so/2013.1/901 2013/11/27
 10 11  0  0  0  0  0  0  0  0999 V2000
    5.8813   17.4625    2.5753 N   0  0  0  0  0  0  0  0  0  0  0  0
    6.7567   18.4727    2.5078 C   0  0  0  0  0  0  0  0  0  0  0  0
    7.1645   19.2941    3.4740 N   0  0  0  0  0  0  0  0  0  0  0  0
    6.5663   18.9950    4.6376 C   0  0  0  0  0  0  0  0  0  0  0  0
    5.6468   17.9889    4.8633 C   0  0  0  0  0  0  0  0  0  0  0  0
    5.2966   17.1862    3.7597 C   0  0  0  0  0  0  0  0  0  0  0  0
    4.4222   16.1777    3.8315 N   0  0  0  0  0  0  0  0  0  0  0  0
    5.2461   17.9786    6.1891 N   0  0  0  0  0  0  0  0  0  0  0  0
    5.9208   18.9655    6.7296 C   0  0  0  0  0  0  0  0  0  0  0  0
    6.7369   19.6220    5.8507 N   0  0  0  0  0  0  0  0  0  0  0  0
  1  2  2  0  0  0  0
  1  6  1  0  0  0  0
  2  3  1  0  0  0  0
  3  4  2  0  0  0  0
  4  5  1  0  0  0  0
  4 10  1  0  0  0  0
  5  6  2  0  0  0  0
  5  8  1  0  0  0  0
  6  7  1  0  0  0  0
  8  9  1  0  0  0  0
  9 10  2  0  0  0  0
M  END
>  <CHROM.1>
5.95817944,18.20608178,4.43742573,-1.81801586,0.83988462,1.23349233

>  <Name>
ligand

>  <RI>
0

>  <Rbt.Current_Directory>
/home/itssahil/PROJECTS/Mol_Feturizer/New_Systems/rnas/4XNR

>  <Rbt.Executable>
rbdock ($Id: //depot/dev/client3/rdock/2013.1/src/exe/rbdock.cxx#4 $)

>  <Rbt.Library>
libRbt.so (2013.1, Build901 2013/11/27)

>  <Rbt.Parameter_File>
/export/apps/rDock/src/rDock_2013.1_src/data/scripts/dock_solv.prm

>  <Rbt.Receptor>
prm/pocket_docking_3.prm

>  <SCORE>
-14.507

>  <SCORE.INTER>
-14.507

>  <SCORE.INTER.CONST>
1

>  <SCORE.INTER.POLAR>
0

>  <SCORE.INTER.ROT>
0

>  <SCORE.INTER.SOLV>
7.52503

>  <SCORE.INTER.VDW>
-15.7797

>  <SCORE.INTER.norm>
-1.4507

>  <SCORE.INTRA>
0

>  <SCORE.INTRA.DIHEDRAL>
0

>  <SCORE.INTRA.DIHEDRAL.0>
0

>  <SCORE.INTRA.POLAR>
0

>  <SCORE.INTRA.POLAR.0>
0

>  <SCORE.INTRA.REPUL>
0

>  <SCORE.INTRA.REPUL.0>
0

>  <SCORE.INTRA.SOLV>
0

>  <SCORE.INTRA.SOLV.lig_0>
-23.8918

>  <SCORE.INTRA.VDW>
0

>  <SCORE.INTRA.VDW.0>
0

>  <SCORE.INTRA.norm>
0

>  <SCORE.RESTR>
0

>  <SCORE.RESTR.CAVITY>
0

>  <SCORE.RESTR.norm>
0

>  <SCORE.SYSTEM>
0

>  <SCORE.SYSTEM.CONST>
0

>  <SCORE.SYSTEM.DIHEDRAL>
0

>  <SCORE.SYSTEM.SOLV>
0

>  <SCORE.SYSTEM.norm>
0

>  <SCORE.heavy>
10

>  <SCORE.norm>
-1.4507

>  <RMSD>
0.726

$$$$
ligand
 OpenBabel11021811513D
libRbt.so/2013.1/901 2013/11/27
 10 11  0  0  0  0  0  0  0  0999 V2000
    5.9003   17.3640    2.6264 N   0  0  0  0  0  0  0  0  0  0  0  0
    6.7903   18.3604    2.5469 C   0  0  0  0  0  0  0  0  0  0  0  0
    7.1943   19.2010    3.4981 N   0  0  0  0  0  0  0  0  0  0  0  0
    6.5742   18.9400    4.6593 C   0  0  0  0  0  0  0  0  0  0  0  0
    5.6376   17.9524    4.8962 C   0  0  0  0  0  0  0  0  0  0  0  0
    5.2936   17.1261    3.8081 C   0  0  0  0  0  0  0  0  0  0  0  0
    4.4045   16.1315    3.8918 N   0  0  0  0  0  0  0  0  0  0  0  0
    5.2163   17.9815    6.2153 N   0  0  0  0  0  0  0  0  0  0  0  0
    5.8960   18.9730    6.7409 C   0  0  0  0  0  0  0  0  0  0  0  0
    6.7345   19.5958    5.8586 N   0  0  0  0  0  0  0  0  0  0  0  0
  1  2  2  0  0  0  0
  1  6  1  0  0  0  0
  2  3  1  0  0  0  0
  3  4  2  0  0  0  0
  4  5  1  0  0  0  0
  4 10  1  0  0  0  0
  5  6  2  0  0  0  0
  5  8  1  0  0  0  0
  6  7  1  0  0  0  0
  8  9  1  0  0  0  0
  9 10  2  0  0  0  0
M  END
>  <CHROM.1>
5.95846552,18.15428847,4.46986445,-1.80320959,0.82180257,1.19684766

>  <Name>
ligand

>  <RI>
0

>  <Rbt.Current_Directory>
/home/itssahil/PROJECTS/Mol_Feturizer/New_Systems/rnas/4XNR

>  <Rbt.Executable>
rbdock ($Id: //depot/dev/client3/rdock/2013.1/src/exe/rbdock.cxx#4 $)

>  <Rbt.Library>
libRbt.so (2013.1, Build901 2013/11/27)

>  <Rbt.Parameter_File>
/export/apps/rDock/src/rDock_2013.1_src/data/scripts/dock_solv.prm

>  <Rbt.Receptor>
prm/pocket_docking_4.prm

>  <SCORE>
-14.5906

>  <SCORE.INTER>
-14.5906

>  <SCORE.INTER.CONST>
1

>  <SCORE.INTER.POLAR>
0

>  <SCORE.INTER.ROT>
0

>  <SCORE.INTER.SOLV>
7.64138

>  <SCORE.INTER.VDW>
-15.8742

>  <SCORE.INTER.norm>
-1.45906

>  <SCORE.INTRA>
0

>  <SCORE.INTRA.DIHEDRAL>
0

>  <SCORE.INTRA.DIHEDRAL.0>
0

>  <SCORE.INTRA.POLAR>
0

>  <SCORE.INTRA.POLAR.0>
0

>  <SCORE.INTRA.REPUL>
0

>  <SCORE.INTRA.REPUL.0>
0

>  <SCORE.INTRA.SOLV>
0

>  <SCORE.INTRA.SOLV.lig_0>
-23.8918

>  <SCORE.INTRA.VDW>
0

>  <SCORE.INTRA.VDW.0>
0

>  <SCORE.INTRA.norm>
0

>  <SCORE.RESTR>
0

>  <SCORE.RESTR.CAVITY>
0

>  <SCORE.RESTR.norm>
0

>  <SCORE.SYSTEM>
0

>  <SCORE.SYSTEM.CONST>
0

>  <SCORE.SYSTEM.DIHEDRAL>
0

>  <SCORE.SYSTEM.SOLV>
0

>  <SCORE.SYSTEM.norm>
0

>  <SCORE.heavy>
10

>  <SCORE.norm>
-1.45906

>  <RMSD>
0.726

$$$$
ligand
 OpenBabel11021811513D
libRbt.so/2013.1/901 2013/11/27
 10 11  0  0  0  0  0  0  0  0999 V2000
    5.8906   17.3635    2.6265 N   0  0  0  0  0  0  0  0  0  0  0  0
    6.7828   18.3578    2.5441 C   0  0  0  0  0  0  0  0  0  0  0  0
    7.1916   19.1977    3.4939 N   0  0  0  0  0  0  0  0  0  0  0  0
    6.5743   18.9385    4.6570 C   0  0  0  0  0  0  0  0  0  0  0  0
    5.6360   17.9532    4.8969 C   0  0  0  0  0  0  0  0  0  0  0  0
    5.2868   17.1275    3.8101 C   0  0  0  0  0  0  0  0  0  0  0  0
    4.3956   16.1351    3.8967 N   0  0  0  0  0  0  0  0  0  0  0  0
    5.2187   17.9837    6.2172 N   0  0  0  0  0  0  0  0  0  0  0  0
    5.9023   18.9737    6.7406 C   0  0  0  0  0  0  0  0  0  0  0  0
    6.7398   19.5942    5.8556 N   0  0  0  0  0  0  0  0  0  0  0  0
  1  2  2  0  0  0  0
  1  6  1  0  0  0  0
  2  3  1  0  0  0  0
  3  4  2  0  0  0  0
  4  5  1  0  0  0  0
  4 10  1  0  0  0  0
  5  6  2  0  0  0  0
  5  8  1  0  0  0  0
  6  7  1  0  0  0  0
  8  9  1  0  0  0  0
  9 10  2  0  0  0  0
M  END
>  <CHROM.1>
5.95611999,18.15422804,4.46958237,-1.80853661,0.82062490,1.20045825

>  <Name>
ligand

>  <RI>
0

>  <Rbt.Current_Directory>
/home/itssahil/PROJECTS/Mol_Feturizer/New_Systems/rnas/4XNR

>  <Rbt.Executable>
rbdock ($Id: //depot/dev/client3/rdock/2013.1/src/exe/rbdock.cxx#4 $)

>  <Rbt.Library>
libRbt.so (2013.1, Build901 2013/11/27)

>  <Rbt.Parameter_File>
/export/apps/rDock/src/rDock_2013.1_src/data/scripts/dock_solv.prm

>  <Rbt.Receptor>
prm/pocket_docking_5.prm

>  <SCORE>
-14.5923

>  <SCORE.INTER>
-14.5923

>  <SCORE.INTER.CONST>
1

>  <SCORE.INTER.POLAR>
0

>  <SCORE.INTER.ROT>
0

>  <SCORE.INTER.SOLV>
7.63122

>  <SCORE.INTER.VDW>
-15.8719

>  <SCORE.INTER.norm>
-1.45923

>  <SCORE.INTRA>
0

>  <SCORE.INTRA.DIHEDRAL>
0

>  <SCORE.INTRA.DIHEDRAL.0>
0

>  <SCORE.INTRA.POLAR>
0

>  <SCORE.INTRA.POLAR.0>
0

>  <SCORE.INTRA.REPUL>
0

>  <SCORE.INTRA.REPUL.0>
0

>  <SCORE.INTRA.SOLV>
0

>  <SCORE.INTRA.SOLV.lig_0>
-23.8918

>  <SCORE.INTRA.VDW>
0

>  <SCORE.INTRA.VDW.0>
0

>  <SCORE.INTRA.norm>
0

>  <SCORE.RESTR>
0

>  <SCORE.RESTR.CAVITY>
0

>  <SCORE.RESTR.norm>
0

>  <SCORE.SYSTEM>
0

>  <SCORE.SYSTEM.CONST>
0

>  <SCORE.SYSTEM.DIHEDRAL>
0

>  <SCORE.SYSTEM.SOLV>
0

>  <SCORE.SYSTEM.norm>
0

>  <SCORE.heavy>
10

>  <SCORE.norm>
-1.45923

>  <RMSD>
0.726

$$$$
ligand
 OpenBabel11021811513D
libRbt.so/2013.1/901 2013/11/27
 10 11  0  0  0  0  0  0  0  0999 V2000
    5.8994   17.3654    2.6263 N   0  0  0  0  0  0  0  0  0  0  0  0
    6.7913   18.3600    2.5455 C   0  0  0  0  0  0  0  0  0  0  0  0
    7.1985   19.1998    3.4961 N   0  0  0  0  0  0  0  0  0  0  0  0
    6.5795   18.9400    4.6582 C   0  0  0  0  0  0  0  0  0  0  0  0
    5.6413   17.9543    4.8965 C   0  0  0  0  0  0  0  0  0  0  0  0
    5.2940   17.1288    3.8089 C   0  0  0  0  0  0  0  0  0  0  0  0
    4.4030   16.1360    3.8940 N   0  0  0  0  0  0  0  0  0  0  0  0
    5.2221   17.9844    6.2162 N   0  0  0  0  0  0  0  0  0  0  0  0
    5.9045   18.9745    6.7408 C   0  0  0  0  0  0  0  0  0  0  0  0
    6.7430   19.5955    5.8572 N   0  0  0  0  0  0  0  0  0  0  0  0
  1  2  2  0  0  0  0
  1  6  1  0  0  0  0
  2  3  1  0  0  0  0
  3  4  2  0  0  0  0
  4  5  1  0  0  0  0
  4 10  1  0  0  0  0
  5  6  2  0  0  0  0
  5  8  1  0  0  0  0
  6  7  1  0  0  0  0
  8  9  1  0  0  0  0
  9 10  2  0  0  0  0
M  END
>  <CHROM.1>
5.96195587,18.15560687,4.46966234,-1.80634565,0.82045587,1.19912915

>  <Name>
ligand

>  <RI>
0

>  <Rbt.Current_Directory>
/home/itssahil/PROJECTS/Mol_Feturizer/New_Systems/rnas/4XNR

>  <Rbt.Executable>
rbdock ($Id: //depot/dev/client3/rdock/2013.1/src/exe/rbdock.cxx#4 $)

>  <Rbt.Library>
libRbt.so (2013.1, Build901 2013/11/27)

>  <Rbt.Parameter_File>
/export/apps/rDock/src/rDock_2013.1_src/data/scripts/dock_solv.prm

>  <Rbt.Receptor>
prm/pocket_docking_5.prm

>  <SCORE>
-14.5918

>  <SCORE.INTER>
-14.5918

>  <SCORE.INTER.CONST>
1

>  <SCORE.INTER.POLAR>
0

>  <SCORE.INTER.ROT>
0

>  <SCORE.INTER.SOLV>
7.63446

>  <SCORE.INTER.VDW>
-15.8727

>  <SCORE.INTER.norm>
-1.45918

>  <SCORE.INTRA>
0

>  <SCORE.INTRA.DIHEDRAL>
0

>  <SCORE.INTRA.DIHEDRAL.0>
0

>  <SCORE.INTRA.POLAR>
0

>  <SCORE.INTRA.POLAR.0>
0

>  <SCORE.INTRA.REPUL>
0

>  <SCORE.INTRA.REPUL.0>
0

>  <SCORE.INTRA.SOLV>
0

>  <SCORE.INTRA.SOLV.lig_0>
-23.8918

>  <SCORE.INTRA.VDW>
0

>  <SCORE.INTRA.VDW.0>
0

>  <SCORE.INTRA.norm>
0

>  <SCORE.RESTR>
0

>  <SCORE.RESTR.CAVITY>
0

>  <SCORE.RESTR.norm>
0

>  <SCORE.SYSTEM>
0

>  <SCORE.SYSTEM.CONST>
0

>  <SCORE.SYSTEM.DIHEDRAL>
0

>  <SCORE.SYSTEM.SOLV>
0

>  <SCORE.SYSTEM.norm>
0

>  <SCORE.heavy>
10

>  <SCORE.norm>
-1.45918

>  <RMSD>
0.727

$$$$
ligand
 OpenBabel11021811513D
libRbt.so/2013.1/901 2013/11/27
 10 11  0  0  0  0  0  0  0  0999 V2000
    5.8966   17.3386    2.6453 N   0  0  0  0  0  0  0  0  0  0  0  0
    6.7667   18.3496    2.5347 C   0  0  0  0  0  0  0  0  0  0  0  0
    7.1630   19.2194    3.4626 N   0  0  0  0  0  0  0  0  0  0  0  0
    6.5582   18.9737    4.6351 C   0  0  0  0  0  0  0  0  0  0  0  0
    5.6428   17.9743    4.9033 C   0  0  0  0  0  0  0  0  0  0  0  0
    5.3050   17.1168    3.8376 C   0  0  0  0  0  0  0  0  0  0  0  0
    4.4359   16.1078    3.9524 N   0  0  0  0  0  0  0  0  0  0  0  0
    5.2327   18.0260    6.2252 N   0  0  0  0  0  0  0  0  0  0  0  0
    5.8979   19.0420    6.7216 C   0  0  0  0  0  0  0  0  0  0  0  0
    6.7166   19.6599    5.8175 N   0  0  0  0  0  0  0  0  0  0  0  0
  1  2  2  0  0  0  0
  1  6  1  0  0  0  0
  2  3  1  0  0  0  0
  3  4  2  0  0  0  0
  4  5  1  0  0  0  0
  4 10  1  0  0  0  0
  5  6  2  0  0  0  0
  5  8  1  0  0  0  0
  6  7  1  0  0  0  0
  8  9  1  0  0  0  0
  9 10  2  0  0  0  0
M  END
>  <CHROM.1>
5.95596287,18.17233790,4.46946812,-1.80508727,0.84279865,1.17518887

>  <Name>
ligand

>  <RI>
0

>  <Rbt.Current_Directory>
/home/itssahil/PROJECTS/Mol_Feturizer/New_Systems/rnas/4XNR

>  <Rbt.Executable>
rbdock ($Id: //depot/dev/client3/rdock/2013.1/src/exe/rbdock.cxx#4 $)

>  <Rbt.Library>
libRbt.so (2013.1, Build901 2013/11/27)

>  <Rbt.Parameter_File>
/export/apps/rDock/src/rDock_2013.1_src/data/scripts/dock_solv.prm

>  <Rbt.Receptor>
prm/pocket_docking_7.prm

>  <SCORE>
-14.5563

>  <SCORE.INTER>
-14.5563

>  <SCORE.INTER.CONST>
1

>  <SCORE.INTER.POLAR>
0

>  <SCORE.INTER.ROT>
0

>  <SCORE.INTER.SOLV>
7.93259

>  <SCORE.INTER.VDW>
-15.9484

>  <SCORE.INTER.norm>
-1.45563

>  <SCORE.INTRA>
0

>  <SCORE.INTRA.DIHEDRAL>
0

>  <SCORE.INTRA.DIHEDRAL.0>
0

>  <SCORE.INTRA.POLAR>
0

>  <SCORE.INTRA.POLAR.0>
0

>  <SCORE.INTRA.REPUL>
0

>  <SCORE.INTRA.REPUL.0>
0

>  <SCORE.INTRA.SOLV>
0

>  <SCORE.INTRA.SOLV.lig_0>
-23.8918

>  <SCORE.INTRA.VDW>
0

>  <SCORE.INTRA.VDW.0>
0

>  <SCORE.INTRA.norm>
0

>  <SCORE.RESTR>
0

>  <SCORE.RESTR.CAVITY>
0

>  <SCORE.RESTR.norm>
0

>  <SCORE.SYSTEM>
0

>  <SCORE.SYSTEM.CONST>
0

>  <SCORE.SYSTEM.DIHEDRAL>
0

>  <SCORE.SYSTEM.SOLV>
0

>  <SCORE.SYSTEM.norm>
0

>  <SCORE.heavy>
10

>  <SCORE.norm>
-1.45563

>  <RMSD>
0.727

$$$$
ligand
 OpenBabel11021811513D
libRbt.so/2013.1/901 2013/11/27
 10 11  0  0  0  0  0  0  0  0999 V2000
    5.8965   17.3661    2.6269 N   0  0  0  0  0  0  0  0  0  0  0  0
    6.7911   18.3584    2.5472 C   0  0  0  0  0  0  0  0  0  0  0  0
    7.1999   19.1966    3.4985 N   0  0  0  0  0  0  0  0  0  0  0  0
    6.5795   18.9378    4.6601 C   0  0  0  0  0  0  0  0  0  0  0  0
    5.6385   17.9545    4.8973 C   0  0  0  0  0  0  0  0  0  0  0  0
    5.2897   17.1305    3.8090 C   0  0  0  0  0  0  0  0  0  0  0  0
    4.3961   16.1400    3.8930 N   0  0  0  0  0  0  0  0  0  0  0  0
    5.2186   17.9849    6.2167 N   0  0  0  0  0  0  0  0  0  0  0  0
    5.9034   18.9729    6.7423 C   0  0  0  0  0  0  0  0  0  0  0  0
    6.7440   19.5922    5.8596 N   0  0  0  0  0  0  0  0  0  0  0  0
  1  2  2  0  0  0  0
  1  6  1  0  0  0  0
  2  3  1  0  0  0  0
  3  4  2  0  0  0  0
  4  5  1  0  0  0  0
  4 10  1  0  0  0  0
  5  6  2  0  0  0  0
  5  8  1  0  0  0  0
  6  7  1  0  0  0  0
  8  9  1  0  0  0  0
  9 10  2  0  0  0  0
M  END
>  <CHROM.1>
5.95998254,18.15515139,4.47076124,-1.80692224,0.81776718,1.20010148

>  <Name>
ligand

>  <RI>
0

>  <Rbt.Current_Directory>
/home/itssahil/PROJECTS/Mol_Feturizer/New_Systems/rnas/4XNR

>  <Rbt.Executable>
rbdock ($Id: //depot/dev/client3/rdock/2013.1/src/exe/rbdock.cxx#4 $)

>  <Rbt.Library>
libRbt.so (2013.1, Build901 2013/11/27)

>  <Rbt.Parameter_File>
/export/apps/rDock/src/rDock_2013.1_src/data/scripts/dock_solv.prm

>  <Rbt.Receptor>
prm/blind_docking_40.prm

>  <SCORE>
-14.5905

>  <SCORE.INTER>
-14.5905

>  <SCORE.INTER.CONST>
1

>  <SCORE.INTER.POLAR>
0

>  <SCORE.INTER.ROT>
0

>  <SCORE.INTER.SOLV>
7.61145

>  <SCORE.INTER.VDW>
-15.8642

>  <SCORE.INTER.norm>
-1.45905

>  <SCORE.INTRA>
0

>  <SCORE.INTRA.DIHEDRAL>
0

>  <SCORE.INTRA.DIHEDRAL.0>
0

>  <SCORE.INTRA.POLAR>
0

>  <SCORE.INTRA.POLAR.0>
0

>  <SCORE.INTRA.REPUL>
0

>  <SCORE.INTRA.REPUL.0>
0

>  <SCORE.INTRA.SOLV>
0

>  <SCORE.INTRA.SOLV.lig_0>
-23.8918

>  <SCORE.INTRA.VDW>
0

>  <SCORE.INTRA.VDW.0>
0

>  <SCORE.INTRA.norm>
0

>  <SCORE.RESTR>
0

>  <SCORE.RESTR.CAVITY>
0

>  <SCORE.RESTR.norm>
0

>  <SCORE.SYSTEM>
0

>  <SCORE.SYSTEM.CONST>
0

>  <SCORE.SYSTEM.DIHEDRAL>
0

>  <SCORE.SYSTEM.SOLV>
0

>  <SCORE.SYSTEM.norm>
0

>  <SCORE.heavy>
10

>  <SCORE.norm>
-1.45905

>  <RMSD>
0.728

$$$$
ligand
 OpenBabel11021811513D
libRbt.so/2013.1/901 2013/11/27
 10 11  0  0  0  0  0  0  0  0999 V2000
    5.9114   17.4050    2.6025 N   0  0  0  0  0  0  0  0  0  0  0  0
    6.8308   18.3751    2.5321 C   0  0  0  0  0  0  0  0  0  0  0  0
    7.2553   19.1983    3.4896 N   0  0  0  0  0  0  0  0  0  0  0  0
    6.6227   18.9495    4.6468 C   0  0  0  0  0  0  0  0  0  0  0  0
    5.6564   17.9887    4.8743 C   0  0  0  0  0  0  0  0  0  0  0  0
    5.2928   17.1789    3.7803 C   0  0  0  0  0  0  0  0  0  0  0  0
    4.3744   16.2105    3.8548 N   0  0  0  0  0  0  0  0  0  0  0  0
    5.2304   18.0232    6.1918 N   0  0  0  0  0  0  0  0  0  0  0  0
    5.9368   18.9914    6.7257 C   0  0  0  0  0  0  0  0  0  0  0  0
    6.7972   19.5938    5.8503 N   0  0  0  0  0  0  0  0  0  0  0  0
  1  2  2  0  0  0  0
  1  6  1  0  0  0  0
  2  3  1  0  0  0  0
  3  4  2  0  0  0  0
  4  5  1  0  0  0  0
  4 10  1  0  0  0  0
  5  6  2  0  0  0  0
  5  8  1  0  0  0  0
  6  7  1  0  0  0  0
  8  9  1  0  0  0  0
  9 10  2  0  0  0  0
M  END
>  <CHROM.1>
5.98491126,18.18336555,4.45044318,-1.81283923,0.79272291,1.20922782

>  <Name>
ligand

>  <RI>
0

>  <Rbt.Current_Directory>
/home/itssahil/PROJECTS/Mol_Feturizer/New_Systems/rnas/4XNR

>  <Rbt.Executable>
rbdock ($Id: //depot/dev/client3/rdock/2013.1/src/exe/rbdock.cxx#4 $)

>  <Rbt.Library>
libRbt.so (2013.1, Build901 2013/11/27)

>  <Rbt.Parameter_File>
/export/apps/rDock/src/rDock_2013.1_src/data/scripts/dock_solv.prm

>  <Rbt.Receptor>
prm/blind_docking_60.prm

>  <SCORE>
-14.5687

>  <SCORE.INTER>
-14.5687

>  <SCORE.INTER.CONST>
1

>  <SCORE.INTER.POLAR>
0

>  <SCORE.INTER.ROT>
0

>  <SCORE.INTER.SOLV>
7.36839

>  <SCORE.INTER.VDW>
-15.7686

>  <SCORE.INTER.norm>
-1.45687

>  <SCORE.INTRA>
0

>  <SCORE.INTRA.DIHEDRAL>
0

>  <SCORE.INTRA.DIHEDRAL.0>
0

>  <SCORE.INTRA.POLAR>
0

>  <SCORE.INTRA.POLAR.0>
0

>  <SCORE.INTRA.REPUL>
0

>  <SCORE.INTRA.REPUL.0>
0

>  <SCORE.INTRA.SOLV>
0

>  <SCORE.INTRA.SOLV.lig_0>
-23.8918

>  <SCORE.INTRA.VDW>
0

>  <SCORE.INTRA.VDW.0>
0

>  <SCORE.INTRA.norm>
0

>  <SCORE.RESTR>
0

>  <SCORE.RESTR.CAVITY>
0

>  <SCORE.RESTR.norm>
0

>  <SCORE.SYSTEM>
0

>  <SCORE.SYSTEM.CONST>
0

>  <SCORE.SYSTEM.DIHEDRAL>
0

>  <SCORE.SYSTEM.SOLV>
0

>  <SCORE.SYSTEM.norm>
0

>  <SCORE.heavy>
10

>  <SCORE.norm>
-1.45687

>  <RMSD>
0.728

$$$$
ligand
 OpenBabel11021811513D
libRbt.so/2013.1/901 2013/11/27
 10 11  0  0  0  0  0  0  0  0999 V2000
    5.8765   17.4012    2.6068 N   0  0  0  0  0  0  0  0  0  0  0  0
    6.7831   18.3832    2.5363 C   0  0  0  0  0  0  0  0  0  0  0  0
    7.2064   19.2035    3.4969 N   0  0  0  0  0  0  0  0  0  0  0  0
    6.5877   18.9370    4.6576 C   0  0  0  0  0  0  0  0  0  0  0  0
    5.6355   17.9624    4.8858 C   0  0  0  0  0  0  0  0  0  0  0  0
    5.2718   17.1574    3.7883 C   0  0  0  0  0  0  0  0  0  0  0  0
    4.3662   16.1771    3.8630 N   0  0  0  0  0  0  0  0  0  0  0  0
    5.2215   17.9805    6.2074 N   0  0  0  0  0  0  0  0  0  0  0  0
    5.9208   18.9528    6.7431 C   0  0  0  0  0  0  0  0  0  0  0  0
    6.7654   19.5733    5.8649 N   0  0  0  0  0  0  0  0  0  0  0  0
  1  2  2  0  0  0  0
  1  6  1  0  0  0  0
  2  3  1  0  0  0  0
  3  4  2  0  0  0  0
  4  5  1  0  0  0  0
  4 10  1  0  0  0  0
  5  6  2  0  0  0  0
  5  8  1  0  0  0  0
  6  7  1  0  0  0  0
  8  9  1  0  0  0  0
  9 10  2  0  0  0  0
M  END
>  <CHROM.1>
5.95764156,18.16471235,4.46063000,-1.81914976,0.80760253,1.22228138

>  <Name>
ligand

>  <RI>
0

>  <Rbt.Current_Directory>
/home/itssahil/PROJECTS/Mol_Feturizer/New_Systems/rnas/4XNR

>  <Rbt.Executable>
rbdock ($Id: //depot/dev/client3/rdock/2013.1/src/exe/rbdock.cxx#4 $)

>  <Rbt.Library>
libRbt.so (2013.1, Build901 2013/11/27)

>  <Rbt.Parameter_File>
/export/apps/rDock/src/rDock_2013.1_src/data/scripts/dock_solv.prm

>  <Rbt.Receptor>
prm/pocket_docking_7.prm

>  <SCORE>
-14.5667

>  <SCORE.INTER>
-14.5667

>  <SCORE.INTER.CONST>
1

>  <SCORE.INTER.POLAR>
0

>  <SCORE.INTER.ROT>
0

>  <SCORE.INTER.SOLV>
7.43546

>  <SCORE.INTER.VDW>
-15.7897

>  <SCORE.INTER.norm>
-1.45667

>  <SCORE.INTRA>
0

>  <SCORE.INTRA.DIHEDRAL>
0

>  <SCORE.INTRA.DIHEDRAL.0>
0

>  <SCORE.INTRA.POLAR>
0

>  <SCORE.INTRA.POLAR.0>
0

>  <SCORE.INTRA.REPUL>
0

>  <SCORE.INTRA.REPUL.0>
0

>  <SCORE.INTRA.SOLV>
0

>  <SCORE.INTRA.SOLV.lig_0>
-23.8918

>  <SCORE.INTRA.VDW>
0

>  <SCORE.INTRA.VDW.0>
0

>  <SCORE.INTRA.norm>
0

>  <SCORE.RESTR>
0

>  <SCORE.RESTR.CAVITY>
0

>  <SCORE.RESTR.norm>
0

>  <SCORE.SYSTEM>
0

>  <SCORE.SYSTEM.CONST>
0

>  <SCORE.SYSTEM.DIHEDRAL>
0

>  <SCORE.SYSTEM.SOLV>
0

>  <SCORE.SYSTEM.norm>
0

>  <SCORE.heavy>
10

>  <SCORE.norm>
-1.45667

>  <RMSD>
0.728

$$$$
ligand
 OpenBabel11021811513D
libRbt.so/2013.1/901 2013/11/27
 10 11  0  0  0  0  0  0  0  0999 V2000
    5.8848   17.3613    2.6306 N   0  0  0  0  0  0  0  0  0  0  0  0
    6.7797   18.3531    2.5482 C   0  0  0  0  0  0  0  0  0  0  0  0
    7.1891   19.1934    3.4975 N   0  0  0  0  0  0  0  0  0  0  0  0
    6.5690   18.9375    4.6599 C   0  0  0  0  0  0  0  0  0  0  0  0
    5.6278   17.9550    4.8997 C   0  0  0  0  0  0  0  0  0  0  0  0
    5.2783   17.1286    3.8134 C   0  0  0  0  0  0  0  0  0  0  0  0
    4.3844   16.1386    3.9000 N   0  0  0  0  0  0  0  0  0  0  0  0
    5.2083   17.9886    6.2192 N   0  0  0  0  0  0  0  0  0  0  0  0
    5.8936   18.9777    6.7423 C   0  0  0  0  0  0  0  0  0  0  0  0
    6.7341   19.5947    5.8578 N   0  0  0  0  0  0  0  0  0  0  0  0
  1  2  2  0  0  0  0
  1  6  1  0  0  0  0
  2  3  1  0  0  0  0
  3  4  2  0  0  0  0
  4  5  1  0  0  0  0
  4 10  1  0  0  0  0
  5  6  2  0  0  0  0
  5  8  1  0  0  0  0
  6  7  1  0  0  0  0
  8  9  1  0  0  0  0
  9 10  2  0  0  0  0
M  END
>  <CHROM.1>
5.94917048,18.15460737,4.47256927,-1.80755235,0.81759993,1.19823893

>  <Name>
ligand

>  <RI>
0

>  <Rbt.Current_Directory>
/home/itssahil/PROJECTS/Mol_Feturizer/New_Systems/rnas/4XNR

>  <Rbt.Executable>
rbdock ($Id: //depot/dev/client3/rdock/2013.1/src/exe/rbdock.cxx#4 $)

>  <Rbt.Library>
libRbt.so (2013.1, Build901 2013/11/27)

>  <Rbt.Parameter_File>
/export/apps/rDock/src/rDock_2013.1_src/data/scripts/dock_solv.prm

>  <Rbt.Receptor>
prm/blind_docking_40.prm

>  <SCORE>
-14.5847

>  <SCORE.INTER>
-14.5847

>  <SCORE.INTER.CONST>
1

>  <SCORE.INTER.POLAR>
0

>  <SCORE.INTER.ROT>
0

>  <SCORE.INTER.SOLV>
7.61624

>  <SCORE.INTER.VDW>
-15.8619

>  <SCORE.INTER.norm>
-1.45847

>  <SCORE.INTRA>
0

>  <SCORE.INTRA.DIHEDRAL>
0

>  <SCORE.INTRA.DIHEDRAL.0>
0

>  <SCORE.INTRA.POLAR>
0

>  <SCORE.INTRA.POLAR.0>
0

>  <SCORE.INTRA.REPUL>
0

>  <SCORE.INTRA.REPUL.0>
0

>  <SCORE.INTRA.SOLV>
0

>  <SCORE.INTRA.SOLV.lig_0>
-23.8918

>  <SCORE.INTRA.VDW>
0

>  <SCORE.INTRA.VDW.0>
0

>  <SCORE.INTRA.norm>
0

>  <SCORE.RESTR>
0

>  <SCORE.RESTR.CAVITY>
0

>  <SCORE.RESTR.norm>
0

>  <SCORE.SYSTEM>
0

>  <SCORE.SYSTEM.CONST>
0

>  <SCORE.SYSTEM.DIHEDRAL>
0

>  <SCORE.SYSTEM.SOLV>
0

>  <SCORE.SYSTEM.norm>
0

>  <SCORE.heavy>
10

>  <SCORE.norm>
-1.45847

>  <RMSD>
0.729

$$$$
ligand
 OpenBabel11021811513D
libRbt.so/2013.1/901 2013/11/27
 10 11  0  0  0  0  0  0  0  0999 V2000
    5.9115   17.4872    2.5634 N   0  0  0  0  0  0  0  0  0  0  0  0
    6.7560   18.5235    2.4986 C   0  0  0  0  0  0  0  0  0  0  0  0
    7.1372   19.3558    3.4664 N   0  0  0  0  0  0  0  0  0  0  0  0
    6.5461   19.0374    4.6286 C   0  0  0  0  0  0  0  0  0  0  0  0
    5.6570   18.0038    4.8516 C   0  0  0  0  0  0  0  0  0  0  0  0
    5.3332   17.1921    3.7464 C   0  0  0  0  0  0  0  0  0  0  0  0
    4.4896   16.1576    3.8155 N   0  0  0  0  0  0  0  0  0  0  0  0
    5.2544   17.9799    6.1765 N   0  0  0  0  0  0  0  0  0  0  0  0
    5.8980   18.9861    6.7193 C   0  0  0  0  0  0  0  0  0  0  0  0
    6.6956   19.6680    5.8427 N   0  0  0  0  0  0  0  0  0  0  0  0
  1  2  2  0  0  0  0
  1  6  1  0  0  0  0
  2  3  1  0  0  0  0
  3  4  2  0  0  0  0
  4  5  1  0  0  0  0
  4 10  1  0  0  0  0
  5  6  2  0  0  0  0
  5  8  1  0  0  0  0
  6  7  1  0  0  0  0
  8  9  1  0  0  0  0
  9 10  2  0  0  0  0
M  END
>  <CHROM.1>
5.96247267,18.23074780,4.42645499,-1.79992679,0.86769596,1.22094224

>  <Name>
ligand

>  <RI>
0

>  <Rbt.Current_Directory>
/home/itssahil/PROJECTS/Mol_Feturizer/New_Systems/rnas/4XNR

>  <Rbt.Executable>
rbdock ($Id: //depot/dev/client3/rdock/2013.1/src/exe/rbdock.cxx#4 $)

>  <Rbt.Library>
libRbt.so (2013.1, Build901 2013/11/27)

>  <Rbt.Parameter_File>
/export/apps/rDock/src/rDock_2013.1_src/data/scripts/dock_solv.prm

>  <Rbt.Receptor>
prm/pocket_docking_5.prm

>  <SCORE>
-14.5316

>  <SCORE.INTER>
-14.5316

>  <SCORE.INTER.CONST>
1

>  <SCORE.INTER.POLAR>
0

>  <SCORE.INTER.ROT>
0

>  <SCORE.INTER.SOLV>
7.68721

>  <SCORE.INTER.VDW>
-15.8502

>  <SCORE.INTER.norm>
-1.45316

>  <SCORE.INTRA>
0

>  <SCORE.INTRA.DIHEDRAL>
0

>  <SCORE.INTRA.DIHEDRAL.0>
0

>  <SCORE.INTRA.POLAR>
0

>  <SCORE.INTRA.POLAR.0>
0

>  <SCORE.INTRA.REPUL>
0

>  <SCORE.INTRA.REPUL.0>
0

>  <SCORE.INTRA.SOLV>
0

>  <SCORE.INTRA.SOLV.lig_0>
-23.8918

>  <SCORE.INTRA.VDW>
0

>  <SCORE.INTRA.VDW.0>
0

>  <SCORE.INTRA.norm>
0

>  <SCORE.RESTR>
0

>  <SCORE.RESTR.CAVITY>
0

>  <SCORE.RESTR.norm>
0

>  <SCORE.SYSTEM>
0

>  <SCORE.SYSTEM.CONST>
0

>  <SCORE.SYSTEM.DIHEDRAL>
0

>  <SCORE.SYSTEM.SOLV>
0

>  <SCORE.SYSTEM.norm>
0

>  <SCORE.heavy>
10

>  <SCORE.norm>
-1.45316

>  <RMSD>
0.729

$$$$
ligand
 OpenBabel11021811513D
libRbt.so/2013.1/901 2013/11/27
 10 11  0  0  0  0  0  0  0  0999 V2000
    5.9077   17.3636    2.6292 N   0  0  0  0  0  0  0  0  0  0  0  0
    6.7985   18.3594    2.5507 C   0  0  0  0  0  0  0  0  0  0  0  0
    7.2005   19.2011    3.5018 N   0  0  0  0  0  0  0  0  0  0  0  0
    6.5771   18.9420    4.6617 C   0  0  0  0  0  0  0  0  0  0  0  0
    5.6393   17.9553    4.8975 C   0  0  0  0  0  0  0  0  0  0  0  0
    5.2977   17.1278    3.8096 C   0  0  0  0  0  0  0  0  0  0  0  0
    4.4078   16.1338    3.8924 N   0  0  0  0  0  0  0  0  0  0  0  0
    5.2146   17.9866    6.2154 N   0  0  0  0  0  0  0  0  0  0  0  0
    5.8935   18.9784    6.7415 C   0  0  0  0  0  0  0  0  0  0  0  0
    6.7347   19.5994    5.8605 N   0  0  0  0  0  0  0  0  0  0  0  0
  1  2  2  0  0  0  0
  1  6  1  0  0  0  0
  2  3  1  0  0  0  0
  3  4  2  0  0  0  0
  4  5  1  0  0  0  0
  4 10  1  0  0  0  0
  5  6  2  0  0  0  0
  5  8  1  0  0  0  0
  6  7  1  0  0  0  0
  8  9  1  0  0  0  0
  9 10  2  0  0  0  0
M  END
>  <CHROM.1>
5.96146380,18.15647587,4.47172193,-1.79992509,0.82027321,1.19303983

>  <Name>
ligand

>  <RI>
0

>  <Rbt.Current_Directory>
/home/itssahil/PROJECTS/Mol_Feturizer/New_Systems/rnas/4XNR

>  <Rbt.Executable>
rbdock ($Id: //depot/dev/client3/rdock/2013.1/src/exe/rbdock.cxx#4 $)

>  <Rbt.Library>
libRbt.so (2013.1, Build901 2013/11/27)

>  <Rbt.Parameter_File>
/export/apps/rDock/src/rDock_2013.1_src/data/scripts/dock_solv.prm

>  <Rbt.Receptor>
prm/pocket_docking_5.prm

>  <SCORE>
-14.5851

>  <SCORE.INTER>
-14.5851

>  <SCORE.INTER.CONST>
1

>  <SCORE.INTER.POLAR>
0

>  <SCORE.INTER.ROT>
0

>  <SCORE.INTER.SOLV>
7.64542

>  <SCORE.INTER.VDW>
-15.8719

>  <SCORE.INTER.norm>
-1.45851

>  <SCORE.INTRA>
0

>  <SCORE.INTRA.DIHEDRAL>
0

>  <SCORE.INTRA.DIHEDRAL.0>
0

>  <SCORE.INTRA.POLAR>
0

>  <SCORE.INTRA.POLAR.0>
0

>  <SCORE.INTRA.REPUL>
0

>  <SCORE.INTRA.REPUL.0>
0

>  <SCORE.INTRA.SOLV>
0

>  <SCORE.INTRA.SOLV.lig_0>
-23.8918

>  <SCORE.INTRA.VDW>
0

>  <SCORE.INTRA.VDW.0>
0

>  <SCORE.INTRA.norm>
0

>  <SCORE.RESTR>
0

>  <SCORE.RESTR.CAVITY>
0

>  <SCORE.RESTR.norm>
0

>  <SCORE.SYSTEM>
0

>  <SCORE.SYSTEM.CONST>
0

>  <SCORE.SYSTEM.DIHEDRAL>
0

>  <SCORE.SYSTEM.SOLV>
0

>  <SCORE.SYSTEM.norm>
0

>  <SCORE.heavy>
10

>  <SCORE.norm>
-1.45851

>  <RMSD>
0.729

$$$$
ligand
 OpenBabel11021811513D
libRbt.so/2013.1/901 2013/11/27
 10 11  0  0  0  0  0  0  0  0999 V2000
    5.9105   17.4040    2.6040 N   0  0  0  0  0  0  0  0  0  0  0  0
    6.8290   18.3749    2.5323 C   0  0  0  0  0  0  0  0  0  0  0  0
    7.2512   19.2014    3.4880 N   0  0  0  0  0  0  0  0  0  0  0  0
    6.6169   18.9554    4.6448 C   0  0  0  0  0  0  0  0  0  0  0  0
    5.6511   17.9944    4.8737 C   0  0  0  0  0  0  0  0  0  0  0  0
    5.2902   17.1809    3.7814 C   0  0  0  0  0  0  0  0  0  0  0  0
    4.3727   16.2118    3.8574 N   0  0  0  0  0  0  0  0  0  0  0  0
    5.2230   18.0324    6.1903 N   0  0  0  0  0  0  0  0  0  0  0  0
    5.9275   19.0029    6.7225 C   0  0  0  0  0  0  0  0  0  0  0  0
    6.7887   19.6036    5.8467 N   0  0  0  0  0  0  0  0  0  0  0  0
  1  2  2  0  0  0  0
  1  6  1  0  0  0  0
  2  3  1  0  0  0  0
  3  4  2  0  0  0  0
  4  5  1  0  0  0  0
  4 10  1  0  0  0  0
  5  6  2  0  0  0  0
  5  8  1  0  0  0  0
  6  7  1  0  0  0  0
  8  9  1  0  0  0  0
  9 10  2  0  0  0  0
M  END
>  <CHROM.1>
5.98017264,18.18807276,4.44974195,-1.81011456,0.79306435,1.20426978

>  <Name>
ligand

>  <RI>
0

>  <Rbt.Current_Directory>
/home/itssahil/PROJECTS/Mol_Feturizer/New_Systems/rnas/4XNR

>  <Rbt.Executable>
rbdock ($Id: //depot/dev/client3/rdock/2013.1/src/exe/rbdock.cxx#4 $)

>  <Rbt.Library>
libRbt.so (2013.1, Build901 2013/11/27)

>  <Rbt.Parameter_File>
/export/apps/rDock/src/rDock_2013.1_src/data/scripts/dock_solv.prm

>  <Rbt.Receptor>
prm/pocket_docking_8.prm

>  <SCORE>
-14.5683

>  <SCORE.INTER>
-14.5683

>  <SCORE.INTER.CONST>
1

>  <SCORE.INTER.POLAR>
0

>  <SCORE.INTER.ROT>
0

>  <SCORE.INTER.SOLV>
7.37426

>  <SCORE.INTER.VDW>
-15.7703

>  <SCORE.INTER.norm>
-1.45683

>  <SCORE.INTRA>
0

>  <SCORE.INTRA.DIHEDRAL>
0

>  <SCORE.INTRA.DIHEDRAL.0>
0

>  <SCORE.INTRA.POLAR>
0

>  <SCORE.INTRA.POLAR.0>
0

>  <SCORE.INTRA.REPUL>
0

>  <SCORE.INTRA.REPUL.0>
0

>  <SCORE.INTRA.SOLV>
0

>  <SCORE.INTRA.SOLV.lig_0>
-23.8918

>  <SCORE.INTRA.VDW>
0

>  <SCORE.INTRA.VDW.0>
0

>  <SCORE.INTRA.norm>
0

>  <SCORE.RESTR>
0

>  <SCORE.RESTR.CAVITY>
0

>  <SCORE.RESTR.norm>
0

>  <SCORE.SYSTEM>
0

>  <SCORE.SYSTEM.CONST>
0

>  <SCORE.SYSTEM.DIHEDRAL>
0

>  <SCORE.SYSTEM.SOLV>
0

>  <SCORE.SYSTEM.norm>
0

>  <SCORE.heavy>
10

>  <SCORE.norm>
-1.45683

>  <RMSD>
0.729

$$$$
ligand
 OpenBabel11021811513D
libRbt.so/2013.1/901 2013/11/27
 10 11  0  0  0  0  0  0  0  0999 V2000
    5.8995   17.3559    2.6337 N   0  0  0  0  0  0  0  0  0  0  0  0
    6.7844   18.3568    2.5525 C   0  0  0  0  0  0  0  0  0  0  0  0
    7.1810   19.2037    3.5013 N   0  0  0  0  0  0  0  0  0  0  0  0
    6.5586   18.9445    4.6617 C   0  0  0  0  0  0  0  0  0  0  0  0
    5.6266   17.9529    4.9001 C   0  0  0  0  0  0  0  0  0  0  0  0
    5.2904   17.1201    3.8146 C   0  0  0  0  0  0  0  0  0  0  0  0
    4.4064   16.1211    3.9000 N   0  0  0  0  0  0  0  0  0  0  0  0
    5.2011   17.9856    6.2177 N   0  0  0  0  0  0  0  0  0  0  0  0
    5.8739   18.9831    6.7410 C   0  0  0  0  0  0  0  0  0  0  0  0
    6.7118   19.6064    5.8585 N   0  0  0  0  0  0  0  0  0  0  0  0
  1  2  2  0  0  0  0
  1  6  1  0  0  0  0
  2  3  1  0  0  0  0
  3  4  2  0  0  0  0
  4  5  1  0  0  0  0
  4 10  1  0  0  0  0
  5  6  2  0  0  0  0
  5  8  1  0  0  0  0
  6  7  1  0  0  0  0
  8  9  1  0  0  0  0
  9 10  2  0  0  0  0
M  END
>  <CHROM.1>
5.94772505,18.15468811,4.47381390,-1.79609293,0.82565208,1.18720448

>  <Name>
ligand

>  <RI>
0

>  <Rbt.Current_Directory>
/home/itssahil/PROJECTS/Mol_Feturizer/New_Systems/rnas/4XNR

>  <Rbt.Executable>
rbdock ($Id: //depot/dev/client3/rdock/2013.1/src/exe/rbdock.cxx#4 $)

>  <Rbt.Library>
libRbt.so (2013.1, Build901 2013/11/27)

>  <Rbt.Parameter_File>
/export/apps/rDock/src/rDock_2013.1_src/data/scripts/dock_solv.prm

>  <Rbt.Receptor>
prm/pocket_docking_3.prm

>  <SCORE>
-14.5752

>  <SCORE.INTER>
-14.5752

>  <SCORE.INTER.CONST>
1

>  <SCORE.INTER.POLAR>
0

>  <SCORE.INTER.ROT>
0

>  <SCORE.INTER.SOLV>
7.69239

>  <SCORE.INTER.VDW>
-15.8809

>  <SCORE.INTER.norm>
-1.45752

>  <SCORE.INTRA>
0

>  <SCORE.INTRA.DIHEDRAL>
0

>  <SCORE.INTRA.DIHEDRAL.0>
0

>  <SCORE.INTRA.POLAR>
0

>  <SCORE.INTRA.POLAR.0>
0

>  <SCORE.INTRA.REPUL>
0

>  <SCORE.INTRA.REPUL.0>
0

>  <SCORE.INTRA.SOLV>
0

>  <SCORE.INTRA.SOLV.lig_0>
-23.8918

>  <SCORE.INTRA.VDW>
0

>  <SCORE.INTRA.VDW.0>
0

>  <SCORE.INTRA.norm>
0

>  <SCORE.RESTR>
0

>  <SCORE.RESTR.CAVITY>
0

>  <SCORE.RESTR.norm>
0

>  <SCORE.SYSTEM>
0

>  <SCORE.SYSTEM.CONST>
0

>  <SCORE.SYSTEM.DIHEDRAL>
0

>  <SCORE.SYSTEM.SOLV>
0

>  <SCORE.SYSTEM.norm>
0

>  <SCORE.heavy>
10

>  <SCORE.norm>
-1.45752

>  <RMSD>
0.730

$$$$
ligand
 OpenBabel11021811513D
libRbt.so/2013.1/901 2013/11/27
 10 11  0  0  0  0  0  0  0  0999 V2000
    5.8986   17.3675    2.6284 N   0  0  0  0  0  0  0  0  0  0  0  0
    6.7917   18.3610    2.5475 C   0  0  0  0  0  0  0  0  0  0  0  0
    7.1992   19.2011    3.4978 N   0  0  0  0  0  0  0  0  0  0  0  0
    6.5790   18.9429    4.6596 C   0  0  0  0  0  0  0  0  0  0  0  0
    5.6394   17.9585    4.8979 C   0  0  0  0  0  0  0  0  0  0  0  0
    5.2920   17.1326    3.8107 C   0  0  0  0  0  0  0  0  0  0  0  0
    4.3998   16.1409    3.8959 N   0  0  0  0  0  0  0  0  0  0  0  0
    5.2192   17.9901    6.2173 N   0  0  0  0  0  0  0  0  0  0  0  0
    5.9024   18.9798    6.7417 C   0  0  0  0  0  0  0  0  0  0  0  0
    6.7423   19.5992    5.8582 N   0  0  0  0  0  0  0  0  0  0  0  0
  1  2  2  0  0  0  0
  1  6  1  0  0  0  0
  2  3  1  0  0  0  0
  3  4  2  0  0  0  0
  4  5  1  0  0  0  0
  4 10  1  0  0  0  0
  5  6  2  0  0  0  0
  5  8  1  0  0  0  0
  6  7  1  0  0  0  0
  8  9  1  0  0  0  0
  9 10  2  0  0  0  0
M  END
>  <CHROM.1>
5.96063400,18.15910229,4.47121778,-1.80591877,0.81907018,1.19804425

>  <Name>
ligand

>  <RI>
0

>  <Rbt.Current_Directory>
/home/itssahil/PROJECTS/Mol_Feturizer/New_Systems/rnas/4XNR

>  <Rbt.Executable>
rbdock ($Id: //depot/dev/client3/rdock/2013.1/src/exe/rbdock.cxx#4 $)

>  <Rbt.Library>
libRbt.so (2013.1, Build901 2013/11/27)

>  <Rbt.Parameter_File>
/export/apps/rDock/src/rDock_2013.1_src/data/scripts/dock_solv.prm

>  <Rbt.Receptor>
prm/pocket_docking_7.prm

>  <SCORE>
-14.59

>  <SCORE.INTER>
-14.59

>  <SCORE.INTER.CONST>
1

>  <SCORE.INTER.POLAR>
0

>  <SCORE.INTER.ROT>
0

>  <SCORE.INTER.SOLV>
7.62798

>  <SCORE.INTER.VDW>
-15.8693

>  <SCORE.INTER.norm>
-1.459

>  <SCORE.INTRA>
0

>  <SCORE.INTRA.DIHEDRAL>
0

>  <SCORE.INTRA.DIHEDRAL.0>
0

>  <SCORE.INTRA.POLAR>
0

>  <SCORE.INTRA.POLAR.0>
0

>  <SCORE.INTRA.REPUL>
0

>  <SCORE.INTRA.REPUL.0>
0

>  <SCORE.INTRA.SOLV>
0

>  <SCORE.INTRA.SOLV.lig_0>
-23.8918

>  <SCORE.INTRA.VDW>
0

>  <SCORE.INTRA.VDW.0>
0

>  <SCORE.INTRA.norm>
0

>  <SCORE.RESTR>
0

>  <SCORE.RESTR.CAVITY>
0

>  <SCORE.RESTR.norm>
0

>  <SCORE.SYSTEM>
0

>  <SCORE.SYSTEM.CONST>
0

>  <SCORE.SYSTEM.DIHEDRAL>
0

>  <SCORE.SYSTEM.SOLV>
0

>  <SCORE.SYSTEM.norm>
0

>  <SCORE.heavy>
10

>  <SCORE.norm>
-1.459

>  <RMSD>
0.730

$$$$
ligand
 OpenBabel11021811513D
libRbt.so/2013.1/901 2013/11/27
 10 11  0  0  0  0  0  0  0  0999 V2000
    5.9040   17.3811    2.6222 N   0  0  0  0  0  0  0  0  0  0  0  0
    6.8050   18.3675    2.5410 C   0  0  0  0  0  0  0  0  0  0  0  0
    7.2240   19.2001    3.4928 N   0  0  0  0  0  0  0  0  0  0  0  0
    6.6073   18.9423    4.6566 C   0  0  0  0  0  0  0  0  0  0  0  0
    5.6608   17.9647    4.8954 C   0  0  0  0  0  0  0  0  0  0  0  0
    5.3012   17.1462    3.8065 C   0  0  0  0  0  0  0  0  0  0  0  0
    4.4012   16.1616    3.8919 N   0  0  0  0  0  0  0  0  0  0  0  0
    5.2473   17.9942    6.2169 N   0  0  0  0  0  0  0  0  0  0  0  0
    5.9412   18.9760    6.7420 C   0  0  0  0  0  0  0  0  0  0  0  0
    6.7819   19.5921    5.8571 N   0  0  0  0  0  0  0  0  0  0  0  0
  1  2  2  0  0  0  0
  1  6  1  0  0  0  0
  2  3  1  0  0  0  0
  3  4  2  0  0  0  0
  4  5  1  0  0  0  0
  4 10  1  0  0  0  0
  5  6  2  0  0  0  0
  5  8  1  0  0  0  0
  6  7  1  0  0  0  0
  8  9  1  0  0  0  0
  9 10  2  0  0  0  0
M  END
>  <CHROM.1>
5.98157746,18.16439493,4.46792846,-1.81690883,0.81309008,1.21021281

>  <Name>
ligand

>  <RI>
0

>  <Rbt.Current_Directory>
/home/itssahil/PROJECTS/Mol_Feturizer/New_Systems/rnas/4XNR

>  <Rbt.Executable>
rbdock ($Id: //depot/dev/client3/rdock/2013.1/src/exe/rbdock.cxx#4 $)

>  <Rbt.Library>
libRbt.so (2013.1, Build901 2013/11/27)

>  <Rbt.Parameter_File>
/export/apps/rDock/src/rDock_2013.1_src/data/scripts/dock_solv.prm

>  <Rbt.Receptor>
prm/pocket_docking_8.prm

>  <SCORE>
-14.5768

>  <SCORE.INTER>
-14.5768

>  <SCORE.INTER.CONST>
1

>  <SCORE.INTER.POLAR>
0

>  <SCORE.INTER.ROT>
0

>  <SCORE.INTER.SOLV>
7.57599

>  <SCORE.INTER.VDW>
-15.8432

>  <SCORE.INTER.norm>
-1.45768

>  <SCORE.INTRA>
0

>  <SCORE.INTRA.DIHEDRAL>
0

>  <SCORE.INTRA.DIHEDRAL.0>
0

>  <SCORE.INTRA.POLAR>
0

>  <SCORE.INTRA.POLAR.0>
0

>  <SCORE.INTRA.REPUL>
0

>  <SCORE.INTRA.REPUL.0>
0

>  <SCORE.INTRA.SOLV>
0

>  <SCORE.INTRA.SOLV.lig_0>
-23.8918

>  <SCORE.INTRA.VDW>
0

>  <SCORE.INTRA.VDW.0>
0

>  <SCORE.INTRA.norm>
0

>  <SCORE.RESTR>
0

>  <SCORE.RESTR.CAVITY>
0

>  <SCORE.RESTR.norm>
0

>  <SCORE.SYSTEM>
0

>  <SCORE.SYSTEM.CONST>
0

>  <SCORE.SYSTEM.DIHEDRAL>
0

>  <SCORE.SYSTEM.SOLV>
0

>  <SCORE.SYSTEM.norm>
0

>  <SCORE.heavy>
10

>  <SCORE.norm>
-1.45768

>  <RMSD>
0.730

$$$$
ligand
 OpenBabel11021811513D
libRbt.so/2013.1/901 2013/11/27
 10 11  0  0  0  0  0  0  0  0999 V2000
    5.9190   17.3800    2.6236 N   0  0  0  0  0  0  0  0  0  0  0  0
    6.8163   18.3701    2.5470 C   0  0  0  0  0  0  0  0  0  0  0  0
    7.2264   19.2051    3.5006 N   0  0  0  0  0  0  0  0  0  0  0  0
    6.6040   18.9455    4.6609 C   0  0  0  0  0  0  0  0  0  0  0  0
    5.6601   17.9642    4.8949 C   0  0  0  0  0  0  0  0  0  0  0  0
    5.3102   17.1435    3.8045 C   0  0  0  0  0  0  0  0  0  0  0  0
    4.4139   16.1552    3.8853 N   0  0  0  0  0  0  0  0  0  0  0  0
    5.2387   17.9929    6.2139 N   0  0  0  0  0  0  0  0  0  0  0  0
    5.9256   18.9779    6.7424 C   0  0  0  0  0  0  0  0  0  0  0  0
    6.7689   19.5968    5.8620 N   0  0  0  0  0  0  0  0  0  0  0  0
  1  2  2  0  0  0  0
  1  6  1  0  0  0  0
  2  3  1  0  0  0  0
  3  4  2  0  0  0  0
  4  5  1  0  0  0  0
  4 10  1  0  0  0  0
  5  6  2  0  0  0  0
  5  8  1  0  0  0  0
  6  7  1  0  0  0  0
  8  9  1  0  0  0  0
  9 10  2  0  0  0  0
M  END
>  <CHROM.1>
5.98255796,18.16488931,4.46917624,-1.80681805,0.81484543,1.20218732

>  <Name>
ligand

>  <RI>
0

>  <Rbt.Current_Directory>
/home/itssahil/PROJECTS/Mol_Feturizer/New_Systems/rnas/4XNR

>  <Rbt.Executable>
rbdock ($Id: //depot/dev/client3/rdock/2013.1/src/exe/rbdock.cxx#4 $)

>  <Rbt.Library>
libRbt.so (2013.1, Build901 2013/11/27)

>  <Rbt.Parameter_File>
/export/apps/rDock/src/rDock_2013.1_src/data/scripts/dock_solv.prm

>  <Rbt.Receptor>
prm/blind_docking_60.prm

>  <SCORE>
-14.5768

>  <SCORE.INTER>
-14.5768

>  <SCORE.INTER.CONST>
1

>  <SCORE.INTER.POLAR>
0

>  <SCORE.INTER.ROT>
0

>  <SCORE.INTER.SOLV>
7.5942

>  <SCORE.INTER.VDW>
-15.8493

>  <SCORE.INTER.norm>
-1.45768

>  <SCORE.INTRA>
0

>  <SCORE.INTRA.DIHEDRAL>
0

>  <SCORE.INTRA.DIHEDRAL.0>
0

>  <SCORE.INTRA.POLAR>
0

>  <SCORE.INTRA.POLAR.0>
0

>  <SCORE.INTRA.REPUL>
0

>  <SCORE.INTRA.REPUL.0>
0

>  <SCORE.INTRA.SOLV>
0

>  <SCORE.INTRA.SOLV.lig_0>
-23.8918

>  <SCORE.INTRA.VDW>
0

>  <SCORE.INTRA.VDW.0>
0

>  <SCORE.INTRA.norm>
0

>  <SCORE.RESTR>
0

>  <SCORE.RESTR.CAVITY>
0

>  <SCORE.RESTR.norm>
0

>  <SCORE.SYSTEM>
0

>  <SCORE.SYSTEM.CONST>
0

>  <SCORE.SYSTEM.DIHEDRAL>
0

>  <SCORE.SYSTEM.SOLV>
0

>  <SCORE.SYSTEM.norm>
0

>  <SCORE.heavy>
10

>  <SCORE.norm>
-1.45768

>  <RMSD>
0.731

$$$$
ligand
 OpenBabel11021811513D
libRbt.so/2013.1/901 2013/11/27
 10 11  0  0  0  0  0  0  0  0999 V2000
    6.0392   17.4164    2.5944 N   0  0  0  0  0  0  0  0  0  0  0  0
    6.7760   18.5306    2.5102 C   0  0  0  0  0  0  0  0  0  0  0  0
    7.0730   19.4128    3.4632 N   0  0  0  0  0  0  0  0  0  0  0  0
    6.5178   19.0566    4.6319 C   0  0  0  0  0  0  0  0  0  0  0  0
    5.7365   17.9433    4.8743 C   0  0  0  0  0  0  0  0  0  0  0  0
    5.4943   17.0849    3.7836 C   0  0  0  0  0  0  0  0  0  0  0  0
    4.7582   15.9727    3.8720 N   0  0  0  0  0  0  0  0  0  0  0  0
    5.3395   17.9014    6.2005 N   0  0  0  0  0  0  0  0  0  0  0  0
    5.8799   18.9758    6.7249 C   0  0  0  0  0  0  0  0  0  0  0  0
    6.6046   19.7191    5.8350 N   0  0  0  0  0  0  0  0  0  0  0  0
  1  2  2  0  0  0  0
  1  6  1  0  0  0  0
  2  3  1  0  0  0  0
  3  4  2  0  0  0  0
  4  5  1  0  0  0  0
  4 10  1  0  0  0  0
  5  6  2  0  0  0  0
  5  8  1  0  0  0  0
  6  7  1  0  0  0  0
  8  9  1  0  0  0  0
  9 10  2  0  0  0  0
M  END
>  <CHROM.1>
6.01737808,18.19239570,4.44470741,-1.74162212,0.96118026,1.15801623

>  <Name>
ligand

>  <RI>
0

>  <Rbt.Current_Directory>
/home/itssahil/PROJECTS/Mol_Feturizer/New_Systems/rnas/4XNR

>  <Rbt.Executable>
rbdock ($Id: //depot/dev/client3/rdock/2013.1/src/exe/rbdock.cxx#4 $)

>  <Rbt.Library>
libRbt.so (2013.1, Build901 2013/11/27)

>  <Rbt.Parameter_File>
/export/apps/rDock/src/rDock_2013.1_src/data/scripts/dock_solv.prm

>  <Rbt.Receptor>
prm/pocket_docking_4.prm

>  <SCORE>
-14.5071

>  <SCORE.INTER>
-14.5071

>  <SCORE.INTER.CONST>
1

>  <SCORE.INTER.POLAR>
0

>  <SCORE.INTER.ROT>
0

>  <SCORE.INTER.SOLV>
8.91299

>  <SCORE.INTER.VDW>
-16.2424

>  <SCORE.INTER.norm>
-1.45071

>  <SCORE.INTRA>
0

>  <SCORE.INTRA.DIHEDRAL>
0

>  <SCORE.INTRA.DIHEDRAL.0>
0

>  <SCORE.INTRA.POLAR>
0

>  <SCORE.INTRA.POLAR.0>
0

>  <SCORE.INTRA.REPUL>
0

>  <SCORE.INTRA.REPUL.0>
0

>  <SCORE.INTRA.SOLV>
0

>  <SCORE.INTRA.SOLV.lig_0>
-23.8918

>  <SCORE.INTRA.VDW>
0

>  <SCORE.INTRA.VDW.0>
0

>  <SCORE.INTRA.norm>
0

>  <SCORE.RESTR>
0

>  <SCORE.RESTR.CAVITY>
0

>  <SCORE.RESTR.norm>
0

>  <SCORE.SYSTEM>
0

>  <SCORE.SYSTEM.CONST>
0

>  <SCORE.SYSTEM.DIHEDRAL>
0

>  <SCORE.SYSTEM.SOLV>
0

>  <SCORE.SYSTEM.norm>
0

>  <SCORE.heavy>
10

>  <SCORE.norm>
-1.45071

>  <RMSD>
0.731

$$$$
ligand
 OpenBabel11021811513D
libRbt.so/2013.1/901 2013/11/27
 10 11  0  0  0  0  0  0  0  0999 V2000
    5.9027   17.3737    2.6264 N   0  0  0  0  0  0  0  0  0  0  0  0
    6.8000   18.3637    2.5498 C   0  0  0  0  0  0  0  0  0  0  0  0
    7.2099   19.1989    3.5033 N   0  0  0  0  0  0  0  0  0  0  0  0
    6.5873   18.9395    4.6636 C   0  0  0  0  0  0  0  0  0  0  0  0
    5.6434   17.9582    4.8976 C   0  0  0  0  0  0  0  0  0  0  0  0
    5.2938   17.1373    3.8073 C   0  0  0  0  0  0  0  0  0  0  0  0
    4.3974   16.1490    3.8882 N   0  0  0  0  0  0  0  0  0  0  0  0
    5.2219   17.9871    6.2166 N   0  0  0  0  0  0  0  0  0  0  0  0
    5.9086   18.9723    6.7450 C   0  0  0  0  0  0  0  0  0  0  0  0
    6.7521   19.5911    5.8645 N   0  0  0  0  0  0  0  0  0  0  0  0
  1  2  2  0  0  0  0
  1  6  1  0  0  0  0
  2  3  1  0  0  0  0
  3  4  2  0  0  0  0
  4  5  1  0  0  0  0
  4 10  1  0  0  0  0
  5  6  2  0  0  0  0
  5  8  1  0  0  0  0
  6  7  1  0  0  0  0
  8  9  1  0  0  0  0
  9 10  2  0  0  0  0
M  END
>  <CHROM.1>
5.96596881,18.15887872,4.47189736,-1.80661013,0.81483226,1.20186295

>  <Name>
ligand

>  <RI>
0

>  <Rbt.Current_Directory>
/home/itssahil/PROJECTS/Mol_Feturizer/New_Systems/rnas/4XNR

>  <Rbt.Executable>
rbdock ($Id: //depot/dev/client3/rdock/2013.1/src/exe/rbdock.cxx#4 $)

>  <Rbt.Library>
libRbt.so (2013.1, Build901 2013/11/27)

>  <Rbt.Parameter_File>
/export/apps/rDock/src/rDock_2013.1_src/data/scripts/dock_solv.prm

>  <Rbt.Receptor>
prm/pocket_docking_6.prm

>  <SCORE>
-14.5901

>  <SCORE.INTER>
-14.5901

>  <SCORE.INTER.CONST>
1

>  <SCORE.INTER.POLAR>
0

>  <SCORE.INTER.ROT>
0

>  <SCORE.INTER.SOLV>
7.58497

>  <SCORE.INTER.VDW>
-15.8551

>  <SCORE.INTER.norm>
-1.45901

>  <SCORE.INTRA>
0

>  <SCORE.INTRA.DIHEDRAL>
0

>  <SCORE.INTRA.DIHEDRAL.0>
0

>  <SCORE.INTRA.POLAR>
0

>  <SCORE.INTRA.POLAR.0>
0

>  <SCORE.INTRA.REPUL>
0

>  <SCORE.INTRA.REPUL.0>
0

>  <SCORE.INTRA.SOLV>
0

>  <SCORE.INTRA.SOLV.lig_0>
-23.8918

>  <SCORE.INTRA.VDW>
0

>  <SCORE.INTRA.VDW.0>
0

>  <SCORE.INTRA.norm>
0

>  <SCORE.RESTR>
0

>  <SCORE.RESTR.CAVITY>
0

>  <SCORE.RESTR.norm>
0

>  <SCORE.SYSTEM>
0

>  <SCORE.SYSTEM.CONST>
0

>  <SCORE.SYSTEM.DIHEDRAL>
0

>  <SCORE.SYSTEM.SOLV>
0

>  <SCORE.SYSTEM.norm>
0

>  <SCORE.heavy>
10

>  <SCORE.norm>
-1.45901

>  <RMSD>
0.731

$$$$
ligand
 OpenBabel11021811513D
libRbt.so/2013.1/901 2013/11/27
 10 11  0  0  0  0  0  0  0  0999 V2000
    5.9203   17.3878    2.6208 N   0  0  0  0  0  0  0  0  0  0  0  0
    6.8225   18.3732    2.5408 C   0  0  0  0  0  0  0  0  0  0  0  0
    7.2416   19.2050    3.4933 N   0  0  0  0  0  0  0  0  0  0  0  0
    6.6236   18.9474    4.6565 C   0  0  0  0  0  0  0  0  0  0  0  0
    5.6757   17.9708    4.8940 C   0  0  0  0  0  0  0  0  0  0  0  0
    5.3162   17.1532    3.8044 C   0  0  0  0  0  0  0  0  0  0  0  0
    4.4150   16.1696    3.8886 N   0  0  0  0  0  0  0  0  0  0  0  0
    5.2610   18.0002    6.2151 N   0  0  0  0  0  0  0  0  0  0  0  0
    5.9557   18.9810    6.7413 C   0  0  0  0  0  0  0  0  0  0  0  0
    6.7979   19.5965    5.8574 N   0  0  0  0  0  0  0  0  0  0  0  0
  1  2  2  0  0  0  0
  1  6  1  0  0  0  0
  2  3  1  0  0  0  0
  3  4  2  0  0  0  0
  4  5  1  0  0  0  0
  4 10  1  0  0  0  0
  5  6  2  0  0  0  0
  5  8  1  0  0  0  0
  6  7  1  0  0  0  0
  8  9  1  0  0  0  0
  9 10  2  0  0  0  0
M  END
>  <CHROM.1>
5.99714713,18.17027085,4.46691699,-1.81628095,0.81168013,1.21019234

>  <Name>
ligand

>  <RI>
0

>  <Rbt.Current_Directory>
/home/itssahil/PROJECTS/Mol_Feturizer/New_Systems/rnas/4XNR

>  <Rbt.Executable>
rbdock ($Id: //depot/dev/client3/rdock/2013.1/src/exe/rbdock.cxx#4 $)

>  <Rbt.Library>
libRbt.so (2013.1, Build901 2013/11/27)

>  <Rbt.Parameter_File>
/export/apps/rDock/src/rDock_2013.1_src/data/scripts/dock_solv.prm

>  <Rbt.Receptor>
prm/pocket_docking_3.prm

>  <SCORE>
-14.5873

>  <SCORE.INTER>
-14.5873

>  <SCORE.INTER.CONST>
1

>  <SCORE.INTER.POLAR>
0

>  <SCORE.INTER.ROT>
0

>  <SCORE.INTER.SOLV>
7.57423

>  <SCORE.INTER.VDW>
-15.8496

>  <SCORE.INTER.norm>
-1.45873

>  <SCORE.INTRA>
0

>  <SCORE.INTRA.DIHEDRAL>
0

>  <SCORE.INTRA.DIHEDRAL.0>
0

>  <SCORE.INTRA.POLAR>
0

>  <SCORE.INTRA.POLAR.0>
0

>  <SCORE.INTRA.REPUL>
0

>  <SCORE.INTRA.REPUL.0>
0

>  <SCORE.INTRA.SOLV>
0

>  <SCORE.INTRA.SOLV.lig_0>
-23.8918

>  <SCORE.INTRA.VDW>
0

>  <SCORE.INTRA.VDW.0>
0

>  <SCORE.INTRA.norm>
0

>  <SCORE.RESTR>
0

>  <SCORE.RESTR.CAVITY>
0

>  <SCORE.RESTR.norm>
0

>  <SCORE.SYSTEM>
0

>  <SCORE.SYSTEM.CONST>
0

>  <SCORE.SYSTEM.DIHEDRAL>
0

>  <SCORE.SYSTEM.SOLV>
0

>  <SCORE.SYSTEM.norm>
0

>  <SCORE.heavy>
10

>  <SCORE.norm>
-1.45873

>  <RMSD>
0.732

$$$$
ligand
 OpenBabel11021811513D
libRbt.so/2013.1/901 2013/11/27
 10 11  0  0  0  0  0  0  0  0999 V2000
    5.8743   17.4123    2.6112 N   0  0  0  0  0  0  0  0  0  0  0  0
    6.7365   18.4314    2.5138 C   0  0  0  0  0  0  0  0  0  0  0  0
    7.1325   19.2870    3.4549 N   0  0  0  0  0  0  0  0  0  0  0  0
    6.5369   19.0155    4.6266 C   0  0  0  0  0  0  0  0  0  0  0  0
    5.6303   18.0048    4.8821 C   0  0  0  0  0  0  0  0  0  0  0  0
    5.2918   17.1645    3.8030 C   0  0  0  0  0  0  0  0  0  0  0  0
    4.4306   16.1473    3.9047 N   0  0  0  0  0  0  0  0  0  0  0  0
    5.2283   18.0294    6.2072 N   0  0  0  0  0  0  0  0  0  0  0  0
    5.8895   19.0409    6.7180 C   0  0  0  0  0  0  0  0  0  0  0  0
    6.6980   19.6811    5.8203 N   0  0  0  0  0  0  0  0  0  0  0  0
  1  2  2  0  0  0  0
  1  6  1  0  0  0  0
  2  3  1  0  0  0  0
  3  4  2  0  0  0  0
  4  5  1  0  0  0  0
  4 10  1  0  0  0  0
  5  6  2  0  0  0  0
  5  8  1  0  0  0  0
  6  7  1  0  0  0  0
  8  9  1  0  0  0  0
  9 10  2  0  0  0  0
M  END
>  <CHROM.1>
5.93933272,18.21298386,4.44999696,-1.80985769,0.85177727,1.19705953

>  <Name>
ligand

>  <RI>
0

>  <Rbt.Current_Directory>
/home/itssahil/PROJECTS/Mol_Feturizer/New_Systems/rnas/4XNR

>  <Rbt.Executable>
rbdock ($Id: //depot/dev/client3/rdock/2013.1/src/exe/rbdock.cxx#4 $)

>  <Rbt.Library>
libRbt.so (2013.1, Build901 2013/11/27)

>  <Rbt.Parameter_File>
/export/apps/rDock/src/rDock_2013.1_src/data/scripts/dock_solv.prm

>  <Rbt.Receptor>
prm/pocket_docking_3.prm

>  <SCORE>
-14.5311

>  <SCORE.INTER>
-14.5311

>  <SCORE.INTER.CONST>
1

>  <SCORE.INTER.POLAR>
0

>  <SCORE.INTER.ROT>
0

>  <SCORE.INTER.SOLV>
7.73288

>  <SCORE.INTER.VDW>
-15.865

>  <SCORE.INTER.norm>
-1.45311

>  <SCORE.INTRA>
0

>  <SCORE.INTRA.DIHEDRAL>
0

>  <SCORE.INTRA.DIHEDRAL.0>
0

>  <SCORE.INTRA.POLAR>
0

>  <SCORE.INTRA.POLAR.0>
0

>  <SCORE.INTRA.REPUL>
0

>  <SCORE.INTRA.REPUL.0>
0

>  <SCORE.INTRA.SOLV>
0

>  <SCORE.INTRA.SOLV.lig_0>
-23.8918

>  <SCORE.INTRA.VDW>
0

>  <SCORE.INTRA.VDW.0>
0

>  <SCORE.INTRA.norm>
0

>  <SCORE.RESTR>
0

>  <SCORE.RESTR.CAVITY>
0

>  <SCORE.RESTR.norm>
0

>  <SCORE.SYSTEM>
0

>  <SCORE.SYSTEM.CONST>
0

>  <SCORE.SYSTEM.DIHEDRAL>
0

>  <SCORE.SYSTEM.SOLV>
0

>  <SCORE.SYSTEM.norm>
0

>  <SCORE.heavy>
10

>  <SCORE.norm>
-1.45311

>  <RMSD>
0.732

$$$$
ligand
 OpenBabel11021811513D
libRbt.so/2013.1/901 2013/11/27
 10 11  0  0  0  0  0  0  0  0999 V2000
    5.9088   17.3774    2.6328 N   0  0  0  0  0  0  0  0  0  0  0  0
    6.7612   18.4039    2.5270 C   0  0  0  0  0  0  0  0  0  0  0  0
    7.1514   19.2688    3.4620 N   0  0  0  0  0  0  0  0  0  0  0  0
    6.5613   18.9989    4.6367 C   0  0  0  0  0  0  0  0  0  0  0  0
    5.6648   17.9814    4.9006 C   0  0  0  0  0  0  0  0  0  0  0  0
    5.3316   17.1314    3.8274 C   0  0  0  0  0  0  0  0  0  0  0  0
    4.4802   16.1069    3.9374 N   0  0  0  0  0  0  0  0  0  0  0  0
    5.2658   18.0102    6.2265 N   0  0  0  0  0  0  0  0  0  0  0  0
    5.9187   19.0310    6.7296 C   0  0  0  0  0  0  0  0  0  0  0  0
    6.7190   19.6733    5.8260 N   0  0  0  0  0  0  0  0  0  0  0  0
  1  2  2  0  0  0  0
  1  6  1  0  0  0  0
  2  3  1  0  0  0  0
  3  4  2  0  0  0  0
  4  5  1  0  0  0  0
  4 10  1  0  0  0  0
  5  6  2  0  0  0  0
  5  8  1  0  0  0  0
  6  7  1  0  0  0  0
  8  9  1  0  0  0  0
  9 10  2  0  0  0  0
M  END
>  <CHROM.1>
5.97080823,18.18979876,4.46648042,-1.80808369,0.86137796,1.18967008

>  <Name>
ligand

>  <RI>
0

>  <Rbt.Current_Directory>
/home/itssahil/PROJECTS/Mol_Feturizer/New_Systems/rnas/4XNR

>  <Rbt.Executable>
rbdock ($Id: //depot/dev/client3/rdock/2013.1/src/exe/rbdock.cxx#4 $)

>  <Rbt.Library>
libRbt.so (2013.1, Build901 2013/11/27)

>  <Rbt.Parameter_File>
/export/apps/rDock/src/rDock_2013.1_src/data/scripts/dock_solv.prm

>  <Rbt.Receptor>
prm/pocket_docking_3.prm

>  <SCORE>
-14.5391

>  <SCORE.INTER>
-14.5391

>  <SCORE.INTER.CONST>
1

>  <SCORE.INTER.POLAR>
0

>  <SCORE.INTER.ROT>
0

>  <SCORE.INTER.SOLV>
7.97577

>  <SCORE.INTER.VDW>
-15.9513

>  <SCORE.INTER.norm>
-1.45391

>  <SCORE.INTRA>
0

>  <SCORE.INTRA.DIHEDRAL>
0

>  <SCORE.INTRA.DIHEDRAL.0>
0

>  <SCORE.INTRA.POLAR>
0

>  <SCORE.INTRA.POLAR.0>
0

>  <SCORE.INTRA.REPUL>
0

>  <SCORE.INTRA.REPUL.0>
0

>  <SCORE.INTRA.SOLV>
0

>  <SCORE.INTRA.SOLV.lig_0>
-23.8918

>  <SCORE.INTRA.VDW>
0

>  <SCORE.INTRA.VDW.0>
0

>  <SCORE.INTRA.norm>
0

>  <SCORE.RESTR>
0

>  <SCORE.RESTR.CAVITY>
0

>  <SCORE.RESTR.norm>
0

>  <SCORE.SYSTEM>
0

>  <SCORE.SYSTEM.CONST>
0

>  <SCORE.SYSTEM.DIHEDRAL>
0

>  <SCORE.SYSTEM.SOLV>
0

>  <SCORE.SYSTEM.norm>
0

>  <SCORE.heavy>
10

>  <SCORE.norm>
-1.45391

>  <RMSD>
0.732

$$$$
ligand
 OpenBabel11021811513D
libRbt.so/2013.1/901 2013/11/27
 10 11  0  0  0  0  0  0  0  0999 V2000
    5.8822   17.3883    2.6246 N   0  0  0  0  0  0  0  0  0  0  0  0
    6.7630   18.3919    2.5337 C   0  0  0  0  0  0  0  0  0  0  0  0
    7.1750   19.2337    3.4805 N   0  0  0  0  0  0  0  0  0  0  0  0
    6.5748   18.9652    4.6505 C   0  0  0  0  0  0  0  0  0  0  0  0
    5.6498   17.9697    4.8995 C   0  0  0  0  0  0  0  0  0  0  0  0
    5.2957   17.1431    3.8149 C   0  0  0  0  0  0  0  0  0  0  0  0
    4.4159   16.1413    3.9101 N   0  0  0  0  0  0  0  0  0  0  0  0
    5.2487   17.9927    6.2250 N   0  0  0  0  0  0  0  0  0  0  0  0
    5.9286   18.9884    6.7424 C   0  0  0  0  0  0  0  0  0  0  0  0
    6.7485   19.6197    5.8486 N   0  0  0  0  0  0  0  0  0  0  0  0
  1  2  2  0  0  0  0
  1  6  1  0  0  0  0
  2  3  1  0  0  0  0
  3  4  2  0  0  0  0
  4  5  1  0  0  0  0
  4 10  1  0  0  0  0
  5  6  2  0  0  0  0
  5  8  1  0  0  0  0
  6  7  1  0  0  0  0
  8  9  1  0  0  0  0
  9 10  2  0  0  0  0
M  END
>  <CHROM.1>
5.96253283,18.17508306,4.46874534,-1.82027322,0.83471785,1.21163295

>  <Name>
ligand

>  <RI>
0

>  <Rbt.Current_Directory>
/home/itssahil/PROJECTS/Mol_Feturizer/New_Systems/rnas/4XNR

>  <Rbt.Executable>
rbdock ($Id: //depot/dev/client3/rdock/2013.1/src/exe/rbdock.cxx#4 $)

>  <Rbt.Library>
libRbt.so (2013.1, Build901 2013/11/27)

>  <Rbt.Parameter_File>
/export/apps/rDock/src/rDock_2013.1_src/data/scripts/dock_solv.prm

>  <Rbt.Receptor>
prm/pocket_docking_4.prm

>  <SCORE>
-14.5579

>  <SCORE.INTER>
-14.5579

>  <SCORE.INTER.CONST>
1

>  <SCORE.INTER.POLAR>
0

>  <SCORE.INTER.ROT>
0

>  <SCORE.INTER.SOLV>
7.70976

>  <SCORE.INTER.VDW>
-15.8752

>  <SCORE.INTER.norm>
-1.45579

>  <SCORE.INTRA>
0

>  <SCORE.INTRA.DIHEDRAL>
0

>  <SCORE.INTRA.DIHEDRAL.0>
0

>  <SCORE.INTRA.POLAR>
0

>  <SCORE.INTRA.POLAR.0>
0

>  <SCORE.INTRA.REPUL>
0

>  <SCORE.INTRA.REPUL.0>
0

>  <SCORE.INTRA.SOLV>
0

>  <SCORE.INTRA.SOLV.lig_0>
-23.8918

>  <SCORE.INTRA.VDW>
0

>  <SCORE.INTRA.VDW.0>
0

>  <SCORE.INTRA.norm>
0

>  <SCORE.RESTR>
0

>  <SCORE.RESTR.CAVITY>
0

>  <SCORE.RESTR.norm>
0

>  <SCORE.SYSTEM>
0

>  <SCORE.SYSTEM.CONST>
0

>  <SCORE.SYSTEM.DIHEDRAL>
0

>  <SCORE.SYSTEM.SOLV>
0

>  <SCORE.SYSTEM.norm>
0

>  <SCORE.heavy>
10

>  <SCORE.norm>
-1.45579

>  <RMSD>
0.732

$$$$
ligand
 OpenBabel11021811513D
libRbt.so/2013.1/901 2013/11/27
 10 11  0  0  0  0  0  0  0  0999 V2000
    5.8980   17.3752    2.6277 N   0  0  0  0  0  0  0  0  0  0  0  0
    6.7965   18.3637    2.5435 C   0  0  0  0  0  0  0  0  0  0  0  0
    7.2145   19.1992    3.4931 N   0  0  0  0  0  0  0  0  0  0  0  0
    6.5999   18.9421    4.6582 C   0  0  0  0  0  0  0  0  0  0  0  0
    5.6560   17.9627    4.9000 C   0  0  0  0  0  0  0  0  0  0  0  0
    5.2972   17.1412    3.8131 C   0  0  0  0  0  0  0  0  0  0  0  0
    4.3997   16.1546    3.9015 N   0  0  0  0  0  0  0  0  0  0  0  0
    5.2440   17.9938    6.2219 N   0  0  0  0  0  0  0  0  0  0  0  0
    5.9362   18.9784    6.7443 C   0  0  0  0  0  0  0  0  0  0  0  0
    6.7743   19.5948    5.8572 N   0  0  0  0  0  0  0  0  0  0  0  0
  1  2  2  0  0  0  0
  1  6  1  0  0  0  0
  2  3  1  0  0  0  0
  3  4  2  0  0  0  0
  4  5  1  0  0  0  0
  4 10  1  0  0  0  0
  5  6  2  0  0  0  0
  5  8  1  0  0  0  0
  6  7  1  0  0  0  0
  8  9  1  0  0  0  0
  9 10  2  0  0  0  0
M  END
>  <CHROM.1>
5.97582846,18.16236046,4.47178691,-1.81725475,0.81577990,1.20850072

>  <Name>
ligand

>  <RI>
0

>  <Rbt.Current_Directory>
/home/itssahil/PROJECTS/Mol_Feturizer/New_Systems/rnas/4XNR

>  <Rbt.Executable>
rbdock ($Id: //depot/dev/client3/rdock/2013.1/src/exe/rbdock.cxx#4 $)

>  <Rbt.Library>
libRbt.so (2013.1, Build901 2013/11/27)

>  <Rbt.Parameter_File>
/export/apps/rDock/src/rDock_2013.1_src/data/scripts/dock_solv.prm

>  <Rbt.Receptor>
prm/pocket_docking_4.prm

>  <SCORE>
-14.5738

>  <SCORE.INTER>
-14.5738

>  <SCORE.INTER.CONST>
1

>  <SCORE.INTER.POLAR>
0

>  <SCORE.INTER.ROT>
0

>  <SCORE.INTER.SOLV>
7.61728

>  <SCORE.INTER.VDW>
-15.855

>  <SCORE.INTER.norm>
-1.45738

>  <SCORE.INTRA>
0

>  <SCORE.INTRA.DIHEDRAL>
0

>  <SCORE.INTRA.DIHEDRAL.0>
0

>  <SCORE.INTRA.POLAR>
0

>  <SCORE.INTRA.POLAR.0>
0

>  <SCORE.INTRA.REPUL>
0

>  <SCORE.INTRA.REPUL.0>
0

>  <SCORE.INTRA.SOLV>
0

>  <SCORE.INTRA.SOLV.lig_0>
-23.8918

>  <SCORE.INTRA.VDW>
0

>  <SCORE.INTRA.VDW.0>
0

>  <SCORE.INTRA.norm>
0

>  <SCORE.RESTR>
0

>  <SCORE.RESTR.CAVITY>
0

>  <SCORE.RESTR.norm>
0

>  <SCORE.SYSTEM>
0

>  <SCORE.SYSTEM.CONST>
0

>  <SCORE.SYSTEM.DIHEDRAL>
0

>  <SCORE.SYSTEM.SOLV>
0

>  <SCORE.SYSTEM.norm>
0

>  <SCORE.heavy>
10

>  <SCORE.norm>
-1.45738

>  <RMSD>
0.732

$$$$
ligand
 OpenBabel11021811513D
libRbt.so/2013.1/901 2013/11/27
 10 11  0  0  0  0  0  0  0  0999 V2000
    5.9041   17.3586    2.6351 N   0  0  0  0  0  0  0  0  0  0  0  0
    6.7899   18.3587    2.5542 C   0  0  0  0  0  0  0  0  0  0  0  0
    7.1866   19.2056    3.5029 N   0  0  0  0  0  0  0  0  0  0  0  0
    6.5634   18.9472    4.6631 C   0  0  0  0  0  0  0  0  0  0  0  0
    5.6304   17.9565    4.9012 C   0  0  0  0  0  0  0  0  0  0  0  0
    5.2941   17.1236    3.8157 C   0  0  0  0  0  0  0  0  0  0  0  0
    4.4092   16.1254    3.9009 N   0  0  0  0  0  0  0  0  0  0  0  0
    5.2042   17.9899    6.2185 N   0  0  0  0  0  0  0  0  0  0  0  0
    5.8774   18.9869    6.7420 C   0  0  0  0  0  0  0  0  0  0  0  0
    6.7164   19.6093    5.8598 N   0  0  0  0  0  0  0  0  0  0  0  0
  1  2  2  0  0  0  0
  1  6  1  0  0  0  0
  2  3  1  0  0  0  0
  3  4  2  0  0  0  0
  4  5  1  0  0  0  0
  4 10  1  0  0  0  0
  5  6  2  0  0  0  0
  5  8  1  0  0  0  0
  6  7  1  0  0  0  0
  8  9  1  0  0  0  0
  9 10  2  0  0  0  0
M  END
>  <CHROM.1>
5.95192628,18.15785389,4.47505134,-1.79576631,0.82465101,1.18669937

>  <Name>
ligand

>  <RI>
0

>  <Rbt.Current_Directory>
/home/itssahil/PROJECTS/Mol_Feturizer/New_Systems/rnas/4XNR

>  <Rbt.Executable>
rbdock ($Id: //depot/dev/client3/rdock/2013.1/src/exe/rbdock.cxx#4 $)

>  <Rbt.Library>
libRbt.so (2013.1, Build901 2013/11/27)

>  <Rbt.Parameter_File>
/export/apps/rDock/src/rDock_2013.1_src/data/scripts/dock_solv.prm

>  <Rbt.Receptor>
prm/pocket_docking_7.prm

>  <SCORE>
-14.5758

>  <SCORE.INTER>
-14.5758

>  <SCORE.INTER.CONST>
1

>  <SCORE.INTER.POLAR>
0

>  <SCORE.INTER.ROT>
0

>  <SCORE.INTER.SOLV>
7.69214

>  <SCORE.INTER.VDW>
-15.8812

>  <SCORE.INTER.norm>
-1.45758

>  <SCORE.INTRA>
0

>  <SCORE.INTRA.DIHEDRAL>
0

>  <SCORE.INTRA.DIHEDRAL.0>
0

>  <SCORE.INTRA.POLAR>
0

>  <SCORE.INTRA.POLAR.0>
0

>  <SCORE.INTRA.REPUL>
0

>  <SCORE.INTRA.REPUL.0>
0

>  <SCORE.INTRA.SOLV>
0

>  <SCORE.INTRA.SOLV.lig_0>
-23.8918

>  <SCORE.INTRA.VDW>
0

>  <SCORE.INTRA.VDW.0>
0

>  <SCORE.INTRA.norm>
0

>  <SCORE.RESTR>
0

>  <SCORE.RESTR.CAVITY>
0

>  <SCORE.RESTR.norm>
0

>  <SCORE.SYSTEM>
0

>  <SCORE.SYSTEM.CONST>
0

>  <SCORE.SYSTEM.DIHEDRAL>
0

>  <SCORE.SYSTEM.SOLV>
0

>  <SCORE.SYSTEM.norm>
0

>  <SCORE.heavy>
10

>  <SCORE.norm>
-1.45758

>  <RMSD>
0.732

$$$$
ligand
 OpenBabel11021811513D
libRbt.so/2013.1/901 2013/11/27
 10 11  0  0  0  0  0  0  0  0999 V2000
    5.8911   17.3648    2.6404 N   0  0  0  0  0  0  0  0  0  0  0  0
    6.7497   18.3851    2.5251 C   0  0  0  0  0  0  0  0  0  0  0  0
    7.1476   19.2544    3.4528 N   0  0  0  0  0  0  0  0  0  0  0  0
    6.5586   18.9968    4.6308 C   0  0  0  0  0  0  0  0  0  0  0  0
    5.6564   17.9869    4.9043 C   0  0  0  0  0  0  0  0  0  0  0  0
    5.3153   17.1312    3.8382 C   0  0  0  0  0  0  0  0  0  0  0  0
    4.4578   16.1128    3.9578 N   0  0  0  0  0  0  0  0  0  0  0  0
    5.2608   18.0279    6.2310 N   0  0  0  0  0  0  0  0  0  0  0  0
    5.9213   19.0483    6.7249 C   0  0  0  0  0  0  0  0  0  0  0  0
    6.7235   19.6789    5.8147 N   0  0  0  0  0  0  0  0  0  0  0  0
  1  2  2  0  0  0  0
  1  6  1  0  0  0  0
  2  3  1  0  0  0  0
  3  4  2  0  0  0  0
  4  5  1  0  0  0  0
  4 10  1  0  0  0  0
  5  6  2  0  0  0  0
  5  8  1  0  0  0  0
  6  7  1  0  0  0  0
  8  9  1  0  0  0  0
  9 10  2  0  0  0  0
M  END
>  <CHROM.1>
5.96268828,18.19019024,4.46796088,-1.81507219,0.85646039,1.18762103

>  <Name>
ligand

>  <RI>
0

>  <Rbt.Current_Directory>
/home/itssahil/PROJECTS/Mol_Feturizer/New_Systems/rnas/4XNR

>  <Rbt.Executable>
rbdock ($Id: //depot/dev/client3/rdock/2013.1/src/exe/rbdock.cxx#4 $)

>  <Rbt.Library>
libRbt.so (2013.1, Build901 2013/11/27)

>  <Rbt.Parameter_File>
/export/apps/rDock/src/rDock_2013.1_src/data/scripts/dock_solv.prm

>  <Rbt.Receptor>
prm/blind_docking_80.prm

>  <SCORE>
-14.5622

>  <SCORE.INTER>
-14.5622

>  <SCORE.INTER.CONST>
1

>  <SCORE.INTER.POLAR>
0

>  <SCORE.INTER.ROT>
0

>  <SCORE.INTER.SOLV>
7.98725

>  <SCORE.INTER.VDW>
-15.9705

>  <SCORE.INTER.norm>
-1.45622

>  <SCORE.INTRA>
0

>  <SCORE.INTRA.DIHEDRAL>
0

>  <SCORE.INTRA.DIHEDRAL.0>
0

>  <SCORE.INTRA.POLAR>
0

>  <SCORE.INTRA.POLAR.0>
0

>  <SCORE.INTRA.REPUL>
0

>  <SCORE.INTRA.REPUL.0>
0

>  <SCORE.INTRA.SOLV>
0

>  <SCORE.INTRA.SOLV.lig_0>
-23.8918

>  <SCORE.INTRA.VDW>
0

>  <SCORE.INTRA.VDW.0>
0

>  <SCORE.INTRA.norm>
0

>  <SCORE.RESTR>
0

>  <SCORE.RESTR.CAVITY>
0

>  <SCORE.RESTR.norm>
0

>  <SCORE.SYSTEM>
0

>  <SCORE.SYSTEM.CONST>
0

>  <SCORE.SYSTEM.DIHEDRAL>
0

>  <SCORE.SYSTEM.SOLV>
0

>  <SCORE.SYSTEM.norm>
0

>  <SCORE.heavy>
10

>  <SCORE.norm>
-1.45622

>  <RMSD>
0.733

$$$$
ligand
 OpenBabel11021811513D
libRbt.so/2013.1/901 2013/11/27
 10 11  0  0  0  0  0  0  0  0999 V2000
    5.8883   17.3890    2.6266 N   0  0  0  0  0  0  0  0  0  0  0  0
    6.7333   18.4223    2.5283 C   0  0  0  0  0  0  0  0  0  0  0  0
    7.1206   19.2807    3.4705 N   0  0  0  0  0  0  0  0  0  0  0  0
    6.5359   18.9953    4.6443 C   0  0  0  0  0  0  0  0  0  0  0  0
    5.6472   17.9692    4.9009 C   0  0  0  0  0  0  0  0  0  0  0  0
    5.3165   17.1274    3.8206 C   0  0  0  0  0  0  0  0  0  0  0  0
    4.4724   16.0960    3.9231 N   0  0  0  0  0  0  0  0  0  0  0  0
    5.2520   17.9824    6.2283 N   0  0  0  0  0  0  0  0  0  0  0  0
    5.8995   19.0027    6.7393 C   0  0  0  0  0  0  0  0  0  0  0  0
    6.6927   19.6592    5.8396 N   0  0  0  0  0  0  0  0  0  0  0  0
  1  2  2  0  0  0  0
  1  6  1  0  0  0  0
  2  3  1  0  0  0  0
  3  4  2  0  0  0  0
  4  5  1  0  0  0  0
  4 10  1  0  0  0  0
  5  6  2  0  0  0  0
  5  8  1  0  0  0  0
  6  7  1  0  0  0  0
  8  9  1  0  0  0  0
  9 10  2  0  0  0  0
M  END
>  <CHROM.1>
5.95042894,18.18392066,4.46795064,-1.80856089,0.86885943,1.19975299

>  <Name>
ligand

>  <RI>
0

>  <Rbt.Current_Directory>
/home/itssahil/PROJECTS/Mol_Feturizer/New_Systems/rnas/4XNR

>  <Rbt.Executable>
rbdock ($Id: //depot/dev/client3/rdock/2013.1/src/exe/rbdock.cxx#4 $)

>  <Rbt.Library>
libRbt.so (2013.1, Build901 2013/11/27)

>  <Rbt.Parameter_File>
/export/apps/rDock/src/rDock_2013.1_src/data/scripts/dock_solv.prm

>  <Rbt.Receptor>
prm/pocket_docking_4.prm

>  <SCORE>
-14.5343

>  <SCORE.INTER>
-14.5343

>  <SCORE.INTER.CONST>
1

>  <SCORE.INTER.POLAR>
0

>  <SCORE.INTER.ROT>
0

>  <SCORE.INTER.SOLV>
7.9541

>  <SCORE.INTER.VDW>
-15.9409

>  <SCORE.INTER.norm>
-1.45343

>  <SCORE.INTRA>
0

>  <SCORE.INTRA.DIHEDRAL>
0

>  <SCORE.INTRA.DIHEDRAL.0>
0

>  <SCORE.INTRA.POLAR>
0

>  <SCORE.INTRA.POLAR.0>
0

>  <SCORE.INTRA.REPUL>
0

>  <SCORE.INTRA.REPUL.0>
0

>  <SCORE.INTRA.SOLV>
0

>  <SCORE.INTRA.SOLV.lig_0>
-23.8918

>  <SCORE.INTRA.VDW>
0

>  <SCORE.INTRA.VDW.0>
0

>  <SCORE.INTRA.norm>
0

>  <SCORE.RESTR>
0

>  <SCORE.RESTR.CAVITY>
0

>  <SCORE.RESTR.norm>
0

>  <SCORE.SYSTEM>
0

>  <SCORE.SYSTEM.CONST>
0

>  <SCORE.SYSTEM.DIHEDRAL>
0

>  <SCORE.SYSTEM.SOLV>
0

>  <SCORE.SYSTEM.norm>
0

>  <SCORE.heavy>
10

>  <SCORE.norm>
-1.45343

>  <RMSD>
0.733

$$$$
ligand
 OpenBabel11021811513D
libRbt.so/2013.1/901 2013/11/27
 10 11  0  0  0  0  0  0  0  0999 V2000
    5.9283   17.3643    2.6398 N   0  0  0  0  0  0  0  0  0  0  0  0
    6.7764   18.3943    2.5335 C   0  0  0  0  0  0  0  0  0  0  0  0
    7.1553   19.2674    3.4655 N   0  0  0  0  0  0  0  0  0  0  0  0
    6.5576   19.0025    4.6376 C   0  0  0  0  0  0  0  0  0  0  0  0
    5.6642   17.9823    4.9015 C   0  0  0  0  0  0  0  0  0  0  0  0
    5.3434   17.1234    3.8318 C   0  0  0  0  0  0  0  0  0  0  0  0
    4.4962   16.0954    3.9423 N   0  0  0  0  0  0  0  0  0  0  0  0
    5.2550   18.0181    6.2242 N   0  0  0  0  0  0  0  0  0  0  0  0
    5.8991   19.0455    6.7253 C   0  0  0  0  0  0  0  0  0  0  0  0
    6.7030   19.6857    5.8234 N   0  0  0  0  0  0  0  0  0  0  0  0
  1  2  2  0  0  0  0
  1  6  1  0  0  0  0
  2  3  1  0  0  0  0
  3  4  2  0  0  0  0
  4  5  1  0  0  0  0
  4 10  1  0  0  0  0
  5  6  2  0  0  0  0
  5  8  1  0  0  0  0
  6  7  1  0  0  0  0
  8  9  1  0  0  0  0
  9 10  2  0  0  0  0
M  END
>  <CHROM.1>
5.97246168,18.18931733,4.46837599,-1.79444189,0.86311803,1.17253536

>  <Name>
ligand

>  <RI>
0

>  <Rbt.Current_Directory>
/home/itssahil/PROJECTS/Mol_Feturizer/New_Systems/rnas/4XNR

>  <Rbt.Executable>
rbdock ($Id: //depot/dev/client3/rdock/2013.1/src/exe/rbdock.cxx#4 $)

>  <Rbt.Library>
libRbt.so (2013.1, Build901 2013/11/27)

>  <Rbt.Parameter_File>
/export/apps/rDock/src/rDock_2013.1_src/data/scripts/dock_solv.prm

>  <Rbt.Receptor>
prm/pocket_docking_6.prm

>  <SCORE>
-14.5644

>  <SCORE.INTER>
-14.5644

>  <SCORE.INTER.CONST>
1

>  <SCORE.INTER.POLAR>
0

>  <SCORE.INTER.ROT>
0

>  <SCORE.INTER.SOLV>
8.04573

>  <SCORE.INTER.VDW>
-15.9915

>  <SCORE.INTER.norm>
-1.45644

>  <SCORE.INTRA>
0

>  <SCORE.INTRA.DIHEDRAL>
0

>  <SCORE.INTRA.DIHEDRAL.0>
0

>  <SCORE.INTRA.POLAR>
0

>  <SCORE.INTRA.POLAR.0>
0

>  <SCORE.INTRA.REPUL>
0

>  <SCORE.INTRA.REPUL.0>
0

>  <SCORE.INTRA.SOLV>
0

>  <SCORE.INTRA.SOLV.lig_0>
-23.8918

>  <SCORE.INTRA.VDW>
0

>  <SCORE.INTRA.VDW.0>
0

>  <SCORE.INTRA.norm>
0

>  <SCORE.RESTR>
0

>  <SCORE.RESTR.CAVITY>
0

>  <SCORE.RESTR.norm>
0

>  <SCORE.SYSTEM>
0

>  <SCORE.SYSTEM.CONST>
0

>  <SCORE.SYSTEM.DIHEDRAL>
0

>  <SCORE.SYSTEM.SOLV>
0

>  <SCORE.SYSTEM.norm>
0

>  <SCORE.heavy>
10

>  <SCORE.norm>
-1.45644

>  <RMSD>
0.733

$$$$
ligand
 OpenBabel11021811513D
libRbt.so/2013.1/901 2013/11/27
 10 11  0  0  0  0  0  0  0  0999 V2000
    5.9239   17.3677    2.6332 N   0  0  0  0  0  0  0  0  0  0  0  0
    6.8122   18.3657    2.5529 C   0  0  0  0  0  0  0  0  0  0  0  0
    7.2123   19.2099    3.5026 N   0  0  0  0  0  0  0  0  0  0  0  0
    6.5898   18.9511    4.6630 C   0  0  0  0  0  0  0  0  0  0  0  0
    5.6546   17.9624    4.9006 C   0  0  0  0  0  0  0  0  0  0  0  0
    5.3148   17.1322    3.8141 C   0  0  0  0  0  0  0  0  0  0  0  0
    4.4275   16.1361    3.8987 N   0  0  0  0  0  0  0  0  0  0  0  0
    5.2301   17.9946    6.2185 N   0  0  0  0  0  0  0  0  0  0  0  0
    5.9066   18.9890    6.7429 C   0  0  0  0  0  0  0  0  0  0  0  0
    6.7460   19.6107    5.8607 N   0  0  0  0  0  0  0  0  0  0  0  0
  1  2  2  0  0  0  0
  1  6  1  0  0  0  0
  2  3  1  0  0  0  0
  3  4  2  0  0  0  0
  4  5  1  0  0  0  0
  4 10  1  0  0  0  0
  5  6  2  0  0  0  0
  5  8  1  0  0  0  0
  6  7  1  0  0  0  0
  8  9  1  0  0  0  0
  9 10  2  0  0  0  0
M  END
>  <CHROM.1>
5.97612230,18.16364086,4.47442087,-1.79887351,0.82272102,1.19069752

>  <Name>
ligand

>  <RI>
0

>  <Rbt.Current_Directory>
/home/itssahil/PROJECTS/Mol_Feturizer/New_Systems/rnas/4XNR

>  <Rbt.Executable>
rbdock ($Id: //depot/dev/client3/rdock/2013.1/src/exe/rbdock.cxx#4 $)

>  <Rbt.Library>
libRbt.so (2013.1, Build901 2013/11/27)

>  <Rbt.Parameter_File>
/export/apps/rDock/src/rDock_2013.1_src/data/scripts/dock_solv.prm

>  <Rbt.Receptor>
prm/pocket_docking_3.prm

>  <SCORE>
-14.6049

>  <SCORE.INTER>
-14.6049

>  <SCORE.INTER.CONST>
1

>  <SCORE.INTER.POLAR>
0

>  <SCORE.INTER.ROT>
0

>  <SCORE.INTER.SOLV>
7.69674

>  <SCORE.INTER.VDW>
-15.9022

>  <SCORE.INTER.norm>
-1.46049

>  <SCORE.INTRA>
0

>  <SCORE.INTRA.DIHEDRAL>
0

>  <SCORE.INTRA.DIHEDRAL.0>
0

>  <SCORE.INTRA.POLAR>
0

>  <SCORE.INTRA.POLAR.0>
0

>  <SCORE.INTRA.REPUL>
0

>  <SCORE.INTRA.REPUL.0>
0

>  <SCORE.INTRA.SOLV>
0

>  <SCORE.INTRA.SOLV.lig_0>
-23.8918

>  <SCORE.INTRA.VDW>
0

>  <SCORE.INTRA.VDW.0>
0

>  <SCORE.INTRA.norm>
0

>  <SCORE.RESTR>
0

>  <SCORE.RESTR.CAVITY>
0

>  <SCORE.RESTR.norm>
0

>  <SCORE.SYSTEM>
0

>  <SCORE.SYSTEM.CONST>
0

>  <SCORE.SYSTEM.DIHEDRAL>
0

>  <SCORE.SYSTEM.SOLV>
0

>  <SCORE.SYSTEM.norm>
0

>  <SCORE.heavy>
10

>  <SCORE.norm>
-1.46049

>  <RMSD>
0.734

$$$$
ligand
 OpenBabel11021811513D
libRbt.so/2013.1/901 2013/11/27
 10 11  0  0  0  0  0  0  0  0999 V2000
    5.9110   17.3742    2.6315 N   0  0  0  0  0  0  0  0  0  0  0  0
    6.8069   18.3653    2.5514 C   0  0  0  0  0  0  0  0  0  0  0  0
    7.2146   19.2051    3.5017 N   0  0  0  0  0  0  0  0  0  0  0  0
    6.5916   18.9496    4.6626 C   0  0  0  0  0  0  0  0  0  0  0  0
    5.6490   17.9679    4.9000 C   0  0  0  0  0  0  0  0  0  0  0  0
    5.3015   17.1419    3.8128 C   0  0  0  0  0  0  0  0  0  0  0  0
    4.4066   16.1526    3.8971 N   0  0  0  0  0  0  0  0  0  0  0  0
    5.2263   18.0017    6.2185 N   0  0  0  0  0  0  0  0  0  0  0  0
    5.9111   18.9901    6.7433 C   0  0  0  0  0  0  0  0  0  0  0  0
    6.7543   19.6065    5.8610 N   0  0  0  0  0  0  0  0  0  0  0  0
  1  2  2  0  0  0  0
  1  6  1  0  0  0  0
  2  3  1  0  0  0  0
  3  4  2  0  0  0  0
  4  5  1  0  0  0  0
  4 10  1  0  0  0  0
  5  6  2  0  0  0  0
  5  8  1  0  0  0  0
  6  7  1  0  0  0  0
  8  9  1  0  0  0  0
  9 10  2  0  0  0  0
M  END
>  <CHROM.1>
5.97154570,18.16724351,4.47368145,-1.80465962,0.81595723,1.19624972

>  <Name>
ligand

>  <RI>
0

>  <Rbt.Current_Directory>
/home/itssahil/PROJECTS/Mol_Feturizer/New_Systems/rnas/4XNR

>  <Rbt.Executable>
rbdock ($Id: //depot/dev/client3/rdock/2013.1/src/exe/rbdock.cxx#4 $)

>  <Rbt.Library>
libRbt.so (2013.1, Build901 2013/11/27)

>  <Rbt.Parameter_File>
/export/apps/rDock/src/rDock_2013.1_src/data/scripts/dock_solv.prm

>  <Rbt.Receptor>
prm/blind_docking_60.prm

>  <SCORE>
-14.6095

>  <SCORE.INTER>
-14.6095

>  <SCORE.INTER.CONST>
1

>  <SCORE.INTER.POLAR>
0

>  <SCORE.INTER.ROT>
0

>  <SCORE.INTER.SOLV>
7.62486

>  <SCORE.INTER.VDW>
-15.8813

>  <SCORE.INTER.norm>
-1.46095

>  <SCORE.INTRA>
0

>  <SCORE.INTRA.DIHEDRAL>
0

>  <SCORE.INTRA.DIHEDRAL.0>
0

>  <SCORE.INTRA.POLAR>
0

>  <SCORE.INTRA.POLAR.0>
0

>  <SCORE.INTRA.REPUL>
0

>  <SCORE.INTRA.REPUL.0>
0

>  <SCORE.INTRA.SOLV>
0

>  <SCORE.INTRA.SOLV.lig_0>
-23.8918

>  <SCORE.INTRA.VDW>
0

>  <SCORE.INTRA.VDW.0>
0

>  <SCORE.INTRA.norm>
0

>  <SCORE.RESTR>
0

>  <SCORE.RESTR.CAVITY>
0

>  <SCORE.RESTR.norm>
0

>  <SCORE.SYSTEM>
0

>  <SCORE.SYSTEM.CONST>
0

>  <SCORE.SYSTEM.DIHEDRAL>
0

>  <SCORE.SYSTEM.SOLV>
0

>  <SCORE.SYSTEM.norm>
0

>  <SCORE.heavy>
10

>  <SCORE.norm>
-1.46095

>  <RMSD>
0.735

$$$$
ligand
 OpenBabel11021811513D
libRbt.so/2013.1/901 2013/11/27
 10 11  0  0  0  0  0  0  0  0999 V2000
    5.9284   17.3861    2.6244 N   0  0  0  0  0  0  0  0  0  0  0  0
    6.8275   18.3744    2.5460 C   0  0  0  0  0  0  0  0  0  0  0  0
    7.2400   19.2096    3.4984 N   0  0  0  0  0  0  0  0  0  0  0  0
    6.6182   18.9523    4.6596 C   0  0  0  0  0  0  0  0  0  0  0  0
    5.6727   17.9730    4.8954 C   0  0  0  0  0  0  0  0  0  0  0  0
    5.3203   17.1519    3.8061 C   0  0  0  0  0  0  0  0  0  0  0  0
    4.4221   16.1654    3.8887 N   0  0  0  0  0  0  0  0  0  0  0  0
    5.2526   18.0038    6.2148 N   0  0  0  0  0  0  0  0  0  0  0  0
    5.9418   18.9880    6.7417 C   0  0  0  0  0  0  0  0  0  0  0  0
    6.7855   19.6045    5.8598 N   0  0  0  0  0  0  0  0  0  0  0  0
  1  2  2  0  0  0  0
  1  6  1  0  0  0  0
  2  3  1  0  0  0  0
  3  4  2  0  0  0  0
  4  5  1  0  0  0  0
  4 10  1  0  0  0  0
  5  6  2  0  0  0  0
  5  8  1  0  0  0  0
  6  7  1  0  0  0  0
  8  9  1  0  0  0  0
  9 10  2  0  0  0  0
M  END
>  <CHROM.1>
5.99512543,18.17269650,4.46916613,-1.80905305,0.81340704,1.20282574

>  <Name>
ligand

>  <RI>
0

>  <Rbt.Current_Directory>
/home/itssahil/PROJECTS/Mol_Feturizer/New_Systems/rnas/4XNR

>  <Rbt.Executable>
rbdock ($Id: //depot/dev/client3/rdock/2013.1/src/exe/rbdock.cxx#4 $)

>  <Rbt.Library>
libRbt.so (2013.1, Build901 2013/11/27)

>  <Rbt.Parameter_File>
/export/apps/rDock/src/rDock_2013.1_src/data/scripts/dock_solv.prm

>  <Rbt.Receptor>
prm/pocket_docking_4.prm

>  <SCORE>
-14.5897

>  <SCORE.INTER>
-14.5897

>  <SCORE.INTER.CONST>
1

>  <SCORE.INTER.POLAR>
0

>  <SCORE.INTER.ROT>
0

>  <SCORE.INTER.SOLV>
7.59845

>  <SCORE.INTER.VDW>
-15.8593

>  <SCORE.INTER.norm>
-1.45897

>  <SCORE.INTRA>
0

>  <SCORE.INTRA.DIHEDRAL>
0

>  <SCORE.INTRA.DIHEDRAL.0>
0

>  <SCORE.INTRA.POLAR>
0

>  <SCORE.INTRA.POLAR.0>
0

>  <SCORE.INTRA.REPUL>
0

>  <SCORE.INTRA.REPUL.0>
0

>  <SCORE.INTRA.SOLV>
0

>  <SCORE.INTRA.SOLV.lig_0>
-23.8918

>  <SCORE.INTRA.VDW>
0

>  <SCORE.INTRA.VDW.0>
0

>  <SCORE.INTRA.norm>
0

>  <SCORE.RESTR>
0

>  <SCORE.RESTR.CAVITY>
0

>  <SCORE.RESTR.norm>
0

>  <SCORE.SYSTEM>
0

>  <SCORE.SYSTEM.CONST>
0

>  <SCORE.SYSTEM.DIHEDRAL>
0

>  <SCORE.SYSTEM.SOLV>
0

>  <SCORE.SYSTEM.norm>
0

>  <SCORE.heavy>
10

>  <SCORE.norm>
-1.45897

>  <RMSD>
0.735

$$$$
ligand
 OpenBabel11021811513D
libRbt.so/2013.1/901 2013/11/27
 10 11  0  0  0  0  0  0  0  0999 V2000
    5.9180   17.3712    2.6324 N   0  0  0  0  0  0  0  0  0  0  0  0
    6.8095   18.3663    2.5522 C   0  0  0  0  0  0  0  0  0  0  0  0
    7.2127   19.2088    3.5021 N   0  0  0  0  0  0  0  0  0  0  0  0
    6.5897   18.9516    4.6626 C   0  0  0  0  0  0  0  0  0  0  0  0
    5.6514   17.9658    4.9001 C   0  0  0  0  0  0  0  0  0  0  0  0
    5.3086   17.1372    3.8134 C   0  0  0  0  0  0  0  0  0  0  0  0
    4.4180   16.1440    3.8978 N   0  0  0  0  0  0  0  0  0  0  0  0
    5.2274   17.9989    6.2182 N   0  0  0  0  0  0  0  0  0  0  0  0
    5.9073   18.9909    6.7427 C   0  0  0  0  0  0  0  0  0  0  0  0
    6.7485   19.6103    5.8605 N   0  0  0  0  0  0  0  0  0  0  0  0
  1  2  2  0  0  0  0
  1  6  1  0  0  0  0
  2  3  1  0  0  0  0
  3  4  2  0  0  0  0
  4  5  1  0  0  0  0
  4 10  1  0  0  0  0
  5  6  2  0  0  0  0
  5  8  1  0  0  0  0
  6  7  1  0  0  0  0
  8  9  1  0  0  0  0
  9 10  2  0  0  0  0
M  END
>  <CHROM.1>
5.97340857,18.16624462,4.47389820,-1.80107018,0.81983909,1.19270392

>  <Name>
ligand

>  <RI>
0

>  <Rbt.Current_Directory>
/home/itssahil/PROJECTS/Mol_Feturizer/New_Systems/rnas/4XNR

>  <Rbt.Executable>
rbdock ($Id: //depot/dev/client3/rdock/2013.1/src/exe/rbdock.cxx#4 $)

>  <Rbt.Library>
libRbt.so (2013.1, Build901 2013/11/27)

>  <Rbt.Parameter_File>
/export/apps/rDock/src/rDock_2013.1_src/data/scripts/dock_solv.prm

>  <Rbt.Receptor>
prm/pocket_docking_7.prm

>  <SCORE>
-14.6078

>  <SCORE.INTER>
-14.6078

>  <SCORE.INTER.CONST>
1

>  <SCORE.INTER.POLAR>
0

>  <SCORE.INTER.ROT>
0

>  <SCORE.INTER.SOLV>
7.66354

>  <SCORE.INTER.VDW>
-15.893

>  <SCORE.INTER.norm>
-1.46078

>  <SCORE.INTRA>
0

>  <SCORE.INTRA.DIHEDRAL>
0

>  <SCORE.INTRA.DIHEDRAL.0>
0

>  <SCORE.INTRA.POLAR>
0

>  <SCORE.INTRA.POLAR.0>
0

>  <SCORE.INTRA.REPUL>
0

>  <SCORE.INTRA.REPUL.0>
0

>  <SCORE.INTRA.SOLV>
0

>  <SCORE.INTRA.SOLV.lig_0>
-23.8918

>  <SCORE.INTRA.VDW>
0

>  <SCORE.INTRA.VDW.0>
0

>  <SCORE.INTRA.norm>
0

>  <SCORE.RESTR>
0

>  <SCORE.RESTR.CAVITY>
0

>  <SCORE.RESTR.norm>
0

>  <SCORE.SYSTEM>
0

>  <SCORE.SYSTEM.CONST>
0

>  <SCORE.SYSTEM.DIHEDRAL>
0

>  <SCORE.SYSTEM.SOLV>
0

>  <SCORE.SYSTEM.norm>
0

>  <SCORE.heavy>
10

>  <SCORE.norm>
-1.46078

>  <RMSD>
0.735

$$$$
ligand
 OpenBabel11021811513D
libRbt.so/2013.1/901 2013/11/27
 10 11  0  0  0  0  0  0  0  0999 V2000
    5.9232   17.3738    2.6324 N   0  0  0  0  0  0  0  0  0  0  0  0
    6.8158   18.3681    2.5553 C   0  0  0  0  0  0  0  0  0  0  0  0
    7.2169   19.2098    3.5068 N   0  0  0  0  0  0  0  0  0  0  0  0
    6.5903   18.9526    4.6654 C   0  0  0  0  0  0  0  0  0  0  0  0
    5.6504   17.9675    4.8996 C   0  0  0  0  0  0  0  0  0  0  0  0
    5.3100   17.1398    3.8115 C   0  0  0  0  0  0  0  0  0  0  0  0
    4.4184   16.1473    3.8928 N   0  0  0  0  0  0  0  0  0  0  0  0
    5.2225   18.0004    6.2165 N   0  0  0  0  0  0  0  0  0  0  0  0
    5.9017   18.9915    6.7435 C   0  0  0  0  0  0  0  0  0  0  0  0
    6.7461   19.6106    5.8641 N   0  0  0  0  0  0  0  0  0  0  0  0
  1  2  2  0  0  0  0
  1  6  1  0  0  0  0
  2  3  1  0  0  0  0
  3  4  2  0  0  0  0
  4  5  1  0  0  0  0
  4 10  1  0  0  0  0
  5  6  2  0  0  0  0
  5  8  1  0  0  0  0
  6  7  1  0  0  0  0
  8  9  1  0  0  0  0
  9 10  2  0  0  0  0
M  END
>  <CHROM.1>
5.97384562,18.16786749,4.47448499,-1.79751750,0.81790522,1.19057841

>  <Name>
ligand

>  <RI>
0

>  <Rbt.Current_Directory>
/home/itssahil/PROJECTS/Mol_Feturizer/New_Systems/rnas/4XNR

>  <Rbt.Executable>
rbdock ($Id: //depot/dev/client3/rdock/2013.1/src/exe/rbdock.cxx#4 $)

>  <Rbt.Library>
libRbt.so (2013.1, Build901 2013/11/27)

>  <Rbt.Parameter_File>
/export/apps/rDock/src/rDock_2013.1_src/data/scripts/dock_solv.prm

>  <Rbt.Receptor>
prm/blind_docking_40.prm

>  <SCORE>
-14.6064

>  <SCORE.INTER>
-14.6064

>  <SCORE.INTER.CONST>
1

>  <SCORE.INTER.POLAR>
0

>  <SCORE.INTER.ROT>
0

>  <SCORE.INTER.SOLV>
7.64368

>  <SCORE.INTER.VDW>
-15.8855

>  <SCORE.INTER.norm>
-1.46064

>  <SCORE.INTRA>
0

>  <SCORE.INTRA.DIHEDRAL>
0

>  <SCORE.INTRA.DIHEDRAL.0>
0

>  <SCORE.INTRA.POLAR>
0

>  <SCORE.INTRA.POLAR.0>
0

>  <SCORE.INTRA.REPUL>
0

>  <SCORE.INTRA.REPUL.0>
0

>  <SCORE.INTRA.SOLV>
0

>  <SCORE.INTRA.SOLV.lig_0>
-23.8918

>  <SCORE.INTRA.VDW>
0

>  <SCORE.INTRA.VDW.0>
0

>  <SCORE.INTRA.norm>
0

>  <SCORE.RESTR>
0

>  <SCORE.RESTR.CAVITY>
0

>  <SCORE.RESTR.norm>
0

>  <SCORE.SYSTEM>
0

>  <SCORE.SYSTEM.CONST>
0

>  <SCORE.SYSTEM.DIHEDRAL>
0

>  <SCORE.SYSTEM.SOLV>
0

>  <SCORE.SYSTEM.norm>
0

>  <SCORE.heavy>
10

>  <SCORE.norm>
-1.46064

>  <RMSD>
0.736

$$$$
ligand
 OpenBabel11021811513D
libRbt.so/2013.1/901 2013/11/27
 10 11  0  0  0  0  0  0  0  0999 V2000
    5.8826   17.3715    2.6348 N   0  0  0  0  0  0  0  0  0  0  0  0
    6.7831   18.3577    2.5466 C   0  0  0  0  0  0  0  0  0  0  0  0
    7.2033   19.1959    3.4930 N   0  0  0  0  0  0  0  0  0  0  0  0
    6.5885   18.9445    4.6592 C   0  0  0  0  0  0  0  0  0  0  0  0
    5.6427   17.9680    4.9050 C   0  0  0  0  0  0  0  0  0  0  0  0
    5.2817   17.1432    3.8213 C   0  0  0  0  0  0  0  0  0  0  0  0
    4.3822   16.1588    3.9137 N   0  0  0  0  0  0  0  0  0  0  0  0
    5.2312   18.0048    6.2269 N   0  0  0  0  0  0  0  0  0  0  0  0
    5.9256   18.9898    6.7454 C   0  0  0  0  0  0  0  0  0  0  0  0
    6.7648   19.6012    5.8557 N   0  0  0  0  0  0  0  0  0  0  0  0
  1  2  2  0  0  0  0
  1  6  1  0  0  0  0
  2  3  1  0  0  0  0
  3  4  2  0  0  0  0
  4  5  1  0  0  0  0
  4 10  1  0  0  0  0
  5  6  2  0  0  0  0
  5  8  1  0  0  0  0
  6  7  1  0  0  0  0
  8  9  1  0  0  0  0
  9 10  2  0  0  0  0
M  END
>  <CHROM.1>
5.96276179,18.16531306,4.47591739,-1.81881475,0.81394474,1.20592717

>  <Name>
ligand

>  <RI>
0

>  <Rbt.Current_Directory>
/home/itssahil/PROJECTS/Mol_Feturizer/New_Systems/rnas/4XNR

>  <Rbt.Executable>
rbdock ($Id: //depot/dev/client3/rdock/2013.1/src/exe/rbdock.cxx#4 $)

>  <Rbt.Library>
libRbt.so (2013.1, Build901 2013/11/27)

>  <Rbt.Parameter_File>
/export/apps/rDock/src/rDock_2013.1_src/data/scripts/dock_solv.prm

>  <Rbt.Receptor>
prm/blind_docking_40.prm

>  <SCORE>
-14.5997

>  <SCORE.INTER>
-14.5997

>  <SCORE.INTER.CONST>
1

>  <SCORE.INTER.POLAR>
0

>  <SCORE.INTER.ROT>
0

>  <SCORE.INTER.SOLV>
7.63529

>  <SCORE.INTER.VDW>
-15.8783

>  <SCORE.INTER.norm>
-1.45997

>  <SCORE.INTRA>
0

>  <SCORE.INTRA.DIHEDRAL>
0

>  <SCORE.INTRA.DIHEDRAL.0>
0

>  <SCORE.INTRA.POLAR>
0

>  <SCORE.INTRA.POLAR.0>
0

>  <SCORE.INTRA.REPUL>
0

>  <SCORE.INTRA.REPUL.0>
0

>  <SCORE.INTRA.SOLV>
0

>  <SCORE.INTRA.SOLV.lig_0>
-23.8918

>  <SCORE.INTRA.VDW>
0

>  <SCORE.INTRA.VDW.0>
0

>  <SCORE.INTRA.norm>
0

>  <SCORE.RESTR>
0

>  <SCORE.RESTR.CAVITY>
0

>  <SCORE.RESTR.norm>
0

>  <SCORE.SYSTEM>
0

>  <SCORE.SYSTEM.CONST>
0

>  <SCORE.SYSTEM.DIHEDRAL>
0

>  <SCORE.SYSTEM.SOLV>
0

>  <SCORE.SYSTEM.norm>
0

>  <SCORE.heavy>
10

>  <SCORE.norm>
-1.45997

>  <RMSD>
0.736

$$$$
ligand
 OpenBabel11021811513D
libRbt.so/2013.1/901 2013/11/27
 10 11  0  0  0  0  0  0  0  0999 V2000
    5.9015   17.3734    2.6325 N   0  0  0  0  0  0  0  0  0  0  0  0
    6.7988   18.3630    2.5494 C   0  0  0  0  0  0  0  0  0  0  0  0
    7.2105   19.2027    3.4982 N   0  0  0  0  0  0  0  0  0  0  0  0
    6.5903   18.9488    4.6609 C   0  0  0  0  0  0  0  0  0  0  0  0
    5.6467   17.9687    4.9014 C   0  0  0  0  0  0  0  0  0  0  0  0
    5.2949   17.1427    3.8157 C   0  0  0  0  0  0  0  0  0  0  0  0
    4.3986   16.1549    3.9030 N   0  0  0  0  0  0  0  0  0  0  0  0
    5.2278   18.0039    6.2211 N   0  0  0  0  0  0  0  0  0  0  0  0
    5.9156   18.9915    6.7435 C   0  0  0  0  0  0  0  0  0  0  0  0
    6.7574   19.6061    5.8584 N   0  0  0  0  0  0  0  0  0  0  0  0
  1  2  2  0  0  0  0
  1  6  1  0  0  0  0
  2  3  1  0  0  0  0
  3  4  2  0  0  0  0
  4  5  1  0  0  0  0
  4 10  1  0  0  0  0
  5  6  2  0  0  0  0
  5  8  1  0  0  0  0
  6  7  1  0  0  0  0
  8  9  1  0  0  0  0
  9 10  2  0  0  0  0
M  END
>  <CHROM.1>
5.96845491,18.16733443,4.47412993,-1.80930478,0.81546561,1.19907401

>  <Name>
ligand

>  <RI>
0

>  <Rbt.Current_Directory>
/home/itssahil/PROJECTS/Mol_Feturizer/New_Systems/rnas/4XNR

>  <Rbt.Executable>
rbdock ($Id: //depot/dev/client3/rdock/2013.1/src/exe/rbdock.cxx#4 $)

>  <Rbt.Library>
libRbt.so (2013.1, Build901 2013/11/27)

>  <Rbt.Parameter_File>
/export/apps/rDock/src/rDock_2013.1_src/data/scripts/dock_solv.prm

>  <Rbt.Receptor>
prm/blind_docking_80.prm

>  <SCORE>
-14.6095

>  <SCORE.INTER>
-14.6095

>  <SCORE.INTER.CONST>
1

>  <SCORE.INTER.POLAR>
0

>  <SCORE.INTER.ROT>
0

>  <SCORE.INTER.SOLV>
7.62489

>  <SCORE.INTER.VDW>
-15.8813

>  <SCORE.INTER.norm>
-1.46095

>  <SCORE.INTRA>
0

>  <SCORE.INTRA.DIHEDRAL>
0

>  <SCORE.INTRA.DIHEDRAL.0>
0

>  <SCORE.INTRA.POLAR>
0

>  <SCORE.INTRA.POLAR.0>
0

>  <SCORE.INTRA.REPUL>
0

>  <SCORE.INTRA.REPUL.0>
0

>  <SCORE.INTRA.SOLV>
0

>  <SCORE.INTRA.SOLV.lig_0>
-23.8918

>  <SCORE.INTRA.VDW>
0

>  <SCORE.INTRA.VDW.0>
0

>  <SCORE.INTRA.norm>
0

>  <SCORE.RESTR>
0

>  <SCORE.RESTR.CAVITY>
0

>  <SCORE.RESTR.norm>
0

>  <SCORE.SYSTEM>
0

>  <SCORE.SYSTEM.CONST>
0

>  <SCORE.SYSTEM.DIHEDRAL>
0

>  <SCORE.SYSTEM.SOLV>
0

>  <SCORE.SYSTEM.norm>
0

>  <SCORE.heavy>
10

>  <SCORE.norm>
-1.46095

>  <RMSD>
0.736

$$$$
ligand
 OpenBabel11021811513D
libRbt.so/2013.1/901 2013/11/27
 10 11  0  0  0  0  0  0  0  0999 V2000
    5.8753   17.3999    2.6172 N   0  0  0  0  0  0  0  0  0  0  0  0
    6.7755   18.3881    2.5500 C   0  0  0  0  0  0  0  0  0  0  0  0
    7.1936   19.2076    3.5134 N   0  0  0  0  0  0  0  0  0  0  0  0
    6.5770   18.9330    4.6733 C   0  0  0  0  0  0  0  0  0  0  0  0
    5.6311   17.9514    4.8983 C   0  0  0  0  0  0  0  0  0  0  0  0
    5.2724   17.1480    3.7979 C   0  0  0  0  0  0  0  0  0  0  0  0
    4.3732   16.1616    3.8693 N   0  0  0  0  0  0  0  0  0  0  0  0
    5.2173   17.9621    6.2200 N   0  0  0  0  0  0  0  0  0  0  0  0
    5.9104   18.9370    6.7589 C   0  0  0  0  0  0  0  0  0  0  0  0
    6.7508   19.5661    5.8829 N   0  0  0  0  0  0  0  0  0  0  0  0
  1  2  2  0  0  0  0
  1  6  1  0  0  0  0
  2  3  1  0  0  0  0
  3  4  2  0  0  0  0
  4  5  1  0  0  0  0
  4 10  1  0  0  0  0
  5  6  2  0  0  0  0
  5  8  1  0  0  0  0
  6  7  1  0  0  0  0
  8  9  1  0  0  0  0
  9 10  2  0  0  0  0
M  END
>  <CHROM.1>
5.95187280,18.15734783,4.47370126,-1.81622545,0.81376581,1.22371944

>  <Name>
ligand

>  <RI>
0

>  <Rbt.Current_Directory>
/home/itssahil/PROJECTS/Mol_Feturizer/New_Systems/rnas/4XNR

>  <Rbt.Executable>
rbdock ($Id: //depot/dev/client3/rdock/2013.1/src/exe/rbdock.cxx#4 $)

>  <Rbt.Library>
libRbt.so (2013.1, Build901 2013/11/27)

>  <Rbt.Parameter_File>
/export/apps/rDock/src/rDock_2013.1_src/data/scripts/dock_solv.prm

>  <Rbt.Receptor>
prm/pocket_docking_3.prm

>  <SCORE>
-14.5577

>  <SCORE.INTER>
-14.5577

>  <SCORE.INTER.CONST>
1

>  <SCORE.INTER.POLAR>
0

>  <SCORE.INTER.ROT>
0

>  <SCORE.INTER.SOLV>
7.48922

>  <SCORE.INTER.VDW>
-15.8016

>  <SCORE.INTER.norm>
-1.45577

>  <SCORE.INTRA>
0

>  <SCORE.INTRA.DIHEDRAL>
0

>  <SCORE.INTRA.DIHEDRAL.0>
0

>  <SCORE.INTRA.POLAR>
0

>  <SCORE.INTRA.POLAR.0>
0

>  <SCORE.INTRA.REPUL>
0

>  <SCORE.INTRA.REPUL.0>
0

>  <SCORE.INTRA.SOLV>
0

>  <SCORE.INTRA.SOLV.lig_0>
-23.8918

>  <SCORE.INTRA.VDW>
0

>  <SCORE.INTRA.VDW.0>
0

>  <SCORE.INTRA.norm>
0

>  <SCORE.RESTR>
0

>  <SCORE.RESTR.CAVITY>
0

>  <SCORE.RESTR.norm>
0

>  <SCORE.SYSTEM>
0

>  <SCORE.SYSTEM.CONST>
0

>  <SCORE.SYSTEM.DIHEDRAL>
0

>  <SCORE.SYSTEM.SOLV>
0

>  <SCORE.SYSTEM.norm>
0

>  <SCORE.heavy>
10

>  <SCORE.norm>
-1.45577

>  <RMSD>
0.736

$$$$
ligand
 OpenBabel11021811513D
libRbt.so/2013.1/901 2013/11/27
 10 11  0  0  0  0  0  0  0  0999 V2000
    5.9181   17.3848    2.6270 N   0  0  0  0  0  0  0  0  0  0  0  0
    6.8192   18.3710    2.5447 C   0  0  0  0  0  0  0  0  0  0  0  0
    7.2365   19.2063    3.4949 N   0  0  0  0  0  0  0  0  0  0  0  0
    6.6178   18.9516    4.6583 C   0  0  0  0  0  0  0  0  0  0  0  0
    5.6708   17.9746    4.8981 C   0  0  0  0  0  0  0  0  0  0  0  0
    5.3132   17.1532    3.8108 C   0  0  0  0  0  0  0  0  0  0  0  0
    4.4131   16.1688    3.8973 N   0  0  0  0  0  0  0  0  0  0  0  0
    5.2549   18.0077    6.2188 N   0  0  0  0  0  0  0  0  0  0  0  0
    5.9480   18.9910    6.7425 C   0  0  0  0  0  0  0  0  0  0  0  0
    6.7902   19.6047    5.8574 N   0  0  0  0  0  0  0  0  0  0  0  0
  1  2  2  0  0  0  0
  1  6  1  0  0  0  0
  2  3  1  0  0  0  0
  3  4  2  0  0  0  0
  4  5  1  0  0  0  0
  4 10  1  0  0  0  0
  5  6  2  0  0  0  0
  5  8  1  0  0  0  0
  6  7  1  0  0  0  0
  8  9  1  0  0  0  0
  9 10  2  0  0  0  0
M  END
>  <CHROM.1>
5.99235904,18.17316261,4.47070096,-1.81448291,0.81246269,1.20572363

>  <Name>
ligand

>  <RI>
0

>  <Rbt.Current_Directory>
/home/itssahil/PROJECTS/Mol_Feturizer/New_Systems/rnas/4XNR

>  <Rbt.Executable>
rbdock ($Id: //depot/dev/client3/rdock/2013.1/src/exe/rbdock.cxx#4 $)

>  <Rbt.Library>
libRbt.so (2013.1, Build901 2013/11/27)

>  <Rbt.Parameter_File>
/export/apps/rDock/src/rDock_2013.1_src/data/scripts/dock_solv.prm

>  <Rbt.Receptor>
prm/pocket_docking_4.prm

>  <SCORE>
-14.5867

>  <SCORE.INTER>
-14.5867

>  <SCORE.INTER.CONST>
1

>  <SCORE.INTER.POLAR>
0

>  <SCORE.INTER.ROT>
0

>  <SCORE.INTER.SOLV>
7.6027

>  <SCORE.INTER.VDW>
-15.8587

>  <SCORE.INTER.norm>
-1.45867

>  <SCORE.INTRA>
0

>  <SCORE.INTRA.DIHEDRAL>
0

>  <SCORE.INTRA.DIHEDRAL.0>
0

>  <SCORE.INTRA.POLAR>
0

>  <SCORE.INTRA.POLAR.0>
0

>  <SCORE.INTRA.REPUL>
0

>  <SCORE.INTRA.REPUL.0>
0

>  <SCORE.INTRA.SOLV>
0

>  <SCORE.INTRA.SOLV.lig_0>
-23.8918

>  <SCORE.INTRA.VDW>
0

>  <SCORE.INTRA.VDW.0>
0

>  <SCORE.INTRA.norm>
0

>  <SCORE.RESTR>
0

>  <SCORE.RESTR.CAVITY>
0

>  <SCORE.RESTR.norm>
0

>  <SCORE.SYSTEM>
0

>  <SCORE.SYSTEM.CONST>
0

>  <SCORE.SYSTEM.DIHEDRAL>
0

>  <SCORE.SYSTEM.SOLV>
0

>  <SCORE.SYSTEM.norm>
0

>  <SCORE.heavy>
10

>  <SCORE.norm>
-1.45867

>  <RMSD>
0.736

$$$$
ligand
 OpenBabel11021811513D
libRbt.so/2013.1/901 2013/11/27
 10 11  0  0  0  0  0  0  0  0999 V2000
    5.8760   17.3971    2.6177 N   0  0  0  0  0  0  0  0  0  0  0  0
    6.7671   18.3935    2.5513 C   0  0  0  0  0  0  0  0  0  0  0  0
    7.1765   19.2172    3.5150 N   0  0  0  0  0  0  0  0  0  0  0  0
    6.5609   18.9373    4.6742 C   0  0  0  0  0  0  0  0  0  0  0  0
    5.6239   17.9471    4.8983 C   0  0  0  0  0  0  0  0  0  0  0  0
    5.2740   17.1400    3.7978 C   0  0  0  0  0  0  0  0  0  0  0  0
    4.3839   16.1454    3.8685 N   0  0  0  0  0  0  0  0  0  0  0  0
    5.2084   17.9544    6.2195 N   0  0  0  0  0  0  0  0  0  0  0  0
    5.8918   18.9359    6.7590 C   0  0  0  0  0  0  0  0  0  0  0  0
    6.7274   19.5724    5.8838 N   0  0  0  0  0  0  0  0  0  0  0  0
  1  2  2  0  0  0  0
  1  6  1  0  0  0  0
  2  3  1  0  0  0  0
  3  4  2  0  0  0  0
  4  5  1  0  0  0  0
  4 10  1  0  0  0  0
  5  6  2  0  0  0  0
  5  8  1  0  0  0  0
  6  7  1  0  0  0  0
  8  9  1  0  0  0  0
  9 10  2  0  0  0  0
M  END
>  <CHROM.1>
5.94325596,18.15585176,4.47409003,-1.80990056,0.82200527,1.21876810

>  <Name>
ligand

>  <RI>
0

>  <Rbt.Current_Directory>
/home/itssahil/PROJECTS/Mol_Feturizer/New_Systems/rnas/4XNR

>  <Rbt.Executable>
rbdock ($Id: //depot/dev/client3/rdock/2013.1/src/exe/rbdock.cxx#4 $)

>  <Rbt.Library>
libRbt.so (2013.1, Build901 2013/11/27)

>  <Rbt.Parameter_File>
/export/apps/rDock/src/rDock_2013.1_src/data/scripts/dock_solv.prm

>  <Rbt.Receptor>
prm/pocket_docking_4.prm

>  <SCORE>
-14.553

>  <SCORE.INTER>
-14.553

>  <SCORE.INTER.CONST>
1

>  <SCORE.INTER.POLAR>
0

>  <SCORE.INTER.ROT>
0

>  <SCORE.INTER.SOLV>
7.54719

>  <SCORE.INTER.VDW>
-15.8177

>  <SCORE.INTER.norm>
-1.4553

>  <SCORE.INTRA>
0

>  <SCORE.INTRA.DIHEDRAL>
0

>  <SCORE.INTRA.DIHEDRAL.0>
0

>  <SCORE.INTRA.POLAR>
0

>  <SCORE.INTRA.POLAR.0>
0

>  <SCORE.INTRA.REPUL>
0

>  <SCORE.INTRA.REPUL.0>
0

>  <SCORE.INTRA.SOLV>
0

>  <SCORE.INTRA.SOLV.lig_0>
-23.8918

>  <SCORE.INTRA.VDW>
0

>  <SCORE.INTRA.VDW.0>
0

>  <SCORE.INTRA.norm>
0

>  <SCORE.RESTR>
0

>  <SCORE.RESTR.CAVITY>
0

>  <SCORE.RESTR.norm>
0

>  <SCORE.SYSTEM>
0

>  <SCORE.SYSTEM.CONST>
0

>  <SCORE.SYSTEM.DIHEDRAL>
0

>  <SCORE.SYSTEM.SOLV>
0

>  <SCORE.SYSTEM.norm>
0

>  <SCORE.heavy>
10

>  <SCORE.norm>
-1.4553

>  <RMSD>
0.736

$$$$
ligand
 OpenBabel11021811513D
libRbt.so/2013.1/901 2013/11/27
 10 11  0  0  0  0  0  0  0  0999 V2000
    5.9006   17.3743    2.6324 N   0  0  0  0  0  0  0  0  0  0  0  0
    6.7987   18.3633    2.5502 C   0  0  0  0  0  0  0  0  0  0  0  0
    7.2117   19.2013    3.4998 N   0  0  0  0  0  0  0  0  0  0  0  0
    6.5918   18.9464    4.6625 C   0  0  0  0  0  0  0  0  0  0  0  0
    5.6475   17.9669    4.9022 C   0  0  0  0  0  0  0  0  0  0  0  0
    5.2944   17.1426    3.8155 C   0  0  0  0  0  0  0  0  0  0  0  0
    4.3972   16.1555    3.9020 N   0  0  0  0  0  0  0  0  0  0  0  0
    5.2292   18.0007    6.2221 N   0  0  0  0  0  0  0  0  0  0  0  0
    5.9182   18.9869    6.7455 C   0  0  0  0  0  0  0  0  0  0  0  0
    6.7601   19.6019    5.8609 N   0  0  0  0  0  0  0  0  0  0  0  0
  1  2  2  0  0  0  0
  1  6  1  0  0  0  0
  2  3  1  0  0  0  0
  3  4  2  0  0  0  0
  4  5  1  0  0  0  0
  4 10  1  0  0  0  0
  5  6  2  0  0  0  0
  5  8  1  0  0  0  0
  6  7  1  0  0  0  0
  8  9  1  0  0  0  0
  9 10  2  0  0  0  0
M  END
>  <CHROM.1>
5.96917273,18.16576378,4.47502333,-1.81044508,0.81479307,1.20125370

>  <Name>
ligand

>  <RI>
0

>  <Rbt.Current_Directory>
/home/itssahil/PROJECTS/Mol_Feturizer/New_Systems/rnas/4XNR

>  <Rbt.Executable>
rbdock ($Id: //depot/dev/client3/rdock/2013.1/src/exe/rbdock.cxx#4 $)

>  <Rbt.Library>
libRbt.so (2013.1, Build901 2013/11/27)

>  <Rbt.Parameter_File>
/export/apps/rDock/src/rDock_2013.1_src/data/scripts/dock_solv.prm

>  <Rbt.Receptor>
prm/pocket_docking_4.prm

>  <SCORE>
-14.6093

>  <SCORE.INTER>
-14.6093

>  <SCORE.INTER.CONST>
1

>  <SCORE.INTER.POLAR>
0

>  <SCORE.INTER.ROT>
0

>  <SCORE.INTER.SOLV>
7.61712

>  <SCORE.INTER.VDW>
-15.8786

>  <SCORE.INTER.norm>
-1.46093

>  <SCORE.INTRA>
0

>  <SCORE.INTRA.DIHEDRAL>
0

>  <SCORE.INTRA.DIHEDRAL.0>
0

>  <SCORE.INTRA.POLAR>
0

>  <SCORE.INTRA.POLAR.0>
0

>  <SCORE.INTRA.REPUL>
0

>  <SCORE.INTRA.REPUL.0>
0

>  <SCORE.INTRA.SOLV>
0

>  <SCORE.INTRA.SOLV.lig_0>
-23.8918

>  <SCORE.INTRA.VDW>
0

>  <SCORE.INTRA.VDW.0>
0

>  <SCORE.INTRA.norm>
0

>  <SCORE.RESTR>
0

>  <SCORE.RESTR.CAVITY>
0

>  <SCORE.RESTR.norm>
0

>  <SCORE.SYSTEM>
0

>  <SCORE.SYSTEM.CONST>
0

>  <SCORE.SYSTEM.DIHEDRAL>
0

>  <SCORE.SYSTEM.SOLV>
0

>  <SCORE.SYSTEM.norm>
0

>  <SCORE.heavy>
10

>  <SCORE.norm>
-1.46093

>  <RMSD>
0.736

$$$$
ligand
 OpenBabel11021811513D
libRbt.so/2013.1/901 2013/11/27
 10 11  0  0  0  0  0  0  0  0999 V2000
    5.8902   17.3647    2.6393 N   0  0  0  0  0  0  0  0  0  0  0  0
    6.7849   18.3562    2.5508 C   0  0  0  0  0  0  0  0  0  0  0  0
    7.1994   19.1978    3.4966 N   0  0  0  0  0  0  0  0  0  0  0  0
    6.5852   18.9440    4.6625 C   0  0  0  0  0  0  0  0  0  0  0  0
    5.6449   17.9622    4.9086 C   0  0  0  0  0  0  0  0  0  0  0  0
    5.2897   17.1341    3.8255 C   0  0  0  0  0  0  0  0  0  0  0  0
    4.3959   16.1446    3.9183 N   0  0  0  0  0  0  0  0  0  0  0  0
    5.2321   17.9981    6.2302 N   0  0  0  0  0  0  0  0  0  0  0  0
    5.9203   18.9877    6.7482 C   0  0  0  0  0  0  0  0  0  0  0  0
    6.7565   19.6030    5.8585 N   0  0  0  0  0  0  0  0  0  0  0  0
  1  2  2  0  0  0  0
  1  6  1  0  0  0  0
  2  3  1  0  0  0  0
  3  4  2  0  0  0  0
  4  5  1  0  0  0  0
  4 10  1  0  0  0  0
  5  6  2  0  0  0  0
  5  8  1  0  0  0  0
  6  7  1  0  0  0  0
  8  9  1  0  0  0  0
  9 10  2  0  0  0  0
M  END
>  <CHROM.1>
5.96413585,18.16098633,4.47961472,-1.81462499,0.81914881,1.20179553

>  <Name>
ligand

>  <RI>
0

>  <Rbt.Current_Directory>
/home/itssahil/PROJECTS/Mol_Feturizer/New_Systems/rnas/4XNR

>  <Rbt.Executable>
rbdock ($Id: //depot/dev/client3/rdock/2013.1/src/exe/rbdock.cxx#4 $)

>  <Rbt.Library>
libRbt.so (2013.1, Build901 2013/11/27)

>  <Rbt.Parameter_File>
/export/apps/rDock/src/rDock_2013.1_src/data/scripts/dock_solv.prm

>  <Rbt.Receptor>
prm/blind_docking_80.prm

>  <SCORE>
-14.597

>  <SCORE.INTER>
-14.597

>  <SCORE.INTER.CONST>
1

>  <SCORE.INTER.POLAR>
0

>  <SCORE.INTER.ROT>
0

>  <SCORE.INTER.SOLV>
7.69089

>  <SCORE.INTER.VDW>
-15.8949

>  <SCORE.INTER.norm>
-1.4597

>  <SCORE.INTRA>
0

>  <SCORE.INTRA.DIHEDRAL>
0

>  <SCORE.INTRA.DIHEDRAL.0>
0

>  <SCORE.INTRA.POLAR>
0

>  <SCORE.INTRA.POLAR.0>
0

>  <SCORE.INTRA.REPUL>
0

>  <SCORE.INTRA.REPUL.0>
0

>  <SCORE.INTRA.SOLV>
0

>  <SCORE.INTRA.SOLV.lig_0>
-23.8918

>  <SCORE.INTRA.VDW>
0

>  <SCORE.INTRA.VDW.0>
0

>  <SCORE.INTRA.norm>
0

>  <SCORE.RESTR>
0

>  <SCORE.RESTR.CAVITY>
0

>  <SCORE.RESTR.norm>
0

>  <SCORE.SYSTEM>
0

>  <SCORE.SYSTEM.CONST>
0

>  <SCORE.SYSTEM.DIHEDRAL>
0

>  <SCORE.SYSTEM.SOLV>
0

>  <SCORE.SYSTEM.norm>
0

>  <SCORE.heavy>
10

>  <SCORE.norm>
-1.4597

>  <RMSD>
0.737

$$$$
ligand
 OpenBabel11021811513D
libRbt.so/2013.1/901 2013/11/27
 10 11  0  0  0  0  0  0  0  0999 V2000
    5.8757   17.4063    2.6229 N   0  0  0  0  0  0  0  0  0  0  0  0
    6.7246   18.4366    2.5271 C   0  0  0  0  0  0  0  0  0  0  0  0
    7.1195   19.2876    3.4729 N   0  0  0  0  0  0  0  0  0  0  0  0
    6.5387   18.9975    4.6475 C   0  0  0  0  0  0  0  0  0  0  0  0
    5.6468   17.9735    4.9017 C   0  0  0  0  0  0  0  0  0  0  0  0
    5.3080   17.1397    3.8177 C   0  0  0  0  0  0  0  0  0  0  0  0
    4.4601   16.1112    3.9176 N   0  0  0  0  0  0  0  0  0  0  0  0
    5.2575   17.9802    6.2308 N   0  0  0  0  0  0  0  0  0  0  0  0
    5.9115   18.9947    6.7452 C   0  0  0  0  0  0  0  0  0  0  0  0
    6.7034   19.6534    5.8461 N   0  0  0  0  0  0  0  0  0  0  0  0
  1  2  2  0  0  0  0
  1  6  1  0  0  0  0
  2  3  1  0  0  0  0
  3  4  2  0  0  0  0
  4  5  1  0  0  0  0
  4 10  1  0  0  0  0
  5  6  2  0  0  0  0
  5  8  1  0  0  0  0
  6  7  1  0  0  0  0
  8  9  1  0  0  0  0
  9 10  2  0  0  0  0
M  END
>  <CHROM.1>
5.94910372,18.18960534,4.46874051,-1.81712812,0.86652329,1.21241072

>  <Name>
ligand

>  <RI>
0

>  <Rbt.Current_Directory>
/home/itssahil/PROJECTS/Mol_Feturizer/New_Systems/rnas/4XNR

>  <Rbt.Executable>
rbdock ($Id: //depot/dev/client3/rdock/2013.1/src/exe/rbdock.cxx#4 $)

>  <Rbt.Library>
libRbt.so (2013.1, Build901 2013/11/27)

>  <Rbt.Parameter_File>
/export/apps/rDock/src/rDock_2013.1_src/data/scripts/dock_solv.prm

>  <Rbt.Receptor>
prm/blind_docking_80.prm

>  <SCORE>
-14.5393

>  <SCORE.INTER>
-14.5393

>  <SCORE.INTER.CONST>
1

>  <SCORE.INTER.POLAR>
0

>  <SCORE.INTER.ROT>
0

>  <SCORE.INTER.SOLV>
7.8849

>  <SCORE.INTER.VDW>
-15.9212

>  <SCORE.INTER.norm>
-1.45393

>  <SCORE.INTRA>
0

>  <SCORE.INTRA.DIHEDRAL>
0

>  <SCORE.INTRA.DIHEDRAL.0>
0

>  <SCORE.INTRA.POLAR>
0

>  <SCORE.INTRA.POLAR.0>
0

>  <SCORE.INTRA.REPUL>
0

>  <SCORE.INTRA.REPUL.0>
0

>  <SCORE.INTRA.SOLV>
0

>  <SCORE.INTRA.SOLV.lig_0>
-23.8918

>  <SCORE.INTRA.VDW>
0

>  <SCORE.INTRA.VDW.0>
0

>  <SCORE.INTRA.norm>
0

>  <SCORE.RESTR>
0

>  <SCORE.RESTR.CAVITY>
0

>  <SCORE.RESTR.norm>
0

>  <SCORE.SYSTEM>
0

>  <SCORE.SYSTEM.CONST>
0

>  <SCORE.SYSTEM.DIHEDRAL>
0

>  <SCORE.SYSTEM.SOLV>
0

>  <SCORE.SYSTEM.norm>
0

>  <SCORE.heavy>
10

>  <SCORE.norm>
-1.45393

>  <RMSD>
0.737

$$$$
ligand
 OpenBabel11021811513D
libRbt.so/2013.1/901 2013/11/27
 10 11  0  0  0  0  0  0  0  0999 V2000
    5.8785   17.3741    2.6336 N   0  0  0  0  0  0  0  0  0  0  0  0
    6.7818   18.3577    2.5453 C   0  0  0  0  0  0  0  0  0  0  0  0
    7.2042   19.1950    3.4915 N   0  0  0  0  0  0  0  0  0  0  0  0
    6.5885   18.9457    4.6576 C   0  0  0  0  0  0  0  0  0  0  0  0
    5.6398   17.9719    4.9036 C   0  0  0  0  0  0  0  0  0  0  0  0
    5.2767   17.1478    3.8200 C   0  0  0  0  0  0  0  0  0  0  0  0
    4.3744   16.1660    3.9125 N   0  0  0  0  0  0  0  0  0  0  0  0
    5.2281   18.0104    6.2254 N   0  0  0  0  0  0  0  0  0  0  0  0
    5.9252   18.9936    6.7438 C   0  0  0  0  0  0  0  0  0  0  0  0
    6.7663   19.6022    5.8540 N   0  0  0  0  0  0  0  0  0  0  0  0
  1  2  2  0  0  0  0
  1  6  1  0  0  0  0
  2  3  1  0  0  0  0
  3  4  2  0  0  0  0
  4  5  1  0  0  0  0
  4 10  1  0  0  0  0
  5  6  2  0  0  0  0
  5  8  1  0  0  0  0
  6  7  1  0  0  0  0
  8  9  1  0  0  0  0
  9 10  2  0  0  0  0
M  END
>  <CHROM.1>
5.96051537,18.16824167,4.47448709,-1.81999357,0.81120533,1.20647056

>  <Name>
ligand

>  <RI>
0

>  <Rbt.Current_Directory>
/home/itssahil/PROJECTS/Mol_Feturizer/New_Systems/rnas/4XNR

>  <Rbt.Executable>
rbdock ($Id: //depot/dev/client3/rdock/2013.1/src/exe/rbdock.cxx#4 $)

>  <Rbt.Library>
libRbt.so (2013.1, Build901 2013/11/27)

>  <Rbt.Parameter_File>
/export/apps/rDock/src/rDock_2013.1_src/data/scripts/dock_solv.prm

>  <Rbt.Receptor>
prm/pocket_docking_3.prm

>  <SCORE>
-14.5997

>  <SCORE.INTER>
-14.5997

>  <SCORE.INTER.CONST>
1

>  <SCORE.INTER.POLAR>
0

>  <SCORE.INTER.ROT>
0

>  <SCORE.INTER.SOLV>
7.61074

>  <SCORE.INTER.VDW>
-15.8701

>  <SCORE.INTER.norm>
-1.45997

>  <SCORE.INTRA>
0

>  <SCORE.INTRA.DIHEDRAL>
0

>  <SCORE.INTRA.DIHEDRAL.0>
0

>  <SCORE.INTRA.POLAR>
0

>  <SCORE.INTRA.POLAR.0>
0

>  <SCORE.INTRA.REPUL>
0

>  <SCORE.INTRA.REPUL.0>
0

>  <SCORE.INTRA.SOLV>
0

>  <SCORE.INTRA.SOLV.lig_0>
-23.8918

>  <SCORE.INTRA.VDW>
0

>  <SCORE.INTRA.VDW.0>
0

>  <SCORE.INTRA.norm>
0

>  <SCORE.RESTR>
0

>  <SCORE.RESTR.CAVITY>
0

>  <SCORE.RESTR.norm>
0

>  <SCORE.SYSTEM>
0

>  <SCORE.SYSTEM.CONST>
0

>  <SCORE.SYSTEM.DIHEDRAL>
0

>  <SCORE.SYSTEM.SOLV>
0

>  <SCORE.SYSTEM.norm>
0

>  <SCORE.heavy>
10

>  <SCORE.norm>
-1.45997

>  <RMSD>
0.737

$$$$
ligand
 OpenBabel11021811513D
libRbt.so/2013.1/901 2013/11/27
 10 11  0  0  0  0  0  0  0  0999 V2000
    5.9346   17.3824    2.6292 N   0  0  0  0  0  0  0  0  0  0  0  0
    6.8318   18.3725    2.5506 C   0  0  0  0  0  0  0  0  0  0  0  0
    7.2390   19.2119    3.5015 N   0  0  0  0  0  0  0  0  0  0  0  0
    6.6135   18.9573    4.6613 C   0  0  0  0  0  0  0  0  0  0  0  0
    5.6693   17.9767    4.8972 C   0  0  0  0  0  0  0  0  0  0  0  0
    5.3228   17.1510    3.8095 C   0  0  0  0  0  0  0  0  0  0  0  0
    4.4265   16.1628    3.8924 N   0  0  0  0  0  0  0  0  0  0  0  0
    5.2444   18.0112    6.2149 N   0  0  0  0  0  0  0  0  0  0  0  0
    5.9295   18.9988    6.7408 C   0  0  0  0  0  0  0  0  0  0  0  0
    6.7750   19.6141    5.8599 N   0  0  0  0  0  0  0  0  0  0  0  0
  1  2  2  0  0  0  0
  1  6  1  0  0  0  0
  2  3  1  0  0  0  0
  3  4  2  0  0  0  0
  4  5  1  0  0  0  0
  4 10  1  0  0  0  0
  5  6  2  0  0  0  0
  5  8  1  0  0  0  0
  6  7  1  0  0  0  0
  8  9  1  0  0  0  0
  9 10  2  0  0  0  0
M  END
>  <CHROM.1>
5.99291190,18.17564373,4.47141332,-1.80295851,0.81418198,1.19488154

>  <Name>
ligand

>  <RI>
0

>  <Rbt.Current_Directory>
/home/itssahil/PROJECTS/Mol_Feturizer/New_Systems/rnas/4XNR

>  <Rbt.Executable>
rbdock ($Id: //depot/dev/client3/rdock/2013.1/src/exe/rbdock.cxx#4 $)

>  <Rbt.Library>
libRbt.so (2013.1, Build901 2013/11/27)

>  <Rbt.Parameter_File>
/export/apps/rDock/src/rDock_2013.1_src/data/scripts/dock_solv.prm

>  <Rbt.Receptor>
prm/pocket_docking_3.prm

>  <SCORE>
-14.5866

>  <SCORE.INTER>
-14.5866

>  <SCORE.INTER.CONST>
1

>  <SCORE.INTER.POLAR>
0

>  <SCORE.INTER.ROT>
0

>  <SCORE.INTER.SOLV>
7.62521

>  <SCORE.INTER.VDW>
-15.8662

>  <SCORE.INTER.norm>
-1.45866

>  <SCORE.INTRA>
0

>  <SCORE.INTRA.DIHEDRAL>
0

>  <SCORE.INTRA.DIHEDRAL.0>
0

>  <SCORE.INTRA.POLAR>
0

>  <SCORE.INTRA.POLAR.0>
0

>  <SCORE.INTRA.REPUL>
0

>  <SCORE.INTRA.REPUL.0>
0

>  <SCORE.INTRA.SOLV>
0

>  <SCORE.INTRA.SOLV.lig_0>
-23.8918

>  <SCORE.INTRA.VDW>
0

>  <SCORE.INTRA.VDW.0>
0

>  <SCORE.INTRA.norm>
0

>  <SCORE.RESTR>
0

>  <SCORE.RESTR.CAVITY>
0

>  <SCORE.RESTR.norm>
0

>  <SCORE.SYSTEM>
0

>  <SCORE.SYSTEM.CONST>
0

>  <SCORE.SYSTEM.DIHEDRAL>
0

>  <SCORE.SYSTEM.SOLV>
0

>  <SCORE.SYSTEM.norm>
0

>  <SCORE.heavy>
10

>  <SCORE.norm>
-1.45866

>  <RMSD>
0.737

$$$$
ligand
 OpenBabel11021811513D
libRbt.so/2013.1/901 2013/11/27
 10 11  0  0  0  0  0  0  0  0999 V2000
    5.9243   17.3719    2.6345 N   0  0  0  0  0  0  0  0  0  0  0  0
    6.8157   18.3673    2.5578 C   0  0  0  0  0  0  0  0  0  0  0  0
    7.2161   19.2089    3.5096 N   0  0  0  0  0  0  0  0  0  0  0  0
    6.5902   18.9502    4.6683 C   0  0  0  0  0  0  0  0  0  0  0  0
    5.6515   17.9639    4.9022 C   0  0  0  0  0  0  0  0  0  0  0  0
    5.3118   17.1365    3.8137 C   0  0  0  0  0  0  0  0  0  0  0  0
    4.4213   16.1429    3.8947 N   0  0  0  0  0  0  0  0  0  0  0  0
    5.2241   17.9954    6.2192 N   0  0  0  0  0  0  0  0  0  0  0  0
    5.9024   18.9870    6.7466 C   0  0  0  0  0  0  0  0  0  0  0  0
    6.7457   19.6076    5.8673 N   0  0  0  0  0  0  0  0  0  0  0  0
  1  2  2  0  0  0  0
  1  6  1  0  0  0  0
  2  3  1  0  0  0  0
  3  4  2  0  0  0  0
  4  5  1  0  0  0  0
  4 10  1  0  0  0  0
  5  6  2  0  0  0  0
  5  8  1  0  0  0  0
  6  7  1  0  0  0  0
  8  9  1  0  0  0  0
  9 10  2  0  0  0  0
M  END
>  <CHROM.1>
5.97462421,18.16488447,4.47708439,-1.79738887,0.81911583,1.19112719

>  <Name>
ligand

>  <RI>
0

>  <Rbt.Current_Directory>
/home/itssahil/PROJECTS/Mol_Feturizer/New_Systems/rnas/4XNR

>  <Rbt.Executable>
rbdock ($Id: //depot/dev/client3/rdock/2013.1/src/exe/rbdock.cxx#4 $)

>  <Rbt.Library>
libRbt.so (2013.1, Build901 2013/11/27)

>  <Rbt.Parameter_File>
/export/apps/rDock/src/rDock_2013.1_src/data/scripts/dock_solv.prm

>  <Rbt.Receptor>
prm/pocket_docking_5.prm

>  <SCORE>
-14.6035

>  <SCORE.INTER>
-14.6035

>  <SCORE.INTER.CONST>
1

>  <SCORE.INTER.POLAR>
0

>  <SCORE.INTER.ROT>
0

>  <SCORE.INTER.SOLV>
7.66161

>  <SCORE.INTER.VDW>
-15.8895

>  <SCORE.INTER.norm>
-1.46035

>  <SCORE.INTRA>
0

>  <SCORE.INTRA.DIHEDRAL>
0

>  <SCORE.INTRA.DIHEDRAL.0>
0

>  <SCORE.INTRA.POLAR>
0

>  <SCORE.INTRA.POLAR.0>
0

>  <SCORE.INTRA.REPUL>
0

>  <SCORE.INTRA.REPUL.0>
0

>  <SCORE.INTRA.SOLV>
0

>  <SCORE.INTRA.SOLV.lig_0>
-23.8918

>  <SCORE.INTRA.VDW>
0

>  <SCORE.INTRA.VDW.0>
0

>  <SCORE.INTRA.norm>
0

>  <SCORE.RESTR>
0

>  <SCORE.RESTR.CAVITY>
0

>  <SCORE.RESTR.norm>
0

>  <SCORE.SYSTEM>
0

>  <SCORE.SYSTEM.CONST>
0

>  <SCORE.SYSTEM.DIHEDRAL>
0

>  <SCORE.SYSTEM.SOLV>
0

>  <SCORE.SYSTEM.norm>
0

>  <SCORE.heavy>
10

>  <SCORE.norm>
-1.46035

>  <RMSD>
0.737

$$$$
ligand
 OpenBabel11021811513D
libRbt.so/2013.1/901 2013/11/27
 10 11  0  0  0  0  0  0  0  0999 V2000
    5.9028   17.3983    2.6270 N   0  0  0  0  0  0  0  0  0  0  0  0
    6.7534   18.4268    2.5279 C   0  0  0  0  0  0  0  0  0  0  0  0
    7.1448   19.2842    3.4694 N   0  0  0  0  0  0  0  0  0  0  0  0
    6.5580   19.0032    4.6433 C   0  0  0  0  0  0  0  0  0  0  0  0
    5.6636   17.9822    4.9005 C   0  0  0  0  0  0  0  0  0  0  0  0
    5.3289   17.1411    3.8209 C   0  0  0  0  0  0  0  0  0  0  0  0
    4.4792   16.1144    3.9242 N   0  0  0  0  0  0  0  0  0  0  0  0
    5.2679   17.9990    6.2277 N   0  0  0  0  0  0  0  0  0  0  0  0
    5.9207   19.0163    6.7379 C   0  0  0  0  0  0  0  0  0  0  0  0
    6.7178   19.6675    5.8379 N   0  0  0  0  0  0  0  0  0  0  0  0
  1  2  2  0  0  0  0
  1  6  1  0  0  0  0
  2  3  1  0  0  0  0
  3  4  2  0  0  0  0
  4  5  1  0  0  0  0
  4 10  1  0  0  0  0
  5  6  2  0  0  0  0
  5  8  1  0  0  0  0
  6  7  1  0  0  0  0
  8  9  1  0  0  0  0
  9 10  2  0  0  0  0
M  END
>  <CHROM.1>
5.96825593,18.19480364,4.46749633,-1.81087051,0.86362685,1.20044711

>  <Name>
ligand

>  <RI>
0

>  <Rbt.Current_Directory>
/home/itssahil/PROJECTS/Mol_Feturizer/New_Systems/rnas/4XNR

>  <Rbt.Executable>
rbdock ($Id: //depot/dev/client3/rdock/2013.1/src/exe/rbdock.cxx#4 $)

>  <Rbt.Library>
libRbt.so (2013.1, Build901 2013/11/27)

>  <Rbt.Parameter_File>
/export/apps/rDock/src/rDock_2013.1_src/data/scripts/dock_solv.prm

>  <Rbt.Receptor>
prm/pocket_docking_6.prm

>  <SCORE>
-14.5505

>  <SCORE.INTER>
-14.5505

>  <SCORE.INTER.CONST>
1

>  <SCORE.INTER.POLAR>
0

>  <SCORE.INTER.ROT>
0

>  <SCORE.INTER.SOLV>
7.92836

>  <SCORE.INTER.VDW>
-15.9431

>  <SCORE.INTER.norm>
-1.45505

>  <SCORE.INTRA>
0

>  <SCORE.INTRA.DIHEDRAL>
0

>  <SCORE.INTRA.DIHEDRAL.0>
0

>  <SCORE.INTRA.POLAR>
0

>  <SCORE.INTRA.POLAR.0>
0

>  <SCORE.INTRA.REPUL>
0

>  <SCORE.INTRA.REPUL.0>
0

>  <SCORE.INTRA.SOLV>
0

>  <SCORE.INTRA.SOLV.lig_0>
-23.8918

>  <SCORE.INTRA.VDW>
0

>  <SCORE.INTRA.VDW.0>
0

>  <SCORE.INTRA.norm>
0

>  <SCORE.RESTR>
0

>  <SCORE.RESTR.CAVITY>
0

>  <SCORE.RESTR.norm>
0

>  <SCORE.SYSTEM>
0

>  <SCORE.SYSTEM.CONST>
0

>  <SCORE.SYSTEM.DIHEDRAL>
0

>  <SCORE.SYSTEM.SOLV>
0

>  <SCORE.SYSTEM.norm>
0

>  <SCORE.heavy>
10

>  <SCORE.norm>
-1.45505

>  <RMSD>
0.737

$$$$
ligand
 OpenBabel11021811513D
libRbt.so/2013.1/901 2013/11/27
 10 11  0  0  0  0  0  0  0  0999 V2000
    5.9231   17.3861    2.6269 N   0  0  0  0  0  0  0  0  0  0  0  0
    6.8235   18.3731    2.5469 C   0  0  0  0  0  0  0  0  0  0  0  0
    7.2376   19.2089    3.4980 N   0  0  0  0  0  0  0  0  0  0  0  0
    6.6160   18.9538    4.6598 C   0  0  0  0  0  0  0  0  0  0  0  0
    5.6693   17.9761    4.8973 C   0  0  0  0  0  0  0  0  0  0  0  0
    5.3153   17.1541    3.8091 C   0  0  0  0  0  0  0  0  0  0  0  0
    4.4158   16.1690    3.8934 N   0  0  0  0  0  0  0  0  0  0  0  0
    5.2499   18.0090    6.2169 N   0  0  0  0  0  0  0  0  0  0  0  0
    5.9407   18.9929    6.7423 C   0  0  0  0  0  0  0  0  0  0  0  0
    6.7848   19.6072    5.8592 N   0  0  0  0  0  0  0  0  0  0  0  0
  1  2  2  0  0  0  0
  1  6  1  0  0  0  0
  2  3  1  0  0  0  0
  3  4  2  0  0  0  0
  4  5  1  0  0  0  0
  4 10  1  0  0  0  0
  5  6  2  0  0  0  0
  5  8  1  0  0  0  0
  6  7  1  0  0  0  0
  8  9  1  0  0  0  0
  9 10  2  0  0  0  0
M  END
>  <CHROM.1>
5.99180102,18.17483306,4.47068243,-1.81044354,0.81234465,1.20265341

>  <Name>
ligand

>  <RI>
0

>  <Rbt.Current_Directory>
/home/itssahil/PROJECTS/Mol_Feturizer/New_Systems/rnas/4XNR

>  <Rbt.Executable>
rbdock ($Id: //depot/dev/client3/rdock/2013.1/src/exe/rbdock.cxx#4 $)

>  <Rbt.Library>
libRbt.so (2013.1, Build901 2013/11/27)

>  <Rbt.Parameter_File>
/export/apps/rDock/src/rDock_2013.1_src/data/scripts/dock_solv.prm

>  <Rbt.Receptor>
prm/pocket_docking_8.prm

>  <SCORE>
-14.5898

>  <SCORE.INTER>
-14.5898

>  <SCORE.INTER.CONST>
1

>  <SCORE.INTER.POLAR>
0

>  <SCORE.INTER.ROT>
0

>  <SCORE.INTER.SOLV>
7.59665

>  <SCORE.INTER.VDW>
-15.8587

>  <SCORE.INTER.norm>
-1.45898

>  <SCORE.INTRA>
0

>  <SCORE.INTRA.DIHEDRAL>
0

>  <SCORE.INTRA.DIHEDRAL.0>
0

>  <SCORE.INTRA.POLAR>
0

>  <SCORE.INTRA.POLAR.0>
0

>  <SCORE.INTRA.REPUL>
0

>  <SCORE.INTRA.REPUL.0>
0

>  <SCORE.INTRA.SOLV>
0

>  <SCORE.INTRA.SOLV.lig_0>
-23.8918

>  <SCORE.INTRA.VDW>
0

>  <SCORE.INTRA.VDW.0>
0

>  <SCORE.INTRA.norm>
0

>  <SCORE.RESTR>
0

>  <SCORE.RESTR.CAVITY>
0

>  <SCORE.RESTR.norm>
0

>  <SCORE.SYSTEM>
0

>  <SCORE.SYSTEM.CONST>
0

>  <SCORE.SYSTEM.DIHEDRAL>
0

>  <SCORE.SYSTEM.SOLV>
0

>  <SCORE.SYSTEM.norm>
0

>  <SCORE.heavy>
10

>  <SCORE.norm>
-1.45898

>  <RMSD>
0.737

$$$$
ligand
 OpenBabel11021811513D
libRbt.so/2013.1/901 2013/11/27
 10 11  0  0  0  0  0  0  0  0999 V2000
    5.8720   17.4416    2.6003 N   0  0  0  0  0  0  0  0  0  0  0  0
    6.7429   18.4546    2.5177 C   0  0  0  0  0  0  0  0  0  0  0  0
    7.1485   19.2909    3.4720 N   0  0  0  0  0  0  0  0  0  0  0  0
    6.5531   19.0052    4.6404 C   0  0  0  0  0  0  0  0  0  0  0  0
    5.6383   17.9984    4.8812 C   0  0  0  0  0  0  0  0  0  0  0  0
    5.2901   17.1791    3.7891 C   0  0  0  0  0  0  0  0  0  0  0  0
    4.4202   16.1680    3.8759 N   0  0  0  0  0  0  0  0  0  0  0  0
    5.2394   18.0044    6.2075 N   0  0  0  0  0  0  0  0  0  0  0  0
    5.9105   19.0015    6.7335 C   0  0  0  0  0  0  0  0  0  0  0  0
    6.7227   19.6495    5.8446 N   0  0  0  0  0  0  0  0  0  0  0  0
  1  2  2  0  0  0  0
  1  6  1  0  0  0  0
  2  3  1  0  0  0  0
  3  4  2  0  0  0  0
  4  5  1  0  0  0  0
  4 10  1  0  0  0  0
  5  6  2  0  0  0  0
  5  8  1  0  0  0  0
  6  7  1  0  0  0  0
  8  9  1  0  0  0  0
  9 10  2  0  0  0  0
M  END
>  <CHROM.1>
5.94815469,18.21100925,4.45191633,-1.81775411,0.84439108,1.21960000

>  <Name>
ligand

>  <RI>
0

>  <Rbt.Current_Directory>
/home/itssahil/PROJECTS/Mol_Feturizer/New_Systems/rnas/4XNR

>  <Rbt.Executable>
rbdock ($Id: //depot/dev/client3/rdock/2013.1/src/exe/rbdock.cxx#4 $)

>  <Rbt.Library>
libRbt.so (2013.1, Build901 2013/11/27)

>  <Rbt.Parameter_File>
/export/apps/rDock/src/rDock_2013.1_src/data/scripts/dock_solv.prm

>  <Rbt.Receptor>
prm/pocket_docking_8.prm

>  <SCORE>
-14.5142

>  <SCORE.INTER>
-14.5142

>  <SCORE.INTER.CONST>
1

>  <SCORE.INTER.POLAR>
0

>  <SCORE.INTER.ROT>
0

>  <SCORE.INTER.SOLV>
7.59785

>  <SCORE.INTER.VDW>
-15.8087

>  <SCORE.INTER.norm>
-1.45142

>  <SCORE.INTRA>
0

>  <SCORE.INTRA.DIHEDRAL>
0

>  <SCORE.INTRA.DIHEDRAL.0>
0

>  <SCORE.INTRA.POLAR>
0

>  <SCORE.INTRA.POLAR.0>
0

>  <SCORE.INTRA.REPUL>
0

>  <SCORE.INTRA.REPUL.0>
0

>  <SCORE.INTRA.SOLV>
0

>  <SCORE.INTRA.SOLV.lig_0>
-23.8918

>  <SCORE.INTRA.VDW>
0

>  <SCORE.INTRA.VDW.0>
0

>  <SCORE.INTRA.norm>
0

>  <SCORE.RESTR>
0

>  <SCORE.RESTR.CAVITY>
0

>  <SCORE.RESTR.norm>
0

>  <SCORE.SYSTEM>
0

>  <SCORE.SYSTEM.CONST>
0

>  <SCORE.SYSTEM.DIHEDRAL>
0

>  <SCORE.SYSTEM.SOLV>
0

>  <SCORE.SYSTEM.norm>
0

>  <SCORE.heavy>
10

>  <SCORE.norm>
-1.45142

>  <RMSD>
0.737

$$$$
ligand
 OpenBabel11021811513D
libRbt.so/2013.1/901 2013/11/27
 10 11  0  0  0  0  0  0  0  0999 V2000
    5.8689   17.4037    2.6250 N   0  0  0  0  0  0  0  0  0  0  0  0
    6.7148   18.4362    2.5274 C   0  0  0  0  0  0  0  0  0  0  0  0
    7.1079   19.2897    3.4717 N   0  0  0  0  0  0  0  0  0  0  0  0
    6.5286   18.9995    4.6471 C   0  0  0  0  0  0  0  0  0  0  0  0
    5.6398   17.9733    4.9032 C   0  0  0  0  0  0  0  0  0  0  0  0
    5.3026   17.1372    3.8206 C   0  0  0  0  0  0  0  0  0  0  0  0
    4.4577   16.1064    3.9224 N   0  0  0  0  0  0  0  0  0  0  0  0
    5.2513   17.9808    6.2326 N   0  0  0  0  0  0  0  0  0  0  0  0
    5.9027   18.9977    6.7452 C   0  0  0  0  0  0  0  0  0  0  0  0
    6.6922   19.6575    5.8447 N   0  0  0  0  0  0  0  0  0  0  0  0
  1  2  2  0  0  0  0
  1  6  1  0  0  0  0
  2  3  1  0  0  0  0
  3  4  2  0  0  0  0
  4  5  1  0  0  0  0
  4 10  1  0  0  0  0
  5  6  2  0  0  0  0
  5  8  1  0  0  0  0
  6  7  1  0  0  0  0
  8  9  1  0  0  0  0
  9 10  2  0  0  0  0
M  END
>  <CHROM.1>
5.94119216,18.18971272,4.46979461,-1.81647852,0.86937633,1.21055736

>  <Name>
ligand

>  <RI>
0

>  <Rbt.Current_Directory>
/home/itssahil/PROJECTS/Mol_Feturizer/New_Systems/rnas/4XNR

>  <Rbt.Executable>
rbdock ($Id: //depot/dev/client3/rdock/2013.1/src/exe/rbdock.cxx#4 $)

>  <Rbt.Library>
libRbt.so (2013.1, Build901 2013/11/27)

>  <Rbt.Parameter_File>
/export/apps/rDock/src/rDock_2013.1_src/data/scripts/dock_solv.prm

>  <Rbt.Receptor>
prm/blind_docking_80.prm

>  <SCORE>
-14.5384

>  <SCORE.INTER>
-14.5384

>  <SCORE.INTER.CONST>
1

>  <SCORE.INTER.POLAR>
0

>  <SCORE.INTER.ROT>
0

>  <SCORE.INTER.SOLV>
7.90453

>  <SCORE.INTER.VDW>
-15.9271

>  <SCORE.INTER.norm>
-1.45384

>  <SCORE.INTRA>
0

>  <SCORE.INTRA.DIHEDRAL>
0

>  <SCORE.INTRA.DIHEDRAL.0>
0

>  <SCORE.INTRA.POLAR>
0

>  <SCORE.INTRA.POLAR.0>
0

>  <SCORE.INTRA.REPUL>
0

>  <SCORE.INTRA.REPUL.0>
0

>  <SCORE.INTRA.SOLV>
0

>  <SCORE.INTRA.SOLV.lig_0>
-23.8918

>  <SCORE.INTRA.VDW>
0

>  <SCORE.INTRA.VDW.0>
0

>  <SCORE.INTRA.norm>
0

>  <SCORE.RESTR>
0

>  <SCORE.RESTR.CAVITY>
0

>  <SCORE.RESTR.norm>
0

>  <SCORE.SYSTEM>
0

>  <SCORE.SYSTEM.CONST>
0

>  <SCORE.SYSTEM.DIHEDRAL>
0

>  <SCORE.SYSTEM.SOLV>
0

>  <SCORE.SYSTEM.norm>
0

>  <SCORE.heavy>
10

>  <SCORE.norm>
-1.45384

>  <RMSD>
0.738

$$$$
ligand
 OpenBabel11021811513D
libRbt.so/2013.1/901 2013/11/27
 10 11  0  0  0  0  0  0  0  0999 V2000
    5.9601   17.4213    2.6116 N   0  0  0  0  0  0  0  0  0  0  0  0
    6.7749   18.4802    2.5325 C   0  0  0  0  0  0  0  0  0  0  0  0
    7.1288   19.3384    3.4880 N   0  0  0  0  0  0  0  0  0  0  0  0
    6.5432   19.0218    4.6534 C   0  0  0  0  0  0  0  0  0  0  0  0
    5.6833   17.9668    4.8904 C   0  0  0  0  0  0  0  0  0  0  0  0
    5.3865   17.1287    3.7975 C   0  0  0  0  0  0  0  0  0  0  0  0
    4.5726   16.0716    3.8808 N   0  0  0  0  0  0  0  0  0  0  0  0
    5.2771   17.9525    6.2144 N   0  0  0  0  0  0  0  0  0  0  0  0
    5.8899   18.9853    6.7428 C   0  0  0  0  0  0  0  0  0  0  0  0
    6.6705   19.6757    5.8576 N   0  0  0  0  0  0  0  0  0  0  0  0
  1  2  2  0  0  0  0
  1  6  1  0  0  0  0
  2  3  1  0  0  0  0
  3  4  2  0  0  0  0
  4  5  1  0  0  0  0
  4 10  1  0  0  0  0
  5  6  2  0  0  0  0
  5  8  1  0  0  0  0
  6  7  1  0  0  0  0
  8  9  1  0  0  0  0
  9 10  2  0  0  0  0
M  END
>  <CHROM.1>
5.98355606,18.19561677,4.46255177,-1.77927086,0.89334123,1.18900011

>  <Name>
ligand

>  <RI>
0

>  <Rbt.Current_Directory>
/home/itssahil/PROJECTS/Mol_Feturizer/New_Systems/rnas/4XNR

>  <Rbt.Executable>
rbdock ($Id: //depot/dev/client3/rdock/2013.1/src/exe/rbdock.cxx#4 $)

>  <Rbt.Library>
libRbt.so (2013.1, Build901 2013/11/27)

>  <Rbt.Parameter_File>
/export/apps/rDock/src/rDock_2013.1_src/data/scripts/dock_solv.prm

>  <Rbt.Receptor>
prm/blind_docking_80.prm

>  <SCORE>
-14.5559

>  <SCORE.INTER>
-14.5559

>  <SCORE.INTER.CONST>
1

>  <SCORE.INTER.POLAR>
0

>  <SCORE.INTER.ROT>
0

>  <SCORE.INTER.SOLV>
8.17814

>  <SCORE.INTER.VDW>
-16.03

>  <SCORE.INTER.norm>
-1.45559

>  <SCORE.INTRA>
0

>  <SCORE.INTRA.DIHEDRAL>
0

>  <SCORE.INTRA.DIHEDRAL.0>
0

>  <SCORE.INTRA.POLAR>
0

>  <SCORE.INTRA.POLAR.0>
0

>  <SCORE.INTRA.REPUL>
0

>  <SCORE.INTRA.REPUL.0>
0

>  <SCORE.INTRA.SOLV>
0

>  <SCORE.INTRA.SOLV.lig_0>
-23.8918

>  <SCORE.INTRA.VDW>
0

>  <SCORE.INTRA.VDW.0>
0

>  <SCORE.INTRA.norm>
0

>  <SCORE.RESTR>
0

>  <SCORE.RESTR.CAVITY>
0

>  <SCORE.RESTR.norm>
0

>  <SCORE.SYSTEM>
0

>  <SCORE.SYSTEM.CONST>
0

>  <SCORE.SYSTEM.DIHEDRAL>
0

>  <SCORE.SYSTEM.SOLV>
0

>  <SCORE.SYSTEM.norm>
0

>  <SCORE.heavy>
10

>  <SCORE.norm>
-1.45559

>  <RMSD>
0.738

$$$$
ligand
 OpenBabel11021811513D
libRbt.so/2013.1/901 2013/11/27
 10 11  0  0  0  0  0  0  0  0999 V2000
    5.8959   17.3704    2.6362 N   0  0  0  0  0  0  0  0  0  0  0  0
    6.7935   18.3596    2.5509 C   0  0  0  0  0  0  0  0  0  0  0  0
    7.2050   19.2016    3.4976 N   0  0  0  0  0  0  0  0  0  0  0  0
    6.5842   18.9510    4.6608 C   0  0  0  0  0  0  0  0  0  0  0  0
    5.6402   17.9718    4.9034 C   0  0  0  0  0  0  0  0  0  0  0  0
    5.2887   17.1430    3.8196 C   0  0  0  0  0  0  0  0  0  0  0  0
    4.3921   16.1557    3.9091 N   0  0  0  0  0  0  0  0  0  0  0  0
    5.2207   18.0105    6.2228 N   0  0  0  0  0  0  0  0  0  0  0  0
    5.9086   18.9992    6.7429 C   0  0  0  0  0  0  0  0  0  0  0  0
    6.7509   19.6113    5.8567 N   0  0  0  0  0  0  0  0  0  0  0  0
  1  2  2  0  0  0  0
  1  6  1  0  0  0  0
  2  3  1  0  0  0  0
  3  4  2  0  0  0  0
  4  5  1  0  0  0  0
  4 10  1  0  0  0  0
  5  6  2  0  0  0  0
  5  8  1  0  0  0  0
  6  7  1  0  0  0  0
  8  9  1  0  0  0  0
  9 10  2  0  0  0  0
M  END
>  <CHROM.1>
5.96221509,18.16915633,4.47573723,-1.80883652,0.81502381,1.19613871

>  <Name>
ligand

>  <RI>
0

>  <Rbt.Current_Directory>
/home/itssahil/PROJECTS/Mol_Feturizer/New_Systems/rnas/4XNR

>  <Rbt.Executable>
rbdock ($Id: //depot/dev/client3/rdock/2013.1/src/exe/rbdock.cxx#4 $)

>  <Rbt.Library>
libRbt.so (2013.1, Build901 2013/11/27)

>  <Rbt.Parameter_File>
/export/apps/rDock/src/rDock_2013.1_src/data/scripts/dock_solv.prm

>  <Rbt.Receptor>
prm/pocket_docking_5.prm

>  <SCORE>
-14.6017

>  <SCORE.INTER>
-14.6017

>  <SCORE.INTER.CONST>
1

>  <SCORE.INTER.POLAR>
0

>  <SCORE.INTER.ROT>
0

>  <SCORE.INTER.SOLV>
7.6401

>  <SCORE.INTER.VDW>
-15.8812

>  <SCORE.INTER.norm>
-1.46017

>  <SCORE.INTRA>
0

>  <SCORE.INTRA.DIHEDRAL>
0

>  <SCORE.INTRA.DIHEDRAL.0>
0

>  <SCORE.INTRA.POLAR>
0

>  <SCORE.INTRA.POLAR.0>
0

>  <SCORE.INTRA.REPUL>
0

>  <SCORE.INTRA.REPUL.0>
0

>  <SCORE.INTRA.SOLV>
0

>  <SCORE.INTRA.SOLV.lig_0>
-23.8918

>  <SCORE.INTRA.VDW>
0

>  <SCORE.INTRA.VDW.0>
0

>  <SCORE.INTRA.norm>
0

>  <SCORE.RESTR>
0

>  <SCORE.RESTR.CAVITY>
0

>  <SCORE.RESTR.norm>
0

>  <SCORE.SYSTEM>
0

>  <SCORE.SYSTEM.CONST>
0

>  <SCORE.SYSTEM.DIHEDRAL>
0

>  <SCORE.SYSTEM.SOLV>
0

>  <SCORE.SYSTEM.norm>
0

>  <SCORE.heavy>
10

>  <SCORE.norm>
-1.46017

>  <RMSD>
0.738

$$$$
ligand
 OpenBabel11021811513D
libRbt.so/2013.1/901 2013/11/27
 10 11  0  0  0  0  0  0  0  0999 V2000
    5.9150   17.3984    2.6254 N   0  0  0  0  0  0  0  0  0  0  0  0
    6.7921   18.4059    2.5401 C   0  0  0  0  0  0  0  0  0  0  0  0
    7.1946   19.2491    3.4896 N   0  0  0  0  0  0  0  0  0  0  0  0
    6.5884   18.9778    4.6558 C   0  0  0  0  0  0  0  0  0  0  0  0
    5.6661   17.9783    4.8989 C   0  0  0  0  0  0  0  0  0  0  0  0
    5.3222   17.1505    3.8120 C   0  0  0  0  0  0  0  0  0  0  0  0
    4.4461   16.1449    3.9014 N   0  0  0  0  0  0  0  0  0  0  0  0
    5.2567   17.9993    6.2218 N   0  0  0  0  0  0  0  0  0  0  0  0
    5.9291   18.9977    6.7436 C   0  0  0  0  0  0  0  0  0  0  0  0
    6.7518   19.6327    5.8551 N   0  0  0  0  0  0  0  0  0  0  0  0
  1  2  2  0  0  0  0
  1  6  1  0  0  0  0
  2  3  1  0  0  0  0
  3  4  2  0  0  0  0
  4  5  1  0  0  0  0
  4 10  1  0  0  0  0
  5  6  2  0  0  0  0
  5  8  1  0  0  0  0
  6  7  1  0  0  0  0
  8  9  1  0  0  0  0
  9 10  2  0  0  0  0
M  END
>  <CHROM.1>
5.98056228,18.18513839,4.47010845,-1.80938606,0.83650585,1.20378403

>  <Name>
ligand

>  <RI>
0

>  <Rbt.Current_Directory>
/home/itssahil/PROJECTS/Mol_Feturizer/New_Systems/rnas/4XNR

>  <Rbt.Executable>
rbdock ($Id: //depot/dev/client3/rdock/2013.1/src/exe/rbdock.cxx#4 $)

>  <Rbt.Library>
libRbt.so (2013.1, Build901 2013/11/27)

>  <Rbt.Parameter_File>
/export/apps/rDock/src/rDock_2013.1_src/data/scripts/dock_solv.prm

>  <Rbt.Receptor>
prm/pocket_docking_8.prm

>  <SCORE>
-14.5762

>  <SCORE.INTER>
-14.5762

>  <SCORE.INTER.CONST>
1

>  <SCORE.INTER.POLAR>
0

>  <SCORE.INTER.ROT>
0

>  <SCORE.INTER.SOLV>
7.73503

>  <SCORE.INTER.VDW>
-15.8958

>  <SCORE.INTER.norm>
-1.45762

>  <SCORE.INTRA>
0

>  <SCORE.INTRA.DIHEDRAL>
0

>  <SCORE.INTRA.DIHEDRAL.0>
0

>  <SCORE.INTRA.POLAR>
0

>  <SCORE.INTRA.POLAR.0>
0

>  <SCORE.INTRA.REPUL>
0

>  <SCORE.INTRA.REPUL.0>
0

>  <SCORE.INTRA.SOLV>
0

>  <SCORE.INTRA.SOLV.lig_0>
-23.8918

>  <SCORE.INTRA.VDW>
0

>  <SCORE.INTRA.VDW.0>
0

>  <SCORE.INTRA.norm>
0

>  <SCORE.RESTR>
0

>  <SCORE.RESTR.CAVITY>
0

>  <SCORE.RESTR.norm>
0

>  <SCORE.SYSTEM>
0

>  <SCORE.SYSTEM.CONST>
0

>  <SCORE.SYSTEM.DIHEDRAL>
0

>  <SCORE.SYSTEM.SOLV>
0

>  <SCORE.SYSTEM.norm>
0

>  <SCORE.heavy>
10

>  <SCORE.norm>
-1.45762

>  <RMSD>
0.738

$$$$
ligand
 OpenBabel11021811513D
libRbt.so/2013.1/901 2013/11/27
 10 11  0  0  0  0  0  0  0  0999 V2000
    5.9685   17.4278    2.6075 N   0  0  0  0  0  0  0  0  0  0  0  0
    6.7896   18.4828    2.5432 C   0  0  0  0  0  0  0  0  0  0  0  0
    7.1414   19.3309    3.5083 N   0  0  0  0  0  0  0  0  0  0  0  0
    6.5459   19.0078    4.6668 C   0  0  0  0  0  0  0  0  0  0  0  0
    5.6785   17.9556    4.8888 C   0  0  0  0  0  0  0  0  0  0  0  0
    5.3850   17.1283    3.7868 C   0  0  0  0  0  0  0  0  0  0  0  0
    4.5647   16.0751    3.8554 N   0  0  0  0  0  0  0  0  0  0  0  0
    5.2629   17.9324    6.2098 N   0  0  0  0  0  0  0  0  0  0  0  0
    5.8775   18.9573    6.7512 C   0  0  0  0  0  0  0  0  0  0  0  0
    6.6681   19.6508    5.8774 N   0  0  0  0  0  0  0  0  0  0  0  0
  1  2  2  0  0  0  0
  1  6  1  0  0  0  0
  2  3  1  0  0  0  0
  3  4  2  0  0  0  0
  4  5  1  0  0  0  0
  4 10  1  0  0  0  0
  5  6  2  0  0  0  0
  5  8  1  0  0  0  0
  6  7  1  0  0  0  0
  8  9  1  0  0  0  0
  9 10  2  0  0  0  0
M  END
>  <CHROM.1>
5.98307094,18.18632568,4.46507262,-1.77205362,0.88560706,1.19183613

>  <Name>
ligand

>  <RI>
0

>  <Rbt.Current_Directory>
/home/itssahil/PROJECTS/Mol_Feturizer/New_Systems/rnas/4XNR

>  <Rbt.Executable>
rbdock ($Id: //depot/dev/client3/rdock/2013.1/src/exe/rbdock.cxx#4 $)

>  <Rbt.Library>
libRbt.so (2013.1, Build901 2013/11/27)

>  <Rbt.Parameter_File>
/export/apps/rDock/src/rDock_2013.1_src/data/scripts/dock_solv.prm

>  <Rbt.Receptor>
prm/blind_docking_80.prm

>  <SCORE>
-14.5276

>  <SCORE.INTER>
-14.5276

>  <SCORE.INTER.CONST>
1

>  <SCORE.INTER.POLAR>
0

>  <SCORE.INTER.ROT>
0

>  <SCORE.INTER.SOLV>
8.08906

>  <SCORE.INTER.VDW>
-15.9814

>  <SCORE.INTER.norm>
-1.45276

>  <SCORE.INTRA>
0

>  <SCORE.INTRA.DIHEDRAL>
0

>  <SCORE.INTRA.DIHEDRAL.0>
0

>  <SCORE.INTRA.POLAR>
0

>  <SCORE.INTRA.POLAR.0>
0

>  <SCORE.INTRA.REPUL>
0

>  <SCORE.INTRA.REPUL.0>
0

>  <SCORE.INTRA.SOLV>
0

>  <SCORE.INTRA.SOLV.lig_0>
-23.8918

>  <SCORE.INTRA.VDW>
0

>  <SCORE.INTRA.VDW.0>
0

>  <SCORE.INTRA.norm>
0

>  <SCORE.RESTR>
0

>  <SCORE.RESTR.CAVITY>
0

>  <SCORE.RESTR.norm>
0

>  <SCORE.SYSTEM>
0

>  <SCORE.SYSTEM.CONST>
0

>  <SCORE.SYSTEM.DIHEDRAL>
0

>  <SCORE.SYSTEM.SOLV>
0

>  <SCORE.SYSTEM.norm>
0

>  <SCORE.heavy>
10

>  <SCORE.norm>
-1.45276

>  <RMSD>
0.739

$$$$
ligand
 OpenBabel11021811513D
libRbt.so/2013.1/901 2013/11/27
 10 11  0  0  0  0  0  0  0  0999 V2000
    5.9128   17.3724    2.6363 N   0  0  0  0  0  0  0  0  0  0  0  0
    6.8074   18.3649    2.5582 C   0  0  0  0  0  0  0  0  0  0  0  0
    7.2132   19.2041    3.5099 N   0  0  0  0  0  0  0  0  0  0  0  0
    6.5895   18.9463    4.6699 C   0  0  0  0  0  0  0  0  0  0  0  0
    5.6481   17.9630    4.9053 C   0  0  0  0  0  0  0  0  0  0  0  0
    5.3027   17.1378    3.8168 C   0  0  0  0  0  0  0  0  0  0  0  0
    4.4091   16.1471    3.8992 N   0  0  0  0  0  0  0  0  0  0  0  0
    5.2243   17.9946    6.2235 N   0  0  0  0  0  0  0  0  0  0  0  0
    5.9073   18.9833    6.7501 C   0  0  0  0  0  0  0  0  0  0  0  0
    6.7503   19.6020    5.8692 N   0  0  0  0  0  0  0  0  0  0  0  0
  1  2  2  0  0  0  0
  1  6  1  0  0  0  0
  2  3  1  0  0  0  0
  3  4  2  0  0  0  0
  4  5  1  0  0  0  0
  4 10  1  0  0  0  0
  5  6  2  0  0  0  0
  5  8  1  0  0  0  0
  6  7  1  0  0  0  0
  8  9  1  0  0  0  0
  9 10  2  0  0  0  0
M  END
>  <CHROM.1>
5.97074425,18.16330146,4.47952553,-1.80279674,0.81695568,1.19610726

>  <Name>
ligand

>  <RI>
0

>  <Rbt.Current_Directory>
/home/itssahil/PROJECTS/Mol_Feturizer/New_Systems/rnas/4XNR

>  <Rbt.Executable>
rbdock ($Id: //depot/dev/client3/rdock/2013.1/src/exe/rbdock.cxx#4 $)

>  <Rbt.Library>
libRbt.so (2013.1, Build901 2013/11/27)

>  <Rbt.Parameter_File>
/export/apps/rDock/src/rDock_2013.1_src/data/scripts/dock_solv.prm

>  <Rbt.Receptor>
prm/pocket_docking_3.prm

>  <SCORE>
-14.603

>  <SCORE.INTER>
-14.603

>  <SCORE.INTER.CONST>
1

>  <SCORE.INTER.POLAR>
0

>  <SCORE.INTER.ROT>
0

>  <SCORE.INTER.SOLV>
7.64538

>  <SCORE.INTER.VDW>
-15.8838

>  <SCORE.INTER.norm>
-1.4603

>  <SCORE.INTRA>
0

>  <SCORE.INTRA.DIHEDRAL>
0

>  <SCORE.INTRA.DIHEDRAL.0>
0

>  <SCORE.INTRA.POLAR>
0

>  <SCORE.INTRA.POLAR.0>
0

>  <SCORE.INTRA.REPUL>
0

>  <SCORE.INTRA.REPUL.0>
0

>  <SCORE.INTRA.SOLV>
0

>  <SCORE.INTRA.SOLV.lig_0>
-23.8918

>  <SCORE.INTRA.VDW>
0

>  <SCORE.INTRA.VDW.0>
0

>  <SCORE.INTRA.norm>
0

>  <SCORE.RESTR>
0

>  <SCORE.RESTR.CAVITY>
0

>  <SCORE.RESTR.norm>
0

>  <SCORE.SYSTEM>
0

>  <SCORE.SYSTEM.CONST>
0

>  <SCORE.SYSTEM.DIHEDRAL>
0

>  <SCORE.SYSTEM.SOLV>
0

>  <SCORE.SYSTEM.norm>
0

>  <SCORE.heavy>
10

>  <SCORE.norm>
-1.4603

>  <RMSD>
0.739

$$$$
ligand
 OpenBabel11021811513D
libRbt.so/2013.1/901 2013/11/27
 10 11  0  0  0  0  0  0  0  0999 V2000
    5.8747   17.4051    2.6245 N   0  0  0  0  0  0  0  0  0  0  0  0
    6.7261   18.4335    2.5304 C   0  0  0  0  0  0  0  0  0  0  0  0
    7.1219   19.2831    3.4770 N   0  0  0  0  0  0  0  0  0  0  0  0
    6.5391   18.9937    4.6508 C   0  0  0  0  0  0  0  0  0  0  0  0
    5.6445   17.9716    4.9034 C   0  0  0  0  0  0  0  0  0  0  0  0
    5.3050   17.1393    3.8185 C   0  0  0  0  0  0  0  0  0  0  0  0
    4.4545   16.1127    3.9169 N   0  0  0  0  0  0  0  0  0  0  0  0
    5.2537   17.9785    6.2321 N   0  0  0  0  0  0  0  0  0  0  0  0
    5.9094   18.9912    6.7478 C   0  0  0  0  0  0  0  0  0  0  0  0
    6.7040   19.6485    5.8499 N   0  0  0  0  0  0  0  0  0  0  0  0
  1  2  2  0  0  0  0
  1  6  1  0  0  0  0
  2  3  1  0  0  0  0
  3  4  2  0  0  0  0
  4  5  1  0  0  0  0
  4 10  1  0  0  0  0
  5  6  2  0  0  0  0
  5  8  1  0  0  0  0
  6  7  1  0  0  0  0
  8  9  1  0  0  0  0
  9 10  2  0  0  0  0
M  END
>  <CHROM.1>
5.94781072,18.18726452,4.47091357,-1.81672282,0.86391556,1.21264971

>  <Name>
ligand

>  <RI>
0

>  <Rbt.Current_Directory>
/home/itssahil/PROJECTS/Mol_Feturizer/New_Systems/rnas/4XNR

>  <Rbt.Executable>
rbdock ($Id: //depot/dev/client3/rdock/2013.1/src/exe/rbdock.cxx#4 $)

>  <Rbt.Library>
libRbt.so (2013.1, Build901 2013/11/27)

>  <Rbt.Parameter_File>
/export/apps/rDock/src/rDock_2013.1_src/data/scripts/dock_solv.prm

>  <Rbt.Receptor>
prm/pocket_docking_8.prm

>  <SCORE>
-14.5385

>  <SCORE.INTER>
-14.5385

>  <SCORE.INTER.CONST>
1

>  <SCORE.INTER.POLAR>
0

>  <SCORE.INTER.ROT>
0

>  <SCORE.INTER.SOLV>
7.86873

>  <SCORE.INTER.VDW>
-15.9152

>  <SCORE.INTER.norm>
-1.45385

>  <SCORE.INTRA>
0

>  <SCORE.INTRA.DIHEDRAL>
0

>  <SCORE.INTRA.DIHEDRAL.0>
0

>  <SCORE.INTRA.POLAR>
0

>  <SCORE.INTRA.POLAR.0>
0

>  <SCORE.INTRA.REPUL>
0

>  <SCORE.INTRA.REPUL.0>
0

>  <SCORE.INTRA.SOLV>
0

>  <SCORE.INTRA.SOLV.lig_0>
-23.8918

>  <SCORE.INTRA.VDW>
0

>  <SCORE.INTRA.VDW.0>
0

>  <SCORE.INTRA.norm>
0

>  <SCORE.RESTR>
0

>  <SCORE.RESTR.CAVITY>
0

>  <SCORE.RESTR.norm>
0

>  <SCORE.SYSTEM>
0

>  <SCORE.SYSTEM.CONST>
0

>  <SCORE.SYSTEM.DIHEDRAL>
0

>  <SCORE.SYSTEM.SOLV>
0

>  <SCORE.SYSTEM.norm>
0

>  <SCORE.heavy>
10

>  <SCORE.norm>
-1.45385

>  <RMSD>
0.739

$$$$
ligand
 OpenBabel11021811513D
libRbt.so/2013.1/901 2013/11/27
 10 11  0  0  0  0  0  0  0  0999 V2000
    5.8808   17.4070    2.6252 N   0  0  0  0  0  0  0  0  0  0  0  0
    6.7281   18.4387    2.5311 C   0  0  0  0  0  0  0  0  0  0  0  0
    7.1187   19.2913    3.4773 N   0  0  0  0  0  0  0  0  0  0  0  0
    6.5351   19.0011    4.6504 C   0  0  0  0  0  0  0  0  0  0  0  0
    5.6443   17.9757    4.9029 C   0  0  0  0  0  0  0  0  0  0  0  0
    5.3101   17.1404    3.8186 C   0  0  0  0  0  0  0  0  0  0  0  0
    4.4637   16.1105    3.9170 N   0  0  0  0  0  0  0  0  0  0  0  0
    5.2511   17.9828    6.2309 N   0  0  0  0  0  0  0  0  0  0  0  0
    5.9018   18.9988    6.7464 C   0  0  0  0  0  0  0  0  0  0  0  0
    6.6951   19.6582    5.8490 N   0  0  0  0  0  0  0  0  0  0  0  0
  1  2  2  0  0  0  0
  1  6  1  0  0  0  0
  2  3  1  0  0  0  0
  3  4  2  0  0  0  0
  4  5  1  0  0  0  0
  4 10  1  0  0  0  0
  5  6  2  0  0  0  0
  5  8  1  0  0  0  0
  6  7  1  0  0  0  0
  8  9  1  0  0  0  0
  9 10  2  0  0  0  0
M  END
>  <CHROM.1>
5.94742778,18.19195935,4.47068058,-1.81198612,0.86717357,1.20766466

>  <Name>
ligand

>  <RI>
0

>  <Rbt.Current_Directory>
/home/itssahil/PROJECTS/Mol_Feturizer/New_Systems/rnas/4XNR

>  <Rbt.Executable>
rbdock ($Id: //depot/dev/client3/rdock/2013.1/src/exe/rbdock.cxx#4 $)

>  <Rbt.Library>
libRbt.so (2013.1, Build901 2013/11/27)

>  <Rbt.Parameter_File>
/export/apps/rDock/src/rDock_2013.1_src/data/scripts/dock_solv.prm

>  <Rbt.Receptor>
prm/pocket_docking_5.prm

>  <SCORE>
-14.5389

>  <SCORE.INTER>
-14.5389

>  <SCORE.INTER.CONST>
1

>  <SCORE.INTER.POLAR>
0

>  <SCORE.INTER.ROT>
0

>  <SCORE.INTER.SOLV>
7.89655

>  <SCORE.INTER.VDW>
-15.9248

>  <SCORE.INTER.norm>
-1.45389

>  <SCORE.INTRA>
0

>  <SCORE.INTRA.DIHEDRAL>
0

>  <SCORE.INTRA.DIHEDRAL.0>
0

>  <SCORE.INTRA.POLAR>
0

>  <SCORE.INTRA.POLAR.0>
0

>  <SCORE.INTRA.REPUL>
0

>  <SCORE.INTRA.REPUL.0>
0

>  <SCORE.INTRA.SOLV>
0

>  <SCORE.INTRA.SOLV.lig_0>
-23.8918

>  <SCORE.INTRA.VDW>
0

>  <SCORE.INTRA.VDW.0>
0

>  <SCORE.INTRA.norm>
0

>  <SCORE.RESTR>
0

>  <SCORE.RESTR.CAVITY>
0

>  <SCORE.RESTR.norm>
0

>  <SCORE.SYSTEM>
0

>  <SCORE.SYSTEM.CONST>
0

>  <SCORE.SYSTEM.DIHEDRAL>
0

>  <SCORE.SYSTEM.SOLV>
0

>  <SCORE.SYSTEM.norm>
0

>  <SCORE.heavy>
10

>  <SCORE.norm>
-1.45389

>  <RMSD>
0.740

$$$$
ligand
 OpenBabel11021811513D
libRbt.so/2013.1/901 2013/11/27
 10 11  0  0  0  0  0  0  0  0999 V2000
    5.8742   17.4123    2.6224 N   0  0  0  0  0  0  0  0  0  0  0  0
    6.7333   18.4347    2.5328 C   0  0  0  0  0  0  0  0  0  0  0  0
    7.1337   19.2785    3.4827 N   0  0  0  0  0  0  0  0  0  0  0  0
    6.5466   18.9899    4.6545 C   0  0  0  0  0  0  0  0  0  0  0  0
    5.6441   17.9737    4.9025 C   0  0  0  0  0  0  0  0  0  0  0  0
    5.3003   17.1471    3.8146 C   0  0  0  0  0  0  0  0  0  0  0  0
    4.4422   16.1266    3.9084 N   0  0  0  0  0  0  0  0  0  0  0  0
    5.2509   17.9796    6.2305 N   0  0  0  0  0  0  0  0  0  0  0  0
    5.9131   18.9858    6.7504 C   0  0  0  0  0  0  0  0  0  0  0  0
    6.7141   19.6399    5.8559 N   0  0  0  0  0  0  0  0  0  0  0  0
  1  2  2  0  0  0  0
  1  6  1  0  0  0  0
  2  3  1  0  0  0  0
  3  4  2  0  0  0  0
  4  5  1  0  0  0  0
  4 10  1  0  0  0  0
  5  6  2  0  0  0  0
  5  8  1  0  0  0  0
  6  7  1  0  0  0  0
  8  9  1  0  0  0  0
  9 10  2  0  0  0  0
M  END
>  <CHROM.1>
5.94969823,18.18842554,4.47121121,-1.81807406,0.85638235,1.21665060

>  <Name>
ligand

>  <RI>
0

>  <Rbt.Current_Directory>
/home/itssahil/PROJECTS/Mol_Feturizer/New_Systems/rnas/4XNR

>  <Rbt.Executable>
rbdock ($Id: //depot/dev/client3/rdock/2013.1/src/exe/rbdock.cxx#4 $)

>  <Rbt.Library>
libRbt.so (2013.1, Build901 2013/11/27)

>  <Rbt.Parameter_File>
/export/apps/rDock/src/rDock_2013.1_src/data/scripts/dock_solv.prm

>  <Rbt.Receptor>
prm/blind_docking_100.prm

>  <SCORE>
-14.5413

>  <SCORE.INTER>
-14.5413

>  <SCORE.INTER.CONST>
1

>  <SCORE.INTER.POLAR>
0

>  <SCORE.INTER.ROT>
0

>  <SCORE.INTER.SOLV>
7.79343

>  <SCORE.INTER.VDW>
-15.892

>  <SCORE.INTER.norm>
-1.45413

>  <SCORE.INTRA>
0

>  <SCORE.INTRA.DIHEDRAL>
0

>  <SCORE.INTRA.DIHEDRAL.0>
0

>  <SCORE.INTRA.POLAR>
0

>  <SCORE.INTRA.POLAR.0>
0

>  <SCORE.INTRA.REPUL>
0

>  <SCORE.INTRA.REPUL.0>
0

>  <SCORE.INTRA.SOLV>
0

>  <SCORE.INTRA.SOLV.lig_0>
-23.8918

>  <SCORE.INTRA.VDW>
0

>  <SCORE.INTRA.VDW.0>
0

>  <SCORE.INTRA.norm>
0

>  <SCORE.RESTR>
0

>  <SCORE.RESTR.CAVITY>
0

>  <SCORE.RESTR.norm>
0

>  <SCORE.SYSTEM>
0

>  <SCORE.SYSTEM.CONST>
0

>  <SCORE.SYSTEM.DIHEDRAL>
0

>  <SCORE.SYSTEM.SOLV>
0

>  <SCORE.SYSTEM.norm>
0

>  <SCORE.heavy>
10

>  <SCORE.norm>
-1.45413

>  <RMSD>
0.741

$$$$
ligand
 OpenBabel11021811513D
libRbt.so/2013.1/901 2013/11/27
 10 11  0  0  0  0  0  0  0  0999 V2000
    5.9780   17.5046    2.5631 N   0  0  0  0  0  0  0  0  0  0  0  0
    6.8075   18.5541    2.5226 C   0  0  0  0  0  0  0  0  0  0  0  0
    7.1606   19.3816    3.5051 N   0  0  0  0  0  0  0  0  0  0  0  0
    6.5565   19.0417    4.6543 C   0  0  0  0  0  0  0  0  0  0  0  0
    5.6799   17.9924    4.8523 C   0  0  0  0  0  0  0  0  0  0  0  0
    5.3859   17.1879    3.7336 C   0  0  0  0  0  0  0  0  0  0  0  0
    4.5572   16.1401    3.7784 N   0  0  0  0  0  0  0  0  0  0  0  0
    5.2570   17.9480    6.1704 N   0  0  0  0  0  0  0  0  0  0  0  0
    5.8766   18.9580    6.7339 C   0  0  0  0  0  0  0  0  0  0  0  0
    6.6772   19.6613    5.8772 N   0  0  0  0  0  0  0  0  0  0  0  0
  1  2  2  0  0  0  0
  1  6  1  0  0  0  0
  2  3  1  0  0  0  0
  3  4  2  0  0  0  0
  4  5  1  0  0  0  0
  4 10  1  0  0  0  0
  5  6  2  0  0  0  0
  5  8  1  0  0  0  0
  6  7  1  0  0  0  0
  8  9  1  0  0  0  0
  9 10  2  0  0  0  0
M  END
>  <CHROM.1>
5.98845830,18.22854328,4.43447192,-1.76874203,0.87649695,1.20777108

>  <Name>
ligand

>  <RI>
0

>  <Rbt.Current_Directory>
/home/itssahil/PROJECTS/Mol_Feturizer/New_Systems/rnas/4XNR

>  <Rbt.Executable>
rbdock ($Id: //depot/dev/client3/rdock/2013.1/src/exe/rbdock.cxx#4 $)

>  <Rbt.Library>
libRbt.so (2013.1, Build901 2013/11/27)

>  <Rbt.Parameter_File>
/export/apps/rDock/src/rDock_2013.1_src/data/scripts/dock_solv.prm

>  <Rbt.Receptor>
prm/blind_docking_60.prm

>  <SCORE>
-14.5554

>  <SCORE.INTER>
-14.5554

>  <SCORE.INTER.CONST>
1

>  <SCORE.INTER.POLAR>
0

>  <SCORE.INTER.ROT>
0

>  <SCORE.INTER.SOLV>
7.79491

>  <SCORE.INTER.VDW>
-15.9019

>  <SCORE.INTER.norm>
-1.45554

>  <SCORE.INTRA>
0

>  <SCORE.INTRA.DIHEDRAL>
0

>  <SCORE.INTRA.DIHEDRAL.0>
0

>  <SCORE.INTRA.POLAR>
0

>  <SCORE.INTRA.POLAR.0>
0

>  <SCORE.INTRA.REPUL>
0

>  <SCORE.INTRA.REPUL.0>
0

>  <SCORE.INTRA.SOLV>
0

>  <SCORE.INTRA.SOLV.lig_0>
-23.8918

>  <SCORE.INTRA.VDW>
0

>  <SCORE.INTRA.VDW.0>
0

>  <SCORE.INTRA.norm>
0

>  <SCORE.RESTR>
0

>  <SCORE.RESTR.CAVITY>
0

>  <SCORE.RESTR.norm>
0

>  <SCORE.SYSTEM>
0

>  <SCORE.SYSTEM.CONST>
0

>  <SCORE.SYSTEM.DIHEDRAL>
0

>  <SCORE.SYSTEM.SOLV>
0

>  <SCORE.SYSTEM.norm>
0

>  <SCORE.heavy>
10

>  <SCORE.norm>
-1.45554

>  <RMSD>
0.741

$$$$
ligand
 OpenBabel11021811513D
libRbt.so/2013.1/901 2013/11/27
 10 11  0  0  0  0  0  0  0  0999 V2000
    5.8947   17.4181    2.6133 N   0  0  0  0  0  0  0  0  0  0  0  0
    6.7973   18.4043    2.5499 C   0  0  0  0  0  0  0  0  0  0  0  0
    7.2181   19.2186    3.5167 N   0  0  0  0  0  0  0  0  0  0  0  0
    6.6015   18.9404    4.6758 C   0  0  0  0  0  0  0  0  0  0  0  0
    5.6533   17.9603    4.8969 C   0  0  0  0  0  0  0  0  0  0  0  0
    5.2919   17.1626    3.7933 C   0  0  0  0  0  0  0  0  0  0  0  0
    4.3903   16.1781    3.8609 N   0  0  0  0  0  0  0  0  0  0  0  0
    5.2403   17.9662    6.2189 N   0  0  0  0  0  0  0  0  0  0  0  0
    5.9362   18.9370    6.7618 C   0  0  0  0  0  0  0  0  0  0  0  0
    6.7776   19.5678    5.8879 N   0  0  0  0  0  0  0  0  0  0  0  0
  1  2  2  0  0  0  0
  1  6  1  0  0  0  0
  2  3  1  0  0  0  0
  3  4  2  0  0  0  0
  4  5  1  0  0  0  0
  4 10  1  0  0  0  0
  5  6  2  0  0  0  0
  5  8  1  0  0  0  0
  6  7  1  0  0  0  0
  8  9  1  0  0  0  0
  9 10  2  0  0  0  0
M  END
>  <CHROM.1>
5.97429732,18.16722584,4.47309296,-1.81828435,0.81157583,1.22959827

>  <Name>
ligand

>  <RI>
0

>  <Rbt.Current_Directory>
/home/itssahil/PROJECTS/Mol_Feturizer/New_Systems/rnas/4XNR

>  <Rbt.Executable>
rbdock ($Id: //depot/dev/client3/rdock/2013.1/src/exe/rbdock.cxx#4 $)

>  <Rbt.Library>
libRbt.so (2013.1, Build901 2013/11/27)

>  <Rbt.Parameter_File>
/export/apps/rDock/src/rDock_2013.1_src/data/scripts/dock_solv.prm

>  <Rbt.Receptor>
prm/blind_docking_80.prm

>  <SCORE>
-14.5487

>  <SCORE.INTER>
-14.5487

>  <SCORE.INTER.CONST>
1

>  <SCORE.INTER.POLAR>
0

>  <SCORE.INTER.ROT>
0

>  <SCORE.INTER.SOLV>
7.47381

>  <SCORE.INTER.VDW>
-15.7904

>  <SCORE.INTER.norm>
-1.45487

>  <SCORE.INTRA>
0

>  <SCORE.INTRA.DIHEDRAL>
0

>  <SCORE.INTRA.DIHEDRAL.0>
0

>  <SCORE.INTRA.POLAR>
0

>  <SCORE.INTRA.POLAR.0>
0

>  <SCORE.INTRA.REPUL>
0

>  <SCORE.INTRA.REPUL.0>
0

>  <SCORE.INTRA.SOLV>
0

>  <SCORE.INTRA.SOLV.lig_0>
-23.8918

>  <SCORE.INTRA.VDW>
0

>  <SCORE.INTRA.VDW.0>
0

>  <SCORE.INTRA.norm>
0

>  <SCORE.RESTR>
0

>  <SCORE.RESTR.CAVITY>
0

>  <SCORE.RESTR.norm>
0

>  <SCORE.SYSTEM>
0

>  <SCORE.SYSTEM.CONST>
0

>  <SCORE.SYSTEM.DIHEDRAL>
0

>  <SCORE.SYSTEM.SOLV>
0

>  <SCORE.SYSTEM.norm>
0

>  <SCORE.heavy>
10

>  <SCORE.norm>
-1.45487

>  <RMSD>
0.741

$$$$
ligand
 OpenBabel11021811513D
libRbt.so/2013.1/901 2013/11/27
 10 11  0  0  0  0  0  0  0  0999 V2000
    5.8756   17.4087    2.6243 N   0  0  0  0  0  0  0  0  0  0  0  0
    6.7246   18.4393    2.5327 C   0  0  0  0  0  0  0  0  0  0  0  0
    7.1168   19.2887    3.4810 N   0  0  0  0  0  0  0  0  0  0  0  0
    6.5330   18.9963    4.6535 C   0  0  0  0  0  0  0  0  0  0  0  0
    5.6407   17.9716    4.9035 C   0  0  0  0  0  0  0  0  0  0  0  0
    5.3048   17.1398    3.8171 C   0  0  0  0  0  0  0  0  0  0  0  0
    4.4568   16.1110    3.9129 N   0  0  0  0  0  0  0  0  0  0  0  0
    5.2479   17.9758    6.2317 N   0  0  0  0  0  0  0  0  0  0  0  0
    5.9003   18.9894    6.7496 C   0  0  0  0  0  0  0  0  0  0  0  0
    6.6945   19.6499    5.8538 N   0  0  0  0  0  0  0  0  0  0  0  0
  1  2  2  0  0  0  0
  1  6  1  0  0  0  0
  2  3  1  0  0  0  0
  3  4  2  0  0  0  0
  4  5  1  0  0  0  0
  4 10  1  0  0  0  0
  5  6  2  0  0  0  0
  5  8  1  0  0  0  0
  6  7  1  0  0  0  0
  8  9  1  0  0  0  0
  9 10  2  0  0  0  0
M  END
>  <CHROM.1>
5.94402461,18.18860520,4.47177778,-1.81325577,0.86576529,1.21130960

>  <Name>
ligand

>  <RI>
0

>  <Rbt.Current_Directory>
/home/itssahil/PROJECTS/Mol_Feturizer/New_Systems/rnas/4XNR

>  <Rbt.Executable>
rbdock ($Id: //depot/dev/client3/rdock/2013.1/src/exe/rbdock.cxx#4 $)

>  <Rbt.Library>
libRbt.so (2013.1, Build901 2013/11/27)

>  <Rbt.Parameter_File>
/export/apps/rDock/src/rDock_2013.1_src/data/scripts/dock_solv.prm

>  <Rbt.Receptor>
prm/pocket_docking_3.prm

>  <SCORE>
-14.5383

>  <SCORE.INTER>
-14.5383

>  <SCORE.INTER.CONST>
1

>  <SCORE.INTER.POLAR>
0

>  <SCORE.INTER.ROT>
0

>  <SCORE.INTER.SOLV>
7.87279

>  <SCORE.INTER.VDW>
-15.9165

>  <SCORE.INTER.norm>
-1.45383

>  <SCORE.INTRA>
0

>  <SCORE.INTRA.DIHEDRAL>
0

>  <SCORE.INTRA.DIHEDRAL.0>
0

>  <SCORE.INTRA.POLAR>
0

>  <SCORE.INTRA.POLAR.0>
0

>  <SCORE.INTRA.REPUL>
0

>  <SCORE.INTRA.REPUL.0>
0

>  <SCORE.INTRA.SOLV>
0

>  <SCORE.INTRA.SOLV.lig_0>
-23.8918

>  <SCORE.INTRA.VDW>
0

>  <SCORE.INTRA.VDW.0>
0

>  <SCORE.INTRA.norm>
0

>  <SCORE.RESTR>
0

>  <SCORE.RESTR.CAVITY>
0

>  <SCORE.RESTR.norm>
0

>  <SCORE.SYSTEM>
0

>  <SCORE.SYSTEM.CONST>
0

>  <SCORE.SYSTEM.DIHEDRAL>
0

>  <SCORE.SYSTEM.SOLV>
0

>  <SCORE.SYSTEM.norm>
0

>  <SCORE.heavy>
10

>  <SCORE.norm>
-1.45383

>  <RMSD>
0.741

$$$$
ligand
 OpenBabel11021811513D
libRbt.so/2013.1/901 2013/11/27
 10 11  0  0  0  0  0  0  0  0999 V2000
    5.9239   17.3866    2.6311 N   0  0  0  0  0  0  0  0  0  0  0  0
    6.8256   18.3726    2.5523 C   0  0  0  0  0  0  0  0  0  0  0  0
    7.2376   19.2094    3.5034 N   0  0  0  0  0  0  0  0  0  0  0  0
    6.6123   18.9568    4.6637 C   0  0  0  0  0  0  0  0  0  0  0  0
    5.6638   17.9804    4.8998 C   0  0  0  0  0  0  0  0  0  0  0  0
    5.3123   17.1571    3.8119 C   0  0  0  0  0  0  0  0  0  0  0  0
    4.4116   16.1729    3.8949 N   0  0  0  0  0  0  0  0  0  0  0  0
    5.2404   18.0158    6.2180 N   0  0  0  0  0  0  0  0  0  0  0  0
    5.9306   18.9998    6.7440 C   0  0  0  0  0  0  0  0  0  0  0  0
    6.7780   19.6119    5.8626 N   0  0  0  0  0  0  0  0  0  0  0  0
  1  2  2  0  0  0  0
  1  6  1  0  0  0  0
  2  3  1  0  0  0  0
  3  4  2  0  0  0  0
  4  5  1  0  0  0  0
  4 10  1  0  0  0  0
  5  6  2  0  0  0  0
  5  8  1  0  0  0  0
  6  7  1  0  0  0  0
  8  9  1  0  0  0  0
  9 10  2  0  0  0  0
M  END
>  <CHROM.1>
5.98783414,18.17811233,4.47386569,-1.80683449,0.81029234,1.19846962

>  <Name>
ligand

>  <RI>
0

>  <Rbt.Current_Directory>
/home/itssahil/PROJECTS/Mol_Feturizer/New_Systems/rnas/4XNR

>  <Rbt.Executable>
rbdock ($Id: //depot/dev/client3/rdock/2013.1/src/exe/rbdock.cxx#4 $)

>  <Rbt.Library>
libRbt.so (2013.1, Build901 2013/11/27)

>  <Rbt.Parameter_File>
/export/apps/rDock/src/rDock_2013.1_src/data/scripts/dock_solv.prm

>  <Rbt.Receptor>
prm/pocket_docking_4.prm

>  <SCORE>
-14.5884

>  <SCORE.INTER>
-14.5884

>  <SCORE.INTER.CONST>
1

>  <SCORE.INTER.POLAR>
0

>  <SCORE.INTER.ROT>
0

>  <SCORE.INTER.SOLV>
7.58986

>  <SCORE.INTER.VDW>
-15.8556

>  <SCORE.INTER.norm>
-1.45884

>  <SCORE.INTRA>
0

>  <SCORE.INTRA.DIHEDRAL>
0

>  <SCORE.INTRA.DIHEDRAL.0>
0

>  <SCORE.INTRA.POLAR>
0

>  <SCORE.INTRA.POLAR.0>
0

>  <SCORE.INTRA.REPUL>
0

>  <SCORE.INTRA.REPUL.0>
0

>  <SCORE.INTRA.SOLV>
0

>  <SCORE.INTRA.SOLV.lig_0>
-23.8918

>  <SCORE.INTRA.VDW>
0

>  <SCORE.INTRA.VDW.0>
0

>  <SCORE.INTRA.norm>
0

>  <SCORE.RESTR>
0

>  <SCORE.RESTR.CAVITY>
0

>  <SCORE.RESTR.norm>
0

>  <SCORE.SYSTEM>
0

>  <SCORE.SYSTEM.CONST>
0

>  <SCORE.SYSTEM.DIHEDRAL>
0

>  <SCORE.SYSTEM.SOLV>
0

>  <SCORE.SYSTEM.norm>
0

>  <SCORE.heavy>
10

>  <SCORE.norm>
-1.45884

>  <RMSD>
0.741

$$$$
ligand
 OpenBabel11021811513D
libRbt.so/2013.1/901 2013/11/27
 10 11  0  0  0  0  0  0  0  0999 V2000
    5.9193   17.3895    2.6284 N   0  0  0  0  0  0  0  0  0  0  0  0
    6.8273   18.3698    2.5513 C   0  0  0  0  0  0  0  0  0  0  0  0
    7.2457   19.2013    3.5044 N   0  0  0  0  0  0  0  0  0  0  0  0
    6.6199   18.9495    4.6646 C   0  0  0  0  0  0  0  0  0  0  0  0
    5.6653   17.9787    4.8990 C   0  0  0  0  0  0  0  0  0  0  0  0
    5.3074   17.1607    3.8091 C   0  0  0  0  0  0  0  0  0  0  0  0
    4.4003   16.1822    3.8904 N   0  0  0  0  0  0  0  0  0  0  0  0
    5.2435   18.0132    6.2177 N   0  0  0  0  0  0  0  0  0  0  0  0
    5.9406   18.9913    6.7457 C   0  0  0  0  0  0  0  0  0  0  0  0
    6.7911   19.6003    5.8651 N   0  0  0  0  0  0  0  0  0  0  0  0
  1  2  2  0  0  0  0
  1  6  1  0  0  0  0
  2  3  1  0  0  0  0
  3  4  2  0  0  0  0
  4  5  1  0  0  0  0
  4 10  1  0  0  0  0
  5  6  2  0  0  0  0
  5  8  1  0  0  0  0
  6  7  1  0  0  0  0
  8  9  1  0  0  0  0
  9 10  2  0  0  0  0
M  END
>  <CHROM.1>
5.99020860,18.17546974,4.47324268,-1.81159395,0.80459785,1.20465703

>  <Name>
ligand

>  <RI>
0

>  <Rbt.Current_Directory>
/home/itssahil/PROJECTS/Mol_Feturizer/New_Systems/rnas/4XNR

>  <Rbt.Executable>
rbdock ($Id: //depot/dev/client3/rdock/2013.1/src/exe/rbdock.cxx#4 $)

>  <Rbt.Library>
libRbt.so (2013.1, Build901 2013/11/27)

>  <Rbt.Parameter_File>
/export/apps/rDock/src/rDock_2013.1_src/data/scripts/dock_solv.prm

>  <Rbt.Receptor>
prm/pocket_docking_4.prm

>  <SCORE>
-14.5854

>  <SCORE.INTER>
-14.5854

>  <SCORE.INTER.CONST>
1

>  <SCORE.INTER.POLAR>
0

>  <SCORE.INTER.ROT>
0

>  <SCORE.INTER.SOLV>
7.54023

>  <SCORE.INTER.VDW>
-15.837

>  <SCORE.INTER.norm>
-1.45854

>  <SCORE.INTRA>
0

>  <SCORE.INTRA.DIHEDRAL>
0

>  <SCORE.INTRA.DIHEDRAL.0>
0

>  <SCORE.INTRA.POLAR>
0

>  <SCORE.INTRA.POLAR.0>
0

>  <SCORE.INTRA.REPUL>
0

>  <SCORE.INTRA.REPUL.0>
0

>  <SCORE.INTRA.SOLV>
0

>  <SCORE.INTRA.SOLV.lig_0>
-23.8918

>  <SCORE.INTRA.VDW>
0

>  <SCORE.INTRA.VDW.0>
0

>  <SCORE.INTRA.norm>
0

>  <SCORE.RESTR>
0

>  <SCORE.RESTR.CAVITY>
0

>  <SCORE.RESTR.norm>
0

>  <SCORE.SYSTEM>
0

>  <SCORE.SYSTEM.CONST>
0

>  <SCORE.SYSTEM.DIHEDRAL>
0

>  <SCORE.SYSTEM.SOLV>
0

>  <SCORE.SYSTEM.norm>
0

>  <SCORE.heavy>
10

>  <SCORE.norm>
-1.45854

>  <RMSD>
0.741

$$$$
ligand
 OpenBabel11021811513D
libRbt.so/2013.1/901 2013/11/27
 10 11  0  0  0  0  0  0  0  0999 V2000
    5.9390   17.4263    2.6132 N   0  0  0  0  0  0  0  0  0  0  0  0
    6.7425   18.4932    2.5261 C   0  0  0  0  0  0  0  0  0  0  0  0
    7.0962   19.3558    3.4776 N   0  0  0  0  0  0  0  0  0  0  0  0
    6.5240   19.0346    4.6484 C   0  0  0  0  0  0  0  0  0  0  0  0
    5.6766   17.9714    4.8938 C   0  0  0  0  0  0  0  0  0  0  0  0
    5.3787   17.1292    3.8043 C   0  0  0  0  0  0  0  0  0  0  0  0
    4.5761   16.0643    3.8957 N   0  0  0  0  0  0  0  0  0  0  0  0
    5.2822   17.9544    6.2214 N   0  0  0  0  0  0  0  0  0  0  0  0
    5.8893   18.9937    6.7435 C   0  0  0  0  0  0  0  0  0  0  0  0
    6.6552   19.6909    5.8509 N   0  0  0  0  0  0  0  0  0  0  0  0
  1  2  2  0  0  0  0
  1  6  1  0  0  0  0
  2  3  1  0  0  0  0
  3  4  2  0  0  0  0
  4  5  1  0  0  0  0
  4 10  1  0  0  0  0
  5  6  2  0  0  0  0
  5  8  1  0  0  0  0
  6  7  1  0  0  0  0
  8  9  1  0  0  0  0
  9 10  2  0  0  0  0
M  END
>  <CHROM.1>
5.97089103,18.20269437,4.46320985,-1.78639076,0.90577340,1.19362125

>  <Name>
ligand

>  <RI>
0

>  <Rbt.Current_Directory>
/home/itssahil/PROJECTS/Mol_Feturizer/New_Systems/rnas/4XNR

>  <Rbt.Executable>
rbdock ($Id: //depot/dev/client3/rdock/2013.1/src/exe/rbdock.cxx#4 $)

>  <Rbt.Library>
libRbt.so (2013.1, Build901 2013/11/27)

>  <Rbt.Parameter_File>
/export/apps/rDock/src/rDock_2013.1_src/data/scripts/dock_solv.prm

>  <Rbt.Receptor>
prm/pocket_docking_5.prm

>  <SCORE>
-14.5572

>  <SCORE.INTER>
-14.5572

>  <SCORE.INTER.CONST>
1

>  <SCORE.INTER.POLAR>
0

>  <SCORE.INTER.ROT>
0

>  <SCORE.INTER.SOLV>
8.2455

>  <SCORE.INTER.VDW>
-16.0533

>  <SCORE.INTER.norm>
-1.45572

>  <SCORE.INTRA>
0

>  <SCORE.INTRA.DIHEDRAL>
0

>  <SCORE.INTRA.DIHEDRAL.0>
0

>  <SCORE.INTRA.POLAR>
0

>  <SCORE.INTRA.POLAR.0>
0

>  <SCORE.INTRA.REPUL>
0

>  <SCORE.INTRA.REPUL.0>
0

>  <SCORE.INTRA.SOLV>
0

>  <SCORE.INTRA.SOLV.lig_0>
-23.8918

>  <SCORE.INTRA.VDW>
0

>  <SCORE.INTRA.VDW.0>
0

>  <SCORE.INTRA.norm>
0

>  <SCORE.RESTR>
0

>  <SCORE.RESTR.CAVITY>
0

>  <SCORE.RESTR.norm>
0

>  <SCORE.SYSTEM>
0

>  <SCORE.SYSTEM.CONST>
0

>  <SCORE.SYSTEM.DIHEDRAL>
0

>  <SCORE.SYSTEM.SOLV>
0

>  <SCORE.SYSTEM.norm>
0

>  <SCORE.heavy>
10

>  <SCORE.norm>
-1.45572

>  <RMSD>
0.741

$$$$
ligand
 OpenBabel11021811513D
libRbt.so/2013.1/901 2013/11/27
 10 11  0  0  0  0  0  0  0  0999 V2000
    5.8808   17.3680    2.6415 N   0  0  0  0  0  0  0  0  0  0  0  0
    6.7796   18.3558    2.5530 C   0  0  0  0  0  0  0  0  0  0  0  0
    7.1967   19.1964    3.4985 N   0  0  0  0  0  0  0  0  0  0  0  0
    6.5806   18.9460    4.6642 C   0  0  0  0  0  0  0  0  0  0  0  0
    5.6361   17.9682    4.9103 C   0  0  0  0  0  0  0  0  0  0  0  0
    5.2784   17.1407    3.8274 C   0  0  0  0  0  0  0  0  0  0  0  0
    4.3806   16.1548    3.9202 N   0  0  0  0  0  0  0  0  0  0  0  0
    5.2224   18.0066    6.2315 N   0  0  0  0  0  0  0  0  0  0  0  0
    5.9142   18.9939    6.7493 C   0  0  0  0  0  0  0  0  0  0  0  0
    6.7537   19.6051    5.8598 N   0  0  0  0  0  0  0  0  0  0  0  0
  1  2  2  0  0  0  0
  1  6  1  0  0  0  0
  2  3  1  0  0  0  0
  3  4  2  0  0  0  0
  4  5  1  0  0  0  0
  4 10  1  0  0  0  0
  5  6  2  0  0  0  0
  5  8  1  0  0  0  0
  6  7  1  0  0  0  0
  8  9  1  0  0  0  0
  9 10  2  0  0  0  0
M  END
>  <CHROM.1>
5.95652308,18.16533062,4.48133085,-1.81566203,0.81508732,1.20182490

>  <Name>
ligand

>  <RI>
0

>  <Rbt.Current_Directory>
/home/itssahil/PROJECTS/Mol_Feturizer/New_Systems/rnas/4XNR

>  <Rbt.Executable>
rbdock ($Id: //depot/dev/client3/rdock/2013.1/src/exe/rbdock.cxx#4 $)

>  <Rbt.Library>
libRbt.so (2013.1, Build901 2013/11/27)

>  <Rbt.Parameter_File>
/export/apps/rDock/src/rDock_2013.1_src/data/scripts/dock_solv.prm

>  <Rbt.Receptor>
prm/pocket_docking_6.prm

>  <SCORE>
-14.5907

>  <SCORE.INTER>
-14.5907

>  <SCORE.INTER.CONST>
1

>  <SCORE.INTER.POLAR>
0

>  <SCORE.INTER.ROT>
0

>  <SCORE.INTER.SOLV>
7.66578

>  <SCORE.INTER.VDW>
-15.8824

>  <SCORE.INTER.norm>
-1.45907

>  <SCORE.INTRA>
0

>  <SCORE.INTRA.DIHEDRAL>
0

>  <SCORE.INTRA.DIHEDRAL.0>
0

>  <SCORE.INTRA.POLAR>
0

>  <SCORE.INTRA.POLAR.0>
0

>  <SCORE.INTRA.REPUL>
0

>  <SCORE.INTRA.REPUL.0>
0

>  <SCORE.INTRA.SOLV>
0

>  <SCORE.INTRA.SOLV.lig_0>
-23.8918

>  <SCORE.INTRA.VDW>
0

>  <SCORE.INTRA.VDW.0>
0

>  <SCORE.INTRA.norm>
0

>  <SCORE.RESTR>
0

>  <SCORE.RESTR.CAVITY>
0

>  <SCORE.RESTR.norm>
0

>  <SCORE.SYSTEM>
0

>  <SCORE.SYSTEM.CONST>
0

>  <SCORE.SYSTEM.DIHEDRAL>
0

>  <SCORE.SYSTEM.SOLV>
0

>  <SCORE.SYSTEM.norm>
0

>  <SCORE.heavy>
10

>  <SCORE.norm>
-1.45907

>  <RMSD>
0.741

$$$$
ligand
 OpenBabel11021811513D
libRbt.so/2013.1/901 2013/11/27
 10 11  0  0  0  0  0  0  0  0999 V2000
    5.9069   17.4066    2.6257 N   0  0  0  0  0  0  0  0  0  0  0  0
    6.7752   18.4214    2.5381 C   0  0  0  0  0  0  0  0  0  0  0  0
    7.1744   19.2670    3.4869 N   0  0  0  0  0  0  0  0  0  0  0  0
    6.5751   18.9894    4.6552 C   0  0  0  0  0  0  0  0  0  0  0  0
    5.6622   17.9820    4.9008 C   0  0  0  0  0  0  0  0  0  0  0  0
    5.3209   17.1524    3.8144 C   0  0  0  0  0  0  0  0  0  0  0  0
    4.4536   16.1395    3.9063 N   0  0  0  0  0  0  0  0  0  0  0  0
    5.2579   17.9981    6.2254 N   0  0  0  0  0  0  0  0  0  0  0  0
    5.9239   19.0017    6.7456 C   0  0  0  0  0  0  0  0  0  0  0  0
    6.7378   19.6444    5.8545 N   0  0  0  0  0  0  0  0  0  0  0  0
  1  2  2  0  0  0  0
  1  6  1  0  0  0  0
  2  3  1  0  0  0  0
  3  4  2  0  0  0  0
  4  5  1  0  0  0  0
  4 10  1  0  0  0  0
  5  6  2  0  0  0  0
  5  8  1  0  0  0  0
  6  7  1  0  0  0  0
  8  9  1  0  0  0  0
  9 10  2  0  0  0  0
M  END
>  <CHROM.1>
5.97320805,18.19187348,4.47103525,-1.81044803,0.84572611,1.20562110

>  <Name>
ligand

>  <RI>
0

>  <Rbt.Current_Directory>
/home/itssahil/PROJECTS/Mol_Feturizer/New_Systems/rnas/4XNR

>  <Rbt.Executable>
rbdock ($Id: //depot/dev/client3/rdock/2013.1/src/exe/rbdock.cxx#4 $)

>  <Rbt.Library>
libRbt.so (2013.1, Build901 2013/11/27)

>  <Rbt.Parameter_File>
/export/apps/rDock/src/rDock_2013.1_src/data/scripts/dock_solv.prm

>  <Rbt.Receptor>
prm/pocket_docking_7.prm

>  <SCORE>
-14.5869

>  <SCORE.INTER>
-14.5869

>  <SCORE.INTER.CONST>
1

>  <SCORE.INTER.POLAR>
0

>  <SCORE.INTER.ROT>
0

>  <SCORE.INTER.SOLV>
7.77946

>  <SCORE.INTER.VDW>
-15.9178

>  <SCORE.INTER.norm>
-1.45869

>  <SCORE.INTRA>
0

>  <SCORE.INTRA.DIHEDRAL>
0

>  <SCORE.INTRA.DIHEDRAL.0>
0

>  <SCORE.INTRA.POLAR>
0

>  <SCORE.INTRA.POLAR.0>
0

>  <SCORE.INTRA.REPUL>
0

>  <SCORE.INTRA.REPUL.0>
0

>  <SCORE.INTRA.SOLV>
0

>  <SCORE.INTRA.SOLV.lig_0>
-23.8918

>  <SCORE.INTRA.VDW>
0

>  <SCORE.INTRA.VDW.0>
0

>  <SCORE.INTRA.norm>
0

>  <SCORE.RESTR>
0

>  <SCORE.RESTR.CAVITY>
0

>  <SCORE.RESTR.norm>
0

>  <SCORE.SYSTEM>
0

>  <SCORE.SYSTEM.CONST>
0

>  <SCORE.SYSTEM.DIHEDRAL>
0

>  <SCORE.SYSTEM.SOLV>
0

>  <SCORE.SYSTEM.norm>
0

>  <SCORE.heavy>
10

>  <SCORE.norm>
-1.45869

>  <RMSD>
0.741

$$$$
ligand
 OpenBabel11021811513D
libRbt.so/2013.1/901 2013/11/27
 10 11  0  0  0  0  0  0  0  0999 V2000
    5.9544   17.4292    2.6107 N   0  0  0  0  0  0  0  0  0  0  0  0
    6.7656   18.4909    2.5324 C   0  0  0  0  0  0  0  0  0  0  0  0
    7.1193   19.3477    3.4892 N   0  0  0  0  0  0  0  0  0  0  0  0
    6.5379   19.0262    4.6552 C   0  0  0  0  0  0  0  0  0  0  0  0
    5.6819   17.9678    4.8917 C   0  0  0  0  0  0  0  0  0  0  0  0
    5.3850   17.1316    3.7974 C   0  0  0  0  0  0  0  0  0  0  0  0
    4.5747   16.0717    3.8800 N   0  0  0  0  0  0  0  0  0  0  0  0
    5.2794   17.9486    6.2168 N   0  0  0  0  0  0  0  0  0  0  0  0
    5.8902   18.9820    6.7463 C   0  0  0  0  0  0  0  0  0  0  0  0
    6.6662   19.6772    5.8609 N   0  0  0  0  0  0  0  0  0  0  0  0
  1  2  2  0  0  0  0
  1  6  1  0  0  0  0
  2  3  1  0  0  0  0
  3  4  2  0  0  0  0
  4  5  1  0  0  0  0
  4 10  1  0  0  0  0
  5  6  2  0  0  0  0
  5  8  1  0  0  0  0
  6  7  1  0  0  0  0
  8  9  1  0  0  0  0
  9 10  2  0  0  0  0
M  END
>  <CHROM.1>
5.98034863,18.19865769,4.46371072,-1.78131204,0.89730195,1.19325849

>  <Name>
ligand

>  <RI>
0

>  <Rbt.Current_Directory>
/home/itssahil/PROJECTS/Mol_Feturizer/New_Systems/rnas/4XNR

>  <Rbt.Executable>
rbdock ($Id: //depot/dev/client3/rdock/2013.1/src/exe/rbdock.cxx#4 $)

>  <Rbt.Library>
libRbt.so (2013.1, Build901 2013/11/27)

>  <Rbt.Parameter_File>
/export/apps/rDock/src/rDock_2013.1_src/data/scripts/dock_solv.prm

>  <Rbt.Receptor>
prm/pocket_docking_8.prm

>  <SCORE>
-14.5567

>  <SCORE.INTER>
-14.5567

>  <SCORE.INTER.CONST>
1

>  <SCORE.INTER.POLAR>
0

>  <SCORE.INTER.ROT>
0

>  <SCORE.INTER.SOLV>
8.18429

>  <SCORE.INTER.VDW>
-16.0326

>  <SCORE.INTER.norm>
-1.45567

>  <SCORE.INTRA>
0

>  <SCORE.INTRA.DIHEDRAL>
0

>  <SCORE.INTRA.DIHEDRAL.0>
0

>  <SCORE.INTRA.POLAR>
0

>  <SCORE.INTRA.POLAR.0>
0

>  <SCORE.INTRA.REPUL>
0

>  <SCORE.INTRA.REPUL.0>
0

>  <SCORE.INTRA.SOLV>
0

>  <SCORE.INTRA.SOLV.lig_0>
-23.8918

>  <SCORE.INTRA.VDW>
0

>  <SCORE.INTRA.VDW.0>
0

>  <SCORE.INTRA.norm>
0

>  <SCORE.RESTR>
0

>  <SCORE.RESTR.CAVITY>
0

>  <SCORE.RESTR.norm>
0

>  <SCORE.SYSTEM>
0

>  <SCORE.SYSTEM.CONST>
0

>  <SCORE.SYSTEM.DIHEDRAL>
0

>  <SCORE.SYSTEM.SOLV>
0

>  <SCORE.SYSTEM.norm>
0

>  <SCORE.heavy>
10

>  <SCORE.norm>
-1.45567

>  <RMSD>
0.741

$$$$
ligand
 OpenBabel11021811513D
libRbt.so/2013.1/901 2013/11/27
 10 11  0  0  0  0  0  0  0  0999 V2000
    5.9065   17.3993    2.6255 N   0  0  0  0  0  0  0  0  0  0  0  0
    6.8029   18.3906    2.5536 C   0  0  0  0  0  0  0  0  0  0  0  0
    7.2136   19.2202    3.5116 N   0  0  0  0  0  0  0  0  0  0  0  0
    6.5932   18.9530    4.6713 C   0  0  0  0  0  0  0  0  0  0  0  0
    5.6505   17.9695    4.9007 C   0  0  0  0  0  0  0  0  0  0  0  0
    5.2997   17.1551    3.8059 C   0  0  0  0  0  0  0  0  0  0  0  0
    4.4042   16.1656    3.8821 N   0  0  0  0  0  0  0  0  0  0  0  0
    5.2311   17.9899    6.2205 N   0  0  0  0  0  0  0  0  0  0  0  0
    5.9179   18.9723    6.7540 C   0  0  0  0  0  0  0  0  0  0  0  0
    6.7594   19.5973    5.8760 N   0  0  0  0  0  0  0  0  0  0  0  0
  1  2  2  0  0  0  0
  1  6  1  0  0  0  0
  2  3  1  0  0  0  0
  3  4  2  0  0  0  0
  4  5  1  0  0  0  0
  4 10  1  0  0  0  0
  5  6  2  0  0  0  0
  5  8  1  0  0  0  0
  6  7  1  0  0  0  0
  8  9  1  0  0  0  0
  9 10  2  0  0  0  0
M  END
>  <CHROM.1>
5.97213052,18.17308275,4.47573740,-1.80842459,0.81617497,1.20940119

>  <Name>
ligand

>  <RI>
0

>  <Rbt.Current_Directory>
/home/itssahil/PROJECTS/Mol_Feturizer/New_Systems/rnas/4XNR

>  <Rbt.Executable>
rbdock ($Id: //depot/dev/client3/rdock/2013.1/src/exe/rbdock.cxx#4 $)

>  <Rbt.Library>
libRbt.so (2013.1, Build901 2013/11/27)

>  <Rbt.Parameter_File>
/export/apps/rDock/src/rDock_2013.1_src/data/scripts/dock_solv.prm

>  <Rbt.Receptor>
prm/blind_docking_100.prm

>  <SCORE>
-14.5827

>  <SCORE.INTER>
-14.5827

>  <SCORE.INTER.CONST>
1

>  <SCORE.INTER.POLAR>
0

>  <SCORE.INTER.ROT>
0

>  <SCORE.INTER.SOLV>
7.55999

>  <SCORE.INTER.VDW>
-15.8418

>  <SCORE.INTER.norm>
-1.45827

>  <SCORE.INTRA>
0

>  <SCORE.INTRA.DIHEDRAL>
0

>  <SCORE.INTRA.DIHEDRAL.0>
0

>  <SCORE.INTRA.POLAR>
0

>  <SCORE.INTRA.POLAR.0>
0

>  <SCORE.INTRA.REPUL>
0

>  <SCORE.INTRA.REPUL.0>
0

>  <SCORE.INTRA.SOLV>
0

>  <SCORE.INTRA.SOLV.lig_0>
-23.8918

>  <SCORE.INTRA.VDW>
0

>  <SCORE.INTRA.VDW.0>
0

>  <SCORE.INTRA.norm>
0

>  <SCORE.RESTR>
0

>  <SCORE.RESTR.CAVITY>
0

>  <SCORE.RESTR.norm>
0

>  <SCORE.SYSTEM>
0

>  <SCORE.SYSTEM.CONST>
0

>  <SCORE.SYSTEM.DIHEDRAL>
0

>  <SCORE.SYSTEM.SOLV>
0

>  <SCORE.SYSTEM.norm>
0

>  <SCORE.heavy>
10

>  <SCORE.norm>
-1.45827

>  <RMSD>
0.742

$$$$
ligand
 OpenBabel11021811513D
libRbt.so/2013.1/901 2013/11/27
 10 11  0  0  0  0  0  0  0  0999 V2000
    5.8983   17.3987    2.6323 N   0  0  0  0  0  0  0  0  0  0  0  0
    6.7412   18.4334    2.5304 C   0  0  0  0  0  0  0  0  0  0  0  0
    7.1265   19.2960    3.4697 N   0  0  0  0  0  0  0  0  0  0  0  0
    6.5422   19.0135    4.6444 C   0  0  0  0  0  0  0  0  0  0  0  0
    5.6555   17.9865    4.9045 C   0  0  0  0  0  0  0  0  0  0  0  0
    5.3268   17.1402    3.8271 C   0  0  0  0  0  0  0  0  0  0  0  0
    4.4848   16.1074    3.9332 N   0  0  0  0  0  0  0  0  0  0  0  0
    5.2602   18.0036    6.2317 N   0  0  0  0  0  0  0  0  0  0  0  0
    5.9055   19.0270    6.7392 C   0  0  0  0  0  0  0  0  0  0  0  0
    6.6974   19.6819    5.8373 N   0  0  0  0  0  0  0  0  0  0  0  0
  1  2  2  0  0  0  0
  1  6  1  0  0  0  0
  2  3  1  0  0  0  0
  3  4  2  0  0  0  0
  4  5  1  0  0  0  0
  4 10  1  0  0  0  0
  5  6  2  0  0  0  0
  5  8  1  0  0  0  0
  6  7  1  0  0  0  0
  8  9  1  0  0  0  0
  9 10  2  0  0  0  0
M  END
>  <CHROM.1>
5.95843538,18.20027589,4.47082384,-1.80715858,0.87071776,1.19514179

>  <Name>
ligand

>  <RI>
0

>  <Rbt.Current_Directory>
/home/itssahil/PROJECTS/Mol_Feturizer/New_Systems/rnas/4XNR

>  <Rbt.Executable>
rbdock ($Id: //depot/dev/client3/rdock/2013.1/src/exe/rbdock.cxx#4 $)

>  <Rbt.Library>
libRbt.so (2013.1, Build901 2013/11/27)

>  <Rbt.Parameter_File>
/export/apps/rDock/src/rDock_2013.1_src/data/scripts/dock_solv.prm

>  <Rbt.Receptor>
prm/blind_docking_40.prm

>  <SCORE>
-14.5532

>  <SCORE.INTER>
-14.5532

>  <SCORE.INTER.CONST>
1

>  <SCORE.INTER.POLAR>
0

>  <SCORE.INTER.ROT>
0

>  <SCORE.INTER.SOLV>
7.9821

>  <SCORE.INTER.VDW>
-15.9628

>  <SCORE.INTER.norm>
-1.45532

>  <SCORE.INTRA>
0

>  <SCORE.INTRA.DIHEDRAL>
0

>  <SCORE.INTRA.DIHEDRAL.0>
0

>  <SCORE.INTRA.POLAR>
0

>  <SCORE.INTRA.POLAR.0>
0

>  <SCORE.INTRA.REPUL>
0

>  <SCORE.INTRA.REPUL.0>
0

>  <SCORE.INTRA.SOLV>
0

>  <SCORE.INTRA.SOLV.lig_0>
-23.8918

>  <SCORE.INTRA.VDW>
0

>  <SCORE.INTRA.VDW.0>
0

>  <SCORE.INTRA.norm>
0

>  <SCORE.RESTR>
0

>  <SCORE.RESTR.CAVITY>
0

>  <SCORE.RESTR.norm>
0

>  <SCORE.SYSTEM>
0

>  <SCORE.SYSTEM.CONST>
0

>  <SCORE.SYSTEM.DIHEDRAL>
0

>  <SCORE.SYSTEM.SOLV>
0

>  <SCORE.SYSTEM.norm>
0

>  <SCORE.heavy>
10

>  <SCORE.norm>
-1.45532

>  <RMSD>
0.742

$$$$
ligand
 OpenBabel11021811513D
libRbt.so/2013.1/901 2013/11/27
 10 11  0  0  0  0  0  0  0  0999 V2000
    5.9076   17.3948    2.6275 N   0  0  0  0  0  0  0  0  0  0  0  0
    6.8025   18.3874    2.5548 C   0  0  0  0  0  0  0  0  0  0  0  0
    7.2109   19.2193    3.5118 N   0  0  0  0  0  0  0  0  0  0  0  0
    6.5896   18.9533    4.6712 C   0  0  0  0  0  0  0  0  0  0  0  0
    5.6481   17.9688    4.9014 C   0  0  0  0  0  0  0  0  0  0  0  0
    5.2999   17.1518    3.8076 C   0  0  0  0  0  0  0  0  0  0  0  0
    4.4059   16.1611    3.8846 N   0  0  0  0  0  0  0  0  0  0  0  0
    5.2272   17.9908    6.2207 N   0  0  0  0  0  0  0  0  0  0  0  0
    5.9119   18.9753    6.7531 C   0  0  0  0  0  0  0  0  0  0  0  0
    6.7534   19.6000    5.8750 N   0  0  0  0  0  0  0  0  0  0  0  0
  1  2  2  0  0  0  0
  1  6  1  0  0  0  0
  2  3  1  0  0  0  0
  3  4  2  0  0  0  0
  4  5  1  0  0  0  0
  4 10  1  0  0  0  0
  5  6  2  0  0  0  0
  5  8  1  0  0  0  0
  6  7  1  0  0  0  0
  8  9  1  0  0  0  0
  9 10  2  0  0  0  0
M  END
>  <CHROM.1>
5.96995011,18.17205454,4.47642642,-1.80606044,0.81723856,1.20587625

>  <Name>
ligand

>  <RI>
0

>  <Rbt.Current_Directory>
/home/itssahil/PROJECTS/Mol_Feturizer/New_Systems/rnas/4XNR

>  <Rbt.Executable>
rbdock ($Id: //depot/dev/client3/rdock/2013.1/src/exe/rbdock.cxx#4 $)

>  <Rbt.Library>
libRbt.so (2013.1, Build901 2013/11/27)

>  <Rbt.Parameter_File>
/export/apps/rDock/src/rDock_2013.1_src/data/scripts/dock_solv.prm

>  <Rbt.Receptor>
prm/blind_docking_80.prm

>  <SCORE>
-14.5826

>  <SCORE.INTER>
-14.5826

>  <SCORE.INTER.CONST>
1

>  <SCORE.INTER.POLAR>
0

>  <SCORE.INTER.ROT>
0

>  <SCORE.INTER.SOLV>
7.5762

>  <SCORE.INTER.VDW>
-15.8471

>  <SCORE.INTER.norm>
-1.45826

>  <SCORE.INTRA>
0

>  <SCORE.INTRA.DIHEDRAL>
0

>  <SCORE.INTRA.DIHEDRAL.0>
0

>  <SCORE.INTRA.POLAR>
0

>  <SCORE.INTRA.POLAR.0>
0

>  <SCORE.INTRA.REPUL>
0

>  <SCORE.INTRA.REPUL.0>
0

>  <SCORE.INTRA.SOLV>
0

>  <SCORE.INTRA.SOLV.lig_0>
-23.8918

>  <SCORE.INTRA.VDW>
0

>  <SCORE.INTRA.VDW.0>
0

>  <SCORE.INTRA.norm>
0

>  <SCORE.RESTR>
0

>  <SCORE.RESTR.CAVITY>
0

>  <SCORE.RESTR.norm>
0

>  <SCORE.SYSTEM>
0

>  <SCORE.SYSTEM.CONST>
0

>  <SCORE.SYSTEM.DIHEDRAL>
0

>  <SCORE.SYSTEM.SOLV>
0

>  <SCORE.SYSTEM.norm>
0

>  <SCORE.heavy>
10

>  <SCORE.norm>
-1.45826

>  <RMSD>
0.742

$$$$
ligand
 OpenBabel11021811513D
libRbt.so/2013.1/901 2013/11/27
 10 11  0  0  0  0  0  0  0  0999 V2000
    5.9108   17.3791    2.6348 N   0  0  0  0  0  0  0  0  0  0  0  0
    6.8115   18.3662    2.5595 C   0  0  0  0  0  0  0  0  0  0  0  0
    7.2202   19.2021    3.5128 N   0  0  0  0  0  0  0  0  0  0  0  0
    6.5924   18.9472    4.6712 C   0  0  0  0  0  0  0  0  0  0  0  0
    5.6445   17.9694    4.9036 C   0  0  0  0  0  0  0  0  0  0  0  0
    5.2965   17.1472    3.8137 C   0  0  0  0  0  0  0  0  0  0  0  0
    4.3967   16.1620    3.8932 N   0  0  0  0  0  0  0  0  0  0  0  0
    5.2179   18.0025    6.2209 N   0  0  0  0  0  0  0  0  0  0  0  0
    5.9057   18.9866    6.7499 C   0  0  0  0  0  0  0  0  0  0  0  0
    6.7545   19.6008    5.8714 N   0  0  0  0  0  0  0  0  0  0  0  0
  1  2  2  0  0  0  0
  1  6  1  0  0  0  0
  2  3  1  0  0  0  0
  3  4  2  0  0  0  0
  4  5  1  0  0  0  0
  4 10  1  0  0  0  0
  5  6  2  0  0  0  0
  5  8  1  0  0  0  0
  6  7  1  0  0  0  0
  8  9  1  0  0  0  0
  9 10  2  0  0  0  0
M  END
>  <CHROM.1>
5.96930200,18.16810131,4.47876829,-1.80297428,0.81046807,1.19706769

>  <Name>
ligand

>  <RI>
0

>  <Rbt.Current_Directory>
/home/itssahil/PROJECTS/Mol_Feturizer/New_Systems/rnas/4XNR

>  <Rbt.Executable>
rbdock ($Id: //depot/dev/client3/rdock/2013.1/src/exe/rbdock.cxx#4 $)

>  <Rbt.Library>
libRbt.so (2013.1, Build901 2013/11/27)

>  <Rbt.Parameter_File>
/export/apps/rDock/src/rDock_2013.1_src/data/scripts/dock_solv.prm

>  <Rbt.Receptor>
prm/pocket_docking_4.prm

>  <SCORE>
-14.6043

>  <SCORE.INTER>
-14.6043

>  <SCORE.INTER.CONST>
1

>  <SCORE.INTER.POLAR>
0

>  <SCORE.INTER.ROT>
0

>  <SCORE.INTER.SOLV>
7.58025

>  <SCORE.INTER.VDW>
-15.8629

>  <SCORE.INTER.norm>
-1.46043

>  <SCORE.INTRA>
0

>  <SCORE.INTRA.DIHEDRAL>
0

>  <SCORE.INTRA.DIHEDRAL.0>
0

>  <SCORE.INTRA.POLAR>
0

>  <SCORE.INTRA.POLAR.0>
0

>  <SCORE.INTRA.REPUL>
0

>  <SCORE.INTRA.REPUL.0>
0

>  <SCORE.INTRA.SOLV>
0

>  <SCORE.INTRA.SOLV.lig_0>
-23.8918

>  <SCORE.INTRA.VDW>
0

>  <SCORE.INTRA.VDW.0>
0

>  <SCORE.INTRA.norm>
0

>  <SCORE.RESTR>
0

>  <SCORE.RESTR.CAVITY>
0

>  <SCORE.RESTR.norm>
0

>  <SCORE.SYSTEM>
0

>  <SCORE.SYSTEM.CONST>
0

>  <SCORE.SYSTEM.DIHEDRAL>
0

>  <SCORE.SYSTEM.SOLV>
0

>  <SCORE.SYSTEM.norm>
0

>  <SCORE.heavy>
10

>  <SCORE.norm>
-1.46043

>  <RMSD>
0.742

$$$$
ligand
 OpenBabel11021811513D
libRbt.so/2013.1/901 2013/11/27
 10 11  0  0  0  0  0  0  0  0999 V2000
    5.9569   17.4231    2.6152 N   0  0  0  0  0  0  0  0  0  0  0  0
    6.7680   18.4847    2.5352 C   0  0  0  0  0  0  0  0  0  0  0  0
    7.1187   19.3451    3.4899 N   0  0  0  0  0  0  0  0  0  0  0  0
    6.5340   19.0278    4.6555 C   0  0  0  0  0  0  0  0  0  0  0  0
    5.6777   17.9701    4.8934 C   0  0  0  0  0  0  0  0  0  0  0  0
    5.3841   17.1297    3.8013 C   0  0  0  0  0  0  0  0  0  0  0  0
    4.5738   16.0700    3.8855 N   0  0  0  0  0  0  0  0  0  0  0  0
    5.2713   17.9557    6.2173 N   0  0  0  0  0  0  0  0  0  0  0  0
    5.8804   18.9912    6.7448 C   0  0  0  0  0  0  0  0  0  0  0  0
    6.6588   19.6833    5.8591 N   0  0  0  0  0  0  0  0  0  0  0  0
  1  2  2  0  0  0  0
  1  6  1  0  0  0  0
  2  3  1  0  0  0  0
  3  4  2  0  0  0  0
  4  5  1  0  0  0  0
  4 10  1  0  0  0  0
  5  6  2  0  0  0  0
  5  8  1  0  0  0  0
  6  7  1  0  0  0  0
  8  9  1  0  0  0  0
  9 10  2  0  0  0  0
M  END
>  <CHROM.1>
5.97726360,18.19944043,4.46539356,-1.77688697,0.89646295,1.18609710

>  <Name>
ligand

>  <RI>
0

>  <Rbt.Current_Directory>
/home/itssahil/PROJECTS/Mol_Feturizer/New_Systems/rnas/4XNR

>  <Rbt.Executable>
rbdock ($Id: //depot/dev/client3/rdock/2013.1/src/exe/rbdock.cxx#4 $)

>  <Rbt.Library>
libRbt.so (2013.1, Build901 2013/11/27)

>  <Rbt.Parameter_File>
/export/apps/rDock/src/rDock_2013.1_src/data/scripts/dock_solv.prm

>  <Rbt.Receptor>
prm/pocket_docking_6.prm

>  <SCORE>
-14.5586

>  <SCORE.INTER>
-14.5586

>  <SCORE.INTER.CONST>
1

>  <SCORE.INTER.POLAR>
0

>  <SCORE.INTER.ROT>
0

>  <SCORE.INTER.SOLV>
8.20013

>  <SCORE.INTER.VDW>
-16.0391

>  <SCORE.INTER.norm>
-1.45586

>  <SCORE.INTRA>
0

>  <SCORE.INTRA.DIHEDRAL>
0

>  <SCORE.INTRA.DIHEDRAL.0>
0

>  <SCORE.INTRA.POLAR>
0

>  <SCORE.INTRA.POLAR.0>
0

>  <SCORE.INTRA.REPUL>
0

>  <SCORE.INTRA.REPUL.0>
0

>  <SCORE.INTRA.SOLV>
0

>  <SCORE.INTRA.SOLV.lig_0>
-23.8918

>  <SCORE.INTRA.VDW>
0

>  <SCORE.INTRA.VDW.0>
0

>  <SCORE.INTRA.norm>
0

>  <SCORE.RESTR>
0

>  <SCORE.RESTR.CAVITY>
0

>  <SCORE.RESTR.norm>
0

>  <SCORE.SYSTEM>
0

>  <SCORE.SYSTEM.CONST>
0

>  <SCORE.SYSTEM.DIHEDRAL>
0

>  <SCORE.SYSTEM.SOLV>
0

>  <SCORE.SYSTEM.norm>
0

>  <SCORE.heavy>
10

>  <SCORE.norm>
-1.45586

>  <RMSD>
0.742

$$$$
ligand
 OpenBabel11021811513D
libRbt.so/2013.1/901 2013/11/27
 10 11  0  0  0  0  0  0  0  0999 V2000
    5.9484   17.4301    2.6105 N   0  0  0  0  0  0  0  0  0  0  0  0
    6.7575   18.4937    2.5369 C   0  0  0  0  0  0  0  0  0  0  0  0
    7.1070   19.3488    3.4968 N   0  0  0  0  0  0  0  0  0  0  0  0
    6.5234   19.0230    4.6606 C   0  0  0  0  0  0  0  0  0  0  0  0
    5.6691   17.9623    4.8922 C   0  0  0  0  0  0  0  0  0  0  0  0
    5.3766   17.1282    3.7950 C   0  0  0  0  0  0  0  0  0  0  0  0
    4.5684   16.0664    3.8729 N   0  0  0  0  0  0  0  0  0  0  0  0
    5.2633   17.9388    6.2162 N   0  0  0  0  0  0  0  0  0  0  0  0
    5.8706   18.9721    6.7499 C   0  0  0  0  0  0  0  0  0  0  0  0
    6.6474   19.6713    5.8682 N   0  0  0  0  0  0  0  0  0  0  0  0
  1  2  2  0  0  0  0
  1  6  1  0  0  0  0
  2  3  1  0  0  0  0
  3  4  2  0  0  0  0
  4  5  1  0  0  0  0
  4 10  1  0  0  0  0
  5  6  2  0  0  0  0
  5  8  1  0  0  0  0
  6  7  1  0  0  0  0
  8  9  1  0  0  0  0
  9 10  2  0  0  0  0
M  END
>  <CHROM.1>
5.96806289,18.19484902,4.46554517,-1.77637348,0.89836071,1.19195868

>  <Name>
ligand

>  <RI>
0

>  <Rbt.Current_Directory>
/home/itssahil/PROJECTS/Mol_Feturizer/New_Systems/rnas/4XNR

>  <Rbt.Executable>
rbdock ($Id: //depot/dev/client3/rdock/2013.1/src/exe/rbdock.cxx#4 $)

>  <Rbt.Library>
libRbt.so (2013.1, Build901 2013/11/27)

>  <Rbt.Parameter_File>
/export/apps/rDock/src/rDock_2013.1_src/data/scripts/dock_solv.prm

>  <Rbt.Receptor>
prm/pocket_docking_8.prm

>  <SCORE>
-14.536

>  <SCORE.INTER>
-14.536

>  <SCORE.INTER.CONST>
1

>  <SCORE.INTER.POLAR>
0

>  <SCORE.INTER.ROT>
0

>  <SCORE.INTER.SOLV>
8.16593

>  <SCORE.INTER.VDW>
-16.0126

>  <SCORE.INTER.norm>
-1.4536

>  <SCORE.INTRA>
0

>  <SCORE.INTRA.DIHEDRAL>
0

>  <SCORE.INTRA.DIHEDRAL.0>
0

>  <SCORE.INTRA.POLAR>
0

>  <SCORE.INTRA.POLAR.0>
0

>  <SCORE.INTRA.REPUL>
0

>  <SCORE.INTRA.REPUL.0>
0

>  <SCORE.INTRA.SOLV>
0

>  <SCORE.INTRA.SOLV.lig_0>
-23.8918

>  <SCORE.INTRA.VDW>
0

>  <SCORE.INTRA.VDW.0>
0

>  <SCORE.INTRA.norm>
0

>  <SCORE.RESTR>
0

>  <SCORE.RESTR.CAVITY>
0

>  <SCORE.RESTR.norm>
0

>  <SCORE.SYSTEM>
0

>  <SCORE.SYSTEM.CONST>
0

>  <SCORE.SYSTEM.DIHEDRAL>
0

>  <SCORE.SYSTEM.SOLV>
0

>  <SCORE.SYSTEM.norm>
0

>  <SCORE.heavy>
10

>  <SCORE.norm>
-1.4536

>  <RMSD>
0.742

$$$$
ligand
 OpenBabel11021811513D
libRbt.so/2013.1/901 2013/11/27
 10 11  0  0  0  0  0  0  0  0999 V2000
    5.9231   17.3747    2.6373 N   0  0  0  0  0  0  0  0  0  0  0  0
    6.8176   18.3676    2.5641 C   0  0  0  0  0  0  0  0  0  0  0  0
    7.2185   19.2063    3.5183 N   0  0  0  0  0  0  0  0  0  0  0  0
    6.5895   18.9474    4.6752 C   0  0  0  0  0  0  0  0  0  0  0  0
    5.6474   17.9635    4.9054 C   0  0  0  0  0  0  0  0  0  0  0  0
    5.3075   17.1389    3.8147 C   0  0  0  0  0  0  0  0  0  0  0  0
    4.4139   16.1478    3.8921 N   0  0  0  0  0  0  0  0  0  0  0  0
    5.2174   17.9939    6.2216 N   0  0  0  0  0  0  0  0  0  0  0  0
    5.8974   18.9825    6.7522 C   0  0  0  0  0  0  0  0  0  0  0  0
    6.7444   19.6022    5.8757 N   0  0  0  0  0  0  0  0  0  0  0  0
  1  2  2  0  0  0  0
  1  6  1  0  0  0  0
  2  3  1  0  0  0  0
  3  4  2  0  0  0  0
  4  5  1  0  0  0  0
  4 10  1  0  0  0  0
  5  6  2  0  0  0  0
  5  8  1  0  0  0  0
  6  7  1  0  0  0  0
  8  9  1  0  0  0  0
  9 10  2  0  0  0  0
M  END
>  <CHROM.1>
5.97197154,18.16423874,4.48132853,-1.79616632,0.81563177,1.19202763

>  <Name>
ligand

>  <RI>
0

>  <Rbt.Current_Directory>
/home/itssahil/PROJECTS/Mol_Feturizer/New_Systems/rnas/4XNR

>  <Rbt.Executable>
rbdock ($Id: //depot/dev/client3/rdock/2013.1/src/exe/rbdock.cxx#4 $)

>  <Rbt.Library>
libRbt.so (2013.1, Build901 2013/11/27)

>  <Rbt.Parameter_File>
/export/apps/rDock/src/rDock_2013.1_src/data/scripts/dock_solv.prm

>  <Rbt.Receptor>
prm/pocket_docking_8.prm

>  <SCORE>
-14.5995

>  <SCORE.INTER>
-14.5995

>  <SCORE.INTER.CONST>
1

>  <SCORE.INTER.POLAR>
0

>  <SCORE.INTER.ROT>
0

>  <SCORE.INTER.SOLV>
7.63194

>  <SCORE.INTER.VDW>
-15.877

>  <SCORE.INTER.norm>
-1.45995

>  <SCORE.INTRA>
0

>  <SCORE.INTRA.DIHEDRAL>
0

>  <SCORE.INTRA.DIHEDRAL.0>
0

>  <SCORE.INTRA.POLAR>
0

>  <SCORE.INTRA.POLAR.0>
0

>  <SCORE.INTRA.REPUL>
0

>  <SCORE.INTRA.REPUL.0>
0

>  <SCORE.INTRA.SOLV>
0

>  <SCORE.INTRA.SOLV.lig_0>
-23.8918

>  <SCORE.INTRA.VDW>
0

>  <SCORE.INTRA.VDW.0>
0

>  <SCORE.INTRA.norm>
0

>  <SCORE.RESTR>
0

>  <SCORE.RESTR.CAVITY>
0

>  <SCORE.RESTR.norm>
0

>  <SCORE.SYSTEM>
0

>  <SCORE.SYSTEM.CONST>
0

>  <SCORE.SYSTEM.DIHEDRAL>
0

>  <SCORE.SYSTEM.SOLV>
0

>  <SCORE.SYSTEM.norm>
0

>  <SCORE.heavy>
10

>  <SCORE.norm>
-1.45995

>  <RMSD>
0.742

$$$$
ligand
 OpenBabel11021811513D
libRbt.so/2013.1/901 2013/11/27
 10 11  0  0  0  0  0  0  0  0999 V2000
    5.9598   17.4260    2.6146 N   0  0  0  0  0  0  0  0  0  0  0  0
    6.7723   18.4868    2.5376 C   0  0  0  0  0  0  0  0  0  0  0  0
    7.1227   19.3451    3.4943 N   0  0  0  0  0  0  0  0  0  0  0  0
    6.5359   19.0264    4.6584 C   0  0  0  0  0  0  0  0  0  0  0  0
    5.6780   17.9694    4.8933 C   0  0  0  0  0  0  0  0  0  0  0  0
    5.3849   17.1313    3.7993 C   0  0  0  0  0  0  0  0  0  0  0  0
    4.5733   16.0724    3.8805 N   0  0  0  0  0  0  0  0  0  0  0  0
    5.2696   17.9532    6.2166 N   0  0  0  0  0  0  0  0  0  0  0  0
    5.8791   18.9870    6.7467 C   0  0  0  0  0  0  0  0  0  0  0  0
    6.6597   19.6798    5.8633 N   0  0  0  0  0  0  0  0  0  0  0  0
  1  2  2  0  0  0  0
  1  6  1  0  0  0  0
  2  3  1  0  0  0  0
  3  4  2  0  0  0  0
  4  5  1  0  0  0  0
  4 10  1  0  0  0  0
  5  6  2  0  0  0  0
  5  8  1  0  0  0  0
  6  7  1  0  0  0  0
  8  9  1  0  0  0  0
  9 10  2  0  0  0  0
M  END
>  <CHROM.1>
5.97843340,18.19911153,4.46612144,-1.77542971,0.89479179,1.18668165

>  <Name>
ligand

>  <RI>
0

>  <Rbt.Current_Directory>
/home/itssahil/PROJECTS/Mol_Feturizer/New_Systems/rnas/4XNR

>  <Rbt.Executable>
rbdock ($Id: //depot/dev/client3/rdock/2013.1/src/exe/rbdock.cxx#4 $)

>  <Rbt.Library>
libRbt.so (2013.1, Build901 2013/11/27)

>  <Rbt.Parameter_File>
/export/apps/rDock/src/rDock_2013.1_src/data/scripts/dock_solv.prm

>  <Rbt.Receptor>
prm/blind_docking_100.prm

>  <SCORE>
-14.5582

>  <SCORE.INTER>
-14.5582

>  <SCORE.INTER.CONST>
1

>  <SCORE.INTER.POLAR>
0

>  <SCORE.INTER.ROT>
0

>  <SCORE.INTER.SOLV>
8.18173

>  <SCORE.INTER.VDW>
-16.0327

>  <SCORE.INTER.norm>
-1.45582

>  <SCORE.INTRA>
0

>  <SCORE.INTRA.DIHEDRAL>
0

>  <SCORE.INTRA.DIHEDRAL.0>
0

>  <SCORE.INTRA.POLAR>
0

>  <SCORE.INTRA.POLAR.0>
0

>  <SCORE.INTRA.REPUL>
0

>  <SCORE.INTRA.REPUL.0>
0

>  <SCORE.INTRA.SOLV>
0

>  <SCORE.INTRA.SOLV.lig_0>
-23.8918

>  <SCORE.INTRA.VDW>
0

>  <SCORE.INTRA.VDW.0>
0

>  <SCORE.INTRA.norm>
0

>  <SCORE.RESTR>
0

>  <SCORE.RESTR.CAVITY>
0

>  <SCORE.RESTR.norm>
0

>  <SCORE.SYSTEM>
0

>  <SCORE.SYSTEM.CONST>
0

>  <SCORE.SYSTEM.DIHEDRAL>
0

>  <SCORE.SYSTEM.SOLV>
0

>  <SCORE.SYSTEM.norm>
0

>  <SCORE.heavy>
10

>  <SCORE.norm>
-1.45582

>  <RMSD>
0.743

$$$$
ligand
 OpenBabel11021811513D
libRbt.so/2013.1/901 2013/11/27
 10 11  0  0  0  0  0  0  0  0999 V2000
    5.9479   17.4323    2.6112 N   0  0  0  0  0  0  0  0  0  0  0  0
    6.7568   18.4957    2.5321 C   0  0  0  0  0  0  0  0  0  0  0  0
    7.1100   19.3529    3.4888 N   0  0  0  0  0  0  0  0  0  0  0  0
    6.5308   19.0297    4.6555 C   0  0  0  0  0  0  0  0  0  0  0  0
    5.6774   17.9695    4.8927 C   0  0  0  0  0  0  0  0  0  0  0  0
    5.3807   17.1330    3.7985 C   0  0  0  0  0  0  0  0  0  0  0  0
    4.5727   16.0715    3.8818 N   0  0  0  0  0  0  0  0  0  0  0  0
    5.2767   17.9490    6.2183 N   0  0  0  0  0  0  0  0  0  0  0  0
    5.8861   18.9834    6.7475 C   0  0  0  0  0  0  0  0  0  0  0  0
    6.6595   19.6805    5.8613 N   0  0  0  0  0  0  0  0  0  0  0  0
  1  2  2  0  0  0  0
  1  6  1  0  0  0  0
  2  3  1  0  0  0  0
  3  4  2  0  0  0  0
  4  5  1  0  0  0  0
  4 10  1  0  0  0  0
  5  6  2  0  0  0  0
  5  8  1  0  0  0  0
  6  7  1  0  0  0  0
  8  9  1  0  0  0  0
  9 10  2  0  0  0  0
M  END
>  <CHROM.1>
5.97474510,18.20110984,4.46444004,-1.78212934,0.89972004,1.19428433

>  <Name>
ligand

>  <RI>
0

>  <Rbt.Current_Directory>
/home/itssahil/PROJECTS/Mol_Feturizer/New_Systems/rnas/4XNR

>  <Rbt.Executable>
rbdock ($Id: //depot/dev/client3/rdock/2013.1/src/exe/rbdock.cxx#4 $)

>  <Rbt.Library>
libRbt.so (2013.1, Build901 2013/11/27)

>  <Rbt.Parameter_File>
/export/apps/rDock/src/rDock_2013.1_src/data/scripts/dock_solv.prm

>  <Rbt.Receptor>
prm/blind_docking_60.prm

>  <SCORE>
-14.5601

>  <SCORE.INTER>
-14.5601

>  <SCORE.INTER.CONST>
1

>  <SCORE.INTER.POLAR>
0

>  <SCORE.INTER.ROT>
0

>  <SCORE.INTER.SOLV>
8.1864

>  <SCORE.INTER.VDW>
-16.0355

>  <SCORE.INTER.norm>
-1.45601

>  <SCORE.INTRA>
0

>  <SCORE.INTRA.DIHEDRAL>
0

>  <SCORE.INTRA.DIHEDRAL.0>
0

>  <SCORE.INTRA.POLAR>
0

>  <SCORE.INTRA.POLAR.0>
0

>  <SCORE.INTRA.REPUL>
0

>  <SCORE.INTRA.REPUL.0>
0

>  <SCORE.INTRA.SOLV>
0

>  <SCORE.INTRA.SOLV.lig_0>
-23.8918

>  <SCORE.INTRA.VDW>
0

>  <SCORE.INTRA.VDW.0>
0

>  <SCORE.INTRA.norm>
0

>  <SCORE.RESTR>
0

>  <SCORE.RESTR.CAVITY>
0

>  <SCORE.RESTR.norm>
0

>  <SCORE.SYSTEM>
0

>  <SCORE.SYSTEM.CONST>
0

>  <SCORE.SYSTEM.DIHEDRAL>
0

>  <SCORE.SYSTEM.SOLV>
0

>  <SCORE.SYSTEM.norm>
0

>  <SCORE.heavy>
10

>  <SCORE.norm>
-1.45601

>  <RMSD>
0.743

$$$$
ligand
 OpenBabel11021811513D
libRbt.so/2013.1/901 2013/11/27
 10 11  0  0  0  0  0  0  0  0999 V2000
    5.9047   17.4207    2.6184 N   0  0  0  0  0  0  0  0  0  0  0  0
    6.6961   18.4961    2.5268 C   0  0  0  0  0  0  0  0  0  0  0  0
    7.0540   19.3567    3.4787 N   0  0  0  0  0  0  0  0  0  0  0  0
    6.5010   19.0229    4.6551 C   0  0  0  0  0  0  0  0  0  0  0  0
    5.6679   17.9497    4.9056 C   0  0  0  0  0  0  0  0  0  0  0  0
    5.3637   17.1109    3.8152 C   0  0  0  0  0  0  0  0  0  0  0  0
    4.5732   16.0373    3.9111 N   0  0  0  0  0  0  0  0  0  0  0  0
    5.2917   17.9209    6.2382 N   0  0  0  0  0  0  0  0  0  0  0  0
    5.8953   18.9633    6.7583 C   0  0  0  0  0  0  0  0  0  0  0  0
    6.6419   19.6735    5.8596 N   0  0  0  0  0  0  0  0  0  0  0  0
  1  2  2  0  0  0  0
  1  6  1  0  0  0  0
  2  3  1  0  0  0  0
  3  4  2  0  0  0  0
  4  5  1  0  0  0  0
  4 10  1  0  0  0  0
  5  6  2  0  0  0  0
  5  8  1  0  0  0  0
  6  7  1  0  0  0  0
  8  9  1  0  0  0  0
  9 10  2  0  0  0  0
M  END
>  <CHROM.1>
5.95390456,18.18649584,4.47245578,-1.80109254,0.92014185,1.21117063

>  <Name>
ligand

>  <RI>
0

>  <Rbt.Current_Directory>
/home/itssahil/PROJECTS/Mol_Feturizer/New_Systems/rnas/4XNR

>  <Rbt.Executable>
rbdock ($Id: //depot/dev/client3/rdock/2013.1/src/exe/rbdock.cxx#4 $)

>  <Rbt.Library>
libRbt.so (2013.1, Build901 2013/11/27)

>  <Rbt.Parameter_File>
/export/apps/rDock/src/rDock_2013.1_src/data/scripts/dock_solv.prm

>  <Rbt.Receptor>
prm/blind_docking_80.prm

>  <SCORE>
-14.5374

>  <SCORE.INTER>
-14.5374

>  <SCORE.INTER.CONST>
1

>  <SCORE.INTER.POLAR>
0

>  <SCORE.INTER.ROT>
0

>  <SCORE.INTER.SOLV>
8.32965

>  <SCORE.INTER.VDW>
-16.0682

>  <SCORE.INTER.norm>
-1.45374

>  <SCORE.INTRA>
0

>  <SCORE.INTRA.DIHEDRAL>
0

>  <SCORE.INTRA.DIHEDRAL.0>
0

>  <SCORE.INTRA.POLAR>
0

>  <SCORE.INTRA.POLAR.0>
0

>  <SCORE.INTRA.REPUL>
0

>  <SCORE.INTRA.REPUL.0>
0

>  <SCORE.INTRA.SOLV>
0

>  <SCORE.INTRA.SOLV.lig_0>
-23.8918

>  <SCORE.INTRA.VDW>
0

>  <SCORE.INTRA.VDW.0>
0

>  <SCORE.INTRA.norm>
0

>  <SCORE.RESTR>
0

>  <SCORE.RESTR.CAVITY>
0

>  <SCORE.RESTR.norm>
0

>  <SCORE.SYSTEM>
0

>  <SCORE.SYSTEM.CONST>
0

>  <SCORE.SYSTEM.DIHEDRAL>
0

>  <SCORE.SYSTEM.SOLV>
0

>  <SCORE.SYSTEM.norm>
0

>  <SCORE.heavy>
10

>  <SCORE.norm>
-1.45374

>  <RMSD>
0.743

$$$$
ligand
 OpenBabel11021811513D
libRbt.so/2013.1/901 2013/11/27
 10 11  0  0  0  0  0  0  0  0999 V2000
    5.9706   17.4264    2.6140 N   0  0  0  0  0  0  0  0  0  0  0  0
    6.7891   18.4828    2.5414 C   0  0  0  0  0  0  0  0  0  0  0  0
    7.1402   19.3384    3.5003 N   0  0  0  0  0  0  0  0  0  0  0  0
    6.5469   19.0218    4.6618 C   0  0  0  0  0  0  0  0  0  0  0  0
    5.6823   17.9691    4.8921 C   0  0  0  0  0  0  0  0  0  0  0  0
    5.3893   17.1336    3.7961 C   0  0  0  0  0  0  0  0  0  0  0  0
    4.5716   16.0790    3.8730 N   0  0  0  0  0  0  0  0  0  0  0  0
    5.2684   17.9540    6.2137 N   0  0  0  0  0  0  0  0  0  0  0  0
    5.8813   18.9840    6.7473 C   0  0  0  0  0  0  0  0  0  0  0  0
    6.6692   19.6733    5.8678 N   0  0  0  0  0  0  0  0  0  0  0  0
  1  2  2  0  0  0  0
  1  6  1  0  0  0  0
  2  3  1  0  0  0  0
  3  4  2  0  0  0  0
  4  5  1  0  0  0  0
  4 10  1  0  0  0  0
  5  6  2  0  0  0  0
  5  8  1  0  0  0  0
  6  7  1  0  0  0  0
  8  9  1  0  0  0  0
  9 10  2  0  0  0  0
M  END
>  <CHROM.1>
5.98576642,18.19764598,4.46639550,-1.77258249,0.88827371,1.18540295

>  <Name>
ligand

>  <RI>
0

>  <Rbt.Current_Directory>
/home/itssahil/PROJECTS/Mol_Feturizer/New_Systems/rnas/4XNR

>  <Rbt.Executable>
rbdock ($Id: //depot/dev/client3/rdock/2013.1/src/exe/rbdock.cxx#4 $)

>  <Rbt.Library>
libRbt.so (2013.1, Build901 2013/11/27)

>  <Rbt.Parameter_File>
/export/apps/rDock/src/rDock_2013.1_src/data/scripts/dock_solv.prm

>  <Rbt.Receptor>
prm/pocket_docking_4.prm

>  <SCORE>
-14.5532

>  <SCORE.INTER>
-14.5532

>  <SCORE.INTER.CONST>
1

>  <SCORE.INTER.POLAR>
0

>  <SCORE.INTER.ROT>
0

>  <SCORE.INTER.SOLV>
8.1422

>  <SCORE.INTER.VDW>
-16.0162

>  <SCORE.INTER.norm>
-1.45532

>  <SCORE.INTRA>
0

>  <SCORE.INTRA.DIHEDRAL>
0

>  <SCORE.INTRA.DIHEDRAL.0>
0

>  <SCORE.INTRA.POLAR>
0

>  <SCORE.INTRA.POLAR.0>
0

>  <SCORE.INTRA.REPUL>
0

>  <SCORE.INTRA.REPUL.0>
0

>  <SCORE.INTRA.SOLV>
0

>  <SCORE.INTRA.SOLV.lig_0>
-23.8918

>  <SCORE.INTRA.VDW>
0

>  <SCORE.INTRA.VDW.0>
0

>  <SCORE.INTRA.norm>
0

>  <SCORE.RESTR>
0

>  <SCORE.RESTR.CAVITY>
0

>  <SCORE.RESTR.norm>
0

>  <SCORE.SYSTEM>
0

>  <SCORE.SYSTEM.CONST>
0

>  <SCORE.SYSTEM.DIHEDRAL>
0

>  <SCORE.SYSTEM.SOLV>
0

>  <SCORE.SYSTEM.norm>
0

>  <SCORE.heavy>
10

>  <SCORE.norm>
-1.45532

>  <RMSD>
0.743

$$$$
ligand
 OpenBabel11021811513D
libRbt.so/2013.1/901 2013/11/27
 10 11  0  0  0  0  0  0  0  0999 V2000
    5.9122   17.4207    2.6176 N   0  0  0  0  0  0  0  0  0  0  0  0
    6.7025   18.4970    2.5267 C   0  0  0  0  0  0  0  0  0  0  0  0
    7.0531   19.3619    3.4773 N   0  0  0  0  0  0  0  0  0  0  0  0
    6.4934   19.0318    4.6516 C   0  0  0  0  0  0  0  0  0  0  0  0
    5.6604   17.9583    4.9012 C   0  0  0  0  0  0  0  0  0  0  0  0
    5.3643   17.1148    3.8123 C   0  0  0  0  0  0  0  0  0  0  0  0
    4.5749   16.0403    3.9075 N   0  0  0  0  0  0  0  0  0  0  0  0
    5.2761   17.9342    6.2316 N   0  0  0  0  0  0  0  0  0  0  0  0
    5.8748   18.9796    6.7513 C   0  0  0  0  0  0  0  0  0  0  0  0
    6.6259   19.6873    5.8544 N   0  0  0  0  0  0  0  0  0  0  0  0
  1  2  2  0  0  0  0
  1  6  1  0  0  0  0
  2  3  1  0  0  0  0
  3  4  2  0  0  0  0
  4  5  1  0  0  0  0
  4 10  1  0  0  0  0
  5  6  2  0  0  0  0
  5  8  1  0  0  0  0
  6  7  1  0  0  0  0
  8  9  1  0  0  0  0
  9 10  2  0  0  0  0
M  END
>  <CHROM.1>
5.94876110,18.19386887,4.46889563,-1.79064083,0.91937531,1.19891366

>  <Name>
ligand

>  <RI>
0

>  <Rbt.Current_Directory>
/home/itssahil/PROJECTS/Mol_Feturizer/New_Systems/rnas/4XNR

>  <Rbt.Executable>
rbdock ($Id: //depot/dev/client3/rdock/2013.1/src/exe/rbdock.cxx#4 $)

>  <Rbt.Library>
libRbt.so (2013.1, Build901 2013/11/27)

>  <Rbt.Parameter_File>
/export/apps/rDock/src/rDock_2013.1_src/data/scripts/dock_solv.prm

>  <Rbt.Receptor>
prm/pocket_docking_4.prm

>  <SCORE>
-14.5509

>  <SCORE.INTER>
-14.5509

>  <SCORE.INTER.CONST>
1

>  <SCORE.INTER.POLAR>
0

>  <SCORE.INTER.ROT>
0

>  <SCORE.INTER.SOLV>
8.32566

>  <SCORE.INTER.VDW>
-16.0758

>  <SCORE.INTER.norm>
-1.45509

>  <SCORE.INTRA>
0

>  <SCORE.INTRA.DIHEDRAL>
0

>  <SCORE.INTRA.DIHEDRAL.0>
0

>  <SCORE.INTRA.POLAR>
0

>  <SCORE.INTRA.POLAR.0>
0

>  <SCORE.INTRA.REPUL>
0

>  <SCORE.INTRA.REPUL.0>
0

>  <SCORE.INTRA.SOLV>
0

>  <SCORE.INTRA.SOLV.lig_0>
-23.8918

>  <SCORE.INTRA.VDW>
0

>  <SCORE.INTRA.VDW.0>
0

>  <SCORE.INTRA.norm>
0

>  <SCORE.RESTR>
0

>  <SCORE.RESTR.CAVITY>
0

>  <SCORE.RESTR.norm>
0

>  <SCORE.SYSTEM>
0

>  <SCORE.SYSTEM.CONST>
0

>  <SCORE.SYSTEM.DIHEDRAL>
0

>  <SCORE.SYSTEM.SOLV>
0

>  <SCORE.SYSTEM.norm>
0

>  <SCORE.heavy>
10

>  <SCORE.norm>
-1.45509

>  <RMSD>
0.743

$$$$
ligand
 OpenBabel11021811513D
libRbt.so/2013.1/901 2013/11/27
 10 11  0  0  0  0  0  0  0  0999 V2000
    5.8697   17.4197    2.6204 N   0  0  0  0  0  0  0  0  0  0  0  0
    6.7296   18.4417    2.5346 C   0  0  0  0  0  0  0  0  0  0  0  0
    7.1309   19.2815    3.4877 N   0  0  0  0  0  0  0  0  0  0  0  0
    6.5440   18.9888    4.6586 C   0  0  0  0  0  0  0  0  0  0  0  0
    5.6407   17.9724    4.9028 C   0  0  0  0  0  0  0  0  0  0  0  0
    5.2960   17.1503    3.8118 C   0  0  0  0  0  0  0  0  0  0  0  0
    4.4370   16.1301    3.9018 N   0  0  0  0  0  0  0  0  0  0  0  0
    5.2479   17.9733    6.2310 N   0  0  0  0  0  0  0  0  0  0  0  0
    5.9111   18.9769    6.7546 C   0  0  0  0  0  0  0  0  0  0  0  0
    6.7124   19.6339    5.8625 N   0  0  0  0  0  0  0  0  0  0  0  0
  1  2  2  0  0  0  0
  1  6  1  0  0  0  0
  2  3  1  0  0  0  0
  3  4  2  0  0  0  0
  4  5  1  0  0  0  0
  4 10  1  0  0  0  0
  5  6  2  0  0  0  0
  5  8  1  0  0  0  0
  6  7  1  0  0  0  0
  8  9  1  0  0  0  0
  9 10  2  0  0  0  0
M  END
>  <CHROM.1>
5.94637778,18.18849930,4.47229506,-1.81895675,0.85574153,1.22125820

>  <Name>
ligand

>  <RI>
0

>  <Rbt.Current_Directory>
/home/itssahil/PROJECTS/Mol_Feturizer/New_Systems/rnas/4XNR

>  <Rbt.Executable>
rbdock ($Id: //depot/dev/client3/rdock/2013.1/src/exe/rbdock.cxx#4 $)

>  <Rbt.Library>
libRbt.so (2013.1, Build901 2013/11/27)

>  <Rbt.Parameter_File>
/export/apps/rDock/src/rDock_2013.1_src/data/scripts/dock_solv.prm

>  <Rbt.Receptor>
prm/pocket_docking_7.prm

>  <SCORE>
-14.5419

>  <SCORE.INTER>
-14.5419

>  <SCORE.INTER.CONST>
1

>  <SCORE.INTER.POLAR>
0

>  <SCORE.INTER.ROT>
0

>  <SCORE.INTER.SOLV>
7.76288

>  <SCORE.INTER.VDW>
-15.8822

>  <SCORE.INTER.norm>
-1.45419

>  <SCORE.INTRA>
0

>  <SCORE.INTRA.DIHEDRAL>
0

>  <SCORE.INTRA.DIHEDRAL.0>
0

>  <SCORE.INTRA.POLAR>
0

>  <SCORE.INTRA.POLAR.0>
0

>  <SCORE.INTRA.REPUL>
0

>  <SCORE.INTRA.REPUL.0>
0

>  <SCORE.INTRA.SOLV>
0

>  <SCORE.INTRA.SOLV.lig_0>
-23.8918

>  <SCORE.INTRA.VDW>
0

>  <SCORE.INTRA.VDW.0>
0

>  <SCORE.INTRA.norm>
0

>  <SCORE.RESTR>
0

>  <SCORE.RESTR.CAVITY>
0

>  <SCORE.RESTR.norm>
0

>  <SCORE.SYSTEM>
0

>  <SCORE.SYSTEM.CONST>
0

>  <SCORE.SYSTEM.DIHEDRAL>
0

>  <SCORE.SYSTEM.SOLV>
0

>  <SCORE.SYSTEM.norm>
0

>  <SCORE.heavy>
10

>  <SCORE.norm>
-1.45419

>  <RMSD>
0.743

$$$$
ligand
 OpenBabel11021811513D
libRbt.so/2013.1/901 2013/11/27
 10 11  0  0  0  0  0  0  0  0999 V2000
    5.8808   17.4141    2.6162 N   0  0  0  0  0  0  0  0  0  0  0  0
    6.7840   18.3997    2.5512 C   0  0  0  0  0  0  0  0  0  0  0  0
    7.1991   19.2208    3.5145 N   0  0  0  0  0  0  0  0  0  0  0  0
    6.5755   18.9510    4.6719 C   0  0  0  0  0  0  0  0  0  0  0  0
    5.6259   17.9726    4.8945 C   0  0  0  0  0  0  0  0  0  0  0  0
    5.2710   17.1670    3.7944 C   0  0  0  0  0  0  0  0  0  0  0  0
    4.3689   16.1832    3.8637 N   0  0  0  0  0  0  0  0  0  0  0  0
    5.2051   17.9880    6.2139 N   0  0  0  0  0  0  0  0  0  0  0  0
    5.8979   18.9626    6.7539 C   0  0  0  0  0  0  0  0  0  0  0  0
    6.7446   19.5870    5.8806 N   0  0  0  0  0  0  0  0  0  0  0  0
  1  2  2  0  0  0  0
  1  6  1  0  0  0  0
  2  3  1  0  0  0  0
  3  4  2  0  0  0  0
  4  5  1  0  0  0  0
  4 10  1  0  0  0  0
  5  6  2  0  0  0  0
  5  8  1  0  0  0  0
  6  7  1  0  0  0  0
  8  9  1  0  0  0  0
  9 10  2  0  0  0  0
M  END
>  <CHROM.1>
5.94948231,18.17646395,4.47106419,-1.81023117,0.80945388,1.21661618

>  <Name>
ligand

>  <RI>
0

>  <Rbt.Current_Directory>
/home/itssahil/PROJECTS/Mol_Feturizer/New_Systems/rnas/4XNR

>  <Rbt.Executable>
rbdock ($Id: //depot/dev/client3/rdock/2013.1/src/exe/rbdock.cxx#4 $)

>  <Rbt.Library>
libRbt.so (2013.1, Build901 2013/11/27)

>  <Rbt.Parameter_File>
/export/apps/rDock/src/rDock_2013.1_src/data/scripts/dock_solv.prm

>  <Rbt.Receptor>
prm/pocket_docking_8.prm

>  <SCORE>
-14.5638

>  <SCORE.INTER>
-14.5638

>  <SCORE.INTER.CONST>
1

>  <SCORE.INTER.POLAR>
0

>  <SCORE.INTER.ROT>
0

>  <SCORE.INTER.SOLV>
7.44146

>  <SCORE.INTER.VDW>
-15.7897

>  <SCORE.INTER.norm>
-1.45638

>  <SCORE.INTRA>
0

>  <SCORE.INTRA.DIHEDRAL>
0

>  <SCORE.INTRA.DIHEDRAL.0>
0

>  <SCORE.INTRA.POLAR>
0

>  <SCORE.INTRA.POLAR.0>
0

>  <SCORE.INTRA.REPUL>
0

>  <SCORE.INTRA.REPUL.0>
0

>  <SCORE.INTRA.SOLV>
0

>  <SCORE.INTRA.SOLV.lig_0>
-23.8918

>  <SCORE.INTRA.VDW>
0

>  <SCORE.INTRA.VDW.0>
0

>  <SCORE.INTRA.norm>
0

>  <SCORE.RESTR>
0

>  <SCORE.RESTR.CAVITY>
0

>  <SCORE.RESTR.norm>
0

>  <SCORE.SYSTEM>
0

>  <SCORE.SYSTEM.CONST>
0

>  <SCORE.SYSTEM.DIHEDRAL>
0

>  <SCORE.SYSTEM.SOLV>
0

>  <SCORE.SYSTEM.norm>
0

>  <SCORE.heavy>
10

>  <SCORE.norm>
-1.45638

>  <RMSD>
0.743

$$$$
ligand
 OpenBabel11021811513D
libRbt.so/2013.1/901 2013/11/27
 10 11  0  0  0  0  0  0  0  0999 V2000
    5.8957   17.4023    2.6251 N   0  0  0  0  0  0  0  0  0  0  0  0
    6.7934   18.3926    2.5558 C   0  0  0  0  0  0  0  0  0  0  0  0
    7.2047   19.2196    3.5158 N   0  0  0  0  0  0  0  0  0  0  0  0
    6.5834   18.9507    4.6746 C   0  0  0  0  0  0  0  0  0  0  0  0
    5.6393   17.9679    4.9014 C   0  0  0  0  0  0  0  0  0  0  0  0
    5.2881   17.1563    3.8046 C   0  0  0  0  0  0  0  0  0  0  0  0
    4.3913   16.1678    3.8782 N   0  0  0  0  0  0  0  0  0  0  0  0
    5.2193   17.9859    6.2211 N   0  0  0  0  0  0  0  0  0  0  0  0
    5.9071   18.9662    6.7570 C   0  0  0  0  0  0  0  0  0  0  0  0
    6.7498   19.5921    5.8808 N   0  0  0  0  0  0  0  0  0  0  0  0
  1  2  2  0  0  0  0
  1  6  1  0  0  0  0
  2  3  1  0  0  0  0
  3  4  2  0  0  0  0
  4  5  1  0  0  0  0
  4 10  1  0  0  0  0
  5  6  2  0  0  0  0
  5  8  1  0  0  0  0
  6  7  1  0  0  0  0
  8  9  1  0  0  0  0
  9 10  2  0  0  0  0
M  END
>  <CHROM.1>
5.96146407,18.17197020,4.47706223,-1.80838601,0.81480650,1.21156759

>  <Name>
ligand

>  <RI>
0

>  <Rbt.Current_Directory>
/home/itssahil/PROJECTS/Mol_Feturizer/New_Systems/rnas/4XNR

>  <Rbt.Executable>
rbdock ($Id: //depot/dev/client3/rdock/2013.1/src/exe/rbdock.cxx#4 $)

>  <Rbt.Library>
libRbt.so (2013.1, Build901 2013/11/27)

>  <Rbt.Parameter_File>
/export/apps/rDock/src/rDock_2013.1_src/data/scripts/dock_solv.prm

>  <Rbt.Receptor>
prm/blind_docking_100.prm

>  <SCORE>
-14.558

>  <SCORE.INTER>
-14.558

>  <SCORE.INTER.CONST>
1

>  <SCORE.INTER.POLAR>
0

>  <SCORE.INTER.ROT>
0

>  <SCORE.INTER.SOLV>
7.53132

>  <SCORE.INTER.VDW>
-15.8158

>  <SCORE.INTER.norm>
-1.4558

>  <SCORE.INTRA>
0

>  <SCORE.INTRA.DIHEDRAL>
0

>  <SCORE.INTRA.DIHEDRAL.0>
0

>  <SCORE.INTRA.POLAR>
0

>  <SCORE.INTRA.POLAR.0>
0

>  <SCORE.INTRA.REPUL>
0

>  <SCORE.INTRA.REPUL.0>
0

>  <SCORE.INTRA.SOLV>
0

>  <SCORE.INTRA.SOLV.lig_0>
-23.8918

>  <SCORE.INTRA.VDW>
0

>  <SCORE.INTRA.VDW.0>
0

>  <SCORE.INTRA.norm>
0

>  <SCORE.RESTR>
0

>  <SCORE.RESTR.CAVITY>
0

>  <SCORE.RESTR.norm>
0

>  <SCORE.SYSTEM>
0

>  <SCORE.SYSTEM.CONST>
0

>  <SCORE.SYSTEM.DIHEDRAL>
0

>  <SCORE.SYSTEM.SOLV>
0

>  <SCORE.SYSTEM.norm>
0

>  <SCORE.heavy>
10

>  <SCORE.norm>
-1.4558

>  <RMSD>
0.744

$$$$
ligand
 OpenBabel11021811513D
libRbt.so/2013.1/901 2013/11/27
 10 11  0  0  0  0  0  0  0  0999 V2000
    5.9609   17.4237    2.6166 N   0  0  0  0  0  0  0  0  0  0  0  0
    6.7736   18.4842    2.5379 C   0  0  0  0  0  0  0  0  0  0  0  0
    7.1237   19.3444    3.4930 N   0  0  0  0  0  0  0  0  0  0  0  0
    6.5366   19.0280    4.6576 C   0  0  0  0  0  0  0  0  0  0  0  0
    5.6785   17.9714    4.8942 C   0  0  0  0  0  0  0  0  0  0  0  0
    5.3857   17.1312    3.8018 C   0  0  0  0  0  0  0  0  0  0  0  0
    4.5739   16.0725    3.8848 N   0  0  0  0  0  0  0  0  0  0  0  0
    5.2698   17.9578    6.2175 N   0  0  0  0  0  0  0  0  0  0  0  0
    5.8792   18.9926    6.7458 C   0  0  0  0  0  0  0  0  0  0  0  0
    6.6601   19.6836    5.8613 N   0  0  0  0  0  0  0  0  0  0  0  0
  1  2  2  0  0  0  0
  1  6  1  0  0  0  0
  2  3  1  0  0  0  0
  3  4  2  0  0  0  0
  4  5  1  0  0  0  0
  4 10  1  0  0  0  0
  5  6  2  0  0  0  0
  5  8  1  0  0  0  0
  6  7  1  0  0  0  0
  8  9  1  0  0  0  0
  9 10  2  0  0  0  0
M  END
>  <CHROM.1>
5.97910555,18.20031147,4.46670207,-1.77507784,0.89461696,1.18449748

>  <Name>
ligand

>  <RI>
0

>  <Rbt.Current_Directory>
/home/itssahil/PROJECTS/Mol_Feturizer/New_Systems/rnas/4XNR

>  <Rbt.Executable>
rbdock ($Id: //depot/dev/client3/rdock/2013.1/src/exe/rbdock.cxx#4 $)

>  <Rbt.Library>
libRbt.so (2013.1, Build901 2013/11/27)

>  <Rbt.Parameter_File>
/export/apps/rDock/src/rDock_2013.1_src/data/scripts/dock_solv.prm

>  <Rbt.Receptor>
prm/blind_docking_40.prm

>  <SCORE>
-14.5568

>  <SCORE.INTER>
-14.5568

>  <SCORE.INTER.CONST>
1

>  <SCORE.INTER.POLAR>
0

>  <SCORE.INTER.ROT>
0

>  <SCORE.INTER.SOLV>
8.19316

>  <SCORE.INTER.VDW>
-16.0356

>  <SCORE.INTER.norm>
-1.45568

>  <SCORE.INTRA>
0

>  <SCORE.INTRA.DIHEDRAL>
0

>  <SCORE.INTRA.DIHEDRAL.0>
0

>  <SCORE.INTRA.POLAR>
0

>  <SCORE.INTRA.POLAR.0>
0

>  <SCORE.INTRA.REPUL>
0

>  <SCORE.INTRA.REPUL.0>
0

>  <SCORE.INTRA.SOLV>
0

>  <SCORE.INTRA.SOLV.lig_0>
-23.8918

>  <SCORE.INTRA.VDW>
0

>  <SCORE.INTRA.VDW.0>
0

>  <SCORE.INTRA.norm>
0

>  <SCORE.RESTR>
0

>  <SCORE.RESTR.CAVITY>
0

>  <SCORE.RESTR.norm>
0

>  <SCORE.SYSTEM>
0

>  <SCORE.SYSTEM.CONST>
0

>  <SCORE.SYSTEM.DIHEDRAL>
0

>  <SCORE.SYSTEM.SOLV>
0

>  <SCORE.SYSTEM.norm>
0

>  <SCORE.heavy>
10

>  <SCORE.norm>
-1.45568

>  <RMSD>
0.744

$$$$
ligand
 OpenBabel11021811513D
libRbt.so/2013.1/901 2013/11/27
 10 11  0  0  0  0  0  0  0  0999 V2000
    5.9516   17.4238    2.6177 N   0  0  0  0  0  0  0  0  0  0  0  0
    6.7597   18.4872    2.5319 C   0  0  0  0  0  0  0  0  0  0  0  0
    7.1131   19.3501    3.4833 N   0  0  0  0  0  0  0  0  0  0  0  0
    6.5350   19.0333    4.6524 C   0  0  0  0  0  0  0  0  0  0  0  0
    5.6825   17.9739    4.8963 C   0  0  0  0  0  0  0  0  0  0  0  0
    5.3855   17.1310    3.8071 C   0  0  0  0  0  0  0  0  0  0  0  0
    4.5782   16.0694    3.8972 N   0  0  0  0  0  0  0  0  0  0  0  0
    5.2827   17.9608    6.2223 N   0  0  0  0  0  0  0  0  0  0  0  0
    5.8919   18.9987    6.7450 C   0  0  0  0  0  0  0  0  0  0  0  0
    6.6642   19.6912    5.8542 N   0  0  0  0  0  0  0  0  0  0  0  0
  1  2  2  0  0  0  0
  1  6  1  0  0  0  0
  2  3  1  0  0  0  0
  3  4  2  0  0  0  0
  4  5  1  0  0  0  0
  4 10  1  0  0  0  0
  5  6  2  0  0  0  0
  5  8  1  0  0  0  0
  6  7  1  0  0  0  0
  8  9  1  0  0  0  0
  9 10  2  0  0  0  0
M  END
>  <CHROM.1>
5.97935065,18.20329488,4.46647299,-1.78285226,0.90059154,1.18907689

>  <Name>
ligand

>  <RI>
0

>  <Rbt.Current_Directory>
/home/itssahil/PROJECTS/Mol_Feturizer/New_Systems/rnas/4XNR

>  <Rbt.Executable>
rbdock ($Id: //depot/dev/client3/rdock/2013.1/src/exe/rbdock.cxx#4 $)

>  <Rbt.Library>
libRbt.so (2013.1, Build901 2013/11/27)

>  <Rbt.Parameter_File>
/export/apps/rDock/src/rDock_2013.1_src/data/scripts/dock_solv.prm

>  <Rbt.Receptor>
prm/blind_docking_40.prm

>  <SCORE>
-14.553

>  <SCORE.INTER>
-14.553

>  <SCORE.INTER.CONST>
1

>  <SCORE.INTER.POLAR>
0

>  <SCORE.INTER.ROT>
0

>  <SCORE.INTER.SOLV>
8.24121

>  <SCORE.INTER.VDW>
-16.0491

>  <SCORE.INTER.norm>
-1.4553

>  <SCORE.INTRA>
0

>  <SCORE.INTRA.DIHEDRAL>
0

>  <SCORE.INTRA.DIHEDRAL.0>
0

>  <SCORE.INTRA.POLAR>
0

>  <SCORE.INTRA.POLAR.0>
0

>  <SCORE.INTRA.REPUL>
0

>  <SCORE.INTRA.REPUL.0>
0

>  <SCORE.INTRA.SOLV>
0

>  <SCORE.INTRA.SOLV.lig_0>
-23.8918

>  <SCORE.INTRA.VDW>
0

>  <SCORE.INTRA.VDW.0>
0

>  <SCORE.INTRA.norm>
0

>  <SCORE.RESTR>
0

>  <SCORE.RESTR.CAVITY>
0

>  <SCORE.RESTR.norm>
0

>  <SCORE.SYSTEM>
0

>  <SCORE.SYSTEM.CONST>
0

>  <SCORE.SYSTEM.DIHEDRAL>
0

>  <SCORE.SYSTEM.SOLV>
0

>  <SCORE.SYSTEM.norm>
0

>  <SCORE.heavy>
10

>  <SCORE.norm>
-1.4553

>  <RMSD>
0.744

$$$$
ligand
 OpenBabel11021811513D
libRbt.so/2013.1/901 2013/11/27
 10 11  0  0  0  0  0  0  0  0999 V2000
    5.9160   17.3700    2.6422 N   0  0  0  0  0  0  0  0  0  0  0  0
    6.8094   18.3637    2.5650 C   0  0  0  0  0  0  0  0  0  0  0  0
    7.2090   19.2070    3.5157 N   0  0  0  0  0  0  0  0  0  0  0  0
    6.5799   18.9524    4.6735 C   0  0  0  0  0  0  0  0  0  0  0  0
    5.6389   17.9684    4.9077 C   0  0  0  0  0  0  0  0  0  0  0  0
    5.3003   17.1387    3.8205 C   0  0  0  0  0  0  0  0  0  0  0  0
    4.4079   16.1469    3.9019 N   0  0  0  0  0  0  0  0  0  0  0  0
    5.2083   18.0041    6.2236 N   0  0  0  0  0  0  0  0  0  0  0  0
    5.8871   18.9958    6.7501 C   0  0  0  0  0  0  0  0  0  0  0  0
    6.7336   19.6126    5.8712 N   0  0  0  0  0  0  0  0  0  0  0  0
  1  2  2  0  0  0  0
  1  6  1  0  0  0  0
  2  3  1  0  0  0  0
  3  4  2  0  0  0  0
  4  5  1  0  0  0  0
  4 10  1  0  0  0  0
  5  6  2  0  0  0  0
  5  8  1  0  0  0  0
  6  7  1  0  0  0  0
  8  9  1  0  0  0  0
  9 10  2  0  0  0  0
M  END
>  <CHROM.1>
5.96334527,18.16769674,4.48280980,-1.79506240,0.81658624,1.18684336

>  <Name>
ligand

>  <RI>
0

>  <Rbt.Current_Directory>
/home/itssahil/PROJECTS/Mol_Feturizer/New_Systems/rnas/4XNR

>  <Rbt.Executable>
rbdock ($Id: //depot/dev/client3/rdock/2013.1/src/exe/rbdock.cxx#4 $)

>  <Rbt.Library>
libRbt.so (2013.1, Build901 2013/11/27)

>  <Rbt.Parameter_File>
/export/apps/rDock/src/rDock_2013.1_src/data/scripts/dock_solv.prm

>  <Rbt.Receptor>
prm/blind_docking_80.prm

>  <SCORE>
-14.5919

>  <SCORE.INTER>
-14.5919

>  <SCORE.INTER.CONST>
1

>  <SCORE.INTER.POLAR>
0

>  <SCORE.INTER.ROT>
0

>  <SCORE.INTER.SOLV>
7.65747

>  <SCORE.INTER.VDW>
-15.8804

>  <SCORE.INTER.norm>
-1.45919

>  <SCORE.INTRA>
0

>  <SCORE.INTRA.DIHEDRAL>
0

>  <SCORE.INTRA.DIHEDRAL.0>
0

>  <SCORE.INTRA.POLAR>
0

>  <SCORE.INTRA.POLAR.0>
0

>  <SCORE.INTRA.REPUL>
0

>  <SCORE.INTRA.REPUL.0>
0

>  <SCORE.INTRA.SOLV>
0

>  <SCORE.INTRA.SOLV.lig_0>
-23.8918

>  <SCORE.INTRA.VDW>
0

>  <SCORE.INTRA.VDW.0>
0

>  <SCORE.INTRA.norm>
0

>  <SCORE.RESTR>
0

>  <SCORE.RESTR.CAVITY>
0

>  <SCORE.RESTR.norm>
0

>  <SCORE.SYSTEM>
0

>  <SCORE.SYSTEM.CONST>
0

>  <SCORE.SYSTEM.DIHEDRAL>
0

>  <SCORE.SYSTEM.SOLV>
0

>  <SCORE.SYSTEM.norm>
0

>  <SCORE.heavy>
10

>  <SCORE.norm>
-1.45919

>  <RMSD>
0.744

$$$$
ligand
 OpenBabel11021811513D
libRbt.so/2013.1/901 2013/11/27
 10 11  0  0  0  0  0  0  0  0999 V2000
    5.9221   17.4238    2.6168 N   0  0  0  0  0  0  0  0  0  0  0  0
    6.7070   18.5041    2.5257 C   0  0  0  0  0  0  0  0  0  0  0  0
    7.0541   19.3703    3.4765 N   0  0  0  0  0  0  0  0  0  0  0  0
    6.4970   19.0368    4.6511 C   0  0  0  0  0  0  0  0  0  0  0  0
    5.6695   17.9590    4.9008 C   0  0  0  0  0  0  0  0  0  0  0  0
    5.3767   17.1146    3.8117 C   0  0  0  0  0  0  0  0  0  0  0  0
    4.5927   16.0362    3.9070 N   0  0  0  0  0  0  0  0  0  0  0  0
    5.2863   17.9323    6.2315 N   0  0  0  0  0  0  0  0  0  0  0  0
    5.8803   18.9804    6.7512 C   0  0  0  0  0  0  0  0  0  0  0  0
    6.6272   19.6924    5.8541 N   0  0  0  0  0  0  0  0  0  0  0  0
  1  2  2  0  0  0  0
  1  6  1  0  0  0  0
  2  3  1  0  0  0  0
  3  4  2  0  0  0  0
  4  5  1  0  0  0  0
  4 10  1  0  0  0  0
  5  6  2  0  0  0  0
  5  8  1  0  0  0  0
  6  7  1  0  0  0  0
  8  9  1  0  0  0  0
  9 10  2  0  0  0  0
M  END
>  <CHROM.1>
5.95633492,18.19624391,4.46838005,-1.78889072,0.92429596,1.19802646

>  <Name>
ligand

>  <RI>
0

>  <Rbt.Current_Directory>
/home/itssahil/PROJECTS/Mol_Feturizer/New_Systems/rnas/4XNR

>  <Rbt.Executable>
rbdock ($Id: //depot/dev/client3/rdock/2013.1/src/exe/rbdock.cxx#4 $)

>  <Rbt.Library>
libRbt.so (2013.1, Build901 2013/11/27)

>  <Rbt.Parameter_File>
/export/apps/rDock/src/rDock_2013.1_src/data/scripts/dock_solv.prm

>  <Rbt.Receptor>
prm/pocket_docking_3.prm

>  <SCORE>
-14.5428

>  <SCORE.INTER>
-14.5428

>  <SCORE.INTER.CONST>
1

>  <SCORE.INTER.POLAR>
0

>  <SCORE.INTER.ROT>
0

>  <SCORE.INTER.SOLV>
8.3814

>  <SCORE.INTER.VDW>
-16.089

>  <SCORE.INTER.norm>
-1.45428

>  <SCORE.INTRA>
0

>  <SCORE.INTRA.DIHEDRAL>
0

>  <SCORE.INTRA.DIHEDRAL.0>
0

>  <SCORE.INTRA.POLAR>
0

>  <SCORE.INTRA.POLAR.0>
0

>  <SCORE.INTRA.REPUL>
0

>  <SCORE.INTRA.REPUL.0>
0

>  <SCORE.INTRA.SOLV>
0

>  <SCORE.INTRA.SOLV.lig_0>
-23.8918

>  <SCORE.INTRA.VDW>
0

>  <SCORE.INTRA.VDW.0>
0

>  <SCORE.INTRA.norm>
0

>  <SCORE.RESTR>
0

>  <SCORE.RESTR.CAVITY>
0

>  <SCORE.RESTR.norm>
0

>  <SCORE.SYSTEM>
0

>  <SCORE.SYSTEM.CONST>
0

>  <SCORE.SYSTEM.DIHEDRAL>
0

>  <SCORE.SYSTEM.SOLV>
0

>  <SCORE.SYSTEM.norm>
0

>  <SCORE.heavy>
10

>  <SCORE.norm>
-1.45428

>  <RMSD>
0.744

$$$$
ligand
 OpenBabel11021811513D
libRbt.so/2013.1/901 2013/11/27
 10 11  0  0  0  0  0  0  0  0999 V2000
    5.9184   17.3998    2.6230 N   0  0  0  0  0  0  0  0  0  0  0  0
    6.8349   18.3733    2.5624 C   0  0  0  0  0  0  0  0  0  0  0  0
    7.2537   19.1911    3.5269 N   0  0  0  0  0  0  0  0  0  0  0  0
    6.6182   18.9323    4.6803 C   0  0  0  0  0  0  0  0  0  0  0  0
    5.6542   17.9669    4.8980 C   0  0  0  0  0  0  0  0  0  0  0  0
    5.2967   17.1635    3.7971 C   0  0  0  0  0  0  0  0  0  0  0  0
    4.3812   16.1918    3.8620 N   0  0  0  0  0  0  0  0  0  0  0  0
    5.2239   17.9909    6.2143 N   0  0  0  0  0  0  0  0  0  0  0  0
    5.9255   18.9575    6.7572 C   0  0  0  0  0  0  0  0  0  0  0  0
    6.7867   19.5688    5.8888 N   0  0  0  0  0  0  0  0  0  0  0  0
  1  2  2  0  0  0  0
  1  6  1  0  0  0  0
  2  3  1  0  0  0  0
  3  4  2  0  0  0  0
  4  5  1  0  0  0  0
  4 10  1  0  0  0  0
  5  6  2  0  0  0  0
  5  8  1  0  0  0  0
  6  7  1  0  0  0  0
  8  9  1  0  0  0  0
  9 10  2  0  0  0  0
M  END
>  <CHROM.1>
5.98346047,18.16552896,4.47653891,-1.80693611,0.79454590,1.21197654

>  <Name>
ligand

>  <RI>
0

>  <Rbt.Current_Directory>
/home/itssahil/PROJECTS/Mol_Feturizer/New_Systems/rnas/4XNR

>  <Rbt.Executable>
rbdock ($Id: //depot/dev/client3/rdock/2013.1/src/exe/rbdock.cxx#4 $)

>  <Rbt.Library>
libRbt.so (2013.1, Build901 2013/11/27)

>  <Rbt.Parameter_File>
/export/apps/rDock/src/rDock_2013.1_src/data/scripts/dock_solv.prm

>  <Rbt.Receptor>
prm/pocket_docking_3.prm

>  <SCORE>
-14.5948

>  <SCORE.INTER>
-14.5948

>  <SCORE.INTER.CONST>
1

>  <SCORE.INTER.POLAR>
0

>  <SCORE.INTER.ROT>
0

>  <SCORE.INTER.SOLV>
7.42711

>  <SCORE.INTER.VDW>
-15.8056

>  <SCORE.INTER.norm>
-1.45948

>  <SCORE.INTRA>
0

>  <SCORE.INTRA.DIHEDRAL>
0

>  <SCORE.INTRA.DIHEDRAL.0>
0

>  <SCORE.INTRA.POLAR>
0

>  <SCORE.INTRA.POLAR.0>
0

>  <SCORE.INTRA.REPUL>
0

>  <SCORE.INTRA.REPUL.0>
0

>  <SCORE.INTRA.SOLV>
0

>  <SCORE.INTRA.SOLV.lig_0>
-23.8918

>  <SCORE.INTRA.VDW>
0

>  <SCORE.INTRA.VDW.0>
0

>  <SCORE.INTRA.norm>
0

>  <SCORE.RESTR>
0

>  <SCORE.RESTR.CAVITY>
0

>  <SCORE.RESTR.norm>
0

>  <SCORE.SYSTEM>
0

>  <SCORE.SYSTEM.CONST>
0

>  <SCORE.SYSTEM.DIHEDRAL>
0

>  <SCORE.SYSTEM.SOLV>
0

>  <SCORE.SYSTEM.norm>
0

>  <SCORE.heavy>
10

>  <SCORE.norm>
-1.45948

>  <RMSD>
0.744

$$$$
ligand
 OpenBabel11021811513D
libRbt.so/2013.1/901 2013/11/27
 10 11  0  0  0  0  0  0  0  0999 V2000
    5.8568   17.4785    2.5860 N   0  0  0  0  0  0  0  0  0  0  0  0
    6.7359   18.4851    2.5124 C   0  0  0  0  0  0  0  0  0  0  0  0
    7.1483   19.3095    3.4742 N   0  0  0  0  0  0  0  0  0  0  0  0
    6.5506   19.0181    4.6400 C   0  0  0  0  0  0  0  0  0  0  0  0
    5.6276   18.0166    4.8718 C   0  0  0  0  0  0  0  0  0  0  0  0
    5.2728   17.2101    3.7725 C   0  0  0  0  0  0  0  0  0  0  0  0
    4.3947   16.2052    3.8502 N   0  0  0  0  0  0  0  0  0  0  0  0
    5.2288   18.0140    6.1982 N   0  0  0  0  0  0  0  0  0  0  0  0
    5.9081   19.0008    6.7330 C   0  0  0  0  0  0  0  0  0  0  0  0
    6.7254   19.6501    5.8499 N   0  0  0  0  0  0  0  0  0  0  0  0
  1  2  2  0  0  0  0
  1  6  1  0  0  0  0
  2  3  1  0  0  0  0
  3  4  2  0  0  0  0
  4  5  1  0  0  0  0
  4 10  1  0  0  0  0
  5  6  2  0  0  0  0
  5  8  1  0  0  0  0
  6  7  1  0  0  0  0
  8  9  1  0  0  0  0
  9 10  2  0  0  0  0
M  END
>  <CHROM.1>
5.93921599,18.23055826,4.44443719,-1.82196446,0.83677818,1.23173723

>  <Name>
ligand

>  <RI>
0

>  <Rbt.Current_Directory>
/home/itssahil/PROJECTS/Mol_Feturizer/New_Systems/rnas/4XNR

>  <Rbt.Executable>
rbdock ($Id: //depot/dev/client3/rdock/2013.1/src/exe/rbdock.cxx#4 $)

>  <Rbt.Library>
libRbt.so (2013.1, Build901 2013/11/27)

>  <Rbt.Parameter_File>
/export/apps/rDock/src/rDock_2013.1_src/data/scripts/dock_solv.prm

>  <Rbt.Receptor>
prm/pocket_docking_3.prm

>  <SCORE>
-14.5136

>  <SCORE.INTER>
-14.5136

>  <SCORE.INTER.CONST>
1

>  <SCORE.INTER.POLAR>
0

>  <SCORE.INTER.ROT>
0

>  <SCORE.INTER.SOLV>
7.45068

>  <SCORE.INTER.VDW>
-15.7593

>  <SCORE.INTER.norm>
-1.45136

>  <SCORE.INTRA>
0

>  <SCORE.INTRA.DIHEDRAL>
0

>  <SCORE.INTRA.DIHEDRAL.0>
0

>  <SCORE.INTRA.POLAR>
0

>  <SCORE.INTRA.POLAR.0>
0

>  <SCORE.INTRA.REPUL>
0

>  <SCORE.INTRA.REPUL.0>
0

>  <SCORE.INTRA.SOLV>
0

>  <SCORE.INTRA.SOLV.lig_0>
-23.8918

>  <SCORE.INTRA.VDW>
0

>  <SCORE.INTRA.VDW.0>
0

>  <SCORE.INTRA.norm>
0

>  <SCORE.RESTR>
0

>  <SCORE.RESTR.CAVITY>
0

>  <SCORE.RESTR.norm>
0

>  <SCORE.SYSTEM>
0

>  <SCORE.SYSTEM.CONST>
0

>  <SCORE.SYSTEM.DIHEDRAL>
0

>  <SCORE.SYSTEM.SOLV>
0

>  <SCORE.SYSTEM.norm>
0

>  <SCORE.heavy>
10

>  <SCORE.norm>
-1.45136

>  <RMSD>
0.744

$$$$
ligand
 OpenBabel11021811513D
libRbt.so/2013.1/901 2013/11/27
 10 11  0  0  0  0  0  0  0  0999 V2000
    5.8656   17.4927    2.5748 N   0  0  0  0  0  0  0  0  0  0  0  0
    6.7682   18.4790    2.5133 C   0  0  0  0  0  0  0  0  0  0  0  0
    7.1940   19.2869    3.4832 N   0  0  0  0  0  0  0  0  0  0  0  0
    6.5829   19.0015    4.6435 C   0  0  0  0  0  0  0  0  0  0  0  0
    5.6355   18.0202    4.8630 C   0  0  0  0  0  0  0  0  0  0  0  0
    5.2685   17.2297    3.7560 C   0  0  0  0  0  0  0  0  0  0  0  0
    4.3669   16.2451    3.8217 N   0  0  0  0  0  0  0  0  0  0  0  0
    5.2290   18.0178    6.1870 N   0  0  0  0  0  0  0  0  0  0  0  0
    5.9279   18.9848    6.7326 C   0  0  0  0  0  0  0  0  0  0  0  0
    6.7652   19.6210    5.8588 N   0  0  0  0  0  0  0  0  0  0  0  0
  1  2  2  0  0  0  0
  1  6  1  0  0  0  0
  2  3  1  0  0  0  0
  3  4  2  0  0  0  0
  4  5  1  0  0  0  0
  4 10  1  0  0  0  0
  5  6  2  0  0  0  0
  5  8  1  0  0  0  0
  6  7  1  0  0  0  0
  8  9  1  0  0  0  0
  9 10  2  0  0  0  0
M  END
>  <CHROM.1>
5.95454206,18.22980927,4.43890086,-1.82514626,0.81291351,1.24100576

>  <Name>
ligand

>  <RI>
0

>  <Rbt.Current_Directory>
/home/itssahil/PROJECTS/Mol_Feturizer/New_Systems/rnas/4XNR

>  <Rbt.Executable>
rbdock ($Id: //depot/dev/client3/rdock/2013.1/src/exe/rbdock.cxx#4 $)

>  <Rbt.Library>
libRbt.so (2013.1, Build901 2013/11/27)

>  <Rbt.Parameter_File>
/export/apps/rDock/src/rDock_2013.1_src/data/scripts/dock_solv.prm

>  <Rbt.Receptor>
prm/pocket_docking_4.prm

>  <SCORE>
-14.5106

>  <SCORE.INTER>
-14.5106

>  <SCORE.INTER.CONST>
1

>  <SCORE.INTER.POLAR>
0

>  <SCORE.INTER.ROT>
0

>  <SCORE.INTER.SOLV>
7.26521

>  <SCORE.INTER.VDW>
-15.6954

>  <SCORE.INTER.norm>
-1.45106

>  <SCORE.INTRA>
0

>  <SCORE.INTRA.DIHEDRAL>
0

>  <SCORE.INTRA.DIHEDRAL.0>
0

>  <SCORE.INTRA.POLAR>
0

>  <SCORE.INTRA.POLAR.0>
0

>  <SCORE.INTRA.REPUL>
0

>  <SCORE.INTRA.REPUL.0>
0

>  <SCORE.INTRA.SOLV>
0

>  <SCORE.INTRA.SOLV.lig_0>
-23.8918

>  <SCORE.INTRA.VDW>
0

>  <SCORE.INTRA.VDW.0>
0

>  <SCORE.INTRA.norm>
0

>  <SCORE.RESTR>
0

>  <SCORE.RESTR.CAVITY>
0

>  <SCORE.RESTR.norm>
0

>  <SCORE.SYSTEM>
0

>  <SCORE.SYSTEM.CONST>
0

>  <SCORE.SYSTEM.DIHEDRAL>
0

>  <SCORE.SYSTEM.SOLV>
0

>  <SCORE.SYSTEM.norm>
0

>  <SCORE.heavy>
10

>  <SCORE.norm>
-1.45106

>  <RMSD>
0.744

$$$$
ligand
 OpenBabel11021811513D
libRbt.so/2013.1/901 2013/11/27
 10 11  0  0  0  0  0  0  0  0999 V2000
    5.9029   17.4107    2.6275 N   0  0  0  0  0  0  0  0  0  0  0  0
    6.7654   18.4303    2.5387 C   0  0  0  0  0  0  0  0  0  0  0  0
    7.1614   19.2779    3.4871 N   0  0  0  0  0  0  0  0  0  0  0  0
    6.5656   18.9968    4.6563 C   0  0  0  0  0  0  0  0  0  0  0  0
    5.6586   17.9842    4.9032 C   0  0  0  0  0  0  0  0  0  0  0  0
    5.3202   17.1530    3.8171 C   0  0  0  0  0  0  0  0  0  0  0  0
    4.4587   16.1353    3.9101 N   0  0  0  0  0  0  0  0  0  0  0  0
    5.2564   17.9979    6.2284 N   0  0  0  0  0  0  0  0  0  0  0  0
    5.9177   19.0050    6.7478 C   0  0  0  0  0  0  0  0  0  0  0  0
    6.7266   19.6524    5.8555 N   0  0  0  0  0  0  0  0  0  0  0  0
  1  2  2  0  0  0  0
  1  6  1  0  0  0  0
  2  3  1  0  0  0  0
  3  4  2  0  0  0  0
  4  5  1  0  0  0  0
  4 10  1  0  0  0  0
  5  6  2  0  0  0  0
  5  8  1  0  0  0  0
  6  7  1  0  0  0  0
  8  9  1  0  0  0  0
  9 10  2  0  0  0  0
M  END
>  <CHROM.1>
5.96781033,18.19593128,4.47291038,-1.80971832,0.85148266,1.20529280

>  <Name>
ligand

>  <RI>
0

>  <Rbt.Current_Directory>
/home/itssahil/PROJECTS/Mol_Feturizer/New_Systems/rnas/4XNR

>  <Rbt.Executable>
rbdock ($Id: //depot/dev/client3/rdock/2013.1/src/exe/rbdock.cxx#4 $)

>  <Rbt.Library>
libRbt.so (2013.1, Build901 2013/11/27)

>  <Rbt.Parameter_File>
/export/apps/rDock/src/rDock_2013.1_src/data/scripts/dock_solv.prm

>  <Rbt.Receptor>
prm/pocket_docking_5.prm

>  <SCORE>
-14.5918

>  <SCORE.INTER>
-14.5918

>  <SCORE.INTER.CONST>
1

>  <SCORE.INTER.POLAR>
0

>  <SCORE.INTER.ROT>
0

>  <SCORE.INTER.SOLV>
7.81188

>  <SCORE.INTER.VDW>
-15.9318

>  <SCORE.INTER.norm>
-1.45918

>  <SCORE.INTRA>
0

>  <SCORE.INTRA.DIHEDRAL>
0

>  <SCORE.INTRA.DIHEDRAL.0>
0

>  <SCORE.INTRA.POLAR>
0

>  <SCORE.INTRA.POLAR.0>
0

>  <SCORE.INTRA.REPUL>
0

>  <SCORE.INTRA.REPUL.0>
0

>  <SCORE.INTRA.SOLV>
0

>  <SCORE.INTRA.SOLV.lig_0>
-23.8918

>  <SCORE.INTRA.VDW>
0

>  <SCORE.INTRA.VDW.0>
0

>  <SCORE.INTRA.norm>
0

>  <SCORE.RESTR>
0

>  <SCORE.RESTR.CAVITY>
0

>  <SCORE.RESTR.norm>
0

>  <SCORE.SYSTEM>
0

>  <SCORE.SYSTEM.CONST>
0

>  <SCORE.SYSTEM.DIHEDRAL>
0

>  <SCORE.SYSTEM.SOLV>
0

>  <SCORE.SYSTEM.norm>
0

>  <SCORE.heavy>
10

>  <SCORE.norm>
-1.45918

>  <RMSD>
0.744

$$$$
ligand
 OpenBabel11021811513D
libRbt.so/2013.1/901 2013/11/27
 10 11  0  0  0  0  0  0  0  0999 V2000
    5.9546   17.4245    2.6164 N   0  0  0  0  0  0  0  0  0  0  0  0
    6.7634   18.4878    2.5350 C   0  0  0  0  0  0  0  0  0  0  0  0
    7.1135   19.3493    3.4889 N   0  0  0  0  0  0  0  0  0  0  0  0
    6.5310   19.0311    4.6554 C   0  0  0  0  0  0  0  0  0  0  0  0
    5.6772   17.9717    4.8948 C   0  0  0  0  0  0  0  0  0  0  0  0
    5.3840   17.1303    3.8034 C   0  0  0  0  0  0  0  0  0  0  0  0
    4.5761   16.0689    3.8890 N   0  0  0  0  0  0  0  0  0  0  0  0
    5.2725   17.9569    6.2192 N   0  0  0  0  0  0  0  0  0  0  0  0
    5.8800   18.9939    6.7456 C   0  0  0  0  0  0  0  0  0  0  0  0
    6.6558   19.6874    5.8586 N   0  0  0  0  0  0  0  0  0  0  0  0
  1  2  2  0  0  0  0
  1  6  1  0  0  0  0
  2  3  1  0  0  0  0
  3  4  2  0  0  0  0
  4  5  1  0  0  0  0
  4 10  1  0  0  0  0
  5  6  2  0  0  0  0
  5  8  1  0  0  0  0
  6  7  1  0  0  0  0
  8  9  1  0  0  0  0
  9 10  2  0  0  0  0
M  END
>  <CHROM.1>
5.97572520,18.20153623,4.46631159,-1.77748876,0.89892465,1.18620851

>  <Name>
ligand

>  <RI>
0

>  <Rbt.Current_Directory>
/home/itssahil/PROJECTS/Mol_Feturizer/New_Systems/rnas/4XNR

>  <Rbt.Executable>
rbdock ($Id: //depot/dev/client3/rdock/2013.1/src/exe/rbdock.cxx#4 $)

>  <Rbt.Library>
libRbt.so (2013.1, Build901 2013/11/27)

>  <Rbt.Parameter_File>
/export/apps/rDock/src/rDock_2013.1_src/data/scripts/dock_solv.prm

>  <Rbt.Receptor>
prm/pocket_docking_7.prm

>  <SCORE>
-14.5575

>  <SCORE.INTER>
-14.5575

>  <SCORE.INTER.CONST>
1

>  <SCORE.INTER.POLAR>
0

>  <SCORE.INTER.ROT>
0

>  <SCORE.INTER.SOLV>
8.21885

>  <SCORE.INTER.VDW>
-16.0446

>  <SCORE.INTER.norm>
-1.45575

>  <SCORE.INTRA>
0

>  <SCORE.INTRA.DIHEDRAL>
0

>  <SCORE.INTRA.DIHEDRAL.0>
0

>  <SCORE.INTRA.POLAR>
0

>  <SCORE.INTRA.POLAR.0>
0

>  <SCORE.INTRA.REPUL>
0

>  <SCORE.INTRA.REPUL.0>
0

>  <SCORE.INTRA.SOLV>
0

>  <SCORE.INTRA.SOLV.lig_0>
-23.8918

>  <SCORE.INTRA.VDW>
0

>  <SCORE.INTRA.VDW.0>
0

>  <SCORE.INTRA.norm>
0

>  <SCORE.RESTR>
0

>  <SCORE.RESTR.CAVITY>
0

>  <SCORE.RESTR.norm>
0

>  <SCORE.SYSTEM>
0

>  <SCORE.SYSTEM.CONST>
0

>  <SCORE.SYSTEM.DIHEDRAL>
0

>  <SCORE.SYSTEM.SOLV>
0

>  <SCORE.SYSTEM.norm>
0

>  <SCORE.heavy>
10

>  <SCORE.norm>
-1.45575

>  <RMSD>
0.744

$$$$
ligand
 OpenBabel11021811513D
libRbt.so/2013.1/901 2013/11/27
 10 11  0  0  0  0  0  0  0  0999 V2000
    5.9576   17.4303    2.6148 N   0  0  0  0  0  0  0  0  0  0  0  0
    6.7693   18.4915    2.5349 C   0  0  0  0  0  0  0  0  0  0  0  0
    7.1218   19.3507    3.4900 N   0  0  0  0  0  0  0  0  0  0  0  0
    6.5385   19.0324    4.6560 C   0  0  0  0  0  0  0  0  0  0  0  0
    5.6818   17.9750    4.8940 C   0  0  0  0  0  0  0  0  0  0  0  0
    5.3863   17.1360    3.8014 C   0  0  0  0  0  0  0  0  0  0  0  0
    4.5755   16.0766    3.8856 N   0  0  0  0  0  0  0  0  0  0  0  0
    5.2772   17.9595    6.2185 N   0  0  0  0  0  0  0  0  0  0  0  0
    5.8876   18.9940    6.7462 C   0  0  0  0  0  0  0  0  0  0  0  0
    6.6653   19.6866    5.8602 N   0  0  0  0  0  0  0  0  0  0  0  0
  1  2  2  0  0  0  0
  1  6  1  0  0  0  0
  2  3  1  0  0  0  0
  3  4  2  0  0  0  0
  4  5  1  0  0  0  0
  4 10  1  0  0  0  0
  5  6  2  0  0  0  0
  5  8  1  0  0  0  0
  6  7  1  0  0  0  0
  8  9  1  0  0  0  0
  9 10  2  0  0  0  0
M  END
>  <CHROM.1>
5.98098374,18.20462804,4.46583312,-1.77924081,0.89641456,1.18900111

>  <Name>
ligand

>  <RI>
0

>  <Rbt.Current_Directory>
/home/itssahil/PROJECTS/Mol_Feturizer/New_Systems/rnas/4XNR

>  <Rbt.Executable>
rbdock ($Id: //depot/dev/client3/rdock/2013.1/src/exe/rbdock.cxx#4 $)

>  <Rbt.Library>
libRbt.so (2013.1, Build901 2013/11/27)

>  <Rbt.Parameter_File>
/export/apps/rDock/src/rDock_2013.1_src/data/scripts/dock_solv.prm

>  <Rbt.Receptor>
prm/blind_docking_40.prm

>  <SCORE>
-14.5557

>  <SCORE.INTER>
-14.5557

>  <SCORE.INTER.CONST>
1

>  <SCORE.INTER.POLAR>
0

>  <SCORE.INTER.ROT>
0

>  <SCORE.INTER.SOLV>
8.19095

>  <SCORE.INTER.VDW>
-16.0341

>  <SCORE.INTER.norm>
-1.45557

>  <SCORE.INTRA>
0

>  <SCORE.INTRA.DIHEDRAL>
0

>  <SCORE.INTRA.DIHEDRAL.0>
0

>  <SCORE.INTRA.POLAR>
0

>  <SCORE.INTRA.POLAR.0>
0

>  <SCORE.INTRA.REPUL>
0

>  <SCORE.INTRA.REPUL.0>
0

>  <SCORE.INTRA.SOLV>
0

>  <SCORE.INTRA.SOLV.lig_0>
-23.8918

>  <SCORE.INTRA.VDW>
0

>  <SCORE.INTRA.VDW.0>
0

>  <SCORE.INTRA.norm>
0

>  <SCORE.RESTR>
0

>  <SCORE.RESTR.CAVITY>
0

>  <SCORE.RESTR.norm>
0

>  <SCORE.SYSTEM>
0

>  <SCORE.SYSTEM.CONST>
0

>  <SCORE.SYSTEM.DIHEDRAL>
0

>  <SCORE.SYSTEM.SOLV>
0

>  <SCORE.SYSTEM.norm>
0

>  <SCORE.heavy>
10

>  <SCORE.norm>
-1.45557

>  <RMSD>
0.745

$$$$
ligand
 OpenBabel11021811513D
libRbt.so/2013.1/901 2013/11/27
 10 11  0  0  0  0  0  0  0  0999 V2000
    5.8646   17.3705    2.6446 N   0  0  0  0  0  0  0  0  0  0  0  0
    6.7704   18.3519    2.5551 C   0  0  0  0  0  0  0  0  0  0  0  0
    7.1952   19.1888    3.5004 N   0  0  0  0  0  0  0  0  0  0  0  0
    6.5794   18.9420    4.6670 C   0  0  0  0  0  0  0  0  0  0  0  0
    5.6284   17.9708    4.9142 C   0  0  0  0  0  0  0  0  0  0  0  0
    5.2628   17.1468    3.8315 C   0  0  0  0  0  0  0  0  0  0  0  0
    4.3581   16.1673    3.9252 N   0  0  0  0  0  0  0  0  0  0  0  0
    5.2175   18.0114    6.2362 N   0  0  0  0  0  0  0  0  0  0  0  0
    5.9173   18.9933    6.7534 C   0  0  0  0  0  0  0  0  0  0  0  0
    6.7595   19.5991    5.8628 N   0  0  0  0  0  0  0  0  0  0  0  0
  1  2  2  0  0  0  0
  1  6  1  0  0  0  0
  2  3  1  0  0  0  0
  3  4  2  0  0  0  0
  4  5  1  0  0  0  0
  4 10  1  0  0  0  0
  5  6  2  0  0  0  0
  5  8  1  0  0  0  0
  6  7  1  0  0  0  0
  8  9  1  0  0  0  0
  9 10  2  0  0  0  0
M  END
>  <CHROM.1>
5.94946842,18.16599916,4.48480021,-1.82191959,0.80904637,1.20704025

>  <Name>
ligand

>  <RI>
0

>  <Rbt.Current_Directory>
/home/itssahil/PROJECTS/Mol_Feturizer/New_Systems/rnas/4XNR

>  <Rbt.Executable>
rbdock ($Id: //depot/dev/client3/rdock/2013.1/src/exe/rbdock.cxx#4 $)

>  <Rbt.Library>
libRbt.so (2013.1, Build901 2013/11/27)

>  <Rbt.Parameter_File>
/export/apps/rDock/src/rDock_2013.1_src/data/scripts/dock_solv.prm

>  <Rbt.Receptor>
prm/blind_docking_60.prm

>  <SCORE>
-14.578

>  <SCORE.INTER>
-14.578

>  <SCORE.INTER.CONST>
1

>  <SCORE.INTER.POLAR>
0

>  <SCORE.INTER.ROT>
0

>  <SCORE.INTER.SOLV>
7.6355

>  <SCORE.INTER.VDW>
-15.8638

>  <SCORE.INTER.norm>
-1.4578

>  <SCORE.INTRA>
0

>  <SCORE.INTRA.DIHEDRAL>
0

>  <SCORE.INTRA.DIHEDRAL.0>
0

>  <SCORE.INTRA.POLAR>
0

>  <SCORE.INTRA.POLAR.0>
0

>  <SCORE.INTRA.REPUL>
0

>  <SCORE.INTRA.REPUL.0>
0

>  <SCORE.INTRA.SOLV>
0

>  <SCORE.INTRA.SOLV.lig_0>
-23.8918

>  <SCORE.INTRA.VDW>
0

>  <SCORE.INTRA.VDW.0>
0

>  <SCORE.INTRA.norm>
0

>  <SCORE.RESTR>
0

>  <SCORE.RESTR.CAVITY>
0

>  <SCORE.RESTR.norm>
0

>  <SCORE.SYSTEM>
0

>  <SCORE.SYSTEM.CONST>
0

>  <SCORE.SYSTEM.DIHEDRAL>
0

>  <SCORE.SYSTEM.SOLV>
0

>  <SCORE.SYSTEM.norm>
0

>  <SCORE.heavy>
10

>  <SCORE.norm>
-1.4578

>  <RMSD>
0.745

$$$$
ligand
 OpenBabel11021811513D
libRbt.so/2013.1/901 2013/11/27
 10 11  0  0  0  0  0  0  0  0999 V2000
    5.8740   17.4159    2.6257 N   0  0  0  0  0  0  0  0  0  0  0  0
    6.7240   18.4457    2.5335 C   0  0  0  0  0  0  0  0  0  0  0  0
    7.1180   19.2945    3.4817 N   0  0  0  0  0  0  0  0  0  0  0  0
    6.5348   19.0025    4.6547 C   0  0  0  0  0  0  0  0  0  0  0  0
    5.6416   17.9787    4.9052 C   0  0  0  0  0  0  0  0  0  0  0  0
    5.3039   17.1475    3.8189 C   0  0  0  0  0  0  0  0  0  0  0  0
    4.4550   16.1195    3.9153 N   0  0  0  0  0  0  0  0  0  0  0  0
    5.2499   17.9831    6.2337 N   0  0  0  0  0  0  0  0  0  0  0  0
    5.9038   18.9960    6.7513 C   0  0  0  0  0  0  0  0  0  0  0  0
    6.6980   19.6558    5.8549 N   0  0  0  0  0  0  0  0  0  0  0  0
  1  2  2  0  0  0  0
  1  6  1  0  0  0  0
  2  3  1  0  0  0  0
  3  4  2  0  0  0  0
  4  5  1  0  0  0  0
  4 10  1  0  0  0  0
  5  6  2  0  0  0  0
  5  8  1  0  0  0  0
  6  7  1  0  0  0  0
  8  9  1  0  0  0  0
  9 10  2  0  0  0  0
M  END
>  <CHROM.1>
5.94483452,18.19547123,4.47325012,-1.81503620,0.86507741,1.21283904

>  <Name>
ligand

>  <RI>
0

>  <Rbt.Current_Directory>
/home/itssahil/PROJECTS/Mol_Feturizer/New_Systems/rnas/4XNR

>  <Rbt.Executable>
rbdock ($Id: //depot/dev/client3/rdock/2013.1/src/exe/rbdock.cxx#4 $)

>  <Rbt.Library>
libRbt.so (2013.1, Build901 2013/11/27)

>  <Rbt.Parameter_File>
/export/apps/rDock/src/rDock_2013.1_src/data/scripts/dock_solv.prm

>  <Rbt.Receptor>
prm/pocket_docking_5.prm

>  <SCORE>
-14.5404

>  <SCORE.INTER>
-14.5404

>  <SCORE.INTER.CONST>
1

>  <SCORE.INTER.POLAR>
0

>  <SCORE.INTER.ROT>
0

>  <SCORE.INTER.SOLV>
7.85701

>  <SCORE.INTER.VDW>
-15.9126

>  <SCORE.INTER.norm>
-1.45404

>  <SCORE.INTRA>
0

>  <SCORE.INTRA.DIHEDRAL>
0

>  <SCORE.INTRA.DIHEDRAL.0>
0

>  <SCORE.INTRA.POLAR>
0

>  <SCORE.INTRA.POLAR.0>
0

>  <SCORE.INTRA.REPUL>
0

>  <SCORE.INTRA.REPUL.0>
0

>  <SCORE.INTRA.SOLV>
0

>  <SCORE.INTRA.SOLV.lig_0>
-23.8918

>  <SCORE.INTRA.VDW>
0

>  <SCORE.INTRA.VDW.0>
0

>  <SCORE.INTRA.norm>
0

>  <SCORE.RESTR>
0

>  <SCORE.RESTR.CAVITY>
0

>  <SCORE.RESTR.norm>
0

>  <SCORE.SYSTEM>
0

>  <SCORE.SYSTEM.CONST>
0

>  <SCORE.SYSTEM.DIHEDRAL>
0

>  <SCORE.SYSTEM.SOLV>
0

>  <SCORE.SYSTEM.norm>
0

>  <SCORE.heavy>
10

>  <SCORE.norm>
-1.45404

>  <RMSD>
0.745

$$$$
ligand
 OpenBabel11021811513D
libRbt.so/2013.1/901 2013/11/27
 10 11  0  0  0  0  0  0  0  0999 V2000
    5.9863   17.4303    2.6121 N   0  0  0  0  0  0  0  0  0  0  0  0
    6.8127   18.4813    2.5498 C   0  0  0  0  0  0  0  0  0  0  0  0
    7.1626   19.3305    3.5147 N   0  0  0  0  0  0  0  0  0  0  0  0
    6.5585   19.0135    4.6704 C   0  0  0  0  0  0  0  0  0  0  0  0
    5.6848   17.9661    4.8901 C   0  0  0  0  0  0  0  0  0  0  0  0
    5.3941   17.1370    3.7887 C   0  0  0  0  0  0  0  0  0  0  0  0
    4.5685   16.0879    3.8553 N   0  0  0  0  0  0  0  0  0  0  0  0
    5.2611   17.9486    6.2086 N   0  0  0  0  0  0  0  0  0  0  0  0
    5.8772   18.9722    6.7509 C   0  0  0  0  0  0  0  0  0  0  0  0
    6.6764   19.6594    5.8800 N   0  0  0  0  0  0  0  0  0  0  0  0
  1  2  2  0  0  0  0
  1  6  1  0  0  0  0
  2  3  1  0  0  0  0
  3  4  2  0  0  0  0
  4  5  1  0  0  0  0
  4 10  1  0  0  0  0
  5  6  2  0  0  0  0
  5  8  1  0  0  0  0
  6  7  1  0  0  0  0
  8  9  1  0  0  0  0
  9 10  2  0  0  0  0
M  END
>  <CHROM.1>
5.99305343,18.19414835,4.46762706,-1.76592303,0.87897295,1.18423772

>  <Name>
ligand

>  <RI>
0

>  <Rbt.Current_Directory>
/home/itssahil/PROJECTS/Mol_Feturizer/New_Systems/rnas/4XNR

>  <Rbt.Executable>
rbdock ($Id: //depot/dev/client3/rdock/2013.1/src/exe/rbdock.cxx#4 $)

>  <Rbt.Library>
libRbt.so (2013.1, Build901 2013/11/27)

>  <Rbt.Parameter_File>
/export/apps/rDock/src/rDock_2013.1_src/data/scripts/dock_solv.prm

>  <Rbt.Receptor>
prm/pocket_docking_5.prm

>  <SCORE>
-14.5447

>  <SCORE.INTER>
-14.5447

>  <SCORE.INTER.CONST>
1

>  <SCORE.INTER.POLAR>
0

>  <SCORE.INTER.ROT>
0

>  <SCORE.INTER.SOLV>
8.06887

>  <SCORE.INTER.VDW>
-15.9861

>  <SCORE.INTER.norm>
-1.45447

>  <SCORE.INTRA>
0

>  <SCORE.INTRA.DIHEDRAL>
0

>  <SCORE.INTRA.DIHEDRAL.0>
0

>  <SCORE.INTRA.POLAR>
0

>  <SCORE.INTRA.POLAR.0>
0

>  <SCORE.INTRA.REPUL>
0

>  <SCORE.INTRA.REPUL.0>
0

>  <SCORE.INTRA.SOLV>
0

>  <SCORE.INTRA.SOLV.lig_0>
-23.8918

>  <SCORE.INTRA.VDW>
0

>  <SCORE.INTRA.VDW.0>
0

>  <SCORE.INTRA.norm>
0

>  <SCORE.RESTR>
0

>  <SCORE.RESTR.CAVITY>
0

>  <SCORE.RESTR.norm>
0

>  <SCORE.SYSTEM>
0

>  <SCORE.SYSTEM.CONST>
0

>  <SCORE.SYSTEM.DIHEDRAL>
0

>  <SCORE.SYSTEM.SOLV>
0

>  <SCORE.SYSTEM.norm>
0

>  <SCORE.heavy>
10

>  <SCORE.norm>
-1.45447

>  <RMSD>
0.745

$$$$
ligand
 OpenBabel11021811513D
libRbt.so/2013.1/901 2013/11/27
 10 11  0  0  0  0  0  0  0  0999 V2000
    5.9010   17.4120    2.6272 N   0  0  0  0  0  0  0  0  0  0  0  0
    6.7645   18.4307    2.5383 C   0  0  0  0  0  0  0  0  0  0  0  0
    7.1617   19.2777    3.4868 N   0  0  0  0  0  0  0  0  0  0  0  0
    6.5660   18.9969    4.6561 C   0  0  0  0  0  0  0  0  0  0  0  0
    5.6582   17.9852    4.9031 C   0  0  0  0  0  0  0  0  0  0  0  0
    5.3184   17.1546    3.8169 C   0  0  0  0  0  0  0  0  0  0  0  0
    4.4559   16.1377    3.9100 N   0  0  0  0  0  0  0  0  0  0  0  0
    5.2564   17.9989    6.2285 N   0  0  0  0  0  0  0  0  0  0  0  0
    5.9190   19.0052    6.7478 C   0  0  0  0  0  0  0  0  0  0  0  0
    6.7282   19.6520    5.8555 N   0  0  0  0  0  0  0  0  0  0  0  0
  1  2  2  0  0  0  0
  1  6  1  0  0  0  0
  2  3  1  0  0  0  0
  3  4  2  0  0  0  0
  4  5  1  0  0  0  0
  4 10  1  0  0  0  0
  5  6  2  0  0  0  0
  5  8  1  0  0  0  0
  6  7  1  0  0  0  0
  8  9  1  0  0  0  0
  9 10  2  0  0  0  0
M  END
>  <CHROM.1>
5.96738654,18.19670047,4.47276341,-1.81081787,0.85065405,1.20639183

>  <Name>
ligand

>  <RI>
0

>  <Rbt.Current_Directory>
/home/itssahil/PROJECTS/Mol_Feturizer/New_Systems/rnas/4XNR

>  <Rbt.Executable>
rbdock ($Id: //depot/dev/client3/rdock/2013.1/src/exe/rbdock.cxx#4 $)

>  <Rbt.Library>
libRbt.so (2013.1, Build901 2013/11/27)

>  <Rbt.Parameter_File>
/export/apps/rDock/src/rDock_2013.1_src/data/scripts/dock_solv.prm

>  <Rbt.Receptor>
prm/pocket_docking_7.prm

>  <SCORE>
-14.5922

>  <SCORE.INTER>
-14.5922

>  <SCORE.INTER.CONST>
1

>  <SCORE.INTER.POLAR>
0

>  <SCORE.INTER.ROT>
0

>  <SCORE.INTER.SOLV>
7.80159

>  <SCORE.INTER.VDW>
-15.9287

>  <SCORE.INTER.norm>
-1.45922

>  <SCORE.INTRA>
0

>  <SCORE.INTRA.DIHEDRAL>
0

>  <SCORE.INTRA.DIHEDRAL.0>
0

>  <SCORE.INTRA.POLAR>
0

>  <SCORE.INTRA.POLAR.0>
0

>  <SCORE.INTRA.REPUL>
0

>  <SCORE.INTRA.REPUL.0>
0

>  <SCORE.INTRA.SOLV>
0

>  <SCORE.INTRA.SOLV.lig_0>
-23.8918

>  <SCORE.INTRA.VDW>
0

>  <SCORE.INTRA.VDW.0>
0

>  <SCORE.INTRA.norm>
0

>  <SCORE.RESTR>
0

>  <SCORE.RESTR.CAVITY>
0

>  <SCORE.RESTR.norm>
0

>  <SCORE.SYSTEM>
0

>  <SCORE.SYSTEM.CONST>
0

>  <SCORE.SYSTEM.DIHEDRAL>
0

>  <SCORE.SYSTEM.SOLV>
0

>  <SCORE.SYSTEM.norm>
0

>  <SCORE.heavy>
10

>  <SCORE.norm>
-1.45922

>  <RMSD>
0.745

$$$$
ligand
 OpenBabel11021811513D
libRbt.so/2013.1/901 2013/11/27
 10 11  0  0  0  0  0  0  0  0999 V2000
    5.9323   17.4313    2.6145 N   0  0  0  0  0  0  0  0  0  0  0  0
    6.7304   18.5021    2.5264 C   0  0  0  0  0  0  0  0  0  0  0  0
    7.0825   19.3654    3.4779 N   0  0  0  0  0  0  0  0  0  0  0  0
    6.5149   19.0403    4.6498 C   0  0  0  0  0  0  0  0  0  0  0  0
    5.6733   17.9728    4.8964 C   0  0  0  0  0  0  0  0  0  0  0  0
    5.3766   17.1303    3.8068 C   0  0  0  0  0  0  0  0  0  0  0  0
    4.5793   16.0614    3.8991 N   0  0  0  0  0  0  0  0  0  0  0  0
    5.2825   17.9525    6.2249 N   0  0  0  0  0  0  0  0  0  0  0  0
    5.8859   18.9942    6.7465 C   0  0  0  0  0  0  0  0  0  0  0  0
    6.6462   19.6960    5.8526 N   0  0  0  0  0  0  0  0  0  0  0  0
  1  2  2  0  0  0  0
  1  6  1  0  0  0  0
  2  3  1  0  0  0  0
  3  4  2  0  0  0  0
  4  5  1  0  0  0  0
  4 10  1  0  0  0  0
  5  6  2  0  0  0  0
  5  8  1  0  0  0  0
  6  7  1  0  0  0  0
  8  9  1  0  0  0  0
  9 10  2  0  0  0  0
M  END
>  <CHROM.1>
5.96534134,18.20594176,4.46520662,-1.78750579,0.91118030,1.19553102

>  <Name>
ligand

>  <RI>
0

>  <Rbt.Current_Directory>
/home/itssahil/PROJECTS/Mol_Feturizer/New_Systems/rnas/4XNR

>  <Rbt.Executable>
rbdock ($Id: //depot/dev/client3/rdock/2013.1/src/exe/rbdock.cxx#4 $)

>  <Rbt.Library>
libRbt.so (2013.1, Build901 2013/11/27)

>  <Rbt.Parameter_File>
/export/apps/rDock/src/rDock_2013.1_src/data/scripts/dock_solv.prm

>  <Rbt.Receptor>
prm/pocket_docking_8.prm

>  <SCORE>
-14.5529

>  <SCORE.INTER>
-14.5529

>  <SCORE.INTER.CONST>
1

>  <SCORE.INTER.POLAR>
0

>  <SCORE.INTER.ROT>
0

>  <SCORE.INTER.SOLV>
8.27268

>  <SCORE.INTER.VDW>
-16.0595

>  <SCORE.INTER.norm>
-1.45529

>  <SCORE.INTRA>
0

>  <SCORE.INTRA.DIHEDRAL>
0

>  <SCORE.INTRA.DIHEDRAL.0>
0

>  <SCORE.INTRA.POLAR>
0

>  <SCORE.INTRA.POLAR.0>
0

>  <SCORE.INTRA.REPUL>
0

>  <SCORE.INTRA.REPUL.0>
0

>  <SCORE.INTRA.SOLV>
0

>  <SCORE.INTRA.SOLV.lig_0>
-23.8918

>  <SCORE.INTRA.VDW>
0

>  <SCORE.INTRA.VDW.0>
0

>  <SCORE.INTRA.norm>
0

>  <SCORE.RESTR>
0

>  <SCORE.RESTR.CAVITY>
0

>  <SCORE.RESTR.norm>
0

>  <SCORE.SYSTEM>
0

>  <SCORE.SYSTEM.CONST>
0

>  <SCORE.SYSTEM.DIHEDRAL>
0

>  <SCORE.SYSTEM.SOLV>
0

>  <SCORE.SYSTEM.norm>
0

>  <SCORE.heavy>
10

>  <SCORE.norm>
-1.45529

>  <RMSD>
0.745

$$$$
ligand
 OpenBabel11021811513D
libRbt.so/2013.1/901 2013/11/27
 10 11  0  0  0  0  0  0  0  0999 V2000
    5.8962   17.4020    2.6314 N   0  0  0  0  0  0  0  0  0  0  0  0
    6.7648   18.4169    2.5476 C   0  0  0  0  0  0  0  0  0  0  0  0
    7.1592   19.2629    3.4981 N   0  0  0  0  0  0  0  0  0  0  0  0
    6.5542   18.9858    4.6635 C   0  0  0  0  0  0  0  0  0  0  0  0
    5.6402   17.9783    4.9051 C   0  0  0  0  0  0  0  0  0  0  0  0
    5.3044   17.1483    3.8173 C   0  0  0  0  0  0  0  0  0  0  0  0
    4.4368   16.1353    3.9053 N   0  0  0  0  0  0  0  0  0  0  0  0
    5.2294   17.9949    6.2276 N   0  0  0  0  0  0  0  0  0  0  0  0
    5.8928   18.9987    6.7507 C   0  0  0  0  0  0  0  0  0  0  0  0
    6.7110   19.6412    5.8634 N   0  0  0  0  0  0  0  0  0  0  0  0
  1  2  2  0  0  0  0
  1  6  1  0  0  0  0
  2  3  1  0  0  0  0
  3  4  2  0  0  0  0
  4  5  1  0  0  0  0
  4 10  1  0  0  0  0
  5  6  2  0  0  0  0
  5  8  1  0  0  0  0
  6  7  1  0  0  0  0
  8  9  1  0  0  0  0
  9 10  2  0  0  0  0
M  END
>  <CHROM.1>
5.95334673,18.18805932,4.47672594,-1.80347017,0.84407196,1.20003080

>  <Name>
ligand

>  <RI>
0

>  <Rbt.Current_Directory>
/home/itssahil/PROJECTS/Mol_Feturizer/New_Systems/rnas/4XNR

>  <Rbt.Executable>
rbdock ($Id: //depot/dev/client3/rdock/2013.1/src/exe/rbdock.cxx#4 $)

>  <Rbt.Library>
libRbt.so (2013.1, Build901 2013/11/27)

>  <Rbt.Parameter_File>
/export/apps/rDock/src/rDock_2013.1_src/data/scripts/dock_solv.prm

>  <Rbt.Receptor>
prm/pocket_docking_3.prm

>  <SCORE>
-14.5646

>  <SCORE.INTER>
-14.5646

>  <SCORE.INTER.CONST>
1

>  <SCORE.INTER.POLAR>
0

>  <SCORE.INTER.ROT>
0

>  <SCORE.INTER.SOLV>
7.75762

>  <SCORE.INTER.VDW>
-15.8956

>  <SCORE.INTER.norm>
-1.45646

>  <SCORE.INTRA>
0

>  <SCORE.INTRA.DIHEDRAL>
0

>  <SCORE.INTRA.DIHEDRAL.0>
0

>  <SCORE.INTRA.POLAR>
0

>  <SCORE.INTRA.POLAR.0>
0

>  <SCORE.INTRA.REPUL>
0

>  <SCORE.INTRA.REPUL.0>
0

>  <SCORE.INTRA.SOLV>
0

>  <SCORE.INTRA.SOLV.lig_0>
-23.8918

>  <SCORE.INTRA.VDW>
0

>  <SCORE.INTRA.VDW.0>
0

>  <SCORE.INTRA.norm>
0

>  <SCORE.RESTR>
0

>  <SCORE.RESTR.CAVITY>
0

>  <SCORE.RESTR.norm>
0

>  <SCORE.SYSTEM>
0

>  <SCORE.SYSTEM.CONST>
0

>  <SCORE.SYSTEM.DIHEDRAL>
0

>  <SCORE.SYSTEM.SOLV>
0

>  <SCORE.SYSTEM.norm>
0

>  <SCORE.heavy>
10

>  <SCORE.norm>
-1.45646

>  <RMSD>
0.746

$$$$
ligand
 OpenBabel11021811513D
libRbt.so/2013.1/901 2013/11/27
 10 11  0  0  0  0  0  0  0  0999 V2000
    5.8789   17.4242    2.6238 N   0  0  0  0  0  0  0  0  0  0  0  0
    6.7237   18.4578    2.5264 C   0  0  0  0  0  0  0  0  0  0  0  0
    7.1190   19.3090    3.4718 N   0  0  0  0  0  0  0  0  0  0  0  0
    6.5436   19.0151    4.6482 C   0  0  0  0  0  0  0  0  0  0  0  0
    5.6564   17.9874    4.9042 C   0  0  0  0  0  0  0  0  0  0  0  0
    5.3166   17.1539    3.8203 C   0  0  0  0  0  0  0  0  0  0  0  0
    4.4729   16.1222    3.9220 N   0  0  0  0  0  0  0  0  0  0  0  0
    5.2720   17.9909    6.2348 N   0  0  0  0  0  0  0  0  0  0  0  0
    5.9242   19.0070    6.7482 C   0  0  0  0  0  0  0  0  0  0  0  0
    6.7104   19.6699    5.8471 N   0  0  0  0  0  0  0  0  0  0  0  0
  1  2  2  0  0  0  0
  1  6  1  0  0  0  0
  2  3  1  0  0  0  0
  3  4  2  0  0  0  0
  4  5  1  0  0  0  0
  4 10  1  0  0  0  0
  5  6  2  0  0  0  0
  5  8  1  0  0  0  0
  6  7  1  0  0  0  0
  8  9  1  0  0  0  0
  9 10  2  0  0  0  0
M  END
>  <CHROM.1>
5.95631286,18.20525476,4.47048447,-1.82053380,0.87125428,1.21639919

>  <Name>
ligand

>  <RI>
0

>  <Rbt.Current_Directory>
/home/itssahil/PROJECTS/Mol_Feturizer/New_Systems/rnas/4XNR

>  <Rbt.Executable>
rbdock ($Id: //depot/dev/client3/rdock/2013.1/src/exe/rbdock.cxx#4 $)

>  <Rbt.Library>
libRbt.so (2013.1, Build901 2013/11/27)

>  <Rbt.Parameter_File>
/export/apps/rDock/src/rDock_2013.1_src/data/scripts/dock_solv.prm

>  <Rbt.Receptor>
prm/pocket_docking_5.prm

>  <SCORE>
-14.5612

>  <SCORE.INTER>
-14.5612

>  <SCORE.INTER.CONST>
1

>  <SCORE.INTER.POLAR>
0

>  <SCORE.INTER.ROT>
0

>  <SCORE.INTER.SOLV>
7.90299

>  <SCORE.INTER.VDW>
-15.9418

>  <SCORE.INTER.norm>
-1.45612

>  <SCORE.INTRA>
0

>  <SCORE.INTRA.DIHEDRAL>
0

>  <SCORE.INTRA.DIHEDRAL.0>
0

>  <SCORE.INTRA.POLAR>
0

>  <SCORE.INTRA.POLAR.0>
0

>  <SCORE.INTRA.REPUL>
0

>  <SCORE.INTRA.REPUL.0>
0

>  <SCORE.INTRA.SOLV>
0

>  <SCORE.INTRA.SOLV.lig_0>
-23.8918

>  <SCORE.INTRA.VDW>
0

>  <SCORE.INTRA.VDW.0>
0

>  <SCORE.INTRA.norm>
0

>  <SCORE.RESTR>
0

>  <SCORE.RESTR.CAVITY>
0

>  <SCORE.RESTR.norm>
0

>  <SCORE.SYSTEM>
0

>  <SCORE.SYSTEM.CONST>
0

>  <SCORE.SYSTEM.DIHEDRAL>
0

>  <SCORE.SYSTEM.SOLV>
0

>  <SCORE.SYSTEM.norm>
0

>  <SCORE.heavy>
10

>  <SCORE.norm>
-1.45612

>  <RMSD>
0.746

$$$$
ligand
 OpenBabel11021811513D
libRbt.so/2013.1/901 2013/11/27
 10 11  0  0  0  0  0  0  0  0999 V2000
    5.9036   17.4113    2.6274 N   0  0  0  0  0  0  0  0  0  0  0  0
    6.7773   18.4216    2.5427 C   0  0  0  0  0  0  0  0  0  0  0  0
    7.1793   19.2638    3.4933 N   0  0  0  0  0  0  0  0  0  0  0  0
    6.5765   18.9879    4.6602 C   0  0  0  0  0  0  0  0  0  0  0  0
    5.6579   17.9849    4.9029 C   0  0  0  0  0  0  0  0  0  0  0  0
    5.3142   17.1587    3.8148 C   0  0  0  0  0  0  0  0  0  0  0  0
    4.4414   16.1501    3.9038 N   0  0  0  0  0  0  0  0  0  0  0  0
    5.2514   18.0015    6.2268 N   0  0  0  0  0  0  0  0  0  0  0  0
    5.9218   19.0008    6.7495 C   0  0  0  0  0  0  0  0  0  0  0  0
    6.7406   19.6404    5.8607 N   0  0  0  0  0  0  0  0  0  0  0  0
  1  2  2  0  0  0  0
  1  6  1  0  0  0  0
  2  3  1  0  0  0  0
  3  4  2  0  0  0  0
  4  5  1  0  0  0  0
  4 10  1  0  0  0  0
  5  6  2  0  0  0  0
  5  8  1  0  0  0  0
  6  7  1  0  0  0  0
  8  9  1  0  0  0  0
  9 10  2  0  0  0  0
M  END
>  <CHROM.1>
5.97080204,18.19376495,4.47392910,-1.81081956,0.84018980,1.20724139

>  <Name>
ligand

>  <RI>
0

>  <Rbt.Current_Directory>
/home/itssahil/PROJECTS/Mol_Feturizer/New_Systems/rnas/4XNR

>  <Rbt.Executable>
rbdock ($Id: //depot/dev/client3/rdock/2013.1/src/exe/rbdock.cxx#4 $)

>  <Rbt.Library>
libRbt.so (2013.1, Build901 2013/11/27)

>  <Rbt.Parameter_File>
/export/apps/rDock/src/rDock_2013.1_src/data/scripts/dock_solv.prm

>  <Rbt.Receptor>
prm/pocket_docking_7.prm

>  <SCORE>
-14.5864

>  <SCORE.INTER>
-14.5864

>  <SCORE.INTER.CONST>
1

>  <SCORE.INTER.POLAR>
0

>  <SCORE.INTER.ROT>
0

>  <SCORE.INTER.SOLV>
7.731

>  <SCORE.INTER.VDW>
-15.9013

>  <SCORE.INTER.norm>
-1.45864

>  <SCORE.INTRA>
0

>  <SCORE.INTRA.DIHEDRAL>
0

>  <SCORE.INTRA.DIHEDRAL.0>
0

>  <SCORE.INTRA.POLAR>
0

>  <SCORE.INTRA.POLAR.0>
0

>  <SCORE.INTRA.REPUL>
0

>  <SCORE.INTRA.REPUL.0>
0

>  <SCORE.INTRA.SOLV>
0

>  <SCORE.INTRA.SOLV.lig_0>
-23.8918

>  <SCORE.INTRA.VDW>
0

>  <SCORE.INTRA.VDW.0>
0

>  <SCORE.INTRA.norm>
0

>  <SCORE.RESTR>
0

>  <SCORE.RESTR.CAVITY>
0

>  <SCORE.RESTR.norm>
0

>  <SCORE.SYSTEM>
0

>  <SCORE.SYSTEM.CONST>
0

>  <SCORE.SYSTEM.DIHEDRAL>
0

>  <SCORE.SYSTEM.SOLV>
0

>  <SCORE.SYSTEM.norm>
0

>  <SCORE.heavy>
10

>  <SCORE.norm>
-1.45864

>  <RMSD>
0.746

$$$$
ligand
 OpenBabel11021811513D
libRbt.so/2013.1/901 2013/11/27
 10 11  0  0  0  0  0  0  0  0999 V2000
    5.8760   17.4204    2.6241 N   0  0  0  0  0  0  0  0  0  0  0  0
    6.7256   18.4505    2.5330 C   0  0  0  0  0  0  0  0  0  0  0  0
    7.1198   19.2981    3.4822 N   0  0  0  0  0  0  0  0  0  0  0  0
    6.5372   19.0043    4.6550 C   0  0  0  0  0  0  0  0  0  0  0  0
    5.6444   17.9800    4.9045 C   0  0  0  0  0  0  0  0  0  0  0  0
    5.3064   17.1502    3.8172 C   0  0  0  0  0  0  0  0  0  0  0  0
    4.4577   16.1219    3.9125 N   0  0  0  0  0  0  0  0  0  0  0  0
    5.2533   17.9824    6.2332 N   0  0  0  0  0  0  0  0  0  0  0  0
    5.9072   18.9946    6.7519 C   0  0  0  0  0  0  0  0  0  0  0  0
    6.7008   19.6559    5.8561 N   0  0  0  0  0  0  0  0  0  0  0  0
  1  2  2  0  0  0  0
  1  6  1  0  0  0  0
  2  3  1  0  0  0  0
  3  4  2  0  0  0  0
  4  5  1  0  0  0  0
  4 10  1  0  0  0  0
  5  6  2  0  0  0  0
  5  8  1  0  0  0  0
  6  7  1  0  0  0  0
  8  9  1  0  0  0  0
  9 10  2  0  0  0  0
M  END
>  <CHROM.1>
5.94736461,18.19739357,4.47272436,-1.81553647,0.86545061,1.21463537

>  <Name>
ligand

>  <RI>
0

>  <Rbt.Current_Directory>
/home/itssahil/PROJECTS/Mol_Feturizer/New_Systems/rnas/4XNR

>  <Rbt.Executable>
rbdock ($Id: //depot/dev/client3/rdock/2013.1/src/exe/rbdock.cxx#4 $)

>  <Rbt.Library>
libRbt.so (2013.1, Build901 2013/11/27)

>  <Rbt.Parameter_File>
/export/apps/rDock/src/rDock_2013.1_src/data/scripts/dock_solv.prm

>  <Rbt.Receptor>
prm/pocket_docking_8.prm

>  <SCORE>
-14.5405

>  <SCORE.INTER>
-14.5405

>  <SCORE.INTER.CONST>
1

>  <SCORE.INTER.POLAR>
0

>  <SCORE.INTER.ROT>
0

>  <SCORE.INTER.SOLV>
7.8521

>  <SCORE.INTER.VDW>
-15.911

>  <SCORE.INTER.norm>
-1.45405

>  <SCORE.INTRA>
0

>  <SCORE.INTRA.DIHEDRAL>
0

>  <SCORE.INTRA.DIHEDRAL.0>
0

>  <SCORE.INTRA.POLAR>
0

>  <SCORE.INTRA.POLAR.0>
0

>  <SCORE.INTRA.REPUL>
0

>  <SCORE.INTRA.REPUL.0>
0

>  <SCORE.INTRA.SOLV>
0

>  <SCORE.INTRA.SOLV.lig_0>
-23.8918

>  <SCORE.INTRA.VDW>
0

>  <SCORE.INTRA.VDW.0>
0

>  <SCORE.INTRA.norm>
0

>  <SCORE.RESTR>
0

>  <SCORE.RESTR.CAVITY>
0

>  <SCORE.RESTR.norm>
0

>  <SCORE.SYSTEM>
0

>  <SCORE.SYSTEM.CONST>
0

>  <SCORE.SYSTEM.DIHEDRAL>
0

>  <SCORE.SYSTEM.SOLV>
0

>  <SCORE.SYSTEM.norm>
0

>  <SCORE.heavy>
10

>  <SCORE.norm>
-1.45405

>  <RMSD>
0.746

$$$$
ligand
 OpenBabel11021811513D
libRbt.so/2013.1/901 2013/11/27
 10 11  0  0  0  0  0  0  0  0999 V2000
    5.8676   17.4205    2.6241 N   0  0  0  0  0  0  0  0  0  0  0  0
    6.7203   18.4483    2.5357 C   0  0  0  0  0  0  0  0  0  0  0  0
    7.1166   19.2926    3.4869 N   0  0  0  0  0  0  0  0  0  0  0  0
    6.5327   18.9979    4.6588 C   0  0  0  0  0  0  0  0  0  0  0  0
    5.6367   17.9757    4.9057 C   0  0  0  0  0  0  0  0  0  0  0  0
    5.2968   17.1493    3.8164 C   0  0  0  0  0  0  0  0  0  0  0  0
    4.4451   16.1233    3.9090 N   0  0  0  0  0  0  0  0  0  0  0  0
    5.2451   17.9763    6.2341 N   0  0  0  0  0  0  0  0  0  0  0  0
    5.9017   18.9855    6.7554 C   0  0  0  0  0  0  0  0  0  0  0  0
    6.6976   19.6464    5.8614 N   0  0  0  0  0  0  0  0  0  0  0  0
  1  2  2  0  0  0  0
  1  6  1  0  0  0  0
  2  3  1  0  0  0  0
  3  4  2  0  0  0  0
  4  5  1  0  0  0  0
  4 10  1  0  0  0  0
  5  6  2  0  0  0  0
  5  8  1  0  0  0  0
  6  7  1  0  0  0  0
  8  9  1  0  0  0  0
  9 10  2  0  0  0  0
M  END
>  <CHROM.1>
5.94051736,18.19317121,4.47448820,-1.81649947,0.86256251,1.21758745

>  <Name>
ligand

>  <RI>
0

>  <Rbt.Current_Directory>
/home/itssahil/PROJECTS/Mol_Feturizer/New_Systems/rnas/4XNR

>  <Rbt.Executable>
rbdock ($Id: //depot/dev/client3/rdock/2013.1/src/exe/rbdock.cxx#4 $)

>  <Rbt.Library>
libRbt.so (2013.1, Build901 2013/11/27)

>  <Rbt.Parameter_File>
/export/apps/rDock/src/rDock_2013.1_src/data/scripts/dock_solv.prm

>  <Rbt.Receptor>
prm/pocket_docking_8.prm

>  <SCORE>
-14.5412

>  <SCORE.INTER>
-14.5412

>  <SCORE.INTER.CONST>
1

>  <SCORE.INTER.POLAR>
0

>  <SCORE.INTER.ROT>
0

>  <SCORE.INTER.SOLV>
7.81452

>  <SCORE.INTER.VDW>
-15.8989

>  <SCORE.INTER.norm>
-1.45412

>  <SCORE.INTRA>
0

>  <SCORE.INTRA.DIHEDRAL>
0

>  <SCORE.INTRA.DIHEDRAL.0>
0

>  <SCORE.INTRA.POLAR>
0

>  <SCORE.INTRA.POLAR.0>
0

>  <SCORE.INTRA.REPUL>
0

>  <SCORE.INTRA.REPUL.0>
0

>  <SCORE.INTRA.SOLV>
0

>  <SCORE.INTRA.SOLV.lig_0>
-23.8918

>  <SCORE.INTRA.VDW>
0

>  <SCORE.INTRA.VDW.0>
0

>  <SCORE.INTRA.norm>
0

>  <SCORE.RESTR>
0

>  <SCORE.RESTR.CAVITY>
0

>  <SCORE.RESTR.norm>
0

>  <SCORE.SYSTEM>
0

>  <SCORE.SYSTEM.CONST>
0

>  <SCORE.SYSTEM.DIHEDRAL>
0

>  <SCORE.SYSTEM.SOLV>
0

>  <SCORE.SYSTEM.norm>
0

>  <SCORE.heavy>
10

>  <SCORE.norm>
-1.45412

>  <RMSD>
0.746

$$$$
ligand
 OpenBabel11021811513D
libRbt.so/2013.1/901 2013/11/27
 10 11  0  0  0  0  0  0  0  0999 V2000
    5.9269   17.3988    2.6263 N   0  0  0  0  0  0  0  0  0  0  0  0
    6.8405   18.3751    2.5682 C   0  0  0  0  0  0  0  0  0  0  0  0
    7.2524   19.1959    3.5333 N   0  0  0  0  0  0  0  0  0  0  0  0
    6.6124   18.9369    4.6842 C   0  0  0  0  0  0  0  0  0  0  0  0
    5.6505   17.9688    4.8992 C   0  0  0  0  0  0  0  0  0  0  0  0
    5.3007   17.1624    3.7980 C   0  0  0  0  0  0  0  0  0  0  0  0
    4.3880   16.1878    3.8604 N   0  0  0  0  0  0  0  0  0  0  0  0
    5.2143   17.9935    6.2134 N   0  0  0  0  0  0  0  0  0  0  0  0
    5.9103   18.9633    6.7579 C   0  0  0  0  0  0  0  0  0  0  0  0
    6.7735   19.5759    5.8924 N   0  0  0  0  0  0  0  0  0  0  0  0
  1  2  2  0  0  0  0
  1  6  1  0  0  0  0
  2  3  1  0  0  0  0
  3  4  2  0  0  0  0
  4  5  1  0  0  0  0
  4 10  1  0  0  0  0
  5  6  2  0  0  0  0
  5  8  1  0  0  0  0
  6  7  1  0  0  0  0
  8  9  1  0  0  0  0
  9 10  2  0  0  0  0
M  END
>  <CHROM.1>
5.98110659,18.16774524,4.47886374,-1.79927379,0.79595717,1.20485382

>  <Name>
ligand

>  <RI>
0

>  <Rbt.Current_Directory>
/home/itssahil/PROJECTS/Mol_Feturizer/New_Systems/rnas/4XNR

>  <Rbt.Executable>
rbdock ($Id: //depot/dev/client3/rdock/2013.1/src/exe/rbdock.cxx#4 $)

>  <Rbt.Library>
libRbt.so (2013.1, Build901 2013/11/27)

>  <Rbt.Parameter_File>
/export/apps/rDock/src/rDock_2013.1_src/data/scripts/dock_solv.prm

>  <Rbt.Receptor>
prm/blind_docking_100.prm

>  <SCORE>
-14.5912

>  <SCORE.INTER>
-14.5912

>  <SCORE.INTER.CONST>
1

>  <SCORE.INTER.POLAR>
0

>  <SCORE.INTER.ROT>
0

>  <SCORE.INTER.SOLV>
7.44561

>  <SCORE.INTER.VDW>
-15.8093

>  <SCORE.INTER.norm>
-1.45912

>  <SCORE.INTRA>
0

>  <SCORE.INTRA.DIHEDRAL>
0

>  <SCORE.INTRA.DIHEDRAL.0>
0

>  <SCORE.INTRA.POLAR>
0

>  <SCORE.INTRA.POLAR.0>
0

>  <SCORE.INTRA.REPUL>
0

>  <SCORE.INTRA.REPUL.0>
0

>  <SCORE.INTRA.SOLV>
0

>  <SCORE.INTRA.SOLV.lig_0>
-23.8918

>  <SCORE.INTRA.VDW>
0

>  <SCORE.INTRA.VDW.0>
0

>  <SCORE.INTRA.norm>
0

>  <SCORE.RESTR>
0

>  <SCORE.RESTR.CAVITY>
0

>  <SCORE.RESTR.norm>
0

>  <SCORE.SYSTEM>
0

>  <SCORE.SYSTEM.CONST>
0

>  <SCORE.SYSTEM.DIHEDRAL>
0

>  <SCORE.SYSTEM.SOLV>
0

>  <SCORE.SYSTEM.norm>
0

>  <SCORE.heavy>
10

>  <SCORE.norm>
-1.45912

>  <RMSD>
0.747

$$$$
ligand
 OpenBabel11021811513D
libRbt.so/2013.1/901 2013/11/27
 10 11  0  0  0  0  0  0  0  0999 V2000
    5.8697   17.5060    2.5737 N   0  0  0  0  0  0  0  0  0  0  0  0
    6.7273   18.5314    2.5084 C   0  0  0  0  0  0  0  0  0  0  0  0
    7.1259   19.3536    3.4778 N   0  0  0  0  0  0  0  0  0  0  0  0
    6.5386   19.0371    4.6423 C   0  0  0  0  0  0  0  0  0  0  0  0
    5.6374   18.0141    4.8661 C   0  0  0  0  0  0  0  0  0  0  0  0
    5.2955   17.2124    3.7591 C   0  0  0  0  0  0  0  0  0  0  0  0
    4.4388   16.1888    3.8288 N   0  0  0  0  0  0  0  0  0  0  0  0
    5.2435   17.9886    6.1937 N   0  0  0  0  0  0  0  0  0  0  0  0
    5.9040   18.9835    6.7372 C   0  0  0  0  0  0  0  0  0  0  0  0
    6.7045   19.6593    5.8586 N   0  0  0  0  0  0  0  0  0  0  0  0
  1  2  2  0  0  0  0
  1  6  1  0  0  0  0
  2  3  1  0  0  0  0
  3  4  2  0  0  0  0
  4  5  1  0  0  0  0
  4 10  1  0  0  0  0
  5  6  2  0  0  0  0
  5  8  1  0  0  0  0
  6  7  1  0  0  0  0
  8  9  1  0  0  0  0
  9 10  2  0  0  0  0
M  END
>  <CHROM.1>
5.94301219,18.23916385,4.44012092,-1.81652350,0.85755990,1.23866126

>  <Name>
ligand

>  <RI>
0

>  <Rbt.Current_Directory>
/home/itssahil/PROJECTS/Mol_Feturizer/New_Systems/rnas/4XNR

>  <Rbt.Executable>
rbdock ($Id: //depot/dev/client3/rdock/2013.1/src/exe/rbdock.cxx#4 $)

>  <Rbt.Library>
libRbt.so (2013.1, Build901 2013/11/27)

>  <Rbt.Parameter_File>
/export/apps/rDock/src/rDock_2013.1_src/data/scripts/dock_solv.prm

>  <Rbt.Receptor>
prm/blind_docking_40.prm

>  <SCORE>
-14.529

>  <SCORE.INTER>
-14.529

>  <SCORE.INTER.CONST>
1

>  <SCORE.INTER.POLAR>
0

>  <SCORE.INTER.ROT>
0

>  <SCORE.INTER.SOLV>
7.55098

>  <SCORE.INTER.VDW>
-15.803

>  <SCORE.INTER.norm>
-1.4529

>  <SCORE.INTRA>
0

>  <SCORE.INTRA.DIHEDRAL>
0

>  <SCORE.INTRA.DIHEDRAL.0>
0

>  <SCORE.INTRA.POLAR>
0

>  <SCORE.INTRA.POLAR.0>
0

>  <SCORE.INTRA.REPUL>
0

>  <SCORE.INTRA.REPUL.0>
0

>  <SCORE.INTRA.SOLV>
0

>  <SCORE.INTRA.SOLV.lig_0>
-23.8918

>  <SCORE.INTRA.VDW>
0

>  <SCORE.INTRA.VDW.0>
0

>  <SCORE.INTRA.norm>
0

>  <SCORE.RESTR>
0

>  <SCORE.RESTR.CAVITY>
0

>  <SCORE.RESTR.norm>
0

>  <SCORE.SYSTEM>
0

>  <SCORE.SYSTEM.CONST>
0

>  <SCORE.SYSTEM.DIHEDRAL>
0

>  <SCORE.SYSTEM.SOLV>
0

>  <SCORE.SYSTEM.norm>
0

>  <SCORE.heavy>
10

>  <SCORE.norm>
-1.4529

>  <RMSD>
0.747

$$$$
ligand
 OpenBabel11021811513D
libRbt.so/2013.1/901 2013/11/27
 10 11  0  0  0  0  0  0  0  0999 V2000
    5.8831   17.4132    2.6270 N   0  0  0  0  0  0  0  0  0  0  0  0
    6.7672   18.4148    2.5460 C   0  0  0  0  0  0  0  0  0  0  0  0
    7.1783   19.2490    3.4999 N   0  0  0  0  0  0  0  0  0  0  0  0
    6.5731   18.9746    4.6659 C   0  0  0  0  0  0  0  0  0  0  0  0
    5.6442   17.9802    4.9049 C   0  0  0  0  0  0  0  0  0  0  0  0
    5.2915   17.1619    3.8135 C   0  0  0  0  0  0  0  0  0  0  0  0
    4.4084   16.1621    3.8988 N   0  0  0  0  0  0  0  0  0  0  0  0
    5.2383   17.9956    6.2290 N   0  0  0  0  0  0  0  0  0  0  0  0
    5.9193   18.9858    6.7555 C   0  0  0  0  0  0  0  0  0  0  0  0
    6.7443   19.6205    5.8689 N   0  0  0  0  0  0  0  0  0  0  0  0
  1  2  2  0  0  0  0
  1  6  1  0  0  0  0
  2  3  1  0  0  0  0
  3  4  2  0  0  0  0
  4  5  1  0  0  0  0
  4 10  1  0  0  0  0
  5  6  2  0  0  0  0
  5  8  1  0  0  0  0
  6  7  1  0  0  0  0
  8  9  1  0  0  0  0
  9 10  2  0  0  0  0
M  END
>  <CHROM.1>
5.95907330,18.18751178,4.47663336,-1.81676333,0.83063938,1.21568385

>  <Name>
ligand

>  <RI>
0

>  <Rbt.Current_Directory>
/home/itssahil/PROJECTS/Mol_Feturizer/New_Systems/rnas/4XNR

>  <Rbt.Executable>
rbdock ($Id: //depot/dev/client3/rdock/2013.1/src/exe/rbdock.cxx#4 $)

>  <Rbt.Library>
libRbt.so (2013.1, Build901 2013/11/27)

>  <Rbt.Parameter_File>
/export/apps/rDock/src/rDock_2013.1_src/data/scripts/dock_solv.prm

>  <Rbt.Receptor>
prm/blind_docking_40.prm

>  <SCORE>
-14.564

>  <SCORE.INTER>
-14.564

>  <SCORE.INTER.CONST>
1

>  <SCORE.INTER.POLAR>
0

>  <SCORE.INTER.ROT>
0

>  <SCORE.INTER.SOLV>
7.63341

>  <SCORE.INTER.VDW>
-15.8538

>  <SCORE.INTER.norm>
-1.4564

>  <SCORE.INTRA>
0

>  <SCORE.INTRA.DIHEDRAL>
0

>  <SCORE.INTRA.DIHEDRAL.0>
0

>  <SCORE.INTRA.POLAR>
0

>  <SCORE.INTRA.POLAR.0>
0

>  <SCORE.INTRA.REPUL>
0

>  <SCORE.INTRA.REPUL.0>
0

>  <SCORE.INTRA.SOLV>
0

>  <SCORE.INTRA.SOLV.lig_0>
-23.8918

>  <SCORE.INTRA.VDW>
0

>  <SCORE.INTRA.VDW.0>
0

>  <SCORE.INTRA.norm>
0

>  <SCORE.RESTR>
0

>  <SCORE.RESTR.CAVITY>
0

>  <SCORE.RESTR.norm>
0

>  <SCORE.SYSTEM>
0

>  <SCORE.SYSTEM.CONST>
0

>  <SCORE.SYSTEM.DIHEDRAL>
0

>  <SCORE.SYSTEM.SOLV>
0

>  <SCORE.SYSTEM.norm>
0

>  <SCORE.heavy>
10

>  <SCORE.norm>
-1.4564

>  <RMSD>
0.747

$$$$
ligand
 OpenBabel11021811513D
libRbt.so/2013.1/901 2013/11/27
 10 11  0  0  0  0  0  0  0  0999 V2000
    5.8583   17.4217    2.6247 N   0  0  0  0  0  0  0  0  0  0  0  0
    6.6972   18.4603    2.5305 C   0  0  0  0  0  0  0  0  0  0  0  0
    7.0876   19.3108    3.4786 N   0  0  0  0  0  0  0  0  0  0  0  0
    6.5138   19.0102    4.6540 C   0  0  0  0  0  0  0  0  0  0  0  0
    5.6323   17.9768    4.9068 C   0  0  0  0  0  0  0  0  0  0  0  0
    5.2973   17.1447    3.8204 C   0  0  0  0  0  0  0  0  0  0  0  0
    4.4593   16.1080    3.9188 N   0  0  0  0  0  0  0  0  0  0  0  0
    5.2478   17.9742    6.2374 N   0  0  0  0  0  0  0  0  0  0  0  0
    5.8941   18.9924    6.7539 C   0  0  0  0  0  0  0  0  0  0  0  0
    6.6767   19.6623    5.8548 N   0  0  0  0  0  0  0  0  0  0  0  0
  1  2  2  0  0  0  0
  1  6  1  0  0  0  0
  2  3  1  0  0  0  0
  3  4  2  0  0  0  0
  4  5  1  0  0  0  0
  4 10  1  0  0  0  0
  5  6  2  0  0  0  0
  5  8  1  0  0  0  0
  6  7  1  0  0  0  0
  8  9  1  0  0  0  0
  9 10  2  0  0  0  0
M  END
>  <CHROM.1>
5.93103674,18.19765113,4.47377684,-1.81732030,0.87645387,1.21693053

>  <Name>
ligand

>  <RI>
0

>  <Rbt.Current_Directory>
/home/itssahil/PROJECTS/Mol_Feturizer/New_Systems/rnas/4XNR

>  <Rbt.Executable>
rbdock ($Id: //depot/dev/client3/rdock/2013.1/src/exe/rbdock.cxx#4 $)

>  <Rbt.Library>
libRbt.so (2013.1, Build901 2013/11/27)

>  <Rbt.Parameter_File>
/export/apps/rDock/src/rDock_2013.1_src/data/scripts/dock_solv.prm

>  <Rbt.Receptor>
prm/blind_docking_60.prm

>  <SCORE>
-14.5339

>  <SCORE.INTER>
-14.5339

>  <SCORE.INTER.CONST>
1

>  <SCORE.INTER.POLAR>
0

>  <SCORE.INTER.ROT>
0

>  <SCORE.INTER.SOLV>
7.9046

>  <SCORE.INTER.VDW>
-15.9241

>  <SCORE.INTER.norm>
-1.45339

>  <SCORE.INTRA>
0

>  <SCORE.INTRA.DIHEDRAL>
0

>  <SCORE.INTRA.DIHEDRAL.0>
0

>  <SCORE.INTRA.POLAR>
0

>  <SCORE.INTRA.POLAR.0>
0

>  <SCORE.INTRA.REPUL>
0

>  <SCORE.INTRA.REPUL.0>
0

>  <SCORE.INTRA.SOLV>
0

>  <SCORE.INTRA.SOLV.lig_0>
-23.8918

>  <SCORE.INTRA.VDW>
0

>  <SCORE.INTRA.VDW.0>
0

>  <SCORE.INTRA.norm>
0

>  <SCORE.RESTR>
0

>  <SCORE.RESTR.CAVITY>
0

>  <SCORE.RESTR.norm>
0

>  <SCORE.SYSTEM>
0

>  <SCORE.SYSTEM.CONST>
0

>  <SCORE.SYSTEM.DIHEDRAL>
0

>  <SCORE.SYSTEM.SOLV>
0

>  <SCORE.SYSTEM.norm>
0

>  <SCORE.heavy>
10

>  <SCORE.norm>
-1.45339

>  <RMSD>
0.747

$$$$
ligand
 OpenBabel11021811513D
libRbt.so/2013.1/901 2013/11/27
 10 11  0  0  0  0  0  0  0  0999 V2000
    5.9036   17.4042    2.6283 N   0  0  0  0  0  0  0  0  0  0  0  0
    6.7988   18.3967    2.5590 C   0  0  0  0  0  0  0  0  0  0  0  0
    7.2062   19.2262    3.5186 N   0  0  0  0  0  0  0  0  0  0  0  0
    6.5835   18.9574    4.6767 C   0  0  0  0  0  0  0  0  0  0  0  0
    5.6417   17.9724    4.9033 C   0  0  0  0  0  0  0  0  0  0  0  0
    5.2945   17.1583    3.8070 C   0  0  0  0  0  0  0  0  0  0  0  0
    4.4003   16.1675    3.8805 N   0  0  0  0  0  0  0  0  0  0  0  0
    5.2192   17.9912    6.2221 N   0  0  0  0  0  0  0  0  0  0  0  0
    5.9035   18.9742    6.7578 C   0  0  0  0  0  0  0  0  0  0  0  0
    6.7461   19.6010    5.8822 N   0  0  0  0  0  0  0  0  0  0  0  0
  1  2  2  0  0  0  0
  1  6  1  0  0  0  0
  2  3  1  0  0  0  0
  3  4  2  0  0  0  0
  4  5  1  0  0  0  0
  4 10  1  0  0  0  0
  5  6  2  0  0  0  0
  5  8  1  0  0  0  0
  6  7  1  0  0  0  0
  8  9  1  0  0  0  0
  9 10  2  0  0  0  0
M  END
>  <CHROM.1>
5.96401794,18.17670129,4.47916493,-1.80459773,0.81666266,1.20733052

>  <Name>
ligand

>  <RI>
0

>  <Rbt.Current_Directory>
/home/itssahil/PROJECTS/Mol_Feturizer/New_Systems/rnas/4XNR

>  <Rbt.Executable>
rbdock ($Id: //depot/dev/client3/rdock/2013.1/src/exe/rbdock.cxx#4 $)

>  <Rbt.Library>
libRbt.so (2013.1, Build901 2013/11/27)

>  <Rbt.Parameter_File>
/export/apps/rDock/src/rDock_2013.1_src/data/scripts/dock_solv.prm

>  <Rbt.Receptor>
prm/blind_docking_60.prm

>  <SCORE>
-14.5844

>  <SCORE.INTER>
-14.5844

>  <SCORE.INTER.CONST>
1

>  <SCORE.INTER.POLAR>
0

>  <SCORE.INTER.ROT>
0

>  <SCORE.INTER.SOLV>
7.5524

>  <SCORE.INTER.VDW>
-15.8404

>  <SCORE.INTER.norm>
-1.45844

>  <SCORE.INTRA>
0

>  <SCORE.INTRA.DIHEDRAL>
0

>  <SCORE.INTRA.DIHEDRAL.0>
0

>  <SCORE.INTRA.POLAR>
0

>  <SCORE.INTRA.POLAR.0>
0

>  <SCORE.INTRA.REPUL>
0

>  <SCORE.INTRA.REPUL.0>
0

>  <SCORE.INTRA.SOLV>
0

>  <SCORE.INTRA.SOLV.lig_0>
-23.8918

>  <SCORE.INTRA.VDW>
0

>  <SCORE.INTRA.VDW.0>
0

>  <SCORE.INTRA.norm>
0

>  <SCORE.RESTR>
0

>  <SCORE.RESTR.CAVITY>
0

>  <SCORE.RESTR.norm>
0

>  <SCORE.SYSTEM>
0

>  <SCORE.SYSTEM.CONST>
0

>  <SCORE.SYSTEM.DIHEDRAL>
0

>  <SCORE.SYSTEM.SOLV>
0

>  <SCORE.SYSTEM.norm>
0

>  <SCORE.heavy>
10

>  <SCORE.norm>
-1.45844

>  <RMSD>
0.747

$$$$
ligand
 OpenBabel11021811513D
libRbt.so/2013.1/901 2013/11/27
 10 11  0  0  0  0  0  0  0  0999 V2000
    5.8792   17.4162    2.6272 N   0  0  0  0  0  0  0  0  0  0  0  0
    6.7363   18.4405    2.5400 C   0  0  0  0  0  0  0  0  0  0  0  0
    7.1310   19.2862    3.4907 N   0  0  0  0  0  0  0  0  0  0  0  0
    6.5401   18.9973    4.6605 C   0  0  0  0  0  0  0  0  0  0  0  0
    5.6391   17.9792    4.9059 C   0  0  0  0  0  0  0  0  0  0  0  0
    5.3014   17.1508    3.8175 C   0  0  0  0  0  0  0  0  0  0  0  0
    4.4453   16.1283    3.9089 N   0  0  0  0  0  0  0  0  0  0  0  0
    5.2408   17.9853    6.2324 N   0  0  0  0  0  0  0  0  0  0  0  0
    5.8987   18.9936    6.7539 C   0  0  0  0  0  0  0  0  0  0  0  0
    6.7015   19.6488    5.8619 N   0  0  0  0  0  0  0  0  0  0  0  0
  1  2  2  0  0  0  0
  1  6  1  0  0  0  0
  2  3  1  0  0  0  0
  3  4  2  0  0  0  0
  4  5  1  0  0  0  0
  4 10  1  0  0  0  0
  5  6  2  0  0  0  0
  5  8  1  0  0  0  0
  6  7  1  0  0  0  0
  8  9  1  0  0  0  0
  9 10  2  0  0  0  0
M  END
>  <CHROM.1>
5.94584526,18.19420536,4.47562350,-1.81135033,0.85724346,1.21065506

>  <Name>
ligand

>  <RI>
0

>  <Rbt.Current_Directory>
/home/itssahil/PROJECTS/Mol_Feturizer/New_Systems/rnas/4XNR

>  <Rbt.Executable>
rbdock ($Id: //depot/dev/client3/rdock/2013.1/src/exe/rbdock.cxx#4 $)

>  <Rbt.Library>
libRbt.so (2013.1, Build901 2013/11/27)

>  <Rbt.Parameter_File>
/export/apps/rDock/src/rDock_2013.1_src/data/scripts/dock_solv.prm

>  <Rbt.Receptor>
prm/pocket_docking_4.prm

>  <SCORE>
-14.5406

>  <SCORE.INTER>
-14.5406

>  <SCORE.INTER.CONST>
1

>  <SCORE.INTER.POLAR>
0

>  <SCORE.INTER.ROT>
0

>  <SCORE.INTER.SOLV>
7.80317

>  <SCORE.INTER.VDW>
-15.8948

>  <SCORE.INTER.norm>
-1.45406

>  <SCORE.INTRA>
0

>  <SCORE.INTRA.DIHEDRAL>
0

>  <SCORE.INTRA.DIHEDRAL.0>
0

>  <SCORE.INTRA.POLAR>
0

>  <SCORE.INTRA.POLAR.0>
0

>  <SCORE.INTRA.REPUL>
0

>  <SCORE.INTRA.REPUL.0>
0

>  <SCORE.INTRA.SOLV>
0

>  <SCORE.INTRA.SOLV.lig_0>
-23.8918

>  <SCORE.INTRA.VDW>
0

>  <SCORE.INTRA.VDW.0>
0

>  <SCORE.INTRA.norm>
0

>  <SCORE.RESTR>
0

>  <SCORE.RESTR.CAVITY>
0

>  <SCORE.RESTR.norm>
0

>  <SCORE.SYSTEM>
0

>  <SCORE.SYSTEM.CONST>
0

>  <SCORE.SYSTEM.DIHEDRAL>
0

>  <SCORE.SYSTEM.SOLV>
0

>  <SCORE.SYSTEM.norm>
0

>  <SCORE.heavy>
10

>  <SCORE.norm>
-1.45406

>  <RMSD>
0.747

$$$$
ligand
 OpenBabel11021811513D
libRbt.so/2013.1/901 2013/11/27
 10 11  0  0  0  0  0  0  0  0999 V2000
    5.8712   17.4213    2.6234 N   0  0  0  0  0  0  0  0  0  0  0  0
    6.7351   18.4401    2.5394 C   0  0  0  0  0  0  0  0  0  0  0  0
    7.1367   19.2791    3.4931 N   0  0  0  0  0  0  0  0  0  0  0  0
    6.5454   18.9893    4.6625 C   0  0  0  0  0  0  0  0  0  0  0  0
    5.6377   17.9763    4.9048 C   0  0  0  0  0  0  0  0  0  0  0  0
    5.2931   17.1548    3.8133 C   0  0  0  0  0  0  0  0  0  0  0  0
    4.4302   16.1378    3.9016 N   0  0  0  0  0  0  0  0  0  0  0  0
    5.2411   17.9796    6.2318 N   0  0  0  0  0  0  0  0  0  0  0  0
    5.9065   18.9812    6.7567 C   0  0  0  0  0  0  0  0  0  0  0  0
    6.7127   19.6346    5.8664 N   0  0  0  0  0  0  0  0  0  0  0  0
  1  2  2  0  0  0  0
  1  6  1  0  0  0  0
  2  3  1  0  0  0  0
  3  4  2  0  0  0  0
  4  5  1  0  0  0  0
  4 10  1  0  0  0  0
  5  6  2  0  0  0  0
  5  8  1  0  0  0  0
  6  7  1  0  0  0  0
  8  9  1  0  0  0  0
  9 10  2  0  0  0  0
M  END
>  <CHROM.1>
5.94539684,18.19105254,4.47500101,-1.81676108,0.85130928,1.21892102

>  <Name>
ligand

>  <RI>
0

>  <Rbt.Current_Directory>
/home/itssahil/PROJECTS/Mol_Feturizer/New_Systems/rnas/4XNR

>  <Rbt.Executable>
rbdock ($Id: //depot/dev/client3/rdock/2013.1/src/exe/rbdock.cxx#4 $)

>  <Rbt.Library>
libRbt.so (2013.1, Build901 2013/11/27)

>  <Rbt.Parameter_File>
/export/apps/rDock/src/rDock_2013.1_src/data/scripts/dock_solv.prm

>  <Rbt.Receptor>
prm/pocket_docking_6.prm

>  <SCORE>
-14.543

>  <SCORE.INTER>
-14.543

>  <SCORE.INTER.CONST>
1

>  <SCORE.INTER.POLAR>
0

>  <SCORE.INTER.ROT>
0

>  <SCORE.INTER.SOLV>
7.73304

>  <SCORE.INTER.VDW>
-15.873

>  <SCORE.INTER.norm>
-1.4543

>  <SCORE.INTRA>
0

>  <SCORE.INTRA.DIHEDRAL>
0

>  <SCORE.INTRA.DIHEDRAL.0>
0

>  <SCORE.INTRA.POLAR>
0

>  <SCORE.INTRA.POLAR.0>
0

>  <SCORE.INTRA.REPUL>
0

>  <SCORE.INTRA.REPUL.0>
0

>  <SCORE.INTRA.SOLV>
0

>  <SCORE.INTRA.SOLV.lig_0>
-23.8918

>  <SCORE.INTRA.VDW>
0

>  <SCORE.INTRA.VDW.0>
0

>  <SCORE.INTRA.norm>
0

>  <SCORE.RESTR>
0

>  <SCORE.RESTR.CAVITY>
0

>  <SCORE.RESTR.norm>
0

>  <SCORE.SYSTEM>
0

>  <SCORE.SYSTEM.CONST>
0

>  <SCORE.SYSTEM.DIHEDRAL>
0

>  <SCORE.SYSTEM.SOLV>
0

>  <SCORE.SYSTEM.norm>
0

>  <SCORE.heavy>
10

>  <SCORE.norm>
-1.4543

>  <RMSD>
0.747

$$$$
ligand
 OpenBabel11021811513D
libRbt.so/2013.1/901 2013/11/27
 10 11  0  0  0  0  0  0  0  0999 V2000
    5.9125   17.4148    2.6256 N   0  0  0  0  0  0  0  0  0  0  0  0
    6.7938   18.4191    2.5482 C   0  0  0  0  0  0  0  0  0  0  0  0
    7.1974   19.2554    3.5034 N   0  0  0  0  0  0  0  0  0  0  0  0
    6.5871   18.9801    4.6666 C   0  0  0  0  0  0  0  0  0  0  0  0
    5.6602   17.9830    4.9017 C   0  0  0  0  0  0  0  0  0  0  0  0
    5.3157   17.1627    3.8094 C   0  0  0  0  0  0  0  0  0  0  0  0
    4.4353   16.1602    3.8911 N   0  0  0  0  0  0  0  0  0  0  0  0
    5.2476   17.9983    6.2238 N   0  0  0  0  0  0  0  0  0  0  0  0
    5.9227   18.9911    6.7528 C   0  0  0  0  0  0  0  0  0  0  0  0
    6.7502   19.6277    5.8699 N   0  0  0  0  0  0  0  0  0  0  0  0
  1  2  2  0  0  0  0
  1  6  1  0  0  0  0
  2  3  1  0  0  0  0
  3  4  2  0  0  0  0
  4  5  1  0  0  0  0
  4 10  1  0  0  0  0
  5  6  2  0  0  0  0
  5  8  1  0  0  0  0
  6  7  1  0  0  0  0
  8  9  1  0  0  0  0
  9 10  2  0  0  0  0
M  END
>  <CHROM.1>
5.97659248,18.19096728,4.47491031,-1.80806044,0.83182728,1.20837618

>  <Name>
ligand

>  <RI>
0

>  <Rbt.Current_Directory>
/home/itssahil/PROJECTS/Mol_Feturizer/New_Systems/rnas/4XNR

>  <Rbt.Executable>
rbdock ($Id: //depot/dev/client3/rdock/2013.1/src/exe/rbdock.cxx#4 $)

>  <Rbt.Library>
libRbt.so (2013.1, Build901 2013/11/27)

>  <Rbt.Parameter_File>
/export/apps/rDock/src/rDock_2013.1_src/data/scripts/dock_solv.prm

>  <Rbt.Receptor>
prm/pocket_docking_7.prm

>  <SCORE>
-14.5813

>  <SCORE.INTER>
-14.5813

>  <SCORE.INTER.CONST>
1

>  <SCORE.INTER.POLAR>
0

>  <SCORE.INTER.ROT>
0

>  <SCORE.INTER.SOLV>
7.66283

>  <SCORE.INTER.VDW>
-15.8751

>  <SCORE.INTER.norm>
-1.45813

>  <SCORE.INTRA>
0

>  <SCORE.INTRA.DIHEDRAL>
0

>  <SCORE.INTRA.DIHEDRAL.0>
0

>  <SCORE.INTRA.POLAR>
0

>  <SCORE.INTRA.POLAR.0>
0

>  <SCORE.INTRA.REPUL>
0

>  <SCORE.INTRA.REPUL.0>
0

>  <SCORE.INTRA.SOLV>
0

>  <SCORE.INTRA.SOLV.lig_0>
-23.8918

>  <SCORE.INTRA.VDW>
0

>  <SCORE.INTRA.VDW.0>
0

>  <SCORE.INTRA.norm>
0

>  <SCORE.RESTR>
0

>  <SCORE.RESTR.CAVITY>
0

>  <SCORE.RESTR.norm>
0

>  <SCORE.SYSTEM>
0

>  <SCORE.SYSTEM.CONST>
0

>  <SCORE.SYSTEM.DIHEDRAL>
0

>  <SCORE.SYSTEM.SOLV>
0

>  <SCORE.SYSTEM.norm>
0

>  <SCORE.heavy>
10

>  <SCORE.norm>
-1.45813

>  <RMSD>
0.747

$$$$
ligand
 OpenBabel11021811513D
libRbt.so/2013.1/901 2013/11/27
 10 11  0  0  0  0  0  0  0  0999 V2000
    5.8894   17.4084    2.6292 N   0  0  0  0  0  0  0  0  0  0  0  0
    6.7661   18.4166    2.5492 C   0  0  0  0  0  0  0  0  0  0  0  0
    7.1679   19.2555    3.5029 N   0  0  0  0  0  0  0  0  0  0  0  0
    6.5613   18.9784    4.6675 C   0  0  0  0  0  0  0  0  0  0  0  0
    5.6393   17.9774    4.9054 C   0  0  0  0  0  0  0  0  0  0  0  0
    5.2961   17.1546    3.8144 C   0  0  0  0  0  0  0  0  0  0  0  0
    4.4204   16.1483    3.8987 N   0  0  0  0  0  0  0  0  0  0  0  0
    5.2293   17.9919    6.2282 N   0  0  0  0  0  0  0  0  0  0  0  0
    5.9010   18.9881    6.7551 C   0  0  0  0  0  0  0  0  0  0  0  0
    6.7239   19.6277    5.8700 N   0  0  0  0  0  0  0  0  0  0  0  0
  1  2  2  0  0  0  0
  1  6  1  0  0  0  0
  2  3  1  0  0  0  0
  3  4  2  0  0  0  0
  4  5  1  0  0  0  0
  4 10  1  0  0  0  0
  5  6  2  0  0  0  0
  5  8  1  0  0  0  0
  6  7  1  0  0  0  0
  8  9  1  0  0  0  0
  9 10  2  0  0  0  0
M  END
>  <CHROM.1>
5.95384802,18.18638030,4.47773137,-1.80854884,0.83670066,1.20791348

>  <Name>
ligand

>  <RI>
0

>  <Rbt.Current_Directory>
/home/itssahil/PROJECTS/Mol_Feturizer/New_Systems/rnas/4XNR

>  <Rbt.Executable>
rbdock ($Id: //depot/dev/client3/rdock/2013.1/src/exe/rbdock.cxx#4 $)

>  <Rbt.Library>
libRbt.so (2013.1, Build901 2013/11/27)

>  <Rbt.Parameter_File>
/export/apps/rDock/src/rDock_2013.1_src/data/scripts/dock_solv.prm

>  <Rbt.Receptor>
prm/pocket_docking_7.prm

>  <SCORE>
-14.5662

>  <SCORE.INTER>
-14.5662

>  <SCORE.INTER.CONST>
1

>  <SCORE.INTER.POLAR>
0

>  <SCORE.INTER.ROT>
0

>  <SCORE.INTER.SOLV>
7.68242

>  <SCORE.INTER.VDW>
-15.8716

>  <SCORE.INTER.norm>
-1.45662

>  <SCORE.INTRA>
0

>  <SCORE.INTRA.DIHEDRAL>
0

>  <SCORE.INTRA.DIHEDRAL.0>
0

>  <SCORE.INTRA.POLAR>
0

>  <SCORE.INTRA.POLAR.0>
0

>  <SCORE.INTRA.REPUL>
0

>  <SCORE.INTRA.REPUL.0>
0

>  <SCORE.INTRA.SOLV>
0

>  <SCORE.INTRA.SOLV.lig_0>
-23.8918

>  <SCORE.INTRA.VDW>
0

>  <SCORE.INTRA.VDW.0>
0

>  <SCORE.INTRA.norm>
0

>  <SCORE.RESTR>
0

>  <SCORE.RESTR.CAVITY>
0

>  <SCORE.RESTR.norm>
0

>  <SCORE.SYSTEM>
0

>  <SCORE.SYSTEM.CONST>
0

>  <SCORE.SYSTEM.DIHEDRAL>
0

>  <SCORE.SYSTEM.SOLV>
0

>  <SCORE.SYSTEM.norm>
0

>  <SCORE.heavy>
10

>  <SCORE.norm>
-1.45662

>  <RMSD>
0.747

$$$$
ligand
 OpenBabel11021811513D
libRbt.so/2013.1/901 2013/11/27
 10 11  0  0  0  0  0  0  0  0999 V2000
    5.9025   17.4056    2.6275 N   0  0  0  0  0  0  0  0  0  0  0  0
    6.7971   18.3988    2.5592 C   0  0  0  0  0  0  0  0  0  0  0  0
    7.2049   19.2268    3.5199 N   0  0  0  0  0  0  0  0  0  0  0  0
    6.5835   18.9555    4.6781 C   0  0  0  0  0  0  0  0  0  0  0  0
    5.6423   17.9697    4.9038 C   0  0  0  0  0  0  0  0  0  0  0  0
    5.2946   17.1573    3.8064 C   0  0  0  0  0  0  0  0  0  0  0  0
    4.4010   16.1659    3.8790 N   0  0  0  0  0  0  0  0  0  0  0  0
    5.2211   17.9859    6.2231 N   0  0  0  0  0  0  0  0  0  0  0  0
    5.9053   18.9683    6.7599 C   0  0  0  0  0  0  0  0  0  0  0  0
    6.7468   19.5971    5.8846 N   0  0  0  0  0  0  0  0  0  0  0  0
  1  2  2  0  0  0  0
  1  6  1  0  0  0  0
  2  3  1  0  0  0  0
  3  4  2  0  0  0  0
  4  5  1  0  0  0  0
  4 10  1  0  0  0  0
  5  6  2  0  0  0  0
  5  8  1  0  0  0  0
  6  7  1  0  0  0  0
  8  9  1  0  0  0  0
  9 10  2  0  0  0  0
M  END
>  <CHROM.1>
5.96418694,18.17488194,4.47974431,-1.80558375,0.81750318,1.20982576

>  <Name>
ligand

>  <RI>
0

>  <Rbt.Current_Directory>
/home/itssahil/PROJECTS/Mol_Feturizer/New_Systems/rnas/4XNR

>  <Rbt.Executable>
rbdock ($Id: //depot/dev/client3/rdock/2013.1/src/exe/rbdock.cxx#4 $)

>  <Rbt.Library>
libRbt.so (2013.1, Build901 2013/11/27)

>  <Rbt.Parameter_File>
/export/apps/rDock/src/rDock_2013.1_src/data/scripts/dock_solv.prm

>  <Rbt.Receptor>
prm/pocket_docking_8.prm

>  <SCORE>
-14.5847

>  <SCORE.INTER>
-14.5847

>  <SCORE.INTER.CONST>
1

>  <SCORE.INTER.POLAR>
0

>  <SCORE.INTER.ROT>
0

>  <SCORE.INTER.SOLV>
7.55317

>  <SCORE.INTER.VDW>
-15.8409

>  <SCORE.INTER.norm>
-1.45847

>  <SCORE.INTRA>
0

>  <SCORE.INTRA.DIHEDRAL>
0

>  <SCORE.INTRA.DIHEDRAL.0>
0

>  <SCORE.INTRA.POLAR>
0

>  <SCORE.INTRA.POLAR.0>
0

>  <SCORE.INTRA.REPUL>
0

>  <SCORE.INTRA.REPUL.0>
0

>  <SCORE.INTRA.SOLV>
0

>  <SCORE.INTRA.SOLV.lig_0>
-23.8918

>  <SCORE.INTRA.VDW>
0

>  <SCORE.INTRA.VDW.0>
0

>  <SCORE.INTRA.norm>
0

>  <SCORE.RESTR>
0

>  <SCORE.RESTR.CAVITY>
0

>  <SCORE.RESTR.norm>
0

>  <SCORE.SYSTEM>
0

>  <SCORE.SYSTEM.CONST>
0

>  <SCORE.SYSTEM.DIHEDRAL>
0

>  <SCORE.SYSTEM.SOLV>
0

>  <SCORE.SYSTEM.norm>
0

>  <SCORE.heavy>
10

>  <SCORE.norm>
-1.45847

>  <RMSD>
0.747

$$$$
ligand
 OpenBabel11021811513D
libRbt.so/2013.1/901 2013/11/27
 10 11  0  0  0  0  0  0  0  0999 V2000
    5.9602   17.4328    2.6158 N   0  0  0  0  0  0  0  0  0  0  0  0
    6.7725   18.4937    2.5386 C   0  0  0  0  0  0  0  0  0  0  0  0
    7.1234   19.3517    3.4953 N   0  0  0  0  0  0  0  0  0  0  0  0
    6.5376   19.0325    4.6598 C   0  0  0  0  0  0  0  0  0  0  0  0
    5.6799   17.9752    4.8949 C   0  0  0  0  0  0  0  0  0  0  0  0
    5.3862   17.1375    3.8008 C   0  0  0  0  0  0  0  0  0  0  0  0
    4.5748   16.0784    3.8822 N   0  0  0  0  0  0  0  0  0  0  0  0
    5.2726   17.9585    6.2185 N   0  0  0  0  0  0  0  0  0  0  0  0
    5.8824   18.9922    6.7486 C   0  0  0  0  0  0  0  0  0  0  0  0
    6.6621   19.6854    5.8649 N   0  0  0  0  0  0  0  0  0  0  0  0
  1  2  2  0  0  0  0
  1  6  1  0  0  0  0
  2  3  1  0  0  0  0
  3  4  2  0  0  0  0
  4  5  1  0  0  0  0
  4 10  1  0  0  0  0
  5  6  2  0  0  0  0
  5  8  1  0  0  0  0
  6  7  1  0  0  0  0
  8  9  1  0  0  0  0
  9 10  2  0  0  0  0
M  END
>  <CHROM.1>
5.98006717,18.20514807,4.46760078,-1.77646394,0.89521975,1.18787988

>  <Name>
ligand

>  <RI>
0

>  <Rbt.Current_Directory>
/home/itssahil/PROJECTS/Mol_Feturizer/New_Systems/rnas/4XNR

>  <Rbt.Executable>
rbdock ($Id: //depot/dev/client3/rdock/2013.1/src/exe/rbdock.cxx#4 $)

>  <Rbt.Library>
libRbt.so (2013.1, Build901 2013/11/27)

>  <Rbt.Parameter_File>
/export/apps/rDock/src/rDock_2013.1_src/data/scripts/dock_solv.prm

>  <Rbt.Receptor>
prm/pocket_docking_8.prm

>  <SCORE>
-14.5564

>  <SCORE.INTER>
-14.5564

>  <SCORE.INTER.CONST>
1

>  <SCORE.INTER.POLAR>
0

>  <SCORE.INTER.ROT>
0

>  <SCORE.INTER.SOLV>
8.17836

>  <SCORE.INTER.VDW>
-16.0304

>  <SCORE.INTER.norm>
-1.45564

>  <SCORE.INTRA>
0

>  <SCORE.INTRA.DIHEDRAL>
0

>  <SCORE.INTRA.DIHEDRAL.0>
0

>  <SCORE.INTRA.POLAR>
0

>  <SCORE.INTRA.POLAR.0>
0

>  <SCORE.INTRA.REPUL>
0

>  <SCORE.INTRA.REPUL.0>
0

>  <SCORE.INTRA.SOLV>
0

>  <SCORE.INTRA.SOLV.lig_0>
-23.8918

>  <SCORE.INTRA.VDW>
0

>  <SCORE.INTRA.VDW.0>
0

>  <SCORE.INTRA.norm>
0

>  <SCORE.RESTR>
0

>  <SCORE.RESTR.CAVITY>
0

>  <SCORE.RESTR.norm>
0

>  <SCORE.SYSTEM>
0

>  <SCORE.SYSTEM.CONST>
0

>  <SCORE.SYSTEM.DIHEDRAL>
0

>  <SCORE.SYSTEM.SOLV>
0

>  <SCORE.SYSTEM.norm>
0

>  <SCORE.heavy>
10

>  <SCORE.norm>
-1.45564

>  <RMSD>
0.747

$$$$
ligand
 OpenBabel11021811513D
libRbt.so/2013.1/901 2013/11/27
 10 11  0  0  0  0  0  0  0  0999 V2000
    5.9037   17.4120    2.6255 N   0  0  0  0  0  0  0  0  0  0  0  0
    6.8021   18.4017    2.5573 C   0  0  0  0  0  0  0  0  0  0  0  0
    7.2143   19.2270    3.5184 N   0  0  0  0  0  0  0  0  0  0  0  0
    6.5931   18.9568    4.6770 C   0  0  0  0  0  0  0  0  0  0  0  0
    5.6484   17.9744    4.9027 C   0  0  0  0  0  0  0  0  0  0  0  0
    5.2962   17.1647    3.8048 C   0  0  0  0  0  0  0  0  0  0  0  0
    4.3987   16.1768    3.8772 N   0  0  0  0  0  0  0  0  0  0  0  0
    5.2287   17.9908    6.2225 N   0  0  0  0  0  0  0  0  0  0  0  0
    5.9174   18.9698    6.7596 C   0  0  0  0  0  0  0  0  0  0  0  0
    6.7604   19.5963    5.8841 N   0  0  0  0  0  0  0  0  0  0  0  0
  1  2  2  0  0  0  0
  1  6  1  0  0  0  0
  2  3  1  0  0  0  0
  3  4  2  0  0  0  0
  4  5  1  0  0  0  0
  4 10  1  0  0  0  0
  5  6  2  0  0  0  0
  5  8  1  0  0  0  0
  6  7  1  0  0  0  0
  8  9  1  0  0  0  0
  9 10  2  0  0  0  0
M  END
>  <CHROM.1>
5.97053511,18.17886318,4.47850507,-1.80917774,0.81421125,1.21362759

>  <Name>
ligand

>  <RI>
0

>  <Rbt.Current_Directory>
/home/itssahil/PROJECTS/Mol_Feturizer/New_Systems/rnas/4XNR

>  <Rbt.Executable>
rbdock ($Id: //depot/dev/client3/rdock/2013.1/src/exe/rbdock.cxx#4 $)

>  <Rbt.Library>
libRbt.so (2013.1, Build901 2013/11/27)

>  <Rbt.Parameter_File>
/export/apps/rDock/src/rDock_2013.1_src/data/scripts/dock_solv.prm

>  <Rbt.Receptor>
prm/blind_docking_80.prm

>  <SCORE>
-14.5829

>  <SCORE.INTER>
-14.5829

>  <SCORE.INTER.CONST>
1

>  <SCORE.INTER.POLAR>
0

>  <SCORE.INTER.ROT>
0

>  <SCORE.INTER.SOLV>
7.5256

>  <SCORE.INTER.VDW>
-15.8305

>  <SCORE.INTER.norm>
-1.45829

>  <SCORE.INTRA>
0

>  <SCORE.INTRA.DIHEDRAL>
0

>  <SCORE.INTRA.DIHEDRAL.0>
0

>  <SCORE.INTRA.POLAR>
0

>  <SCORE.INTRA.POLAR.0>
0

>  <SCORE.INTRA.REPUL>
0

>  <SCORE.INTRA.REPUL.0>
0

>  <SCORE.INTRA.SOLV>
0

>  <SCORE.INTRA.SOLV.lig_0>
-23.8918

>  <SCORE.INTRA.VDW>
0

>  <SCORE.INTRA.VDW.0>
0

>  <SCORE.INTRA.norm>
0

>  <SCORE.RESTR>
0

>  <SCORE.RESTR.CAVITY>
0

>  <SCORE.RESTR.norm>
0

>  <SCORE.SYSTEM>
0

>  <SCORE.SYSTEM.CONST>
0

>  <SCORE.SYSTEM.DIHEDRAL>
0

>  <SCORE.SYSTEM.SOLV>
0

>  <SCORE.SYSTEM.norm>
0

>  <SCORE.heavy>
10

>  <SCORE.norm>
-1.45829

>  <RMSD>
0.748

$$$$
ligand
 OpenBabel11021811513D
libRbt.so/2013.1/901 2013/11/27
 10 11  0  0  0  0  0  0  0  0999 V2000
    5.9142   17.4097    2.6268 N   0  0  0  0  0  0  0  0  0  0  0  0
    6.8116   18.4003    2.5581 C   0  0  0  0  0  0  0  0  0  0  0  0
    7.2213   19.2279    3.5183 N   0  0  0  0  0  0  0  0  0  0  0  0
    6.5987   18.9593    4.6764 C   0  0  0  0  0  0  0  0  0  0  0  0
    5.6548   17.9761    4.9025 C   0  0  0  0  0  0  0  0  0  0  0  0
    5.3052   17.1639    3.8056 C   0  0  0  0  0  0  0  0  0  0  0  0
    4.4088   16.1751    3.8786 N   0  0  0  0  0  0  0  0  0  0  0  0
    5.2331   17.9945    6.2217 N   0  0  0  0  0  0  0  0  0  0  0  0
    5.9198   18.9754    6.7580 C   0  0  0  0  0  0  0  0  0  0  0  0
    6.7633   19.6012    5.8825 N   0  0  0  0  0  0  0  0  0  0  0  0
  1  2  2  0  0  0  0
  1  6  1  0  0  0  0
  2  3  1  0  0  0  0
  3  4  2  0  0  0  0
  4  5  1  0  0  0  0
  4 10  1  0  0  0  0
  5  6  2  0  0  0  0
  5  8  1  0  0  0  0
  6  7  1  0  0  0  0
  8  9  1  0  0  0  0
  9 10  2  0  0  0  0
M  END
>  <CHROM.1>
5.97733904,18.18016246,4.47845865,-1.80649852,0.81478714,1.20974974

>  <Name>
ligand

>  <RI>
0

>  <Rbt.Current_Directory>
/home/itssahil/PROJECTS/Mol_Feturizer/New_Systems/rnas/4XNR

>  <Rbt.Executable>
rbdock ($Id: //depot/dev/client3/rdock/2013.1/src/exe/rbdock.cxx#4 $)

>  <Rbt.Library>
libRbt.so (2013.1, Build901 2013/11/27)

>  <Rbt.Parameter_File>
/export/apps/rDock/src/rDock_2013.1_src/data/scripts/dock_solv.prm

>  <Rbt.Receptor>
prm/pocket_docking_3.prm

>  <SCORE>
-14.5772

>  <SCORE.INTER>
-14.5772

>  <SCORE.INTER.CONST>
1

>  <SCORE.INTER.POLAR>
0

>  <SCORE.INTER.ROT>
0

>  <SCORE.INTER.SOLV>
7.54712

>  <SCORE.INTER.VDW>
-15.8338

>  <SCORE.INTER.norm>
-1.45772

>  <SCORE.INTRA>
0

>  <SCORE.INTRA.DIHEDRAL>
0

>  <SCORE.INTRA.DIHEDRAL.0>
0

>  <SCORE.INTRA.POLAR>
0

>  <SCORE.INTRA.POLAR.0>
0

>  <SCORE.INTRA.REPUL>
0

>  <SCORE.INTRA.REPUL.0>
0

>  <SCORE.INTRA.SOLV>
0

>  <SCORE.INTRA.SOLV.lig_0>
-23.8918

>  <SCORE.INTRA.VDW>
0

>  <SCORE.INTRA.VDW.0>
0

>  <SCORE.INTRA.norm>
0

>  <SCORE.RESTR>
0

>  <SCORE.RESTR.CAVITY>
0

>  <SCORE.RESTR.norm>
0

>  <SCORE.SYSTEM>
0

>  <SCORE.SYSTEM.CONST>
0

>  <SCORE.SYSTEM.DIHEDRAL>
0

>  <SCORE.SYSTEM.SOLV>
0

>  <SCORE.SYSTEM.norm>
0

>  <SCORE.heavy>
10

>  <SCORE.norm>
-1.45772

>  <RMSD>
0.748

$$$$
ligand
 OpenBabel11021811513D
libRbt.so/2013.1/901 2013/11/27
 10 11  0  0  0  0  0  0  0  0999 V2000
    5.9211   17.4044    2.6297 N   0  0  0  0  0  0  0  0  0  0  0  0
    6.8199   18.3935    2.5573 C   0  0  0  0  0  0  0  0  0  0  0  0
    7.2295   19.2252    3.5140 N   0  0  0  0  0  0  0  0  0  0  0  0
    6.6050   18.9630    4.6726 C   0  0  0  0  0  0  0  0  0  0  0  0
    5.6595   17.9822    4.9023 C   0  0  0  0  0  0  0  0  0  0  0  0
    5.3103   17.1652    3.8089 C   0  0  0  0  0  0  0  0  0  0  0  0
    4.4125   16.1778    3.8855 N   0  0  0  0  0  0  0  0  0  0  0  0
    5.2362   18.0076    6.2208 N   0  0  0  0  0  0  0  0  0  0  0  0
    5.9235   18.9902    6.7532 C   0  0  0  0  0  0  0  0  0  0  0  0
    6.7689   19.6106    5.8758 N   0  0  0  0  0  0  0  0  0  0  0  0
  1  2  2  0  0  0  0
  1  6  1  0  0  0  0
  2  3  1  0  0  0  0
  3  4  2  0  0  0  0
  4  5  1  0  0  0  0
  4 10  1  0  0  0  0
  5  6  2  0  0  0  0
  5  8  1  0  0  0  0
  6  7  1  0  0  0  0
  8  9  1  0  0  0  0
  9 10  2  0  0  0  0
M  END
>  <CHROM.1>
5.98289828,18.18376536,4.47764896,-1.80541918,0.81311080,1.20410725

>  <Name>
ligand

>  <RI>
0

>  <Rbt.Current_Directory>
/home/itssahil/PROJECTS/Mol_Feturizer/New_Systems/rnas/4XNR

>  <Rbt.Executable>
rbdock ($Id: //depot/dev/client3/rdock/2013.1/src/exe/rbdock.cxx#4 $)

>  <Rbt.Library>
libRbt.so (2013.1, Build901 2013/11/27)

>  <Rbt.Parameter_File>
/export/apps/rDock/src/rDock_2013.1_src/data/scripts/dock_solv.prm

>  <Rbt.Receptor>
prm/pocket_docking_3.prm

>  <SCORE>
-14.5691

>  <SCORE.INTER>
-14.5691

>  <SCORE.INTER.CONST>
1

>  <SCORE.INTER.POLAR>
0

>  <SCORE.INTER.ROT>
0

>  <SCORE.INTER.SOLV>
7.56171

>  <SCORE.INTER.VDW>
-15.8333

>  <SCORE.INTER.norm>
-1.45691

>  <SCORE.INTRA>
0

>  <SCORE.INTRA.DIHEDRAL>
0

>  <SCORE.INTRA.DIHEDRAL.0>
0

>  <SCORE.INTRA.POLAR>
0

>  <SCORE.INTRA.POLAR.0>
0

>  <SCORE.INTRA.REPUL>
0

>  <SCORE.INTRA.REPUL.0>
0

>  <SCORE.INTRA.SOLV>
0

>  <SCORE.INTRA.SOLV.lig_0>
-23.8918

>  <SCORE.INTRA.VDW>
0

>  <SCORE.INTRA.VDW.0>
0

>  <SCORE.INTRA.norm>
0

>  <SCORE.RESTR>
0

>  <SCORE.RESTR.CAVITY>
0

>  <SCORE.RESTR.norm>
0

>  <SCORE.SYSTEM>
0

>  <SCORE.SYSTEM.CONST>
0

>  <SCORE.SYSTEM.DIHEDRAL>
0

>  <SCORE.SYSTEM.SOLV>
0

>  <SCORE.SYSTEM.norm>
0

>  <SCORE.heavy>
10

>  <SCORE.norm>
-1.45691

>  <RMSD>
0.748

$$$$
ligand
 OpenBabel11021811513D
libRbt.so/2013.1/901 2013/11/27
 10 11  0  0  0  0  0  0  0  0999 V2000
    5.8848   17.4261    2.6242 N   0  0  0  0  0  0  0  0  0  0  0  0
    6.7377   18.4535    2.5329 C   0  0  0  0  0  0  0  0  0  0  0  0
    7.1347   19.2999    3.4820 N   0  0  0  0  0  0  0  0  0  0  0  0
    6.5514   19.0080    4.6549 C   0  0  0  0  0  0  0  0  0  0  0  0
    5.6553   17.9866    4.9046 C   0  0  0  0  0  0  0  0  0  0  0  0
    5.3146   17.1577    3.8174 C   0  0  0  0  0  0  0  0  0  0  0  0
    4.4627   16.1322    3.9129 N   0  0  0  0  0  0  0  0  0  0  0  0
    5.2644   17.9904    6.2333 N   0  0  0  0  0  0  0  0  0  0  0  0
    5.9216   19.0006    6.7519 C   0  0  0  0  0  0  0  0  0  0  0  0
    6.7171   19.6593    5.8559 N   0  0  0  0  0  0  0  0  0  0  0  0
  1  2  2  0  0  0  0
  1  6  1  0  0  0  0
  2  3  1  0  0  0  0
  3  4  2  0  0  0  0
  4  5  1  0  0  0  0
  4 10  1  0  0  0  0
  5  6  2  0  0  0  0
  5  8  1  0  0  0  0
  6  7  1  0  0  0  0
  8  9  1  0  0  0  0
  9 10  2  0  0  0  0
M  END
>  <CHROM.1>
5.95894676,18.20298012,4.47274589,-1.81743583,0.86253293,1.21598096

>  <Name>
ligand

>  <RI>
0

>  <Rbt.Current_Directory>
/home/itssahil/PROJECTS/Mol_Feturizer/New_Systems/rnas/4XNR

>  <Rbt.Executable>
rbdock ($Id: //depot/dev/client3/rdock/2013.1/src/exe/rbdock.cxx#4 $)

>  <Rbt.Library>
libRbt.so (2013.1, Build901 2013/11/27)

>  <Rbt.Parameter_File>
/export/apps/rDock/src/rDock_2013.1_src/data/scripts/dock_solv.prm

>  <Rbt.Receptor>
prm/pocket_docking_4.prm

>  <SCORE>
-14.5636

>  <SCORE.INTER>
-14.5636

>  <SCORE.INTER.CONST>
1

>  <SCORE.INTER.POLAR>
0

>  <SCORE.INTER.ROT>
0

>  <SCORE.INTER.SOLV>
7.83892

>  <SCORE.INTER.VDW>
-15.922

>  <SCORE.INTER.norm>
-1.45636

>  <SCORE.INTRA>
0

>  <SCORE.INTRA.DIHEDRAL>
0

>  <SCORE.INTRA.DIHEDRAL.0>
0

>  <SCORE.INTRA.POLAR>
0

>  <SCORE.INTRA.POLAR.0>
0

>  <SCORE.INTRA.REPUL>
0

>  <SCORE.INTRA.REPUL.0>
0

>  <SCORE.INTRA.SOLV>
0

>  <SCORE.INTRA.SOLV.lig_0>
-23.8918

>  <SCORE.INTRA.VDW>
0

>  <SCORE.INTRA.VDW.0>
0

>  <SCORE.INTRA.norm>
0

>  <SCORE.RESTR>
0

>  <SCORE.RESTR.CAVITY>
0

>  <SCORE.RESTR.norm>
0

>  <SCORE.SYSTEM>
0

>  <SCORE.SYSTEM.CONST>
0

>  <SCORE.SYSTEM.DIHEDRAL>
0

>  <SCORE.SYSTEM.SOLV>
0

>  <SCORE.SYSTEM.norm>
0

>  <SCORE.heavy>
10

>  <SCORE.norm>
-1.45636

>  <RMSD>
0.748

$$$$
ligand
 OpenBabel11021811513D
libRbt.so/2013.1/901 2013/11/27
 10 11  0  0  0  0  0  0  0  0999 V2000
    5.8793   17.4172    2.6273 N   0  0  0  0  0  0  0  0  0  0  0  0
    6.7370   18.4410    2.5407 C   0  0  0  0  0  0  0  0  0  0  0  0
    7.1330   19.2853    3.4920 N   0  0  0  0  0  0  0  0  0  0  0  0
    6.5428   18.9954    4.6619 C   0  0  0  0  0  0  0  0  0  0  0  0
    5.6412   17.9777    4.9068 C   0  0  0  0  0  0  0  0  0  0  0  0
    5.3022   17.1507    3.8177 C   0  0  0  0  0  0  0  0  0  0  0  0
    4.4455   16.1288    3.9086 N   0  0  0  0  0  0  0  0  0  0  0  0
    5.2438   17.9826    6.2336 N   0  0  0  0  0  0  0  0  0  0  0  0
    5.9028   18.9898    6.7558 C   0  0  0  0  0  0  0  0  0  0  0  0
    6.7054   19.6454    5.8640 N   0  0  0  0  0  0  0  0  0  0  0  0
  1  2  2  0  0  0  0
  1  6  1  0  0  0  0
  2  3  1  0  0  0  0
  3  4  2  0  0  0  0
  4  5  1  0  0  0  0
  4 10  1  0  0  0  0
  5  6  2  0  0  0  0
  5  8  1  0  0  0  0
  6  7  1  0  0  0  0
  8  9  1  0  0  0  0
  9 10  2  0  0  0  0
M  END
>  <CHROM.1>
5.94778466,18.19297183,4.47656729,-1.81273209,0.85685108,1.21284529

>  <Name>
ligand

>  <RI>
0

>  <Rbt.Current_Directory>
/home/itssahil/PROJECTS/Mol_Feturizer/New_Systems/rnas/4XNR

>  <Rbt.Executable>
rbdock ($Id: //depot/dev/client3/rdock/2013.1/src/exe/rbdock.cxx#4 $)

>  <Rbt.Library>
libRbt.so (2013.1, Build901 2013/11/27)

>  <Rbt.Parameter_File>
/export/apps/rDock/src/rDock_2013.1_src/data/scripts/dock_solv.prm

>  <Rbt.Receptor>
prm/pocket_docking_5.prm

>  <SCORE>
-14.5398

>  <SCORE.INTER>
-14.5398

>  <SCORE.INTER.CONST>
1

>  <SCORE.INTER.POLAR>
0

>  <SCORE.INTER.ROT>
0

>  <SCORE.INTER.SOLV>
7.8005

>  <SCORE.INTER.VDW>
-15.8934

>  <SCORE.INTER.norm>
-1.45398

>  <SCORE.INTRA>
0

>  <SCORE.INTRA.DIHEDRAL>
0

>  <SCORE.INTRA.DIHEDRAL.0>
0

>  <SCORE.INTRA.POLAR>
0

>  <SCORE.INTRA.POLAR.0>
0

>  <SCORE.INTRA.REPUL>
0

>  <SCORE.INTRA.REPUL.0>
0

>  <SCORE.INTRA.SOLV>
0

>  <SCORE.INTRA.SOLV.lig_0>
-23.8918

>  <SCORE.INTRA.VDW>
0

>  <SCORE.INTRA.VDW.0>
0

>  <SCORE.INTRA.norm>
0

>  <SCORE.RESTR>
0

>  <SCORE.RESTR.CAVITY>
0

>  <SCORE.RESTR.norm>
0

>  <SCORE.SYSTEM>
0

>  <SCORE.SYSTEM.CONST>
0

>  <SCORE.SYSTEM.DIHEDRAL>
0

>  <SCORE.SYSTEM.SOLV>
0

>  <SCORE.SYSTEM.norm>
0

>  <SCORE.heavy>
10

>  <SCORE.norm>
-1.45398

>  <RMSD>
0.748

$$$$
ligand
 OpenBabel11021811513D
libRbt.so/2013.1/901 2013/11/27
 10 11  0  0  0  0  0  0  0  0999 V2000
    5.9731   17.4368    2.6129 N   0  0  0  0  0  0  0  0  0  0  0  0
    6.7929   18.4926    2.5436 C   0  0  0  0  0  0  0  0  0  0  0  0
    7.1446   19.3450    3.5050 N   0  0  0  0  0  0  0  0  0  0  0  0
    6.5506   19.0258    4.6653 C   0  0  0  0  0  0  0  0  0  0  0  0
    5.6847   17.9735    4.8924 C   0  0  0  0  0  0  0  0  0  0  0  0
    5.3911   17.1414    3.7940 C   0  0  0  0  0  0  0  0  0  0  0  0
    4.5722   16.0876    3.8676 N   0  0  0  0  0  0  0  0  0  0  0  0
    5.2703   17.9551    6.2138 N   0  0  0  0  0  0  0  0  0  0  0  0
    5.8842   18.9829    6.7506 C   0  0  0  0  0  0  0  0  0  0  0  0
    6.6732   19.6738    5.8732 N   0  0  0  0  0  0  0  0  0  0  0  0
  1  2  2  0  0  0  0
  1  6  1  0  0  0  0
  2  3  1  0  0  0  0
  3  4  2  0  0  0  0
  4  5  1  0  0  0  0
  4 10  1  0  0  0  0
  5  6  2  0  0  0  0
  5  8  1  0  0  0  0
  6  7  1  0  0  0  0
  8  9  1  0  0  0  0
  9 10  2  0  0  0  0
M  END
>  <CHROM.1>
5.98854123,18.20288384,4.46743198,-1.77276480,0.88707685,1.18837018

>  <Name>
ligand

>  <RI>
0

>  <Rbt.Current_Directory>
/home/itssahil/PROJECTS/Mol_Feturizer/New_Systems/rnas/4XNR

>  <Rbt.Executable>
rbdock ($Id: //depot/dev/client3/rdock/2013.1/src/exe/rbdock.cxx#4 $)

>  <Rbt.Library>
libRbt.so (2013.1, Build901 2013/11/27)

>  <Rbt.Parameter_File>
/export/apps/rDock/src/rDock_2013.1_src/data/scripts/dock_solv.prm

>  <Rbt.Receptor>
prm/pocket_docking_6.prm

>  <SCORE>
-14.5513

>  <SCORE.INTER>
-14.5513

>  <SCORE.INTER.CONST>
1

>  <SCORE.INTER.POLAR>
0

>  <SCORE.INTER.ROT>
0

>  <SCORE.INTER.SOLV>
8.11315

>  <SCORE.INTER.VDW>
-16.0053

>  <SCORE.INTER.norm>
-1.45513

>  <SCORE.INTRA>
0

>  <SCORE.INTRA.DIHEDRAL>
0

>  <SCORE.INTRA.DIHEDRAL.0>
0

>  <SCORE.INTRA.POLAR>
0

>  <SCORE.INTRA.POLAR.0>
0

>  <SCORE.INTRA.REPUL>
0

>  <SCORE.INTRA.REPUL.0>
0

>  <SCORE.INTRA.SOLV>
0

>  <SCORE.INTRA.SOLV.lig_0>
-23.8918

>  <SCORE.INTRA.VDW>
0

>  <SCORE.INTRA.VDW.0>
0

>  <SCORE.INTRA.norm>
0

>  <SCORE.RESTR>
0

>  <SCORE.RESTR.CAVITY>
0

>  <SCORE.RESTR.norm>
0

>  <SCORE.SYSTEM>
0

>  <SCORE.SYSTEM.CONST>
0

>  <SCORE.SYSTEM.DIHEDRAL>
0

>  <SCORE.SYSTEM.SOLV>
0

>  <SCORE.SYSTEM.norm>
0

>  <SCORE.heavy>
10

>  <SCORE.norm>
-1.45513

>  <RMSD>
0.748

$$$$
ligand
 OpenBabel11021811513D
libRbt.so/2013.1/901 2013/11/27
 10 11  0  0  0  0  0  0  0  0999 V2000
    5.9010   17.4216    2.6238 N   0  0  0  0  0  0  0  0  0  0  0  0
    6.7823   18.4257    2.5448 C   0  0  0  0  0  0  0  0  0  0  0  0
    7.1909   19.2593    3.5003 N   0  0  0  0  0  0  0  0  0  0  0  0
    6.5863   18.9810    4.6657 C   0  0  0  0  0  0  0  0  0  0  0  0
    5.6601   17.9836    4.9027 C   0  0  0  0  0  0  0  0  0  0  0  0
    5.3099   17.1664    3.8098 C   0  0  0  0  0  0  0  0  0  0  0  0
    4.4295   16.1640    3.8930 N   0  0  0  0  0  0  0  0  0  0  0  0
    5.2540   17.9954    6.2268 N   0  0  0  0  0  0  0  0  0  0  0  0
    5.9321   18.9865    6.7552 C   0  0  0  0  0  0  0  0  0  0  0  0
    6.7555   19.6252    5.8700 N   0  0  0  0  0  0  0  0  0  0  0  0
  1  2  2  0  0  0  0
  1  6  1  0  0  0  0
  2  3  1  0  0  0  0
  3  4  2  0  0  0  0
  4  5  1  0  0  0  0
  4 10  1  0  0  0  0
  5  6  2  0  0  0  0
  5  8  1  0  0  0  0
  6  7  1  0  0  0  0
  8  9  1  0  0  0  0
  9 10  2  0  0  0  0
M  END
>  <CHROM.1>
5.97446972,18.19260762,4.47486721,-1.81512412,0.83318484,1.21634256

>  <Name>
ligand

>  <RI>
0

>  <Rbt.Current_Directory>
/home/itssahil/PROJECTS/Mol_Feturizer/New_Systems/rnas/4XNR

>  <Rbt.Executable>
rbdock ($Id: //depot/dev/client3/rdock/2013.1/src/exe/rbdock.cxx#4 $)

>  <Rbt.Library>
libRbt.so (2013.1, Build901 2013/11/27)

>  <Rbt.Parameter_File>
/export/apps/rDock/src/rDock_2013.1_src/data/scripts/dock_solv.prm

>  <Rbt.Receptor>
prm/pocket_docking_8.prm

>  <SCORE>
-14.5853

>  <SCORE.INTER>
-14.5853

>  <SCORE.INTER.CONST>
1

>  <SCORE.INTER.POLAR>
0

>  <SCORE.INTER.ROT>
0

>  <SCORE.INTER.SOLV>
7.64868

>  <SCORE.INTER.VDW>
-15.8731

>  <SCORE.INTER.norm>
-1.45853

>  <SCORE.INTRA>
0

>  <SCORE.INTRA.DIHEDRAL>
0

>  <SCORE.INTRA.DIHEDRAL.0>
0

>  <SCORE.INTRA.POLAR>
0

>  <SCORE.INTRA.POLAR.0>
0

>  <SCORE.INTRA.REPUL>
0

>  <SCORE.INTRA.REPUL.0>
0

>  <SCORE.INTRA.SOLV>
0

>  <SCORE.INTRA.SOLV.lig_0>
-23.8918

>  <SCORE.INTRA.VDW>
0

>  <SCORE.INTRA.VDW.0>
0

>  <SCORE.INTRA.norm>
0

>  <SCORE.RESTR>
0

>  <SCORE.RESTR.CAVITY>
0

>  <SCORE.RESTR.norm>
0

>  <SCORE.SYSTEM>
0

>  <SCORE.SYSTEM.CONST>
0

>  <SCORE.SYSTEM.DIHEDRAL>
0

>  <SCORE.SYSTEM.SOLV>
0

>  <SCORE.SYSTEM.norm>
0

>  <SCORE.heavy>
10

>  <SCORE.norm>
-1.45853

>  <RMSD>
0.748

$$$$
ligand
 OpenBabel11021811513D
libRbt.so/2013.1/901 2013/11/27
 10 11  0  0  0  0  0  0  0  0999 V2000
    5.8742   17.4237    2.6251 N   0  0  0  0  0  0  0  0  0  0  0  0
    6.7317   18.4476    2.5387 C   0  0  0  0  0  0  0  0  0  0  0  0
    7.1294   19.2902    3.4908 N   0  0  0  0  0  0  0  0  0  0  0  0
    6.5413   18.9983    4.6613 C   0  0  0  0  0  0  0  0  0  0  0  0
    5.6402   17.9802    4.9060 C   0  0  0  0  0  0  0  0  0  0  0  0
    5.2992   17.1552    3.8160 C   0  0  0  0  0  0  0  0  0  0  0  0
    4.4426   16.1330    3.9067 N   0  0  0  0  0  0  0  0  0  0  0  0
    5.2453   17.9827    6.2336 N   0  0  0  0  0  0  0  0  0  0  0  0
    5.9052   18.9890    6.7563 C   0  0  0  0  0  0  0  0  0  0  0  0
    6.7062   19.6462    5.8642 N   0  0  0  0  0  0  0  0  0  0  0  0
  1  2  2  0  0  0  0
  1  6  1  0  0  0  0
  2  3  1  0  0  0  0
  3  4  2  0  0  0  0
  4  5  1  0  0  0  0
  4 10  1  0  0  0  0
  5  6  2  0  0  0  0
  5  8  1  0  0  0  0
  6  7  1  0  0  0  0
  8  9  1  0  0  0  0
  9 10  2  0  0  0  0
M  END
>  <CHROM.1>
5.94600548,18.19621430,4.47557635,-1.81536603,0.85749372,1.21660659

>  <Name>
ligand

>  <RI>
0

>  <Rbt.Current_Directory>
/home/itssahil/PROJECTS/Mol_Feturizer/New_Systems/rnas/4XNR

>  <Rbt.Executable>
rbdock ($Id: //depot/dev/client3/rdock/2013.1/src/exe/rbdock.cxx#4 $)

>  <Rbt.Library>
libRbt.so (2013.1, Build901 2013/11/27)

>  <Rbt.Parameter_File>
/export/apps/rDock/src/rDock_2013.1_src/data/scripts/dock_solv.prm

>  <Rbt.Receptor>
prm/blind_docking_100.prm

>  <SCORE>
-14.5423

>  <SCORE.INTER>
-14.5423

>  <SCORE.INTER.CONST>
1

>  <SCORE.INTER.POLAR>
0

>  <SCORE.INTER.ROT>
0

>  <SCORE.INTER.SOLV>
7.78299

>  <SCORE.INTER.VDW>
-15.8892

>  <SCORE.INTER.norm>
-1.45423

>  <SCORE.INTRA>
0

>  <SCORE.INTRA.DIHEDRAL>
0

>  <SCORE.INTRA.DIHEDRAL.0>
0

>  <SCORE.INTRA.POLAR>
0

>  <SCORE.INTRA.POLAR.0>
0

>  <SCORE.INTRA.REPUL>
0

>  <SCORE.INTRA.REPUL.0>
0

>  <SCORE.INTRA.SOLV>
0

>  <SCORE.INTRA.SOLV.lig_0>
-23.8918

>  <SCORE.INTRA.VDW>
0

>  <SCORE.INTRA.VDW.0>
0

>  <SCORE.INTRA.norm>
0

>  <SCORE.RESTR>
0

>  <SCORE.RESTR.CAVITY>
0

>  <SCORE.RESTR.norm>
0

>  <SCORE.SYSTEM>
0

>  <SCORE.SYSTEM.CONST>
0

>  <SCORE.SYSTEM.DIHEDRAL>
0

>  <SCORE.SYSTEM.SOLV>
0

>  <SCORE.SYSTEM.norm>
0

>  <SCORE.heavy>
10

>  <SCORE.norm>
-1.45423

>  <RMSD>
0.749

$$$$
ligand
 OpenBabel11021811513D
libRbt.so/2013.1/901 2013/11/27
 10 11  0  0  0  0  0  0  0  0999 V2000
    5.9121   17.4141    2.6284 N   0  0  0  0  0  0  0  0  0  0  0  0
    6.7031   18.4897    2.5347 C   0  0  0  0  0  0  0  0  0  0  0  0
    7.0569   19.3549    3.4839 N   0  0  0  0  0  0  0  0  0  0  0  0
    6.5000   19.0260    4.6598 C   0  0  0  0  0  0  0  0  0  0  0  0
    5.6668   17.9534    4.9123 C   0  0  0  0  0  0  0  0  0  0  0  0
    5.3671   17.1094    3.8247 C   0  0  0  0  0  0  0  0  0  0  0  0
    4.5770   16.0357    3.9227 N   0  0  0  0  0  0  0  0  0  0  0  0
    5.2859   17.9304    6.2437 N   0  0  0  0  0  0  0  0  0  0  0  0
    5.8869   18.9756    6.7611 C   0  0  0  0  0  0  0  0  0  0  0  0
    6.6363   19.6822    5.8619 N   0  0  0  0  0  0  0  0  0  0  0  0
  1  2  2  0  0  0  0
  1  6  1  0  0  0  0
  2  3  1  0  0  0  0
  3  4  2  0  0  0  0
  4  5  1  0  0  0  0
  4 10  1  0  0  0  0
  5  6  2  0  0  0  0
  5  8  1  0  0  0  0
  6  7  1  0  0  0  0
  8  9  1  0  0  0  0
  9 10  2  0  0  0  0
M  END
>  <CHROM.1>
5.95416871,18.18841254,4.47910182,-1.79521426,0.91952963,1.20190832

>  <Name>
ligand

>  <RI>
0

>  <Rbt.Current_Directory>
/home/itssahil/PROJECTS/Mol_Feturizer/New_Systems/rnas/4XNR

>  <Rbt.Executable>
rbdock ($Id: //depot/dev/client3/rdock/2013.1/src/exe/rbdock.cxx#4 $)

>  <Rbt.Library>
libRbt.so (2013.1, Build901 2013/11/27)

>  <Rbt.Parameter_File>
/export/apps/rDock/src/rDock_2013.1_src/data/scripts/dock_solv.prm

>  <Rbt.Receptor>
prm/blind_docking_100.prm

>  <SCORE>
-14.5428

>  <SCORE.INTER>
-14.5428

>  <SCORE.INTER.CONST>
1

>  <SCORE.INTER.POLAR>
0

>  <SCORE.INTER.ROT>
0

>  <SCORE.INTER.SOLV>
8.37133

>  <SCORE.INTER.VDW>
-16.0857

>  <SCORE.INTER.norm>
-1.45428

>  <SCORE.INTRA>
0

>  <SCORE.INTRA.DIHEDRAL>
0

>  <SCORE.INTRA.DIHEDRAL.0>
0

>  <SCORE.INTRA.POLAR>
0

>  <SCORE.INTRA.POLAR.0>
0

>  <SCORE.INTRA.REPUL>
0

>  <SCORE.INTRA.REPUL.0>
0

>  <SCORE.INTRA.SOLV>
0

>  <SCORE.INTRA.SOLV.lig_0>
-23.8918

>  <SCORE.INTRA.VDW>
0

>  <SCORE.INTRA.VDW.0>
0

>  <SCORE.INTRA.norm>
0

>  <SCORE.RESTR>
0

>  <SCORE.RESTR.CAVITY>
0

>  <SCORE.RESTR.norm>
0

>  <SCORE.SYSTEM>
0

>  <SCORE.SYSTEM.CONST>
0

>  <SCORE.SYSTEM.DIHEDRAL>
0

>  <SCORE.SYSTEM.SOLV>
0

>  <SCORE.SYSTEM.norm>
0

>  <SCORE.heavy>
10

>  <SCORE.norm>
-1.45428

>  <RMSD>
0.749

$$$$
ligand
 OpenBabel11021811513D
libRbt.so/2013.1/901 2013/11/27
 10 11  0  0  0  0  0  0  0  0999 V2000
    5.9011   17.4071    2.6287 N   0  0  0  0  0  0  0  0  0  0  0  0
    6.7963   18.3997    2.5607 C   0  0  0  0  0  0  0  0  0  0  0  0
    7.2035   19.2283    3.5211 N   0  0  0  0  0  0  0  0  0  0  0  0
    6.5805   18.9584    4.6787 C   0  0  0  0  0  0  0  0  0  0  0  0
    5.6386   17.9733    4.9042 C   0  0  0  0  0  0  0  0  0  0  0  0
    5.2917   17.1602    3.8071 C   0  0  0  0  0  0  0  0  0  0  0  0
    4.3974   16.1694    3.8795 N   0  0  0  0  0  0  0  0  0  0  0  0
    5.2158   17.9909    6.2230 N   0  0  0  0  0  0  0  0  0  0  0  0
    5.9000   18.9733    6.7598 C   0  0  0  0  0  0  0  0  0  0  0  0
    6.7428   19.6009    5.8849 N   0  0  0  0  0  0  0  0  0  0  0  0
  1  2  2  0  0  0  0
  1  6  1  0  0  0  0
  2  3  1  0  0  0  0
  3  4  2  0  0  0  0
  4  5  1  0  0  0  0
  4 10  1  0  0  0  0
  5  6  2  0  0  0  0
  5  8  1  0  0  0  0
  6  7  1  0  0  0  0
  8  9  1  0  0  0  0
  9 10  2  0  0  0  0
M  END
>  <CHROM.1>
5.96104119,18.17795888,4.48037392,-1.80428183,0.81654142,1.20802711

>  <Name>
ligand

>  <RI>
0

>  <Rbt.Current_Directory>
/home/itssahil/PROJECTS/Mol_Feturizer/New_Systems/rnas/4XNR

>  <Rbt.Executable>
rbdock ($Id: //depot/dev/client3/rdock/2013.1/src/exe/rbdock.cxx#4 $)

>  <Rbt.Library>
libRbt.so (2013.1, Build901 2013/11/27)

>  <Rbt.Parameter_File>
/export/apps/rDock/src/rDock_2013.1_src/data/scripts/dock_solv.prm

>  <Rbt.Receptor>
prm/blind_docking_80.prm

>  <SCORE>
-14.5846

>  <SCORE.INTER>
-14.5846

>  <SCORE.INTER.CONST>
1

>  <SCORE.INTER.POLAR>
0

>  <SCORE.INTER.ROT>
0

>  <SCORE.INTER.SOLV>
7.54445

>  <SCORE.INTER.VDW>
-15.8379

>  <SCORE.INTER.norm>
-1.45846

>  <SCORE.INTRA>
0

>  <SCORE.INTRA.DIHEDRAL>
0

>  <SCORE.INTRA.DIHEDRAL.0>
0

>  <SCORE.INTRA.POLAR>
0

>  <SCORE.INTRA.POLAR.0>
0

>  <SCORE.INTRA.REPUL>
0

>  <SCORE.INTRA.REPUL.0>
0

>  <SCORE.INTRA.SOLV>
0

>  <SCORE.INTRA.SOLV.lig_0>
-23.8918

>  <SCORE.INTRA.VDW>
0

>  <SCORE.INTRA.VDW.0>
0

>  <SCORE.INTRA.norm>
0

>  <SCORE.RESTR>
0

>  <SCORE.RESTR.CAVITY>
0

>  <SCORE.RESTR.norm>
0

>  <SCORE.SYSTEM>
0

>  <SCORE.SYSTEM.CONST>
0

>  <SCORE.SYSTEM.DIHEDRAL>
0

>  <SCORE.SYSTEM.SOLV>
0

>  <SCORE.SYSTEM.norm>
0

>  <SCORE.heavy>
10

>  <SCORE.norm>
-1.45846

>  <RMSD>
0.749

$$$$
ligand
 OpenBabel11021811513D
libRbt.so/2013.1/901 2013/11/27
 10 11  0  0  0  0  0  0  0  0999 V2000
    5.9069   17.4169    2.6288 N   0  0  0  0  0  0  0  0  0  0  0  0
    6.7754   18.4319    2.5457 C   0  0  0  0  0  0  0  0  0  0  0  0
    7.1725   19.2750    3.4975 N   0  0  0  0  0  0  0  0  0  0  0  0
    6.5706   18.9946    4.6638 C   0  0  0  0  0  0  0  0  0  0  0  0
    5.6571   17.9866    4.9048 C   0  0  0  0  0  0  0  0  0  0  0  0
    5.3182   17.1598    3.8155 C   0  0  0  0  0  0  0  0  0  0  0  0
    4.4506   16.1467    3.9028 N   0  0  0  0  0  0  0  0  0  0  0  0
    5.2498   17.9994    6.2285 N   0  0  0  0  0  0  0  0  0  0  0  0
    5.9148   19.0015    6.7528 C   0  0  0  0  0  0  0  0  0  0  0  0
    6.7307   19.6465    5.8652 N   0  0  0  0  0  0  0  0  0  0  0  0
  1  2  2  0  0  0  0
  1  6  1  0  0  0  0
  2  3  1  0  0  0  0
  3  4  2  0  0  0  0
  4  5  1  0  0  0  0
  4 10  1  0  0  0  0
  5  6  2  0  0  0  0
  5  8  1  0  0  0  0
  6  7  1  0  0  0  0
  8  9  1  0  0  0  0
  9 10  2  0  0  0  0
M  END
>  <CHROM.1>
5.96909448,18.19751349,4.47624042,-1.80731832,0.84486820,1.20583342

>  <Name>
ligand

>  <RI>
0

>  <Rbt.Current_Directory>
/home/itssahil/PROJECTS/Mol_Feturizer/New_Systems/rnas/4XNR

>  <Rbt.Executable>
rbdock ($Id: //depot/dev/client3/rdock/2013.1/src/exe/rbdock.cxx#4 $)

>  <Rbt.Library>
libRbt.so (2013.1, Build901 2013/11/27)

>  <Rbt.Parameter_File>
/export/apps/rDock/src/rDock_2013.1_src/data/scripts/dock_solv.prm

>  <Rbt.Receptor>
prm/pocket_docking_4.prm

>  <SCORE>
-14.5889

>  <SCORE.INTER>
-14.5889

>  <SCORE.INTER.CONST>
1

>  <SCORE.INTER.POLAR>
0

>  <SCORE.INTER.ROT>
0

>  <SCORE.INTER.SOLV>
7.75663

>  <SCORE.INTER.VDW>
-15.9115

>  <SCORE.INTER.norm>
-1.45889

>  <SCORE.INTRA>
0

>  <SCORE.INTRA.DIHEDRAL>
0

>  <SCORE.INTRA.DIHEDRAL.0>
0

>  <SCORE.INTRA.POLAR>
0

>  <SCORE.INTRA.POLAR.0>
0

>  <SCORE.INTRA.REPUL>
0

>  <SCORE.INTRA.REPUL.0>
0

>  <SCORE.INTRA.SOLV>
0

>  <SCORE.INTRA.SOLV.lig_0>
-23.8918

>  <SCORE.INTRA.VDW>
0

>  <SCORE.INTRA.VDW.0>
0

>  <SCORE.INTRA.norm>
0

>  <SCORE.RESTR>
0

>  <SCORE.RESTR.CAVITY>
0

>  <SCORE.RESTR.norm>
0

>  <SCORE.SYSTEM>
0

>  <SCORE.SYSTEM.CONST>
0

>  <SCORE.SYSTEM.DIHEDRAL>
0

>  <SCORE.SYSTEM.SOLV>
0

>  <SCORE.SYSTEM.norm>
0

>  <SCORE.heavy>
10

>  <SCORE.norm>
-1.45889

>  <RMSD>
0.749

$$$$
ligand
 OpenBabel11021811513D
libRbt.so/2013.1/901 2013/11/27
 10 11  0  0  0  0  0  0  0  0999 V2000
    5.8891   17.4255    2.6262 N   0  0  0  0  0  0  0  0  0  0  0  0
    6.7441   18.4514    2.5368 C   0  0  0  0  0  0  0  0  0  0  0  0
    7.1399   19.2976    3.4865 N   0  0  0  0  0  0  0  0  0  0  0  0
    6.5527   19.0074    4.6579 C   0  0  0  0  0  0  0  0  0  0  0  0
    5.6541   17.9877    4.9056 C   0  0  0  0  0  0  0  0  0  0  0  0
    5.3151   17.1589    3.8179 C   0  0  0  0  0  0  0  0  0  0  0  0
    4.4611   16.1348    3.9116 N   0  0  0  0  0  0  0  0  0  0  0  0
    5.2595   17.9929    6.2332 N   0  0  0  0  0  0  0  0  0  0  0  0
    5.9170   19.0023    6.7531 C   0  0  0  0  0  0  0  0  0  0  0  0
    6.7162   19.6590    5.8590 N   0  0  0  0  0  0  0  0  0  0  0  0
  1  2  2  0  0  0  0
  1  6  1  0  0  0  0
  2  3  1  0  0  0  0
  3  4  2  0  0  0  0
  4  5  1  0  0  0  0
  4 10  1  0  0  0  0
  5  6  2  0  0  0  0
  5  8  1  0  0  0  0
  6  7  1  0  0  0  0
  8  9  1  0  0  0  0
  9 10  2  0  0  0  0
M  END
>  <CHROM.1>
5.95935809,18.20334215,4.47451475,-1.81429748,0.85990214,1.21305221

>  <Name>
ligand

>  <RI>
0

>  <Rbt.Current_Directory>
/home/itssahil/PROJECTS/Mol_Feturizer/New_Systems/rnas/4XNR

>  <Rbt.Executable>
rbdock ($Id: //depot/dev/client3/rdock/2013.1/src/exe/rbdock.cxx#4 $)

>  <Rbt.Library>
libRbt.so (2013.1, Build901 2013/11/27)

>  <Rbt.Parameter_File>
/export/apps/rDock/src/rDock_2013.1_src/data/scripts/dock_solv.prm

>  <Rbt.Receptor>
prm/blind_docking_80.prm

>  <SCORE>
-14.5636

>  <SCORE.INTER>
-14.5636

>  <SCORE.INTER.CONST>
1

>  <SCORE.INTER.POLAR>
0

>  <SCORE.INTER.ROT>
0

>  <SCORE.INTER.SOLV>
7.8276

>  <SCORE.INTER.VDW>
-15.9183

>  <SCORE.INTER.norm>
-1.45636

>  <SCORE.INTRA>
0

>  <SCORE.INTRA.DIHEDRAL>
0

>  <SCORE.INTRA.DIHEDRAL.0>
0

>  <SCORE.INTRA.POLAR>
0

>  <SCORE.INTRA.POLAR.0>
0

>  <SCORE.INTRA.REPUL>
0

>  <SCORE.INTRA.REPUL.0>
0

>  <SCORE.INTRA.SOLV>
0

>  <SCORE.INTRA.SOLV.lig_0>
-23.8918

>  <SCORE.INTRA.VDW>
0

>  <SCORE.INTRA.VDW.0>
0

>  <SCORE.INTRA.norm>
0

>  <SCORE.RESTR>
0

>  <SCORE.RESTR.CAVITY>
0

>  <SCORE.RESTR.norm>
0

>  <SCORE.SYSTEM>
0

>  <SCORE.SYSTEM.CONST>
0

>  <SCORE.SYSTEM.DIHEDRAL>
0

>  <SCORE.SYSTEM.SOLV>
0

>  <SCORE.SYSTEM.norm>
0

>  <SCORE.heavy>
10

>  <SCORE.norm>
-1.45636

>  <RMSD>
0.750

$$$$
ligand
 OpenBabel11021811513D
libRbt.so/2013.1/901 2013/11/27
 10 11  0  0  0  0  0  0  0  0999 V2000
    5.9037   17.4091    2.6279 N   0  0  0  0  0  0  0  0  0  0  0  0
    6.8003   18.4006    2.5611 C   0  0  0  0  0  0  0  0  0  0  0  0
    7.2080   19.2279    3.5224 N   0  0  0  0  0  0  0  0  0  0  0  0
    6.5838   18.9581    4.6794 C   0  0  0  0  0  0  0  0  0  0  0  0
    5.6404   17.9740    4.9036 C   0  0  0  0  0  0  0  0  0  0  0  0
    5.2932   17.1622    3.8057 C   0  0  0  0  0  0  0  0  0  0  0  0
    4.3975   16.1725    3.8767 N   0  0  0  0  0  0  0  0  0  0  0  0
    5.2168   17.9912    6.2221 N   0  0  0  0  0  0  0  0  0  0  0  0
    5.9019   18.9724    6.7600 C   0  0  0  0  0  0  0  0  0  0  0  0
    6.7461   19.5994    5.8862 N   0  0  0  0  0  0  0  0  0  0  0  0
  1  2  2  0  0  0  0
  1  6  1  0  0  0  0
  2  3  1  0  0  0  0
  3  4  2  0  0  0  0
  4  5  1  0  0  0  0
  4 10  1  0  0  0  0
  5  6  2  0  0  0  0
  5  8  1  0  0  0  0
  6  7  1  0  0  0  0
  8  9  1  0  0  0  0
  9 10  2  0  0  0  0
M  END
>  <CHROM.1>
5.96343540,18.17855605,4.48009261,-1.80403364,0.81505968,1.20856262

>  <Name>
ligand

>  <RI>
0

>  <Rbt.Current_Directory>
/home/itssahil/PROJECTS/Mol_Feturizer/New_Systems/rnas/4XNR

>  <Rbt.Executable>
rbdock ($Id: //depot/dev/client3/rdock/2013.1/src/exe/rbdock.cxx#4 $)

>  <Rbt.Library>
libRbt.so (2013.1, Build901 2013/11/27)

>  <Rbt.Parameter_File>
/export/apps/rDock/src/rDock_2013.1_src/data/scripts/dock_solv.prm

>  <Rbt.Receptor>
prm/pocket_docking_3.prm

>  <SCORE>
-14.5832

>  <SCORE.INTER>
-14.5832

>  <SCORE.INTER.CONST>
1

>  <SCORE.INTER.POLAR>
0

>  <SCORE.INTER.ROT>
0

>  <SCORE.INTER.SOLV>
7.53285

>  <SCORE.INTER.VDW>
-15.8331

>  <SCORE.INTER.norm>
-1.45832

>  <SCORE.INTRA>
0

>  <SCORE.INTRA.DIHEDRAL>
0

>  <SCORE.INTRA.DIHEDRAL.0>
0

>  <SCORE.INTRA.POLAR>
0

>  <SCORE.INTRA.POLAR.0>
0

>  <SCORE.INTRA.REPUL>
0

>  <SCORE.INTRA.REPUL.0>
0

>  <SCORE.INTRA.SOLV>
0

>  <SCORE.INTRA.SOLV.lig_0>
-23.8918

>  <SCORE.INTRA.VDW>
0

>  <SCORE.INTRA.VDW.0>
0

>  <SCORE.INTRA.norm>
0

>  <SCORE.RESTR>
0

>  <SCORE.RESTR.CAVITY>
0

>  <SCORE.RESTR.norm>
0

>  <SCORE.SYSTEM>
0

>  <SCORE.SYSTEM.CONST>
0

>  <SCORE.SYSTEM.DIHEDRAL>
0

>  <SCORE.SYSTEM.SOLV>
0

>  <SCORE.SYSTEM.norm>
0

>  <SCORE.heavy>
10

>  <SCORE.norm>
-1.45832

>  <RMSD>
0.750

$$$$
ligand
 OpenBabel11021811513D
libRbt.so/2013.1/901 2013/11/27
 10 11  0  0  0  0  0  0  0  0999 V2000
    5.9097   17.5004    2.5807 N   0  0  0  0  0  0  0  0  0  0  0  0
    6.7510   18.5399    2.5272 C   0  0  0  0  0  0  0  0  0  0  0  0
    7.1316   19.3610    3.5048 N   0  0  0  0  0  0  0  0  0  0  0  0
    6.5439   19.0262    4.6640 C   0  0  0  0  0  0  0  0  0  0  0  0
    5.6583   17.9873    4.8756 C   0  0  0  0  0  0  0  0  0  0  0  0
    5.3347   17.1886    3.7610 C   0  0  0  0  0  0  0  0  0  0  0  0
    4.4942   16.1508    3.8187 N   0  0  0  0  0  0  0  0  0  0  0  0
    5.2584   17.9454    6.2010 N   0  0  0  0  0  0  0  0  0  0  0  0
    5.9002   18.9465    6.7552 C   0  0  0  0  0  0  0  0  0  0  0  0
    6.6939   19.6418    5.8857 N   0  0  0  0  0  0  0  0  0  0  0  0
  1  2  2  0  0  0  0
  1  6  1  0  0  0  0
  2  3  1  0  0  0  0
  3  4  2  0  0  0  0
  4  5  1  0  0  0  0
  4 10  1  0  0  0  0
  5  6  2  0  0  0  0
  5  8  1  0  0  0  0
  6  7  1  0  0  0  0
  8  9  1  0  0  0  0
  9 10  2  0  0  0  0
M  END
>  <CHROM.1>
5.96221792,18.22043493,4.45283647,-1.80129746,0.87117085,1.23462971

>  <Name>
ligand

>  <RI>
0

>  <Rbt.Current_Directory>
/home/itssahil/PROJECTS/Mol_Feturizer/New_Systems/rnas/4XNR

>  <Rbt.Executable>
rbdock ($Id: //depot/dev/client3/rdock/2013.1/src/exe/rbdock.cxx#4 $)

>  <Rbt.Library>
libRbt.so (2013.1, Build901 2013/11/27)

>  <Rbt.Parameter_File>
/export/apps/rDock/src/rDock_2013.1_src/data/scripts/dock_solv.prm

>  <Rbt.Receptor>
prm/pocket_docking_4.prm

>  <SCORE>
-14.5054

>  <SCORE.INTER>
-14.5054

>  <SCORE.INTER.CONST>
1

>  <SCORE.INTER.POLAR>
0

>  <SCORE.INTER.ROT>
0

>  <SCORE.INTER.SOLV>
7.71641

>  <SCORE.INTER.VDW>
-15.8424

>  <SCORE.INTER.norm>
-1.45054

>  <SCORE.INTRA>
0

>  <SCORE.INTRA.DIHEDRAL>
0

>  <SCORE.INTRA.DIHEDRAL.0>
0

>  <SCORE.INTRA.POLAR>
0

>  <SCORE.INTRA.POLAR.0>
0

>  <SCORE.INTRA.REPUL>
0

>  <SCORE.INTRA.REPUL.0>
0

>  <SCORE.INTRA.SOLV>
0

>  <SCORE.INTRA.SOLV.lig_0>
-23.8918

>  <SCORE.INTRA.VDW>
0

>  <SCORE.INTRA.VDW.0>
0

>  <SCORE.INTRA.norm>
0

>  <SCORE.RESTR>
0

>  <SCORE.RESTR.CAVITY>
0

>  <SCORE.RESTR.norm>
0

>  <SCORE.SYSTEM>
0

>  <SCORE.SYSTEM.CONST>
0

>  <SCORE.SYSTEM.DIHEDRAL>
0

>  <SCORE.SYSTEM.SOLV>
0

>  <SCORE.SYSTEM.norm>
0

>  <SCORE.heavy>
10

>  <SCORE.norm>
-1.45054

>  <RMSD>
0.750

$$$$
ligand
 OpenBabel11021811513D
libRbt.so/2013.1/901 2013/11/27
 10 11  0  0  0  0  0  0  0  0999 V2000
    5.9624   17.4378    2.6151 N   0  0  0  0  0  0  0  0  0  0  0  0
    6.7755   18.4985    2.5430 C   0  0  0  0  0  0  0  0  0  0  0  0
    7.1244   19.3537    3.5030 N   0  0  0  0  0  0  0  0  0  0  0  0
    6.5353   19.0316    4.6651 C   0  0  0  0  0  0  0  0  0  0  0  0
    5.6765   17.9742    4.8950 C   0  0  0  0  0  0  0  0  0  0  0  0
    5.3852   17.1396    3.7979 C   0  0  0  0  0  0  0  0  0  0  0  0
    4.5729   16.0808    3.8742 N   0  0  0  0  0  0  0  0  0  0  0  0
    5.2656   17.9540    6.2175 N   0  0  0  0  0  0  0  0  0  0  0  0
    5.8746   18.9859    6.7520 C   0  0  0  0  0  0  0  0  0  0  0  0
    6.6571   19.6811    5.8723 N   0  0  0  0  0  0  0  0  0  0  0  0
  1  2  2  0  0  0  0
  1  6  1  0  0  0  0
  2  3  1  0  0  0  0
  3  4  2  0  0  0  0
  4  5  1  0  0  0  0
  4 10  1  0  0  0  0
  5  6  2  0  0  0  0
  5  8  1  0  0  0  0
  6  7  1  0  0  0  0
  8  9  1  0  0  0  0
  9 10  2  0  0  0  0
M  END
>  <CHROM.1>
5.97782919,18.20511550,4.46913644,-1.77291119,0.89371734,1.18785377

>  <Name>
ligand

>  <RI>
0

>  <Rbt.Current_Directory>
/home/itssahil/PROJECTS/Mol_Feturizer/New_Systems/rnas/4XNR

>  <Rbt.Executable>
rbdock ($Id: //depot/dev/client3/rdock/2013.1/src/exe/rbdock.cxx#4 $)

>  <Rbt.Library>
libRbt.so (2013.1, Build901 2013/11/27)

>  <Rbt.Parameter_File>
/export/apps/rDock/src/rDock_2013.1_src/data/scripts/dock_solv.prm

>  <Rbt.Receptor>
prm/pocket_docking_5.prm

>  <SCORE>
-14.5581

>  <SCORE.INTER>
-14.5581

>  <SCORE.INTER.CONST>
1

>  <SCORE.INTER.POLAR>
0

>  <SCORE.INTER.ROT>
0

>  <SCORE.INTER.SOLV>
8.151

>  <SCORE.INTER.VDW>
-16.0224

>  <SCORE.INTER.norm>
-1.45581

>  <SCORE.INTRA>
0

>  <SCORE.INTRA.DIHEDRAL>
0

>  <SCORE.INTRA.DIHEDRAL.0>
0

>  <SCORE.INTRA.POLAR>
0

>  <SCORE.INTRA.POLAR.0>
0

>  <SCORE.INTRA.REPUL>
0

>  <SCORE.INTRA.REPUL.0>
0

>  <SCORE.INTRA.SOLV>
0

>  <SCORE.INTRA.SOLV.lig_0>
-23.8918

>  <SCORE.INTRA.VDW>
0

>  <SCORE.INTRA.VDW.0>
0

>  <SCORE.INTRA.norm>
0

>  <SCORE.RESTR>
0

>  <SCORE.RESTR.CAVITY>
0

>  <SCORE.RESTR.norm>
0

>  <SCORE.SYSTEM>
0

>  <SCORE.SYSTEM.CONST>
0

>  <SCORE.SYSTEM.DIHEDRAL>
0

>  <SCORE.SYSTEM.SOLV>
0

>  <SCORE.SYSTEM.norm>
0

>  <SCORE.heavy>
10

>  <SCORE.norm>
-1.45581

>  <RMSD>
0.750

$$$$
ligand
 OpenBabel11021811513D
libRbt.so/2013.1/901 2013/11/27
 10 11  0  0  0  0  0  0  0  0999 V2000
    5.9028   17.4197    2.6278 N   0  0  0  0  0  0  0  0  0  0  0  0
    6.7700   18.4357    2.5443 C   0  0  0  0  0  0  0  0  0  0  0  0
    7.1678   19.2783    3.4964 N   0  0  0  0  0  0  0  0  0  0  0  0
    6.5681   18.9959    4.6634 C   0  0  0  0  0  0  0  0  0  0  0  0
    5.6561   17.9866    4.9049 C   0  0  0  0  0  0  0  0  0  0  0  0
    5.3163   17.1607    3.8152 C   0  0  0  0  0  0  0  0  0  0  0  0
    4.4500   16.1465    3.9029 N   0  0  0  0  0  0  0  0  0  0  0  0
    5.2510   17.9976    6.2293 N   0  0  0  0  0  0  0  0  0  0  0  0
    5.9157   18.9999    6.7535 C   0  0  0  0  0  0  0  0  0  0  0  0
    6.7294   19.6467    5.8652 N   0  0  0  0  0  0  0  0  0  0  0  0
  1  2  2  0  0  0  0
  1  6  1  0  0  0  0
  2  3  1  0  0  0  0
  3  4  2  0  0  0  0
  4  5  1  0  0  0  0
  4 10  1  0  0  0  0
  5  6  2  0  0  0  0
  5  8  1  0  0  0  0
  6  7  1  0  0  0  0
  8  9  1  0  0  0  0
  9 10  2  0  0  0  0
M  END
>  <CHROM.1>
5.96715969,18.19839225,4.47599972,-1.80907136,0.84650020,1.20820756

>  <Name>
ligand

>  <RI>
0

>  <Rbt.Current_Directory>
/home/itssahil/PROJECTS/Mol_Feturizer/New_Systems/rnas/4XNR

>  <Rbt.Executable>
rbdock ($Id: //depot/dev/client3/rdock/2013.1/src/exe/rbdock.cxx#4 $)

>  <Rbt.Library>
libRbt.so (2013.1, Build901 2013/11/27)

>  <Rbt.Parameter_File>
/export/apps/rDock/src/rDock_2013.1_src/data/scripts/dock_solv.prm

>  <Rbt.Receptor>
prm/pocket_docking_5.prm

>  <SCORE>
-14.5918

>  <SCORE.INTER>
-14.5918

>  <SCORE.INTER.CONST>
1

>  <SCORE.INTER.POLAR>
0

>  <SCORE.INTER.ROT>
0

>  <SCORE.INTER.SOLV>
7.75701

>  <SCORE.INTER.VDW>
-15.9136

>  <SCORE.INTER.norm>
-1.45918

>  <SCORE.INTRA>
0

>  <SCORE.INTRA.DIHEDRAL>
0

>  <SCORE.INTRA.DIHEDRAL.0>
0

>  <SCORE.INTRA.POLAR>
0

>  <SCORE.INTRA.POLAR.0>
0

>  <SCORE.INTRA.REPUL>
0

>  <SCORE.INTRA.REPUL.0>
0

>  <SCORE.INTRA.SOLV>
0

>  <SCORE.INTRA.SOLV.lig_0>
-23.8918

>  <SCORE.INTRA.VDW>
0

>  <SCORE.INTRA.VDW.0>
0

>  <SCORE.INTRA.norm>
0

>  <SCORE.RESTR>
0

>  <SCORE.RESTR.CAVITY>
0

>  <SCORE.RESTR.norm>
0

>  <SCORE.SYSTEM>
0

>  <SCORE.SYSTEM.CONST>
0

>  <SCORE.SYSTEM.DIHEDRAL>
0

>  <SCORE.SYSTEM.SOLV>
0

>  <SCORE.SYSTEM.norm>
0

>  <SCORE.heavy>
10

>  <SCORE.norm>
-1.45918

>  <RMSD>
0.750

$$$$
ligand
 OpenBabel11021811513D
libRbt.so/2013.1/901 2013/11/27
 10 11  0  0  0  0  0  0  0  0999 V2000
    5.8994   17.4258    2.6249 N   0  0  0  0  0  0  0  0  0  0  0  0
    6.7740   18.4357    2.5440 C   0  0  0  0  0  0  0  0  0  0  0  0
    7.1786   19.2723    3.4984 N   0  0  0  0  0  0  0  0  0  0  0  0
    6.5776   18.9907    4.6649 C   0  0  0  0  0  0  0  0  0  0  0  0
    5.6583   17.9874    4.9038 C   0  0  0  0  0  0  0  0  0  0  0  0
    5.3118   17.1674    3.8119 C   0  0  0  0  0  0  0  0  0  0  0  0
    4.4382   16.1593    3.8970 N   0  0  0  0  0  0  0  0  0  0  0  0
    5.2542   17.9972    6.2285 N   0  0  0  0  0  0  0  0  0  0  0  0
    5.9266   18.9930    6.7554 C   0  0  0  0  0  0  0  0  0  0  0  0
    6.7444   19.6366    5.8686 N   0  0  0  0  0  0  0  0  0  0  0  0
  1  2  2  0  0  0  0
  1  6  1  0  0  0  0
  2  3  1  0  0  0  0
  3  4  2  0  0  0  0
  4  5  1  0  0  0  0
  4 10  1  0  0  0  0
  5  6  2  0  0  0  0
  5  8  1  0  0  0  0
  6  7  1  0  0  0  0
  8  9  1  0  0  0  0
  9 10  2  0  0  0  0
M  END
>  <CHROM.1>
5.97066787,18.19823045,4.47543420,-1.81386325,0.83986212,1.21490370

>  <Name>
ligand

>  <RI>
0

>  <Rbt.Current_Directory>
/home/itssahil/PROJECTS/Mol_Feturizer/New_Systems/rnas/4XNR

>  <Rbt.Executable>
rbdock ($Id: //depot/dev/client3/rdock/2013.1/src/exe/rbdock.cxx#4 $)

>  <Rbt.Library>
libRbt.so (2013.1, Build901 2013/11/27)

>  <Rbt.Parameter_File>
/export/apps/rDock/src/rDock_2013.1_src/data/scripts/dock_solv.prm

>  <Rbt.Receptor>
prm/pocket_docking_7.prm

>  <SCORE>
-14.59

>  <SCORE.INTER>
-14.59

>  <SCORE.INTER.CONST>
1

>  <SCORE.INTER.POLAR>
0

>  <SCORE.INTER.ROT>
0

>  <SCORE.INTER.SOLV>
7.69037

>  <SCORE.INTER.VDW>
-15.8901

>  <SCORE.INTER.norm>
-1.459

>  <SCORE.INTRA>
0

>  <SCORE.INTRA.DIHEDRAL>
0

>  <SCORE.INTRA.DIHEDRAL.0>
0

>  <SCORE.INTRA.POLAR>
0

>  <SCORE.INTRA.POLAR.0>
0

>  <SCORE.INTRA.REPUL>
0

>  <SCORE.INTRA.REPUL.0>
0

>  <SCORE.INTRA.SOLV>
0

>  <SCORE.INTRA.SOLV.lig_0>
-23.8918

>  <SCORE.INTRA.VDW>
0

>  <SCORE.INTRA.VDW.0>
0

>  <SCORE.INTRA.norm>
0

>  <SCORE.RESTR>
0

>  <SCORE.RESTR.CAVITY>
0

>  <SCORE.RESTR.norm>
0

>  <SCORE.SYSTEM>
0

>  <SCORE.SYSTEM.CONST>
0

>  <SCORE.SYSTEM.DIHEDRAL>
0

>  <SCORE.SYSTEM.SOLV>
0

>  <SCORE.SYSTEM.norm>
0

>  <SCORE.heavy>
10

>  <SCORE.norm>
-1.459

>  <RMSD>
0.750

$$$$
ligand
 OpenBabel11021811513D
libRbt.so/2013.1/901 2013/11/27
 10 11  0  0  0  0  0  0  0  0999 V2000
    5.8954   17.4256    2.6187 N   0  0  0  0  0  0  0  0  0  0  0  0
    6.7993   18.4109    2.5588 C   0  0  0  0  0  0  0  0  0  0  0  0
    7.2191   19.2230    3.5278 N   0  0  0  0  0  0  0  0  0  0  0  0
    6.5999   18.9435    4.6852 C   0  0  0  0  0  0  0  0  0  0  0  0
    5.6501   17.9640    4.9028 C   0  0  0  0  0  0  0  0  0  0  0  0
    5.2900   17.1687    3.7970 C   0  0  0  0  0  0  0  0  0  0  0  0
    4.3871   16.1852    3.8612 N   0  0  0  0  0  0  0  0  0  0  0  0
    5.2346   17.9681    6.2240 N   0  0  0  0  0  0  0  0  0  0  0  0
    5.9305   18.9371    6.7699 C   0  0  0  0  0  0  0  0  0  0  0  0
    6.7744   19.5685    5.8988 N   0  0  0  0  0  0  0  0  0  0  0  0
  1  2  2  0  0  0  0
  1  6  1  0  0  0  0
  2  3  1  0  0  0  0
  3  4  2  0  0  0  0
  4  5  1  0  0  0  0
  4 10  1  0  0  0  0
  5  6  2  0  0  0  0
  5  8  1  0  0  0  0
  6  7  1  0  0  0  0
  8  9  1  0  0  0  0
  9 10  2  0  0  0  0
M  END
>  <CHROM.1>
5.97221254,18.17137117,4.47994534,-1.81615622,0.80984190,1.22983238

>  <Name>
ligand

>  <RI>
0

>  <Rbt.Current_Directory>
/home/itssahil/PROJECTS/Mol_Feturizer/New_Systems/rnas/4XNR

>  <Rbt.Executable>
rbdock ($Id: //depot/dev/client3/rdock/2013.1/src/exe/rbdock.cxx#4 $)

>  <Rbt.Library>
libRbt.so (2013.1, Build901 2013/11/27)

>  <Rbt.Parameter_File>
/export/apps/rDock/src/rDock_2013.1_src/data/scripts/dock_solv.prm

>  <Rbt.Receptor>
prm/pocket_docking_8.prm

>  <SCORE>
-14.5734

>  <SCORE.INTER>
-14.5734

>  <SCORE.INTER.CONST>
1

>  <SCORE.INTER.POLAR>
0

>  <SCORE.INTER.ROT>
0

>  <SCORE.INTER.SOLV>
7.45949

>  <SCORE.INTER.VDW>
-15.8021

>  <SCORE.INTER.norm>
-1.45734

>  <SCORE.INTRA>
0

>  <SCORE.INTRA.DIHEDRAL>
0

>  <SCORE.INTRA.DIHEDRAL.0>
0

>  <SCORE.INTRA.POLAR>
0

>  <SCORE.INTRA.POLAR.0>
0

>  <SCORE.INTRA.REPUL>
0

>  <SCORE.INTRA.REPUL.0>
0

>  <SCORE.INTRA.SOLV>
0

>  <SCORE.INTRA.SOLV.lig_0>
-23.8918

>  <SCORE.INTRA.VDW>
0

>  <SCORE.INTRA.VDW.0>
0

>  <SCORE.INTRA.norm>
0

>  <SCORE.RESTR>
0

>  <SCORE.RESTR.CAVITY>
0

>  <SCORE.RESTR.norm>
0

>  <SCORE.SYSTEM>
0

>  <SCORE.SYSTEM.CONST>
0

>  <SCORE.SYSTEM.DIHEDRAL>
0

>  <SCORE.SYSTEM.SOLV>
0

>  <SCORE.SYSTEM.norm>
0

>  <SCORE.heavy>
10

>  <SCORE.norm>
-1.45734

>  <RMSD>
0.750

$$$$
ligand
 OpenBabel11021811513D
libRbt.so/2013.1/901 2013/11/27
 10 11  0  0  0  0  0  0  0  0999 V2000
    5.8782   17.4166    2.6302 N   0  0  0  0  0  0  0  0  0  0  0  0
    6.7467   18.4312    2.5423 C   0  0  0  0  0  0  0  0  0  0  0  0
    7.1495   19.2741    3.4920 N   0  0  0  0  0  0  0  0  0  0  0  0
    6.5540   18.9938    4.6616 C   0  0  0  0  0  0  0  0  0  0  0  0
    5.6414   17.9861    4.9076 C   0  0  0  0  0  0  0  0  0  0  0  0
    5.2960   17.1597    3.8201 C   0  0  0  0  0  0  0  0  0  0  0  0
    4.4285   16.1469    3.9122 N   0  0  0  0  0  0  0  0  0  0  0  0
    5.2415   17.9990    6.2336 N   0  0  0  0  0  0  0  0  0  0  0  0
    5.9098   19.0008    6.7542 C   0  0  0  0  0  0  0  0  0  0  0  0
    6.7211   19.6455    5.8621 N   0  0  0  0  0  0  0  0  0  0  0  0
  1  2  2  0  0  0  0
  1  6  1  0  0  0  0
  2  3  1  0  0  0  0
  3  4  2  0  0  0  0
  4  5  1  0  0  0  0
  4 10  1  0  0  0  0
  5  6  2  0  0  0  0
  5  8  1  0  0  0  0
  6  7  1  0  0  0  0
  8  9  1  0  0  0  0
  9 10  2  0  0  0  0
M  END
>  <CHROM.1>
5.95107531,18.19701235,4.47733734,-1.81543981,0.84641540,1.21202097

>  <Name>
ligand

>  <RI>
0

>  <Rbt.Current_Directory>
/home/itssahil/PROJECTS/Mol_Feturizer/New_Systems/rnas/4XNR

>  <Rbt.Executable>
rbdock ($Id: //depot/dev/client3/rdock/2013.1/src/exe/rbdock.cxx#4 $)

>  <Rbt.Library>
libRbt.so (2013.1, Build901 2013/11/27)

>  <Rbt.Parameter_File>
/export/apps/rDock/src/rDock_2013.1_src/data/scripts/dock_solv.prm

>  <Rbt.Receptor>
prm/pocket_docking_8.prm

>  <SCORE>
-14.5675

>  <SCORE.INTER>
-14.5675

>  <SCORE.INTER.CONST>
1

>  <SCORE.INTER.POLAR>
0

>  <SCORE.INTER.ROT>
0

>  <SCORE.INTER.SOLV>
7.7478

>  <SCORE.INTER.VDW>
-15.8943

>  <SCORE.INTER.norm>
-1.45675

>  <SCORE.INTRA>
0

>  <SCORE.INTRA.DIHEDRAL>
0

>  <SCORE.INTRA.DIHEDRAL.0>
0

>  <SCORE.INTRA.POLAR>
0

>  <SCORE.INTRA.POLAR.0>
0

>  <SCORE.INTRA.REPUL>
0

>  <SCORE.INTRA.REPUL.0>
0

>  <SCORE.INTRA.SOLV>
0

>  <SCORE.INTRA.SOLV.lig_0>
-23.8918

>  <SCORE.INTRA.VDW>
0

>  <SCORE.INTRA.VDW.0>
0

>  <SCORE.INTRA.norm>
0

>  <SCORE.RESTR>
0

>  <SCORE.RESTR.CAVITY>
0

>  <SCORE.RESTR.norm>
0

>  <SCORE.SYSTEM>
0

>  <SCORE.SYSTEM.CONST>
0

>  <SCORE.SYSTEM.DIHEDRAL>
0

>  <SCORE.SYSTEM.SOLV>
0

>  <SCORE.SYSTEM.norm>
0

>  <SCORE.heavy>
10

>  <SCORE.norm>
-1.45675

>  <RMSD>
0.750

$$$$
ligand
 OpenBabel11021811513D
libRbt.so/2013.1/901 2013/11/27
 10 11  0  0  0  0  0  0  0  0999 V2000
    5.8965   17.4108    2.6274 N   0  0  0  0  0  0  0  0  0  0  0  0
    6.7929   18.4024    2.5597 C   0  0  0  0  0  0  0  0  0  0  0  0
    7.2032   19.2282    3.5212 N   0  0  0  0  0  0  0  0  0  0  0  0
    6.5824   18.9564    4.6796 C   0  0  0  0  0  0  0  0  0  0  0  0
    5.6397   17.9720    4.9048 C   0  0  0  0  0  0  0  0  0  0  0  0
    5.2893   17.1619    3.8066 C   0  0  0  0  0  0  0  0  0  0  0  0
    4.3940   16.1720    3.8785 N   0  0  0  0  0  0  0  0  0  0  0  0
    5.2198   17.9871    6.2245 N   0  0  0  0  0  0  0  0  0  0  0  0
    5.9063   18.9674    6.7621 C   0  0  0  0  0  0  0  0  0  0  0  0
    6.7481   19.5959    5.8869 N   0  0  0  0  0  0  0  0  0  0  0  0
  1  2  2  0  0  0  0
  1  6  1  0  0  0  0
  2  3  1  0  0  0  0
  3  4  2  0  0  0  0
  4  5  1  0  0  0  0
  4 10  1  0  0  0  0
  5  6  2  0  0  0  0
  5  8  1  0  0  0  0
  6  7  1  0  0  0  0
  8  9  1  0  0  0  0
  9 10  2  0  0  0  0
M  END
>  <CHROM.1>
5.96147074,18.17722242,4.48072176,-1.80788222,0.81611219,1.21297368

>  <Name>
ligand

>  <RI>
0

>  <Rbt.Current_Directory>
/home/itssahil/PROJECTS/Mol_Feturizer/New_Systems/rnas/4XNR

>  <Rbt.Executable>
rbdock ($Id: //depot/dev/client3/rdock/2013.1/src/exe/rbdock.cxx#4 $)

>  <Rbt.Library>
libRbt.so (2013.1, Build901 2013/11/27)

>  <Rbt.Parameter_File>
/export/apps/rDock/src/rDock_2013.1_src/data/scripts/dock_solv.prm

>  <Rbt.Receptor>
prm/pocket_docking_8.prm

>  <SCORE>
-14.5856

>  <SCORE.INTER>
-14.5856

>  <SCORE.INTER.CONST>
1

>  <SCORE.INTER.POLAR>
0

>  <SCORE.INTER.ROT>
0

>  <SCORE.INTER.SOLV>
7.53268

>  <SCORE.INTER.VDW>
-15.8346

>  <SCORE.INTER.norm>
-1.45856

>  <SCORE.INTRA>
0

>  <SCORE.INTRA.DIHEDRAL>
0

>  <SCORE.INTRA.DIHEDRAL.0>
0

>  <SCORE.INTRA.POLAR>
0

>  <SCORE.INTRA.POLAR.0>
0

>  <SCORE.INTRA.REPUL>
0

>  <SCORE.INTRA.REPUL.0>
0

>  <SCORE.INTRA.SOLV>
0

>  <SCORE.INTRA.SOLV.lig_0>
-23.8918

>  <SCORE.INTRA.VDW>
0

>  <SCORE.INTRA.VDW.0>
0

>  <SCORE.INTRA.norm>
0

>  <SCORE.RESTR>
0

>  <SCORE.RESTR.CAVITY>
0

>  <SCORE.RESTR.norm>
0

>  <SCORE.SYSTEM>
0

>  <SCORE.SYSTEM.CONST>
0

>  <SCORE.SYSTEM.DIHEDRAL>
0

>  <SCORE.SYSTEM.SOLV>
0

>  <SCORE.SYSTEM.norm>
0

>  <SCORE.heavy>
10

>  <SCORE.norm>
-1.45856

>  <RMSD>
0.750

$$$$
ligand
 OpenBabel11021811513D
libRbt.so/2013.1/901 2013/11/27
 10 11  0  0  0  0  0  0  0  0999 V2000
    5.8790   17.4264    2.6247 N   0  0  0  0  0  0  0  0  0  0  0  0
    6.7492   18.4405    2.5476 C   0  0  0  0  0  0  0  0  0  0  0  0
    7.1502   19.2752    3.5053 N   0  0  0  0  0  0  0  0  0  0  0  0
    6.5507   18.9864    4.6707 C   0  0  0  0  0  0  0  0  0  0  0  0
    5.6359   17.9781    4.9059 C   0  0  0  0  0  0  0  0  0  0  0  0
    5.2928   17.1608    3.8108 C   0  0  0  0  0  0  0  0  0  0  0  0
    4.4236   16.1486    3.8921 N   0  0  0  0  0  0  0  0  0  0  0  0
    5.2320   17.9810    6.2307 N   0  0  0  0  0  0  0  0  0  0  0  0
    5.9001   18.9776    6.7613 C   0  0  0  0  0  0  0  0  0  0  0  0
    6.7149   19.6283    5.8769 N   0  0  0  0  0  0  0  0  0  0  0  0
  1  2  2  0  0  0  0
  1  6  1  0  0  0  0
  2  3  1  0  0  0  0
  3  4  2  0  0  0  0
  4  5  1  0  0  0  0
  4 10  1  0  0  0  0
  5  6  2  0  0  0  0
  5  8  1  0  0  0  0
  6  7  1  0  0  0  0
  8  9  1  0  0  0  0
  9 10  2  0  0  0  0
M  END
>  <CHROM.1>
5.94725992,18.19197598,4.47826422,-1.81180344,0.84404104,1.21726583

>  <Name>
ligand

>  <RI>
0

>  <Rbt.Current_Directory>
/home/itssahil/PROJECTS/Mol_Feturizer/New_Systems/rnas/4XNR

>  <Rbt.Executable>
rbdock ($Id: //depot/dev/client3/rdock/2013.1/src/exe/rbdock.cxx#4 $)

>  <Rbt.Library>
libRbt.so (2013.1, Build901 2013/11/27)

>  <Rbt.Parameter_File>
/export/apps/rDock/src/rDock_2013.1_src/data/scripts/dock_solv.prm

>  <Rbt.Receptor>
prm/blind_docking_100.prm

>  <SCORE>
-14.542

>  <SCORE.INTER>
-14.542

>  <SCORE.INTER.CONST>
1

>  <SCORE.INTER.POLAR>
0

>  <SCORE.INTER.ROT>
0

>  <SCORE.INTER.SOLV>
7.6748

>  <SCORE.INTER.VDW>
-15.853

>  <SCORE.INTER.norm>
-1.4542

>  <SCORE.INTRA>
0

>  <SCORE.INTRA.DIHEDRAL>
0

>  <SCORE.INTRA.DIHEDRAL.0>
0

>  <SCORE.INTRA.POLAR>
0

>  <SCORE.INTRA.POLAR.0>
0

>  <SCORE.INTRA.REPUL>
0

>  <SCORE.INTRA.REPUL.0>
0

>  <SCORE.INTRA.SOLV>
0

>  <SCORE.INTRA.SOLV.lig_0>
-23.8918

>  <SCORE.INTRA.VDW>
0

>  <SCORE.INTRA.VDW.0>
0

>  <SCORE.INTRA.norm>
0

>  <SCORE.RESTR>
0

>  <SCORE.RESTR.CAVITY>
0

>  <SCORE.RESTR.norm>
0

>  <SCORE.SYSTEM>
0

>  <SCORE.SYSTEM.CONST>
0

>  <SCORE.SYSTEM.DIHEDRAL>
0

>  <SCORE.SYSTEM.SOLV>
0

>  <SCORE.SYSTEM.norm>
0

>  <SCORE.heavy>
10

>  <SCORE.norm>
-1.4542

>  <RMSD>
0.751

$$$$
ligand
 OpenBabel11021811513D
libRbt.so/2013.1/901 2013/11/27
 10 11  0  0  0  0  0  0  0  0999 V2000
    5.8816   17.4233    2.6276 N   0  0  0  0  0  0  0  0  0  0  0  0
    6.7564   18.4325    2.5407 C   0  0  0  0  0  0  0  0  0  0  0  0
    7.1658   19.2709    3.4916 N   0  0  0  0  0  0  0  0  0  0  0  0
    6.5698   18.9921    4.6613 C   0  0  0  0  0  0  0  0  0  0  0  0
    5.6511   17.9898    4.9064 C   0  0  0  0  0  0  0  0  0  0  0  0
    5.2992   17.1677    3.8177 C   0  0  0  0  0  0  0  0  0  0  0  0
    4.4254   16.1603    3.9089 N   0  0  0  0  0  0  0  0  0  0  0  0
    5.2529   18.0026    6.2329 N   0  0  0  0  0  0  0  0  0  0  0  0
    5.9282   18.9991    6.7547 C   0  0  0  0  0  0  0  0  0  0  0  0
    6.7425   19.6404    5.8629 N   0  0  0  0  0  0  0  0  0  0  0  0
  1  2  2  0  0  0  0
  1  6  1  0  0  0  0
  2  3  1  0  0  0  0
  3  4  2  0  0  0  0
  4  5  1  0  0  0  0
  4 10  1  0  0  0  0
  5  6  2  0  0  0  0
  5  8  1  0  0  0  0
  6  7  1  0  0  0  0
  8  9  1  0  0  0  0
  9 10  2  0  0  0  0
M  END
>  <CHROM.1>
5.96164333,18.19957429,4.47619544,-1.82046571,0.84086134,1.21774163

>  <Name>
ligand

>  <RI>
0

>  <Rbt.Current_Directory>
/home/itssahil/PROJECTS/Mol_Feturizer/New_Systems/rnas/4XNR

>  <Rbt.Executable>
rbdock ($Id: //depot/dev/client3/rdock/2013.1/src/exe/rbdock.cxx#4 $)

>  <Rbt.Library>
libRbt.so (2013.1, Build901 2013/11/27)

>  <Rbt.Parameter_File>
/export/apps/rDock/src/rDock_2013.1_src/data/scripts/dock_solv.prm

>  <Rbt.Receptor>
prm/blind_docking_100.prm

>  <SCORE>
-14.5893

>  <SCORE.INTER>
-14.5893

>  <SCORE.INTER.CONST>
1

>  <SCORE.INTER.POLAR>
0

>  <SCORE.INTER.ROT>
0

>  <SCORE.INTER.SOLV>
7.70479

>  <SCORE.INTER.VDW>
-15.8944

>  <SCORE.INTER.norm>
-1.45893

>  <SCORE.INTRA>
0

>  <SCORE.INTRA.DIHEDRAL>
0

>  <SCORE.INTRA.DIHEDRAL.0>
0

>  <SCORE.INTRA.POLAR>
0

>  <SCORE.INTRA.POLAR.0>
0

>  <SCORE.INTRA.REPUL>
0

>  <SCORE.INTRA.REPUL.0>
0

>  <SCORE.INTRA.SOLV>
0

>  <SCORE.INTRA.SOLV.lig_0>
-23.8918

>  <SCORE.INTRA.VDW>
0

>  <SCORE.INTRA.VDW.0>
0

>  <SCORE.INTRA.norm>
0

>  <SCORE.RESTR>
0

>  <SCORE.RESTR.CAVITY>
0

>  <SCORE.RESTR.norm>
0

>  <SCORE.SYSTEM>
0

>  <SCORE.SYSTEM.CONST>
0

>  <SCORE.SYSTEM.DIHEDRAL>
0

>  <SCORE.SYSTEM.SOLV>
0

>  <SCORE.SYSTEM.norm>
0

>  <SCORE.heavy>
10

>  <SCORE.norm>
-1.45893

>  <RMSD>
0.751

$$$$
ligand
 OpenBabel11021811513D
libRbt.so/2013.1/901 2013/11/27
 10 11  0  0  0  0  0  0  0  0999 V2000
    5.8548   17.4131    2.6329 N   0  0  0  0  0  0  0  0  0  0  0  0
    6.6715   18.4686    2.5314 C   0  0  0  0  0  0  0  0  0  0  0  0
    7.0497   19.3293    3.4752 N   0  0  0  0  0  0  0  0  0  0  0  0
    6.4891   19.0197    4.6546 C   0  0  0  0  0  0  0  0  0  0  0  0
    5.6308   17.9689    4.9151 C   0  0  0  0  0  0  0  0  0  0  0  0
    5.3067   17.1274    3.8325 C   0  0  0  0  0  0  0  0  0  0  0  0
    4.4910   16.0738    3.9383 N   0  0  0  0  0  0  0  0  0  0  0  0
    5.2542   17.9615    6.2478 N   0  0  0  0  0  0  0  0  0  0  0  0
    5.8823   18.9941    6.7582 C   0  0  0  0  0  0  0  0  0  0  0  0
    6.6456   19.6779    5.8530 N   0  0  0  0  0  0  0  0  0  0  0  0
  1  2  2  0  0  0  0
  1  6  1  0  0  0  0
  2  3  1  0  0  0  0
  3  4  2  0  0  0  0
  4  5  1  0  0  0  0
  4 10  1  0  0  0  0
  5  6  2  0  0  0  0
  5  8  1  0  0  0  0
  6  7  1  0  0  0  0
  8  9  1  0  0  0  0
  9 10  2  0  0  0  0
M  END
>  <CHROM.1>
5.92230594,18.19481068,4.47973735,-1.81463231,0.89791038,1.21250596

>  <Name>
ligand

>  <RI>
0

>  <Rbt.Current_Directory>
/home/itssahil/PROJECTS/Mol_Feturizer/New_Systems/rnas/4XNR

>  <Rbt.Executable>
rbdock ($Id: //depot/dev/client3/rdock/2013.1/src/exe/rbdock.cxx#4 $)

>  <Rbt.Library>
libRbt.so (2013.1, Build901 2013/11/27)

>  <Rbt.Parameter_File>
/export/apps/rDock/src/rDock_2013.1_src/data/scripts/dock_solv.prm

>  <Rbt.Receptor>
prm/blind_docking_80.prm

>  <SCORE>
-14.5457

>  <SCORE.INTER>
-14.5457

>  <SCORE.INTER.CONST>
1

>  <SCORE.INTER.POLAR>
0

>  <SCORE.INTER.ROT>
0

>  <SCORE.INTER.SOLV>
8.08667

>  <SCORE.INTER.VDW>
-15.9927

>  <SCORE.INTER.norm>
-1.45457

>  <SCORE.INTRA>
0

>  <SCORE.INTRA.DIHEDRAL>
0

>  <SCORE.INTRA.DIHEDRAL.0>
0

>  <SCORE.INTRA.POLAR>
0

>  <SCORE.INTRA.POLAR.0>
0

>  <SCORE.INTRA.REPUL>
0

>  <SCORE.INTRA.REPUL.0>
0

>  <SCORE.INTRA.SOLV>
0

>  <SCORE.INTRA.SOLV.lig_0>
-23.8918

>  <SCORE.INTRA.VDW>
0

>  <SCORE.INTRA.VDW.0>
0

>  <SCORE.INTRA.norm>
0

>  <SCORE.RESTR>
0

>  <SCORE.RESTR.CAVITY>
0

>  <SCORE.RESTR.norm>
0

>  <SCORE.SYSTEM>
0

>  <SCORE.SYSTEM.CONST>
0

>  <SCORE.SYSTEM.DIHEDRAL>
0

>  <SCORE.SYSTEM.SOLV>
0

>  <SCORE.SYSTEM.norm>
0

>  <SCORE.heavy>
10

>  <SCORE.norm>
-1.45457

>  <RMSD>
0.751

$$$$
ligand
 OpenBabel11021811513D
libRbt.so/2013.1/901 2013/11/27
 10 11  0  0  0  0  0  0  0  0999 V2000
    5.9003   17.4273    2.6243 N   0  0  0  0  0  0  0  0  0  0  0  0
    6.7817   18.4316    2.5474 C   0  0  0  0  0  0  0  0  0  0  0  0
    7.1894   19.2639    3.5044 N   0  0  0  0  0  0  0  0  0  0  0  0
    6.5838   18.9840    4.6689 C   0  0  0  0  0  0  0  0  0  0  0  0
    5.6575   17.9863    4.9038 C   0  0  0  0  0  0  0  0  0  0  0  0
    5.3082   17.1705    3.8094 C   0  0  0  0  0  0  0  0  0  0  0  0
    4.4278   16.1680    3.8906 N   0  0  0  0  0  0  0  0  0  0  0  0
    5.2502   17.9962    6.2275 N   0  0  0  0  0  0  0  0  0  0  0  0
    5.9278   18.9866    6.7579 C   0  0  0  0  0  0  0  0  0  0  0  0
    6.7520   19.6265    5.8743 N   0  0  0  0  0  0  0  0  0  0  0  0
  1  2  2  0  0  0  0
  1  6  1  0  0  0  0
  2  3  1  0  0  0  0
  3  4  2  0  0  0  0
  4  5  1  0  0  0  0
  4 10  1  0  0  0  0
  5  6  2  0  0  0  0
  5  8  1  0  0  0  0
  6  7  1  0  0  0  0
  8  9  1  0  0  0  0
  9 10  2  0  0  0  0
M  END
>  <CHROM.1>
5.97220668,18.19583210,4.47651969,-1.81390263,0.83292226,1.21680865

>  <Name>
ligand

>  <RI>
0

>  <Rbt.Current_Directory>
/home/itssahil/PROJECTS/Mol_Feturizer/New_Systems/rnas/4XNR

>  <Rbt.Executable>
rbdock ($Id: //depot/dev/client3/rdock/2013.1/src/exe/rbdock.cxx#4 $)

>  <Rbt.Library>
libRbt.so (2013.1, Build901 2013/11/27)

>  <Rbt.Parameter_File>
/export/apps/rDock/src/rDock_2013.1_src/data/scripts/dock_solv.prm

>  <Rbt.Receptor>
prm/pocket_docking_3.prm

>  <SCORE>
-14.5882

>  <SCORE.INTER>
-14.5882

>  <SCORE.INTER.CONST>
1

>  <SCORE.INTER.POLAR>
0

>  <SCORE.INTER.ROT>
0

>  <SCORE.INTER.SOLV>
7.63383

>  <SCORE.INTER.VDW>
-15.8701

>  <SCORE.INTER.norm>
-1.45882

>  <SCORE.INTRA>
0

>  <SCORE.INTRA.DIHEDRAL>
0

>  <SCORE.INTRA.DIHEDRAL.0>
0

>  <SCORE.INTRA.POLAR>
0

>  <SCORE.INTRA.POLAR.0>
0

>  <SCORE.INTRA.REPUL>
0

>  <SCORE.INTRA.REPUL.0>
0

>  <SCORE.INTRA.SOLV>
0

>  <SCORE.INTRA.SOLV.lig_0>
-23.8918

>  <SCORE.INTRA.VDW>
0

>  <SCORE.INTRA.VDW.0>
0

>  <SCORE.INTRA.norm>
0

>  <SCORE.RESTR>
0

>  <SCORE.RESTR.CAVITY>
0

>  <SCORE.RESTR.norm>
0

>  <SCORE.SYSTEM>
0

>  <SCORE.SYSTEM.CONST>
0

>  <SCORE.SYSTEM.DIHEDRAL>
0

>  <SCORE.SYSTEM.SOLV>
0

>  <SCORE.SYSTEM.norm>
0

>  <SCORE.heavy>
10

>  <SCORE.norm>
-1.45882

>  <RMSD>
0.751

$$$$
ligand
 OpenBabel11021811513D
libRbt.so/2013.1/901 2013/11/27
 10 11  0  0  0  0  0  0  0  0999 V2000
    5.8962   17.4206    2.6267 N   0  0  0  0  0  0  0  0  0  0  0  0
    6.7776   18.4251    2.5525 C   0  0  0  0  0  0  0  0  0  0  0  0
    7.1814   19.2580    3.5105 N   0  0  0  0  0  0  0  0  0  0  0  0
    6.5714   18.9788    4.6729 C   0  0  0  0  0  0  0  0  0  0  0  0
    5.6444   17.9810    4.9048 C   0  0  0  0  0  0  0  0  0  0  0  0
    5.2996   17.1644    3.8096 C   0  0  0  0  0  0  0  0  0  0  0  0
    4.4191   16.1617    3.8881 N   0  0  0  0  0  0  0  0  0  0  0  0
    5.2321   17.9917    6.2269 N   0  0  0  0  0  0  0  0  0  0  0  0
    5.9074   18.9826    6.7593 C   0  0  0  0  0  0  0  0  0  0  0  0
    6.7348   19.6221    5.8784 N   0  0  0  0  0  0  0  0  0  0  0  0
  1  2  2  0  0  0  0
  1  6  1  0  0  0  0
  2  3  1  0  0  0  0
  3  4  2  0  0  0  0
  4  5  1  0  0  0  0
  4 10  1  0  0  0  0
  5  6  2  0  0  0  0
  5  8  1  0  0  0  0
  6  7  1  0  0  0  0
  8  9  1  0  0  0  0
  9 10  2  0  0  0  0
M  END
>  <CHROM.1>
5.96073429,18.19033289,4.47860100,-1.80841903,0.83180390,1.21210113

>  <Name>
ligand

>  <RI>
0

>  <Rbt.Current_Directory>
/home/itssahil/PROJECTS/Mol_Feturizer/New_Systems/rnas/4XNR

>  <Rbt.Executable>
rbdock ($Id: //depot/dev/client3/rdock/2013.1/src/exe/rbdock.cxx#4 $)

>  <Rbt.Library>
libRbt.so (2013.1, Build901 2013/11/27)

>  <Rbt.Parameter_File>
/export/apps/rDock/src/rDock_2013.1_src/data/scripts/dock_solv.prm

>  <Rbt.Receptor>
prm/pocket_docking_3.prm

>  <SCORE>
-14.5675

>  <SCORE.INTER>
-14.5675

>  <SCORE.INTER.CONST>
1

>  <SCORE.INTER.POLAR>
0

>  <SCORE.INTER.ROT>
0

>  <SCORE.INTER.SOLV>
7.62331

>  <SCORE.INTER.VDW>
-15.8527

>  <SCORE.INTER.norm>
-1.45675

>  <SCORE.INTRA>
0

>  <SCORE.INTRA.DIHEDRAL>
0

>  <SCORE.INTRA.DIHEDRAL.0>
0

>  <SCORE.INTRA.POLAR>
0

>  <SCORE.INTRA.POLAR.0>
0

>  <SCORE.INTRA.REPUL>
0

>  <SCORE.INTRA.REPUL.0>
0

>  <SCORE.INTRA.SOLV>
0

>  <SCORE.INTRA.SOLV.lig_0>
-23.8918

>  <SCORE.INTRA.VDW>
0

>  <SCORE.INTRA.VDW.0>
0

>  <SCORE.INTRA.norm>
0

>  <SCORE.RESTR>
0

>  <SCORE.RESTR.CAVITY>
0

>  <SCORE.RESTR.norm>
0

>  <SCORE.SYSTEM>
0

>  <SCORE.SYSTEM.CONST>
0

>  <SCORE.SYSTEM.DIHEDRAL>
0

>  <SCORE.SYSTEM.SOLV>
0

>  <SCORE.SYSTEM.norm>
0

>  <SCORE.heavy>
10

>  <SCORE.norm>
-1.45675

>  <RMSD>
0.751

$$$$
ligand
 OpenBabel11021811513D
libRbt.so/2013.1/901 2013/11/27
 10 11  0  0  0  0  0  0  0  0999 V2000
    5.9023   17.4161    2.6325 N   0  0  0  0  0  0  0  0  0  0  0  0
    6.7497   18.4480    2.5407 C   0  0  0  0  0  0  0  0  0  0  0  0
    7.1340   19.3036    3.4867 N   0  0  0  0  0  0  0  0  0  0  0  0
    6.5430   19.0166    4.6570 C   0  0  0  0  0  0  0  0  0  0  0  0
    5.6512   17.9915    4.9069 C   0  0  0  0  0  0  0  0  0  0  0  0
    5.3242   17.1528    3.8231 C   0  0  0  0  0  0  0  0  0  0  0  0
    4.4778   16.1228    3.9192 N   0  0  0  0  0  0  0  0  0  0  0  0
    5.2497   18.0024    6.2324 N   0  0  0  0  0  0  0  0  0  0  0  0
    5.8965   19.0203    6.7489 C   0  0  0  0  0  0  0  0  0  0  0  0
    6.6952   19.6774    5.8546 N   0  0  0  0  0  0  0  0  0  0  0  0
  1  2  2  0  0  0  0
  1  6  1  0  0  0  0
  2  3  1  0  0  0  0
  3  4  2  0  0  0  0
  4  5  1  0  0  0  0
  4 10  1  0  0  0  0
  5  6  2  0  0  0  0
  5  8  1  0  0  0  0
  6  7  1  0  0  0  0
  8  9  1  0  0  0  0
  9 10  2  0  0  0  0
M  END
>  <CHROM.1>
5.95696203,18.20666309,4.47597048,-1.80260692,0.86537149,1.19752632

>  <Name>
ligand

>  <RI>
0

>  <Rbt.Current_Directory>
/home/itssahil/PROJECTS/Mol_Feturizer/New_Systems/rnas/4XNR

>  <Rbt.Executable>
rbdock ($Id: //depot/dev/client3/rdock/2013.1/src/exe/rbdock.cxx#4 $)

>  <Rbt.Library>
libRbt.so (2013.1, Build901 2013/11/27)

>  <Rbt.Parameter_File>
/export/apps/rDock/src/rDock_2013.1_src/data/scripts/dock_solv.prm

>  <Rbt.Receptor>
prm/pocket_docking_3.prm

>  <SCORE>
-14.5544

>  <SCORE.INTER>
-14.5544

>  <SCORE.INTER.CONST>
1

>  <SCORE.INTER.POLAR>
0

>  <SCORE.INTER.ROT>
0

>  <SCORE.INTER.SOLV>
7.90949

>  <SCORE.INTER.VDW>
-15.9394

>  <SCORE.INTER.norm>
-1.45544

>  <SCORE.INTRA>
0

>  <SCORE.INTRA.DIHEDRAL>
0

>  <SCORE.INTRA.DIHEDRAL.0>
0

>  <SCORE.INTRA.POLAR>
0

>  <SCORE.INTRA.POLAR.0>
0

>  <SCORE.INTRA.REPUL>
0

>  <SCORE.INTRA.REPUL.0>
0

>  <SCORE.INTRA.SOLV>
0

>  <SCORE.INTRA.SOLV.lig_0>
-23.8918

>  <SCORE.INTRA.VDW>
0

>  <SCORE.INTRA.VDW.0>
0

>  <SCORE.INTRA.norm>
0

>  <SCORE.RESTR>
0

>  <SCORE.RESTR.CAVITY>
0

>  <SCORE.RESTR.norm>
0

>  <SCORE.SYSTEM>
0

>  <SCORE.SYSTEM.CONST>
0

>  <SCORE.SYSTEM.DIHEDRAL>
0

>  <SCORE.SYSTEM.SOLV>
0

>  <SCORE.SYSTEM.norm>
0

>  <SCORE.heavy>
10

>  <SCORE.norm>
-1.45544

>  <RMSD>
0.751

$$$$
ligand
 OpenBabel11021811513D
libRbt.so/2013.1/901 2013/11/27
 10 11  0  0  0  0  0  0  0  0999 V2000
    5.9005   17.4209    2.6284 N   0  0  0  0  0  0  0  0  0  0  0  0
    6.7658   18.4385    2.5445 C   0  0  0  0  0  0  0  0  0  0  0  0
    7.1622   19.2820    3.4963 N   0  0  0  0  0  0  0  0  0  0  0  0
    6.5633   18.9988    4.6634 C   0  0  0  0  0  0  0  0  0  0  0  0
    5.6532   17.9880    4.9053 C   0  0  0  0  0  0  0  0  0  0  0  0
    5.3147   17.1611    3.8160 C   0  0  0  0  0  0  0  0  0  0  0  0
    4.4503   16.1453    3.9041 N   0  0  0  0  0  0  0  0  0  0  0  0
    5.2483   17.9985    6.2298 N   0  0  0  0  0  0  0  0  0  0  0  0
    5.9113   19.0022    6.7536 C   0  0  0  0  0  0  0  0  0  0  0  0
    6.7237   19.6503    5.8650 N   0  0  0  0  0  0  0  0  0  0  0  0
  1  2  2  0  0  0  0
  1  6  1  0  0  0  0
  2  3  1  0  0  0  0
  3  4  2  0  0  0  0
  4  5  1  0  0  0  0
  4 10  1  0  0  0  0
  5  6  2  0  0  0  0
  5  8  1  0  0  0  0
  6  7  1  0  0  0  0
  8  9  1  0  0  0  0
  9 10  2  0  0  0  0
M  END
>  <CHROM.1>
5.96377953,18.20018098,4.47634008,-1.80835797,0.84828470,1.20741219

>  <Name>
ligand

>  <RI>
0

>  <Rbt.Current_Directory>
/home/itssahil/PROJECTS/Mol_Feturizer/New_Systems/rnas/4XNR

>  <Rbt.Executable>
rbdock ($Id: //depot/dev/client3/rdock/2013.1/src/exe/rbdock.cxx#4 $)

>  <Rbt.Library>
libRbt.so (2013.1, Build901 2013/11/27)

>  <Rbt.Parameter_File>
/export/apps/rDock/src/rDock_2013.1_src/data/scripts/dock_solv.prm

>  <Rbt.Receptor>
prm/pocket_docking_3.prm

>  <SCORE>
-14.5944

>  <SCORE.INTER>
-14.5944

>  <SCORE.INTER.CONST>
1

>  <SCORE.INTER.POLAR>
0

>  <SCORE.INTER.ROT>
0

>  <SCORE.INTER.SOLV>
7.7647

>  <SCORE.INTER.VDW>
-15.9178

>  <SCORE.INTER.norm>
-1.45944

>  <SCORE.INTRA>
0

>  <SCORE.INTRA.DIHEDRAL>
0

>  <SCORE.INTRA.DIHEDRAL.0>
0

>  <SCORE.INTRA.POLAR>
0

>  <SCORE.INTRA.POLAR.0>
0

>  <SCORE.INTRA.REPUL>
0

>  <SCORE.INTRA.REPUL.0>
0

>  <SCORE.INTRA.SOLV>
0

>  <SCORE.INTRA.SOLV.lig_0>
-23.8918

>  <SCORE.INTRA.VDW>
0

>  <SCORE.INTRA.VDW.0>
0

>  <SCORE.INTRA.norm>
0

>  <SCORE.RESTR>
0

>  <SCORE.RESTR.CAVITY>
0

>  <SCORE.RESTR.norm>
0

>  <SCORE.SYSTEM>
0

>  <SCORE.SYSTEM.CONST>
0

>  <SCORE.SYSTEM.DIHEDRAL>
0

>  <SCORE.SYSTEM.SOLV>
0

>  <SCORE.SYSTEM.norm>
0

>  <SCORE.heavy>
10

>  <SCORE.norm>
-1.45944

>  <RMSD>
0.751

$$$$
ligand
 OpenBabel11021811513D
libRbt.so/2013.1/901 2013/11/27
 10 11  0  0  0  0  0  0  0  0999 V2000
    5.8988   17.4269    2.6183 N   0  0  0  0  0  0  0  0  0  0  0  0
    6.8054   18.4097    2.5585 C   0  0  0  0  0  0  0  0  0  0  0  0
    7.2232   19.2244    3.5261 N   0  0  0  0  0  0  0  0  0  0  0  0
    6.5985   18.9508    4.6820 C   0  0  0  0  0  0  0  0  0  0  0  0
    5.6455   17.9745    4.8993 C   0  0  0  0  0  0  0  0  0  0  0  0
    5.2880   17.1759    3.7951 C   0  0  0  0  0  0  0  0  0  0  0  0
    4.3824   16.1948    3.8592 N   0  0  0  0  0  0  0  0  0  0  0  0
    5.2245   17.9846    6.2187 N   0  0  0  0  0  0  0  0  0  0  0  0
    5.9205   18.9540    6.7639 C   0  0  0  0  0  0  0  0  0  0  0  0
    6.7696   19.5800    5.8940 N   0  0  0  0  0  0  0  0  0  0  0  0
  1  2  2  0  0  0  0
  1  6  1  0  0  0  0
  2  3  1  0  0  0  0
  3  4  2  0  0  0  0
  4  5  1  0  0  0  0
  4 10  1  0  0  0  0
  5  6  2  0  0  0  0
  5  8  1  0  0  0  0
  6  7  1  0  0  0  0
  8  9  1  0  0  0  0
  9 10  2  0  0  0  0
M  END
>  <CHROM.1>
5.96981377,18.17946739,4.47703315,-1.81173837,0.80612317,1.22285668

>  <Name>
ligand

>  <RI>
0

>  <Rbt.Current_Directory>
/home/itssahil/PROJECTS/Mol_Feturizer/New_Systems/rnas/4XNR

>  <Rbt.Executable>
rbdock ($Id: //depot/dev/client3/rdock/2013.1/src/exe/rbdock.cxx#4 $)

>  <Rbt.Library>
libRbt.so (2013.1, Build901 2013/11/27)

>  <Rbt.Parameter_File>
/export/apps/rDock/src/rDock_2013.1_src/data/scripts/dock_solv.prm

>  <Rbt.Receptor>
prm/pocket_docking_5.prm

>  <SCORE>
-14.5774

>  <SCORE.INTER>
-14.5774

>  <SCORE.INTER.CONST>
1

>  <SCORE.INTER.POLAR>
0

>  <SCORE.INTER.ROT>
0

>  <SCORE.INTER.SOLV>
7.4322

>  <SCORE.INTER.VDW>
-15.7957

>  <SCORE.INTER.norm>
-1.45774

>  <SCORE.INTRA>
0

>  <SCORE.INTRA.DIHEDRAL>
0

>  <SCORE.INTRA.DIHEDRAL.0>
0

>  <SCORE.INTRA.POLAR>
0

>  <SCORE.INTRA.POLAR.0>
0

>  <SCORE.INTRA.REPUL>
0

>  <SCORE.INTRA.REPUL.0>
0

>  <SCORE.INTRA.SOLV>
0

>  <SCORE.INTRA.SOLV.lig_0>
-23.8918

>  <SCORE.INTRA.VDW>
0

>  <SCORE.INTRA.VDW.0>
0

>  <SCORE.INTRA.norm>
0

>  <SCORE.RESTR>
0

>  <SCORE.RESTR.CAVITY>
0

>  <SCORE.RESTR.norm>
0

>  <SCORE.SYSTEM>
0

>  <SCORE.SYSTEM.CONST>
0

>  <SCORE.SYSTEM.DIHEDRAL>
0

>  <SCORE.SYSTEM.SOLV>
0

>  <SCORE.SYSTEM.norm>
0

>  <SCORE.heavy>
10

>  <SCORE.norm>
-1.45774

>  <RMSD>
0.751

$$$$
ligand
 OpenBabel11021811513D
libRbt.so/2013.1/901 2013/11/27
 10 11  0  0  0  0  0  0  0  0999 V2000
    5.8970   17.4221    2.6278 N   0  0  0  0  0  0  0  0  0  0  0  0
    6.7644   18.4379    2.5438 C   0  0  0  0  0  0  0  0  0  0  0  0
    7.1636   19.2799    3.4958 N   0  0  0  0  0  0  0  0  0  0  0  0
    6.5652   18.9972    4.6633 C   0  0  0  0  0  0  0  0  0  0  0  0
    5.6531   17.9881    4.9054 C   0  0  0  0  0  0  0  0  0  0  0  0
    5.3118   17.1627    3.8157 C   0  0  0  0  0  0  0  0  0  0  0  0
    4.4452   16.1488    3.9040 N   0  0  0  0  0  0  0  0  0  0  0  0
    5.2495   17.9986    6.2302 N   0  0  0  0  0  0  0  0  0  0  0  0
    5.9152   19.0004    6.7541 C   0  0  0  0  0  0  0  0  0  0  0  0
    6.7281   19.6474    5.8652 N   0  0  0  0  0  0  0  0  0  0  0  0
  1  2  2  0  0  0  0
  1  6  1  0  0  0  0
  2  3  1  0  0  0  0
  3  4  2  0  0  0  0
  4  5  1  0  0  0  0
  4 10  1  0  0  0  0
  5  6  2  0  0  0  0
  5  8  1  0  0  0  0
  6  7  1  0  0  0  0
  8  9  1  0  0  0  0
  9 10  2  0  0  0  0
M  END
>  <CHROM.1>
5.96373640,18.19994919,4.47623726,-1.81087329,0.84658250,1.21001037

>  <Name>
ligand

>  <RI>
0

>  <Rbt.Current_Directory>
/home/itssahil/PROJECTS/Mol_Feturizer/New_Systems/rnas/4XNR

>  <Rbt.Executable>
rbdock ($Id: //depot/dev/client3/rdock/2013.1/src/exe/rbdock.cxx#4 $)

>  <Rbt.Library>
libRbt.so (2013.1, Build901 2013/11/27)

>  <Rbt.Parameter_File>
/export/apps/rDock/src/rDock_2013.1_src/data/scripts/dock_solv.prm

>  <Rbt.Receptor>
prm/pocket_docking_6.prm

>  <SCORE>
-14.5944

>  <SCORE.INTER>
-14.5944

>  <SCORE.INTER.CONST>
1

>  <SCORE.INTER.POLAR>
0

>  <SCORE.INTER.ROT>
0

>  <SCORE.INTER.SOLV>
7.74743

>  <SCORE.INTER.VDW>
-15.9121

>  <SCORE.INTER.norm>
-1.45944

>  <SCORE.INTRA>
0

>  <SCORE.INTRA.DIHEDRAL>
0

>  <SCORE.INTRA.DIHEDRAL.0>
0

>  <SCORE.INTRA.POLAR>
0

>  <SCORE.INTRA.POLAR.0>
0

>  <SCORE.INTRA.REPUL>
0

>  <SCORE.INTRA.REPUL.0>
0

>  <SCORE.INTRA.SOLV>
0

>  <SCORE.INTRA.SOLV.lig_0>
-23.8918

>  <SCORE.INTRA.VDW>
0

>  <SCORE.INTRA.VDW.0>
0

>  <SCORE.INTRA.norm>
0

>  <SCORE.RESTR>
0

>  <SCORE.RESTR.CAVITY>
0

>  <SCORE.RESTR.norm>
0

>  <SCORE.SYSTEM>
0

>  <SCORE.SYSTEM.CONST>
0

>  <SCORE.SYSTEM.DIHEDRAL>
0

>  <SCORE.SYSTEM.SOLV>
0

>  <SCORE.SYSTEM.norm>
0

>  <SCORE.heavy>
10

>  <SCORE.norm>
-1.45944

>  <RMSD>
0.751

$$$$
ligand
 OpenBabel11021811513D
libRbt.so/2013.1/901 2013/11/27
 10 11  0  0  0  0  0  0  0  0999 V2000
    5.8914   17.4284    2.6249 N   0  0  0  0  0  0  0  0  0  0  0  0
    6.7696   18.4351    2.5435 C   0  0  0  0  0  0  0  0  0  0  0  0
    7.1789   19.2693    3.4981 N   0  0  0  0  0  0  0  0  0  0  0  0
    6.5788   18.9887    4.6653 C   0  0  0  0  0  0  0  0  0  0  0  0
    5.6563   17.9886    4.9048 C   0  0  0  0  0  0  0  0  0  0  0  0
    5.3049   17.1709    3.8126 C   0  0  0  0  0  0  0  0  0  0  0  0
    4.4277   16.1660    3.8982 N   0  0  0  0  0  0  0  0  0  0  0  0
    5.2544   17.9986    6.2302 N   0  0  0  0  0  0  0  0  0  0  0  0
    5.9314   18.9913    6.7569 C   0  0  0  0  0  0  0  0  0  0  0  0
    6.7501   19.6328    5.8694 N   0  0  0  0  0  0  0  0  0  0  0  0
  1  2  2  0  0  0  0
  1  6  1  0  0  0  0
  2  3  1  0  0  0  0
  3  4  2  0  0  0  0
  4  5  1  0  0  0  0
  4 10  1  0  0  0  0
  5  6  2  0  0  0  0
  5  8  1  0  0  0  0
  6  7  1  0  0  0  0
  8  9  1  0  0  0  0
  9 10  2  0  0  0  0
M  END
>  <CHROM.1>
5.96868494,18.19868463,4.47607469,-1.81815134,0.83697846,1.21908388

>  <Name>
ligand

>  <RI>
0

>  <Rbt.Current_Directory>
/home/itssahil/PROJECTS/Mol_Feturizer/New_Systems/rnas/4XNR

>  <Rbt.Executable>
rbdock ($Id: //depot/dev/client3/rdock/2013.1/src/exe/rbdock.cxx#4 $)

>  <Rbt.Library>
libRbt.so (2013.1, Build901 2013/11/27)

>  <Rbt.Parameter_File>
/export/apps/rDock/src/rDock_2013.1_src/data/scripts/dock_solv.prm

>  <Rbt.Receptor>
prm/pocket_docking_6.prm

>  <SCORE>
-14.5887

>  <SCORE.INTER>
-14.5887

>  <SCORE.INTER.CONST>
1

>  <SCORE.INTER.POLAR>
0

>  <SCORE.INTER.ROT>
0

>  <SCORE.INTER.SOLV>
7.66311

>  <SCORE.INTER.VDW>
-15.8802

>  <SCORE.INTER.norm>
-1.45887

>  <SCORE.INTRA>
0

>  <SCORE.INTRA.DIHEDRAL>
0

>  <SCORE.INTRA.DIHEDRAL.0>
0

>  <SCORE.INTRA.POLAR>
0

>  <SCORE.INTRA.POLAR.0>
0

>  <SCORE.INTRA.REPUL>
0

>  <SCORE.INTRA.REPUL.0>
0

>  <SCORE.INTRA.SOLV>
0

>  <SCORE.INTRA.SOLV.lig_0>
-23.8918

>  <SCORE.INTRA.VDW>
0

>  <SCORE.INTRA.VDW.0>
0

>  <SCORE.INTRA.norm>
0

>  <SCORE.RESTR>
0

>  <SCORE.RESTR.CAVITY>
0

>  <SCORE.RESTR.norm>
0

>  <SCORE.SYSTEM>
0

>  <SCORE.SYSTEM.CONST>
0

>  <SCORE.SYSTEM.DIHEDRAL>
0

>  <SCORE.SYSTEM.SOLV>
0

>  <SCORE.SYSTEM.norm>
0

>  <SCORE.heavy>
10

>  <SCORE.norm>
-1.45887

>  <RMSD>
0.751

$$$$
ligand
 OpenBabel11021811513D
libRbt.so/2013.1/901 2013/11/27
 10 11  0  0  0  0  0  0  0  0999 V2000
    5.8187   17.5242    2.5694 N   0  0  0  0  0  0  0  0  0  0  0  0
    6.6999   18.5291    2.4996 C   0  0  0  0  0  0  0  0  0  0  0  0
    7.1321   19.3335    3.4696 N   0  0  0  0  0  0  0  0  0  0  0  0
    6.5541   19.0217    4.6400 C   0  0  0  0  0  0  0  0  0  0  0  0
    5.6317   18.0190    4.8689 C   0  0  0  0  0  0  0  0  0  0  0  0
    5.2547   17.2349    3.7607 C   0  0  0  0  0  0  0  0  0  0  0  0
    4.3745   16.2316    3.8348 N   0  0  0  0  0  0  0  0  0  0  0  0
    5.2564   17.9922    6.2018 N   0  0  0  0  0  0  0  0  0  0  0  0
    5.9485   18.9663    6.7433 C   0  0  0  0  0  0  0  0  0  0  0  0
    6.7524   19.6298    5.8585 N   0  0  0  0  0  0  0  0  0  0  0  0
  1  2  2  0  0  0  0
  1  6  1  0  0  0  0
  2  3  1  0  0  0  0
  3  4  2  0  0  0  0
  4  5  1  0  0  0  0
  4 10  1  0  0  0  0
  5  6  2  0  0  0  0
  5  8  1  0  0  0  0
  6  7  1  0  0  0  0
  8  9  1  0  0  0  0
  9 10  2  0  0  0  0
M  END
>  <CHROM.1>
5.93651300,18.24010930,4.44022085,-1.84861513,0.83908271,1.27072776

>  <Name>
ligand

>  <RI>
0

>  <Rbt.Current_Directory>
/home/itssahil/PROJECTS/Mol_Feturizer/New_Systems/rnas/4XNR

>  <Rbt.Executable>
rbdock ($Id: //depot/dev/client3/rdock/2013.1/src/exe/rbdock.cxx#4 $)

>  <Rbt.Library>
libRbt.so (2013.1, Build901 2013/11/27)

>  <Rbt.Parameter_File>
/export/apps/rDock/src/rDock_2013.1_src/data/scripts/dock_solv.prm

>  <Rbt.Receptor>
prm/pocket_docking_6.prm

>  <SCORE>
-14.5159

>  <SCORE.INTER>
-14.5159

>  <SCORE.INTER.CONST>
1

>  <SCORE.INTER.POLAR>
0

>  <SCORE.INTER.ROT>
0

>  <SCORE.INTER.SOLV>
7.34702

>  <SCORE.INTER.VDW>
-15.7263

>  <SCORE.INTER.norm>
-1.45159

>  <SCORE.INTRA>
0

>  <SCORE.INTRA.DIHEDRAL>
0

>  <SCORE.INTRA.DIHEDRAL.0>
0

>  <SCORE.INTRA.POLAR>
0

>  <SCORE.INTRA.POLAR.0>
0

>  <SCORE.INTRA.REPUL>
0

>  <SCORE.INTRA.REPUL.0>
0

>  <SCORE.INTRA.SOLV>
0

>  <SCORE.INTRA.SOLV.lig_0>
-23.8918

>  <SCORE.INTRA.VDW>
0

>  <SCORE.INTRA.VDW.0>
0

>  <SCORE.INTRA.norm>
0

>  <SCORE.RESTR>
0

>  <SCORE.RESTR.CAVITY>
0

>  <SCORE.RESTR.norm>
0

>  <SCORE.SYSTEM>
0

>  <SCORE.SYSTEM.CONST>
0

>  <SCORE.SYSTEM.DIHEDRAL>
0

>  <SCORE.SYSTEM.SOLV>
0

>  <SCORE.SYSTEM.norm>
0

>  <SCORE.heavy>
10

>  <SCORE.norm>
-1.45159

>  <RMSD>
0.751

$$$$
ligand
 OpenBabel11021811513D
libRbt.so/2013.1/901 2013/11/27
 10 11  0  0  0  0  0  0  0  0999 V2000
    5.9011   17.4180    2.6248 N   0  0  0  0  0  0  0  0  0  0  0  0
    6.8010   18.4065    2.5581 C   0  0  0  0  0  0  0  0  0  0  0  0
    7.2149   19.2293    3.5206 N   0  0  0  0  0  0  0  0  0  0  0  0
    6.5937   18.9580    4.6789 C   0  0  0  0  0  0  0  0  0  0  0  0
    5.6475   17.9767    4.9031 C   0  0  0  0  0  0  0  0  0  0  0  0
    5.2936   17.1696    3.8039 C   0  0  0  0  0  0  0  0  0  0  0  0
    4.3947   16.1829    3.8749 N   0  0  0  0  0  0  0  0  0  0  0  0
    5.2284   17.9913    6.2231 N   0  0  0  0  0  0  0  0  0  0  0  0
    5.9188   18.9683    6.7618 C   0  0  0  0  0  0  0  0  0  0  0  0
    6.7624   19.5950    5.8871 N   0  0  0  0  0  0  0  0  0  0  0  0
  1  2  2  0  0  0  0
  1  6  1  0  0  0  0
  2  3  1  0  0  0  0
  3  4  2  0  0  0  0
  4  5  1  0  0  0  0
  4 10  1  0  0  0  0
  5  6  2  0  0  0  0
  5  8  1  0  0  0  0
  6  7  1  0  0  0  0
  8  9  1  0  0  0  0
  9 10  2  0  0  0  0
M  END
>  <CHROM.1>
5.96982179,18.18140925,4.47921446,-1.81050169,0.81288421,1.21639869

>  <Name>
ligand

>  <RI>
0

>  <Rbt.Current_Directory>
/home/itssahil/PROJECTS/Mol_Feturizer/New_Systems/rnas/4XNR

>  <Rbt.Executable>
rbdock ($Id: //depot/dev/client3/rdock/2013.1/src/exe/rbdock.cxx#4 $)

>  <Rbt.Library>
libRbt.so (2013.1, Build901 2013/11/27)

>  <Rbt.Parameter_File>
/export/apps/rDock/src/rDock_2013.1_src/data/scripts/dock_solv.prm

>  <Rbt.Receptor>
prm/pocket_docking_8.prm

>  <SCORE>
-14.5829

>  <SCORE.INTER>
-14.5829

>  <SCORE.INTER.CONST>
1

>  <SCORE.INTER.POLAR>
0

>  <SCORE.INTER.ROT>
0

>  <SCORE.INTER.SOLV>
7.50562

>  <SCORE.INTER.VDW>
-15.8238

>  <SCORE.INTER.norm>
-1.45829

>  <SCORE.INTRA>
0

>  <SCORE.INTRA.DIHEDRAL>
0

>  <SCORE.INTRA.DIHEDRAL.0>
0

>  <SCORE.INTRA.POLAR>
0

>  <SCORE.INTRA.POLAR.0>
0

>  <SCORE.INTRA.REPUL>
0

>  <SCORE.INTRA.REPUL.0>
0

>  <SCORE.INTRA.SOLV>
0

>  <SCORE.INTRA.SOLV.lig_0>
-23.8918

>  <SCORE.INTRA.VDW>
0

>  <SCORE.INTRA.VDW.0>
0

>  <SCORE.INTRA.norm>
0

>  <SCORE.RESTR>
0

>  <SCORE.RESTR.CAVITY>
0

>  <SCORE.RESTR.norm>
0

>  <SCORE.SYSTEM>
0

>  <SCORE.SYSTEM.CONST>
0

>  <SCORE.SYSTEM.DIHEDRAL>
0

>  <SCORE.SYSTEM.SOLV>
0

>  <SCORE.SYSTEM.norm>
0

>  <SCORE.heavy>
10

>  <SCORE.norm>
-1.45829

>  <RMSD>
0.751

$$$$
ligand
 OpenBabel11021811513D
libRbt.so/2013.1/901 2013/11/27
 10 11  0  0  0  0  0  0  0  0999 V2000
    5.8976   17.4114    2.6292 N   0  0  0  0  0  0  0  0  0  0  0  0
    6.7936   18.4034    2.5629 C   0  0  0  0  0  0  0  0  0  0  0  0
    7.2011   19.2302    3.5246 N   0  0  0  0  0  0  0  0  0  0  0  0
    6.5775   18.9591    4.6817 C   0  0  0  0  0  0  0  0  0  0  0  0
    5.6348   17.9743    4.9054 C   0  0  0  0  0  0  0  0  0  0  0  0
    5.2876   17.1631    3.8070 C   0  0  0  0  0  0  0  0  0  0  0  0
    4.3926   16.1729    3.8776 N   0  0  0  0  0  0  0  0  0  0  0  0
    5.2116   17.9903    6.2241 N   0  0  0  0  0  0  0  0  0  0  0  0
    5.8963   18.9714    6.7625 C   0  0  0  0  0  0  0  0  0  0  0  0
    6.7399   19.5997    5.8889 N   0  0  0  0  0  0  0  0  0  0  0  0
  1  2  2  0  0  0  0
  1  6  1  0  0  0  0
  2  3  1  0  0  0  0
  3  4  2  0  0  0  0
  4  5  1  0  0  0  0
  4 10  1  0  0  0  0
  5  6  2  0  0  0  0
  5  8  1  0  0  0  0
  6  7  1  0  0  0  0
  8  9  1  0  0  0  0
  9 10  2  0  0  0  0
M  END
>  <CHROM.1>
5.95752672,18.17940563,4.48196688,-1.80419681,0.81572250,1.20944483

>  <Name>
ligand

>  <RI>
0

>  <Rbt.Current_Directory>
/home/itssahil/PROJECTS/Mol_Feturizer/New_Systems/rnas/4XNR

>  <Rbt.Executable>
rbdock ($Id: //depot/dev/client3/rdock/2013.1/src/exe/rbdock.cxx#4 $)

>  <Rbt.Library>
libRbt.so (2013.1, Build901 2013/11/27)

>  <Rbt.Parameter_File>
/export/apps/rDock/src/rDock_2013.1_src/data/scripts/dock_solv.prm

>  <Rbt.Receptor>
prm/blind_docking_100.prm

>  <SCORE>
-14.5838

>  <SCORE.INTER>
-14.5838

>  <SCORE.INTER.CONST>
1

>  <SCORE.INTER.POLAR>
0

>  <SCORE.INTER.ROT>
0

>  <SCORE.INTER.SOLV>
7.52917

>  <SCORE.INTER.VDW>
-15.8323

>  <SCORE.INTER.norm>
-1.45838

>  <SCORE.INTRA>
0

>  <SCORE.INTRA.DIHEDRAL>
0

>  <SCORE.INTRA.DIHEDRAL.0>
0

>  <SCORE.INTRA.POLAR>
0

>  <SCORE.INTRA.POLAR.0>
0

>  <SCORE.INTRA.REPUL>
0

>  <SCORE.INTRA.REPUL.0>
0

>  <SCORE.INTRA.SOLV>
0

>  <SCORE.INTRA.SOLV.lig_0>
-23.8918

>  <SCORE.INTRA.VDW>
0

>  <SCORE.INTRA.VDW.0>
0

>  <SCORE.INTRA.norm>
0

>  <SCORE.RESTR>
0

>  <SCORE.RESTR.CAVITY>
0

>  <SCORE.RESTR.norm>
0

>  <SCORE.SYSTEM>
0

>  <SCORE.SYSTEM.CONST>
0

>  <SCORE.SYSTEM.DIHEDRAL>
0

>  <SCORE.SYSTEM.SOLV>
0

>  <SCORE.SYSTEM.norm>
0

>  <SCORE.heavy>
10

>  <SCORE.norm>
-1.45838

>  <RMSD>
0.752

$$$$
ligand
 OpenBabel11021811513D
libRbt.so/2013.1/901 2013/11/27
 10 11  0  0  0  0  0  0  0  0999 V2000
    5.8777   17.4176    2.6312 N   0  0  0  0  0  0  0  0  0  0  0  0
    6.7462   18.4323    2.5452 C   0  0  0  0  0  0  0  0  0  0  0  0
    7.1475   19.2747    3.4960 N   0  0  0  0  0  0  0  0  0  0  0  0
    6.5501   18.9937    4.6645 C   0  0  0  0  0  0  0  0  0  0  0  0
    5.6372   17.9859    4.9085 C   0  0  0  0  0  0  0  0  0  0  0  0
    5.2936   17.1600    3.8201 C   0  0  0  0  0  0  0  0  0  0  0  0
    4.4261   16.1471    3.9103 N   0  0  0  0  0  0  0  0  0  0  0  0
    5.2353   17.9980    6.2339 N   0  0  0  0  0  0  0  0  0  0  0  0
    5.9027   18.9996    6.7561 C   0  0  0  0  0  0  0  0  0  0  0  0
    6.7153   19.6449    5.8656 N   0  0  0  0  0  0  0  0  0  0  0  0
  1  2  2  0  0  0  0
  1  6  1  0  0  0  0
  2  3  1  0  0  0  0
  3  4  2  0  0  0  0
  4  5  1  0  0  0  0
  4 10  1  0  0  0  0
  5  6  2  0  0  0  0
  5  8  1  0  0  0  0
  6  7  1  0  0  0  0
  8  9  1  0  0  0  0
  9 10  2  0  0  0  0
M  END
>  <CHROM.1>
5.94758025,18.19703053,4.47884355,-1.81319686,0.84595027,1.21086081

>  <Name>
ligand

>  <RI>
0

>  <Rbt.Current_Directory>
/home/itssahil/PROJECTS/Mol_Feturizer/New_Systems/rnas/4XNR

>  <Rbt.Executable>
rbdock ($Id: //depot/dev/client3/rdock/2013.1/src/exe/rbdock.cxx#4 $)

>  <Rbt.Library>
libRbt.so (2013.1, Build901 2013/11/27)

>  <Rbt.Parameter_File>
/export/apps/rDock/src/rDock_2013.1_src/data/scripts/dock_solv.prm

>  <Rbt.Receptor>
prm/blind_docking_80.prm

>  <SCORE>
-14.568

>  <SCORE.INTER>
-14.568

>  <SCORE.INTER.CONST>
1

>  <SCORE.INTER.POLAR>
0

>  <SCORE.INTER.ROT>
0

>  <SCORE.INTER.SOLV>
7.73862

>  <SCORE.INTER.VDW>
-15.8915

>  <SCORE.INTER.norm>
-1.4568

>  <SCORE.INTRA>
0

>  <SCORE.INTRA.DIHEDRAL>
0

>  <SCORE.INTRA.DIHEDRAL.0>
0

>  <SCORE.INTRA.POLAR>
0

>  <SCORE.INTRA.POLAR.0>
0

>  <SCORE.INTRA.REPUL>
0

>  <SCORE.INTRA.REPUL.0>
0

>  <SCORE.INTRA.SOLV>
0

>  <SCORE.INTRA.SOLV.lig_0>
-23.8918

>  <SCORE.INTRA.VDW>
0

>  <SCORE.INTRA.VDW.0>
0

>  <SCORE.INTRA.norm>
0

>  <SCORE.RESTR>
0

>  <SCORE.RESTR.CAVITY>
0

>  <SCORE.RESTR.norm>
0

>  <SCORE.SYSTEM>
0

>  <SCORE.SYSTEM.CONST>
0

>  <SCORE.SYSTEM.DIHEDRAL>
0

>  <SCORE.SYSTEM.SOLV>
0

>  <SCORE.SYSTEM.norm>
0

>  <SCORE.heavy>
10

>  <SCORE.norm>
-1.4568

>  <RMSD>
0.752

$$$$
ligand
 OpenBabel11021811513D
libRbt.so/2013.1/901 2013/11/27
 10 11  0  0  0  0  0  0  0  0999 V2000
    5.8961   17.4221    2.6286 N   0  0  0  0  0  0  0  0  0  0  0  0
    6.7665   18.4354    2.5452 C   0  0  0  0  0  0  0  0  0  0  0  0
    7.1675   19.2762    3.4976 N   0  0  0  0  0  0  0  0  0  0  0  0
    6.5675   18.9951    4.6647 C   0  0  0  0  0  0  0  0  0  0  0  0
    5.6523   17.9886    4.9061 C   0  0  0  0  0  0  0  0  0  0  0  0
    5.3093   17.1643    3.8161 C   0  0  0  0  0  0  0  0  0  0  0  0
    4.4399   16.1529    3.9037 N   0  0  0  0  0  0  0  0  0  0  0  0
    5.2479   18.0001    6.2307 N   0  0  0  0  0  0  0  0  0  0  0  0
    5.9161   19.0000    6.7551 C   0  0  0  0  0  0  0  0  0  0  0  0
    6.7315   19.6447    5.8668 N   0  0  0  0  0  0  0  0  0  0  0  0
  1  2  2  0  0  0  0
  1  6  1  0  0  0  0
  2  3  1  0  0  0  0
  3  4  2  0  0  0  0
  4  5  1  0  0  0  0
  4 10  1  0  0  0  0
  5  6  2  0  0  0  0
  5  8  1  0  0  0  0
  6  7  1  0  0  0  0
  8  9  1  0  0  0  0
  9 10  2  0  0  0  0
M  END
>  <CHROM.1>
5.96387156,18.19958630,4.47716942,-1.81146892,0.84366174,1.21054902

>  <Name>
ligand

>  <RI>
0

>  <Rbt.Current_Directory>
/home/itssahil/PROJECTS/Mol_Feturizer/New_Systems/rnas/4XNR

>  <Rbt.Executable>
rbdock ($Id: //depot/dev/client3/rdock/2013.1/src/exe/rbdock.cxx#4 $)

>  <Rbt.Library>
libRbt.so (2013.1, Build901 2013/11/27)

>  <Rbt.Parameter_File>
/export/apps/rDock/src/rDock_2013.1_src/data/scripts/dock_solv.prm

>  <Rbt.Receptor>
prm/blind_docking_80.prm

>  <SCORE>
-14.5922

>  <SCORE.INTER>
-14.5922

>  <SCORE.INTER.CONST>
1

>  <SCORE.INTER.POLAR>
0

>  <SCORE.INTER.ROT>
0

>  <SCORE.INTER.SOLV>
7.72933

>  <SCORE.INTER.VDW>
-15.9046

>  <SCORE.INTER.norm>
-1.45922

>  <SCORE.INTRA>
0

>  <SCORE.INTRA.DIHEDRAL>
0

>  <SCORE.INTRA.DIHEDRAL.0>
0

>  <SCORE.INTRA.POLAR>
0

>  <SCORE.INTRA.POLAR.0>
0

>  <SCORE.INTRA.REPUL>
0

>  <SCORE.INTRA.REPUL.0>
0

>  <SCORE.INTRA.SOLV>
0

>  <SCORE.INTRA.SOLV.lig_0>
-23.8918

>  <SCORE.INTRA.VDW>
0

>  <SCORE.INTRA.VDW.0>
0

>  <SCORE.INTRA.norm>
0

>  <SCORE.RESTR>
0

>  <SCORE.RESTR.CAVITY>
0

>  <SCORE.RESTR.norm>
0

>  <SCORE.SYSTEM>
0

>  <SCORE.SYSTEM.CONST>
0

>  <SCORE.SYSTEM.DIHEDRAL>
0

>  <SCORE.SYSTEM.SOLV>
0

>  <SCORE.SYSTEM.norm>
0

>  <SCORE.heavy>
10

>  <SCORE.norm>
-1.45922

>  <RMSD>
0.752

$$$$
ligand
 OpenBabel11021811513D
libRbt.so/2013.1/901 2013/11/27
 10 11  0  0  0  0  0  0  0  0999 V2000
    5.9050   17.4111    2.6298 N   0  0  0  0  0  0  0  0  0  0  0  0
    6.8003   18.4038    2.5627 C   0  0  0  0  0  0  0  0  0  0  0  0
    7.2070   19.2317    3.5238 N   0  0  0  0  0  0  0  0  0  0  0  0
    6.5835   18.9612    4.6811 C   0  0  0  0  0  0  0  0  0  0  0  0
    5.6414   17.9759    4.9055 C   0  0  0  0  0  0  0  0  0  0  0  0
    5.2950   17.1634    3.8077 C   0  0  0  0  0  0  0  0  0  0  0  0
    4.4007   16.1726    3.8791 N   0  0  0  0  0  0  0  0  0  0  0  0
    5.2180   17.9927    6.2241 N   0  0  0  0  0  0  0  0  0  0  0  0
    5.9019   18.9748    6.7617 C   0  0  0  0  0  0  0  0  0  0  0  0
    6.7452   19.6029    5.8877 N   0  0  0  0  0  0  0  0  0  0  0  0
  1  2  2  0  0  0  0
  1  6  1  0  0  0  0
  2  3  1  0  0  0  0
  3  4  2  0  0  0  0
  4  5  1  0  0  0  0
  4 10  1  0  0  0  0
  5  6  2  0  0  0  0
  5  8  1  0  0  0  0
  6  7  1  0  0  0  0
  8  9  1  0  0  0  0
  9 10  2  0  0  0  0
M  END
>  <CHROM.1>
5.96407725,18.18081470,4.48191625,-1.80360991,0.81638588,1.20813586

>  <Name>
ligand

>  <RI>
0

>  <Rbt.Current_Directory>
/home/itssahil/PROJECTS/Mol_Feturizer/New_Systems/rnas/4XNR

>  <Rbt.Executable>
rbdock ($Id: //depot/dev/client3/rdock/2013.1/src/exe/rbdock.cxx#4 $)

>  <Rbt.Library>
libRbt.so (2013.1, Build901 2013/11/27)

>  <Rbt.Parameter_File>
/export/apps/rDock/src/rDock_2013.1_src/data/scripts/dock_solv.prm

>  <Rbt.Receptor>
prm/pocket_docking_4.prm

>  <SCORE>
-14.5832

>  <SCORE.INTER>
-14.5832

>  <SCORE.INTER.CONST>
1

>  <SCORE.INTER.POLAR>
0

>  <SCORE.INTER.ROT>
0

>  <SCORE.INTER.SOLV>
7.54381

>  <SCORE.INTER.VDW>
-15.8367

>  <SCORE.INTER.norm>
-1.45832

>  <SCORE.INTRA>
0

>  <SCORE.INTRA.DIHEDRAL>
0

>  <SCORE.INTRA.DIHEDRAL.0>
0

>  <SCORE.INTRA.POLAR>
0

>  <SCORE.INTRA.POLAR.0>
0

>  <SCORE.INTRA.REPUL>
0

>  <SCORE.INTRA.REPUL.0>
0

>  <SCORE.INTRA.SOLV>
0

>  <SCORE.INTRA.SOLV.lig_0>
-23.8918

>  <SCORE.INTRA.VDW>
0

>  <SCORE.INTRA.VDW.0>
0

>  <SCORE.INTRA.norm>
0

>  <SCORE.RESTR>
0

>  <SCORE.RESTR.CAVITY>
0

>  <SCORE.RESTR.norm>
0

>  <SCORE.SYSTEM>
0

>  <SCORE.SYSTEM.CONST>
0

>  <SCORE.SYSTEM.DIHEDRAL>
0

>  <SCORE.SYSTEM.SOLV>
0

>  <SCORE.SYSTEM.norm>
0

>  <SCORE.heavy>
10

>  <SCORE.norm>
-1.45832

>  <RMSD>
0.752

$$$$
ligand
 OpenBabel11021811513D
libRbt.so/2013.1/901 2013/11/27
 10 11  0  0  0  0  0  0  0  0999 V2000
    5.8934   17.4297    2.6259 N   0  0  0  0  0  0  0  0  0  0  0  0
    6.7438   18.4596    2.5388 C   0  0  0  0  0  0  0  0  0  0  0  0
    7.1343   19.3066    3.4900 N   0  0  0  0  0  0  0  0  0  0  0  0
    6.5467   19.0126    4.6602 C   0  0  0  0  0  0  0  0  0  0  0  0
    5.6525   17.9885    4.9056 C   0  0  0  0  0  0  0  0  0  0  0  0
    5.3188   17.1592    3.8166 C   0  0  0  0  0  0  0  0  0  0  0  0
    4.4694   16.1312    3.9079 N   0  0  0  0  0  0  0  0  0  0  0  0
    5.2558   17.9906    6.2326 N   0  0  0  0  0  0  0  0  0  0  0  0
    5.9079   19.0024    6.7545 C   0  0  0  0  0  0  0  0  0  0  0  0
    6.7055   19.6637    5.8622 N   0  0  0  0  0  0  0  0  0  0  0  0
  1  2  2  0  0  0  0
  1  6  1  0  0  0  0
  2  3  1  0  0  0  0
  3  4  2  0  0  0  0
  4  5  1  0  0  0  0
  4 10  1  0  0  0  0
  5  6  2  0  0  0  0
  5  8  1  0  0  0  0
  6  7  1  0  0  0  0
  8  9  1  0  0  0  0
  9 10  2  0  0  0  0
M  END
>  <CHROM.1>
5.95734992,18.20597863,4.47514928,-1.80968977,0.86365953,1.21056271

>  <Name>
ligand

>  <RI>
0

>  <Rbt.Current_Directory>
/home/itssahil/PROJECTS/Mol_Feturizer/New_Systems/rnas/4XNR

>  <Rbt.Executable>
rbdock ($Id: //depot/dev/client3/rdock/2013.1/src/exe/rbdock.cxx#4 $)

>  <Rbt.Library>
libRbt.so (2013.1, Build901 2013/11/27)

>  <Rbt.Parameter_File>
/export/apps/rDock/src/rDock_2013.1_src/data/scripts/dock_solv.prm

>  <Rbt.Receptor>
prm/pocket_docking_5.prm

>  <SCORE>
-14.5627

>  <SCORE.INTER>
-14.5627

>  <SCORE.INTER.CONST>
1

>  <SCORE.INTER.POLAR>
0

>  <SCORE.INTER.ROT>
0

>  <SCORE.INTER.SOLV>
7.85168

>  <SCORE.INTER.VDW>
-15.9257

>  <SCORE.INTER.norm>
-1.45627

>  <SCORE.INTRA>
0

>  <SCORE.INTRA.DIHEDRAL>
0

>  <SCORE.INTRA.DIHEDRAL.0>
0

>  <SCORE.INTRA.POLAR>
0

>  <SCORE.INTRA.POLAR.0>
0

>  <SCORE.INTRA.REPUL>
0

>  <SCORE.INTRA.REPUL.0>
0

>  <SCORE.INTRA.SOLV>
0

>  <SCORE.INTRA.SOLV.lig_0>
-23.8918

>  <SCORE.INTRA.VDW>
0

>  <SCORE.INTRA.VDW.0>
0

>  <SCORE.INTRA.norm>
0

>  <SCORE.RESTR>
0

>  <SCORE.RESTR.CAVITY>
0

>  <SCORE.RESTR.norm>
0

>  <SCORE.SYSTEM>
0

>  <SCORE.SYSTEM.CONST>
0

>  <SCORE.SYSTEM.DIHEDRAL>
0

>  <SCORE.SYSTEM.SOLV>
0

>  <SCORE.SYSTEM.norm>
0

>  <SCORE.heavy>
10

>  <SCORE.norm>
-1.45627

>  <RMSD>
0.752

$$$$
ligand
 OpenBabel11021811513D
libRbt.so/2013.1/901 2013/11/27
 10 11  0  0  0  0  0  0  0  0999 V2000
    5.9142   17.4162    2.6247 N   0  0  0  0  0  0  0  0  0  0  0  0
    6.8192   18.4007    2.5676 C   0  0  0  0  0  0  0  0  0  0  0  0
    7.2285   19.2198    3.5352 N   0  0  0  0  0  0  0  0  0  0  0  0
    6.5962   18.9491    4.6876 C   0  0  0  0  0  0  0  0  0  0  0  0
    5.6437   17.9716    4.9018 C   0  0  0  0  0  0  0  0  0  0  0  0
    5.2956   17.1682    3.7980 C   0  0  0  0  0  0  0  0  0  0  0  0
    4.3916   16.1855    3.8594 N   0  0  0  0  0  0  0  0  0  0  0  0
    5.2134   17.9856    6.2182 N   0  0  0  0  0  0  0  0  0  0  0  0
    5.9036   18.9584    6.7647 C   0  0  0  0  0  0  0  0  0  0  0  0
    6.7575   19.5830    5.8985 N   0  0  0  0  0  0  0  0  0  0  0  0
  1  2  2  0  0  0  0
  1  6  1  0  0  0  0
  2  3  1  0  0  0  0
  3  4  2  0  0  0  0
  4  5  1  0  0  0  0
  4 10  1  0  0  0  0
  5  6  2  0  0  0  0
  5  8  1  0  0  0  0
  6  7  1  0  0  0  0
  8  9  1  0  0  0  0
  9 10  2  0  0  0  0
M  END
>  <CHROM.1>
5.97058681,18.17568902,4.48109937,-1.80117684,0.80563574,1.21159651

>  <Name>
ligand

>  <RI>
0

>  <Rbt.Current_Directory>
/home/itssahil/PROJECTS/Mol_Feturizer/New_Systems/rnas/4XNR

>  <Rbt.Executable>
rbdock ($Id: //depot/dev/client3/rdock/2013.1/src/exe/rbdock.cxx#4 $)

>  <Rbt.Library>
libRbt.so (2013.1, Build901 2013/11/27)

>  <Rbt.Parameter_File>
/export/apps/rDock/src/rDock_2013.1_src/data/scripts/dock_solv.prm

>  <Rbt.Receptor>
prm/pocket_docking_8.prm

>  <SCORE>
-14.6043

>  <SCORE.INTER>
-14.6043

>  <SCORE.INTER.CONST>
1

>  <SCORE.INTER.POLAR>
0

>  <SCORE.INTER.ROT>
0

>  <SCORE.INTER.SOLV>
7.46465

>  <SCORE.INTER.VDW>
-15.8244

>  <SCORE.INTER.norm>
-1.46043

>  <SCORE.INTRA>
0

>  <SCORE.INTRA.DIHEDRAL>
0

>  <SCORE.INTRA.DIHEDRAL.0>
0

>  <SCORE.INTRA.POLAR>
0

>  <SCORE.INTRA.POLAR.0>
0

>  <SCORE.INTRA.REPUL>
0

>  <SCORE.INTRA.REPUL.0>
0

>  <SCORE.INTRA.SOLV>
0

>  <SCORE.INTRA.SOLV.lig_0>
-23.8918

>  <SCORE.INTRA.VDW>
0

>  <SCORE.INTRA.VDW.0>
0

>  <SCORE.INTRA.norm>
0

>  <SCORE.RESTR>
0

>  <SCORE.RESTR.CAVITY>
0

>  <SCORE.RESTR.norm>
0

>  <SCORE.SYSTEM>
0

>  <SCORE.SYSTEM.CONST>
0

>  <SCORE.SYSTEM.DIHEDRAL>
0

>  <SCORE.SYSTEM.SOLV>
0

>  <SCORE.SYSTEM.norm>
0

>  <SCORE.heavy>
10

>  <SCORE.norm>
-1.46043

>  <RMSD>
0.752

$$$$
ligand
 OpenBabel11021811513D
libRbt.so/2013.1/901 2013/11/27
 10 11  0  0  0  0  0  0  0  0999 V2000
    5.8854   17.4443    2.6116 N   0  0  0  0  0  0  0  0  0  0  0  0
    6.7949   18.4246    2.5538 C   0  0  0  0  0  0  0  0  0  0  0  0
    7.2180   19.2334    3.5241 N   0  0  0  0  0  0  0  0  0  0  0  0
    6.5958   18.9563    4.6805 C   0  0  0  0  0  0  0  0  0  0  0  0
    5.6404   17.9819    4.8960 C   0  0  0  0  0  0  0  0  0  0  0  0
    5.2772   17.1897    3.7890 C   0  0  0  0  0  0  0  0  0  0  0  0
    4.3687   16.2111    3.8511 N   0  0  0  0  0  0  0  0  0  0  0  0
    5.2233   17.9870    6.2167 N   0  0  0  0  0  0  0  0  0  0  0  0
    5.9239   18.9516    6.7643 C   0  0  0  0  0  0  0  0  0  0  0  0
    6.7724   19.5791    5.8949 N   0  0  0  0  0  0  0  0  0  0  0  0
  1  2  2  0  0  0  0
  1  6  1  0  0  0  0
  2  3  1  0  0  0  0
  3  4  2  0  0  0  0
  4  5  1  0  0  0  0
  4 10  1  0  0  0  0
  5  6  2  0  0  0  0
  5  8  1  0  0  0  0
  6  7  1  0  0  0  0
  8  9  1  0  0  0  0
  9 10  2  0  0  0  0
M  END
>  <CHROM.1>
5.96414359,18.18786997,4.47370785,-1.81722005,0.80418450,1.23155667

>  <Name>
ligand

>  <RI>
0

>  <Rbt.Current_Directory>
/home/itssahil/PROJECTS/Mol_Feturizer/New_Systems/rnas/4XNR

>  <Rbt.Executable>
rbdock ($Id: //depot/dev/client3/rdock/2013.1/src/exe/rbdock.cxx#4 $)

>  <Rbt.Library>
libRbt.so (2013.1, Build901 2013/11/27)

>  <Rbt.Parameter_File>
/export/apps/rDock/src/rDock_2013.1_src/data/scripts/dock_solv.prm

>  <Rbt.Receptor>
prm/blind_docking_60.prm

>  <SCORE>
-14.5519

>  <SCORE.INTER>
-14.5519

>  <SCORE.INTER.CONST>
1

>  <SCORE.INTER.POLAR>
0

>  <SCORE.INTER.ROT>
0

>  <SCORE.INTER.SOLV>
7.36959

>  <SCORE.INTER.VDW>
-15.7578

>  <SCORE.INTER.norm>
-1.45519

>  <SCORE.INTRA>
0

>  <SCORE.INTRA.DIHEDRAL>
0

>  <SCORE.INTRA.DIHEDRAL.0>
0

>  <SCORE.INTRA.POLAR>
0

>  <SCORE.INTRA.POLAR.0>
0

>  <SCORE.INTRA.REPUL>
0

>  <SCORE.INTRA.REPUL.0>
0

>  <SCORE.INTRA.SOLV>
0

>  <SCORE.INTRA.SOLV.lig_0>
-23.8918

>  <SCORE.INTRA.VDW>
0

>  <SCORE.INTRA.VDW.0>
0

>  <SCORE.INTRA.norm>
0

>  <SCORE.RESTR>
0

>  <SCORE.RESTR.CAVITY>
0

>  <SCORE.RESTR.norm>
0

>  <SCORE.SYSTEM>
0

>  <SCORE.SYSTEM.CONST>
0

>  <SCORE.SYSTEM.DIHEDRAL>
0

>  <SCORE.SYSTEM.SOLV>
0

>  <SCORE.SYSTEM.norm>
0

>  <SCORE.heavy>
10

>  <SCORE.norm>
-1.45519

>  <RMSD>
0.753

$$$$
ligand
 OpenBabel11021811513D
libRbt.so/2013.1/901 2013/11/27
 10 11  0  0  0  0  0  0  0  0999 V2000
    5.9110   17.4245    2.6234 N   0  0  0  0  0  0  0  0  0  0  0  0
    6.8152   18.4091    2.5573 C   0  0  0  0  0  0  0  0  0  0  0  0
    7.2325   19.2297    3.5202 N   0  0  0  0  0  0  0  0  0  0  0  0
    6.6099   18.9606    4.6783 C   0  0  0  0  0  0  0  0  0  0  0  0
    5.6594   17.9833    4.9019 C   0  0  0  0  0  0  0  0  0  0  0  0
    5.3022   17.1782    3.8023 C   0  0  0  0  0  0  0  0  0  0  0  0
    4.3990   16.1954    3.8726 N   0  0  0  0  0  0  0  0  0  0  0  0
    5.2401   17.9992    6.2219 N   0  0  0  0  0  0  0  0  0  0  0  0
    5.9347   18.9729    6.7611 C   0  0  0  0  0  0  0  0  0  0  0  0
    6.7812   19.5964    5.8868 N   0  0  0  0  0  0  0  0  0  0  0  0
  1  2  2  0  0  0  0
  1  6  1  0  0  0  0
  2  3  1  0  0  0  0
  3  4  2  0  0  0  0
  4  5  1  0  0  0  0
  4 10  1  0  0  0  0
  5  6  2  0  0  0  0
  5  8  1  0  0  0  0
  6  7  1  0  0  0  0
  8  9  1  0  0  0  0
  9 10  2  0  0  0  0
M  END
>  <CHROM.1>
5.98270193,18.18679782,4.47816293,-1.81242729,0.80873224,1.21823002

>  <Name>
ligand

>  <RI>
0

>  <Rbt.Current_Directory>
/home/itssahil/PROJECTS/Mol_Feturizer/New_Systems/rnas/4XNR

>  <Rbt.Executable>
rbdock ($Id: //depot/dev/client3/rdock/2013.1/src/exe/rbdock.cxx#4 $)

>  <Rbt.Library>
libRbt.so (2013.1, Build901 2013/11/27)

>  <Rbt.Parameter_File>
/export/apps/rDock/src/rDock_2013.1_src/data/scripts/dock_solv.prm

>  <Rbt.Receptor>
prm/blind_docking_60.prm

>  <SCORE>
-14.598

>  <SCORE.INTER>
-14.598

>  <SCORE.INTER.CONST>
1

>  <SCORE.INTER.POLAR>
0

>  <SCORE.INTER.ROT>
0

>  <SCORE.INTER.SOLV>
7.483

>  <SCORE.INTER.VDW>
-15.8263

>  <SCORE.INTER.norm>
-1.4598

>  <SCORE.INTRA>
0

>  <SCORE.INTRA.DIHEDRAL>
0

>  <SCORE.INTRA.DIHEDRAL.0>
0

>  <SCORE.INTRA.POLAR>
0

>  <SCORE.INTRA.POLAR.0>
0

>  <SCORE.INTRA.REPUL>
0

>  <SCORE.INTRA.REPUL.0>
0

>  <SCORE.INTRA.SOLV>
0

>  <SCORE.INTRA.SOLV.lig_0>
-23.8918

>  <SCORE.INTRA.VDW>
0

>  <SCORE.INTRA.VDW.0>
0

>  <SCORE.INTRA.norm>
0

>  <SCORE.RESTR>
0

>  <SCORE.RESTR.CAVITY>
0

>  <SCORE.RESTR.norm>
0

>  <SCORE.SYSTEM>
0

>  <SCORE.SYSTEM.CONST>
0

>  <SCORE.SYSTEM.DIHEDRAL>
0

>  <SCORE.SYSTEM.SOLV>
0

>  <SCORE.SYSTEM.norm>
0

>  <SCORE.heavy>
10

>  <SCORE.norm>
-1.4598

>  <RMSD>
0.753

$$$$
ligand
 OpenBabel11021811513D
libRbt.so/2013.1/901 2013/11/27
 10 11  0  0  0  0  0  0  0  0999 V2000
    5.8975   17.4204    2.6319 N   0  0  0  0  0  0  0  0  0  0  0  0
    6.7550   18.4442    2.5440 C   0  0  0  0  0  0  0  0  0  0  0  0
    7.1465   19.2932    3.4930 N   0  0  0  0  0  0  0  0  0  0  0  0
    6.5516   19.0085    4.6618 C   0  0  0  0  0  0  0  0  0  0  0  0
    5.6495   17.9914    4.9077 C   0  0  0  0  0  0  0  0  0  0  0  0
    5.3155   17.1592    3.8210 C   0  0  0  0  0  0  0  0  0  0  0  0
    4.4590   16.1372    3.9131 N   0  0  0  0  0  0  0  0  0  0  0  0
    5.2467   18.0023    6.2328 N   0  0  0  0  0  0  0  0  0  0  0  0
    5.9029   19.0123    6.7530 C   0  0  0  0  0  0  0  0  0  0  0  0
    6.7089   19.6642    5.8615 N   0  0  0  0  0  0  0  0  0  0  0  0
  1  2  2  0  0  0  0
  1  6  1  0  0  0  0
  2  3  1  0  0  0  0
  3  4  2  0  0  0  0
  4  5  1  0  0  0  0
  4 10  1  0  0  0  0
  5  6  2  0  0  0  0
  5  8  1  0  0  0  0
  6  7  1  0  0  0  0
  8  9  1  0  0  0  0
  9 10  2  0  0  0  0
M  END
>  <CHROM.1>
5.95781144,18.20488561,4.47772453,-1.80651832,0.85588129,1.20347127

>  <Name>
ligand

>  <RI>
0

>  <Rbt.Current_Directory>
/home/itssahil/PROJECTS/Mol_Feturizer/New_Systems/rnas/4XNR

>  <Rbt.Executable>
rbdock ($Id: //depot/dev/client3/rdock/2013.1/src/exe/rbdock.cxx#4 $)

>  <Rbt.Library>
libRbt.so (2013.1, Build901 2013/11/27)

>  <Rbt.Parameter_File>
/export/apps/rDock/src/rDock_2013.1_src/data/scripts/dock_solv.prm

>  <Rbt.Receptor>
prm/pocket_docking_3.prm

>  <SCORE>
-14.5547

>  <SCORE.INTER>
-14.5547

>  <SCORE.INTER.CONST>
1

>  <SCORE.INTER.POLAR>
0

>  <SCORE.INTER.ROT>
0

>  <SCORE.INTER.SOLV>
7.82616

>  <SCORE.INTER.VDW>
-15.9119

>  <SCORE.INTER.norm>
-1.45547

>  <SCORE.INTRA>
0

>  <SCORE.INTRA.DIHEDRAL>
0

>  <SCORE.INTRA.DIHEDRAL.0>
0

>  <SCORE.INTRA.POLAR>
0

>  <SCORE.INTRA.POLAR.0>
0

>  <SCORE.INTRA.REPUL>
0

>  <SCORE.INTRA.REPUL.0>
0

>  <SCORE.INTRA.SOLV>
0

>  <SCORE.INTRA.SOLV.lig_0>
-23.8918

>  <SCORE.INTRA.VDW>
0

>  <SCORE.INTRA.VDW.0>
0

>  <SCORE.INTRA.norm>
0

>  <SCORE.RESTR>
0

>  <SCORE.RESTR.CAVITY>
0

>  <SCORE.RESTR.norm>
0

>  <SCORE.SYSTEM>
0

>  <SCORE.SYSTEM.CONST>
0

>  <SCORE.SYSTEM.DIHEDRAL>
0

>  <SCORE.SYSTEM.SOLV>
0

>  <SCORE.SYSTEM.norm>
0

>  <SCORE.heavy>
10

>  <SCORE.norm>
-1.45547

>  <RMSD>
0.753

$$$$
ligand
 OpenBabel11021811513D
libRbt.so/2013.1/901 2013/11/27
 10 11  0  0  0  0  0  0  0  0999 V2000
    5.8607   17.4164    2.6333 N   0  0  0  0  0  0  0  0  0  0  0  0
    6.6776   18.4721    2.5356 C   0  0  0  0  0  0  0  0  0  0  0  0
    7.0538   19.3309    3.4819 N   0  0  0  0  0  0  0  0  0  0  0  0
    6.4907   19.0190    4.6595 C   0  0  0  0  0  0  0  0  0  0  0  0
    5.6319   17.9677    4.9160 C   0  0  0  0  0  0  0  0  0  0  0  0
    5.3101   17.1284    3.8311 C   0  0  0  0  0  0  0  0  0  0  0  0
    4.4941   16.0746    3.9331 N   0  0  0  0  0  0  0  0  0  0  0  0
    5.2524   17.9576    6.2480 N   0  0  0  0  0  0  0  0  0  0  0  0
    5.8795   18.9892    6.7618 C   0  0  0  0  0  0  0  0  0  0  0  0
    6.6447   19.6748    5.8595 N   0  0  0  0  0  0  0  0  0  0  0  0
  1  2  2  0  0  0  0
  1  6  1  0  0  0  0
  2  3  1  0  0  0  0
  3  4  2  0  0  0  0
  4  5  1  0  0  0  0
  4 10  1  0  0  0  0
  5  6  2  0  0  0  0
  5  8  1  0  0  0  0
  6  7  1  0  0  0  0
  8  9  1  0  0  0  0
  9 10  2  0  0  0  0
M  END
>  <CHROM.1>
5.92429052,18.19445135,4.48177539,-1.81145971,0.89716337,1.21200651

>  <Name>
ligand

>  <RI>
0

>  <Rbt.Current_Directory>
/home/itssahil/PROJECTS/Mol_Feturizer/New_Systems/rnas/4XNR

>  <Rbt.Executable>
rbdock ($Id: //depot/dev/client3/rdock/2013.1/src/exe/rbdock.cxx#4 $)

>  <Rbt.Library>
libRbt.so (2013.1, Build901 2013/11/27)

>  <Rbt.Parameter_File>
/export/apps/rDock/src/rDock_2013.1_src/data/scripts/dock_solv.prm

>  <Rbt.Receptor>
prm/pocket_docking_3.prm

>  <SCORE>
-14.5451

>  <SCORE.INTER>
-14.5451

>  <SCORE.INTER.CONST>
1

>  <SCORE.INTER.POLAR>
0

>  <SCORE.INTER.ROT>
0

>  <SCORE.INTER.SOLV>
8.08422

>  <SCORE.INTER.VDW>
-15.9915

>  <SCORE.INTER.norm>
-1.45451

>  <SCORE.INTRA>
0

>  <SCORE.INTRA.DIHEDRAL>
0

>  <SCORE.INTRA.DIHEDRAL.0>
0

>  <SCORE.INTRA.POLAR>
0

>  <SCORE.INTRA.POLAR.0>
0

>  <SCORE.INTRA.REPUL>
0

>  <SCORE.INTRA.REPUL.0>
0

>  <SCORE.INTRA.SOLV>
0

>  <SCORE.INTRA.SOLV.lig_0>
-23.8918

>  <SCORE.INTRA.VDW>
0

>  <SCORE.INTRA.VDW.0>
0

>  <SCORE.INTRA.norm>
0

>  <SCORE.RESTR>
0

>  <SCORE.RESTR.CAVITY>
0

>  <SCORE.RESTR.norm>
0

>  <SCORE.SYSTEM>
0

>  <SCORE.SYSTEM.CONST>
0

>  <SCORE.SYSTEM.DIHEDRAL>
0

>  <SCORE.SYSTEM.SOLV>
0

>  <SCORE.SYSTEM.norm>
0

>  <SCORE.heavy>
10

>  <SCORE.norm>
-1.45451

>  <RMSD>
0.753

$$$$
ligand
 OpenBabel11021811513D
libRbt.so/2013.1/901 2013/11/27
 10 11  0  0  0  0  0  0  0  0999 V2000
    5.9829   17.4894    2.5839 N   0  0  0  0  0  0  0  0  0  0  0  0
    6.8057   18.5442    2.5416 C   0  0  0  0  0  0  0  0  0  0  0  0
    7.1446   19.3823    3.5201 N   0  0  0  0  0  0  0  0  0  0  0  0
    6.5326   19.0483    4.6668 C   0  0  0  0  0  0  0  0  0  0  0  0
    5.6612   17.9948    4.8660 C   0  0  0  0  0  0  0  0  0  0  0  0
    5.3825   17.1788    3.7518 C   0  0  0  0  0  0  0  0  0  0  0  0
    4.5605   16.1258    3.7984 N   0  0  0  0  0  0  0  0  0  0  0  0
    5.2270   17.9588    6.1807 N   0  0  0  0  0  0  0  0  0  0  0  0
    5.8349   18.9777    6.7410 C   0  0  0  0  0  0  0  0  0  0  0  0
    6.6383   19.6790    5.8854 N   0  0  0  0  0  0  0  0  0  0  0  0
  1  2  2  0  0  0  0
  1  6  1  0  0  0  0
  2  3  1  0  0  0  0
  3  4  2  0  0  0  0
  4  5  1  0  0  0  0
  4 10  1  0  0  0  0
  5  6  2  0  0  0  0
  5  8  1  0  0  0  0
  6  7  1  0  0  0  0
  8  9  1  0  0  0  0
  9 10  2  0  0  0  0
M  END
>  <CHROM.1>
5.97192472,18.22941299,4.44896614,-1.75206570,0.87949198,1.18636683

>  <Name>
ligand

>  <RI>
0

>  <Rbt.Current_Directory>
/home/itssahil/PROJECTS/Mol_Feturizer/New_Systems/rnas/4XNR

>  <Rbt.Executable>
rbdock ($Id: //depot/dev/client3/rdock/2013.1/src/exe/rbdock.cxx#4 $)

>  <Rbt.Library>
libRbt.so (2013.1, Build901 2013/11/27)

>  <Rbt.Parameter_File>
/export/apps/rDock/src/rDock_2013.1_src/data/scripts/dock_solv.prm

>  <Rbt.Receptor>
prm/pocket_docking_3.prm

>  <SCORE>
-14.5519

>  <SCORE.INTER>
-14.5519

>  <SCORE.INTER.CONST>
1

>  <SCORE.INTER.POLAR>
0

>  <SCORE.INTER.ROT>
0

>  <SCORE.INTER.SOLV>
7.88112

>  <SCORE.INTER.VDW>
-15.9283

>  <SCORE.INTER.norm>
-1.45519

>  <SCORE.INTRA>
0

>  <SCORE.INTRA.DIHEDRAL>
0

>  <SCORE.INTRA.DIHEDRAL.0>
0

>  <SCORE.INTRA.POLAR>
0

>  <SCORE.INTRA.POLAR.0>
0

>  <SCORE.INTRA.REPUL>
0

>  <SCORE.INTRA.REPUL.0>
0

>  <SCORE.INTRA.SOLV>
0

>  <SCORE.INTRA.SOLV.lig_0>
-23.8918

>  <SCORE.INTRA.VDW>
0

>  <SCORE.INTRA.VDW.0>
0

>  <SCORE.INTRA.norm>
0

>  <SCORE.RESTR>
0

>  <SCORE.RESTR.CAVITY>
0

>  <SCORE.RESTR.norm>
0

>  <SCORE.SYSTEM>
0

>  <SCORE.SYSTEM.CONST>
0

>  <SCORE.SYSTEM.DIHEDRAL>
0

>  <SCORE.SYSTEM.SOLV>
0

>  <SCORE.SYSTEM.norm>
0

>  <SCORE.heavy>
10

>  <SCORE.norm>
-1.45519

>  <RMSD>
0.753

$$$$
ligand
 OpenBabel11021811513D
libRbt.so/2013.1/901 2013/11/27
 10 11  0  0  0  0  0  0  0  0999 V2000
    5.9727   17.4809    2.5911 N   0  0  0  0  0  0  0  0  0  0  0  0
    6.7807   18.5468    2.5408 C   0  0  0  0  0  0  0  0  0  0  0  0
    7.1234   19.3853    3.5176 N   0  0  0  0  0  0  0  0  0  0  0  0
    6.5334   19.0384    4.6720 C   0  0  0  0  0  0  0  0  0  0  0  0
    5.6794   17.9726    4.8800 C   0  0  0  0  0  0  0  0  0  0  0  0
    5.3945   17.1575    3.7667 C   0  0  0  0  0  0  0  0  0  0  0  0
    4.5874   16.0935    3.8212 N   0  0  0  0  0  0  0  0  0  0  0  0
    5.2659   17.9254    6.2010 N   0  0  0  0  0  0  0  0  0  0  0  0
    5.8686   18.9500    6.7563 C   0  0  0  0  0  0  0  0  0  0  0  0
    6.6495   19.6655    5.8916 N   0  0  0  0  0  0  0  0  0  0  0  0
  1  2  2  0  0  0  0
  1  6  1  0  0  0  0
  2  3  1  0  0  0  0
  3  4  2  0  0  0  0
  4  5  1  0  0  0  0
  4 10  1  0  0  0  0
  5  6  2  0  0  0  0
  5  8  1  0  0  0  0
  6  7  1  0  0  0  0
  8  9  1  0  0  0  0
  9 10  2  0  0  0  0
M  END
>  <CHROM.1>
5.98049208,18.21304269,4.45927834,-1.76682604,0.89752585,1.20203283

>  <Name>
ligand

>  <RI>
0

>  <Rbt.Current_Directory>
/home/itssahil/PROJECTS/Mol_Feturizer/New_Systems/rnas/4XNR

>  <Rbt.Executable>
rbdock ($Id: //depot/dev/client3/rdock/2013.1/src/exe/rbdock.cxx#4 $)

>  <Rbt.Library>
libRbt.so (2013.1, Build901 2013/11/27)

>  <Rbt.Parameter_File>
/export/apps/rDock/src/rDock_2013.1_src/data/scripts/dock_solv.prm

>  <Rbt.Receptor>
prm/pocket_docking_5.prm

>  <SCORE>
-14.5176

>  <SCORE.INTER>
-14.5176

>  <SCORE.INTER.CONST>
1

>  <SCORE.INTER.POLAR>
0

>  <SCORE.INTER.ROT>
0

>  <SCORE.INTER.SOLV>
8.0467

>  <SCORE.INTER.VDW>
-15.9606

>  <SCORE.INTER.norm>
-1.45176

>  <SCORE.INTRA>
0

>  <SCORE.INTRA.DIHEDRAL>
0

>  <SCORE.INTRA.DIHEDRAL.0>
0

>  <SCORE.INTRA.POLAR>
0

>  <SCORE.INTRA.POLAR.0>
0

>  <SCORE.INTRA.REPUL>
0

>  <SCORE.INTRA.REPUL.0>
0

>  <SCORE.INTRA.SOLV>
0

>  <SCORE.INTRA.SOLV.lig_0>
-23.8918

>  <SCORE.INTRA.VDW>
0

>  <SCORE.INTRA.VDW.0>
0

>  <SCORE.INTRA.norm>
0

>  <SCORE.RESTR>
0

>  <SCORE.RESTR.CAVITY>
0

>  <SCORE.RESTR.norm>
0

>  <SCORE.SYSTEM>
0

>  <SCORE.SYSTEM.CONST>
0

>  <SCORE.SYSTEM.DIHEDRAL>
0

>  <SCORE.SYSTEM.SOLV>
0

>  <SCORE.SYSTEM.norm>
0

>  <SCORE.heavy>
10

>  <SCORE.norm>
-1.45176

>  <RMSD>
0.753

$$$$
ligand
 OpenBabel11021811513D
libRbt.so/2013.1/901 2013/11/27
 10 11  0  0  0  0  0  0  0  0999 V2000
    5.8897   17.4127    2.6310 N   0  0  0  0  0  0  0  0  0  0  0  0
    6.7821   18.4079    2.5627 C   0  0  0  0  0  0  0  0  0  0  0  0
    7.1944   19.2312    3.5254 N   0  0  0  0  0  0  0  0  0  0  0  0
    6.5807   18.9524    4.6859 C   0  0  0  0  0  0  0  0  0  0  0  0
    5.6427   17.9636    4.9119 C   0  0  0  0  0  0  0  0  0  0  0  0
    5.2897   17.1567    3.8122 C   0  0  0  0  0  0  0  0  0  0  0  0
    4.3983   16.1633    3.8848 N   0  0  0  0  0  0  0  0  0  0  0  0
    5.2297   17.9717    6.2339 N   0  0  0  0  0  0  0  0  0  0  0  0
    5.9155   18.9523    6.7719 C   0  0  0  0  0  0  0  0  0  0  0  0
    6.7504   19.5875    5.8949 N   0  0  0  0  0  0  0  0  0  0  0  0
  1  2  2  0  0  0  0
  1  6  1  0  0  0  0
  2  3  1  0  0  0  0
  3  4  2  0  0  0  0
  4  5  1  0  0  0  0
  4 10  1  0  0  0  0
  5  6  2  0  0  0  0
  5  8  1  0  0  0  0
  6  7  1  0  0  0  0
  8  9  1  0  0  0  0
  9 10  2  0  0  0  0
M  END
>  <CHROM.1>
5.96158172,18.17175125,4.48705627,-1.81320675,0.82136946,1.22098134

>  <Name>
ligand

>  <RI>
0

>  <Rbt.Current_Directory>
/home/itssahil/PROJECTS/Mol_Feturizer/New_Systems/rnas/4XNR

>  <Rbt.Executable>
rbdock ($Id: //depot/dev/client3/rdock/2013.1/src/exe/rbdock.cxx#4 $)

>  <Rbt.Library>
libRbt.so (2013.1, Build901 2013/11/27)

>  <Rbt.Parameter_File>
/export/apps/rDock/src/rDock_2013.1_src/data/scripts/dock_solv.prm

>  <Rbt.Receptor>
prm/pocket_docking_6.prm

>  <SCORE>
-14.5467

>  <SCORE.INTER>
-14.5467

>  <SCORE.INTER.CONST>
1

>  <SCORE.INTER.POLAR>
0

>  <SCORE.INTER.ROT>
0

>  <SCORE.INTER.SOLV>
7.56833

>  <SCORE.INTER.VDW>
-15.8206

>  <SCORE.INTER.norm>
-1.45467

>  <SCORE.INTRA>
0

>  <SCORE.INTRA.DIHEDRAL>
0

>  <SCORE.INTRA.DIHEDRAL.0>
0

>  <SCORE.INTRA.POLAR>
0

>  <SCORE.INTRA.POLAR.0>
0

>  <SCORE.INTRA.REPUL>
0

>  <SCORE.INTRA.REPUL.0>
0

>  <SCORE.INTRA.SOLV>
0

>  <SCORE.INTRA.SOLV.lig_0>
-23.8918

>  <SCORE.INTRA.VDW>
0

>  <SCORE.INTRA.VDW.0>
0

>  <SCORE.INTRA.norm>
0

>  <SCORE.RESTR>
0

>  <SCORE.RESTR.CAVITY>
0

>  <SCORE.RESTR.norm>
0

>  <SCORE.SYSTEM>
0

>  <SCORE.SYSTEM.CONST>
0

>  <SCORE.SYSTEM.DIHEDRAL>
0

>  <SCORE.SYSTEM.SOLV>
0

>  <SCORE.SYSTEM.norm>
0

>  <SCORE.heavy>
10

>  <SCORE.norm>
-1.45467

>  <RMSD>
0.753

$$$$
ligand
 OpenBabel11021811513D
libRbt.so/2013.1/901 2013/11/27
 10 11  0  0  0  0  0  0  0  0999 V2000
    6.0031   17.5230    2.5621 N   0  0  0  0  0  0  0  0  0  0  0  0
    6.8211   18.5820    2.5326 C   0  0  0  0  0  0  0  0  0  0  0  0
    7.1549   19.4108    3.5207 N   0  0  0  0  0  0  0  0  0  0  0  0
    6.5429   19.0613    4.6628 C   0  0  0  0  0  0  0  0  0  0  0  0
    5.6763   18.0016    4.8493 C   0  0  0  0  0  0  0  0  0  0  0  0
    5.4028   17.1967    3.7257 C   0  0  0  0  0  0  0  0  0  0  0  0
    4.5856   16.1395    3.7596 N   0  0  0  0  0  0  0  0  0  0  0  0
    5.2407   17.9491    6.1629 N   0  0  0  0  0  0  0  0  0  0  0  0
    5.8430   18.9645    6.7352 C   0  0  0  0  0  0  0  0  0  0  0  0
    6.6443   19.6790    5.8884 N   0  0  0  0  0  0  0  0  0  0  0  0
  1  2  2  0  0  0  0
  1  6  1  0  0  0  0
  2  3  1  0  0  0  0
  3  4  2  0  0  0  0
  4  5  1  0  0  0  0
  4 10  1  0  0  0  0
  5  6  2  0  0  0  0
  5  8  1  0  0  0  0
  6  7  1  0  0  0  0
  8  9  1  0  0  0  0
  9 10  2  0  0  0  0
M  END
>  <CHROM.1>
5.98642072,18.24227604,4.43524189,-1.74749166,0.88335423,1.19390640

>  <Name>
ligand

>  <RI>
0

>  <Rbt.Current_Directory>
/home/itssahil/PROJECTS/Mol_Feturizer/New_Systems/rnas/4XNR

>  <Rbt.Executable>
rbdock ($Id: //depot/dev/client3/rdock/2013.1/src/exe/rbdock.cxx#4 $)

>  <Rbt.Library>
libRbt.so (2013.1, Build901 2013/11/27)

>  <Rbt.Parameter_File>
/export/apps/rDock/src/rDock_2013.1_src/data/scripts/dock_solv.prm

>  <Rbt.Receptor>
prm/pocket_docking_6.prm

>  <SCORE>
-14.5759

>  <SCORE.INTER>
-14.5759

>  <SCORE.INTER.CONST>
1

>  <SCORE.INTER.POLAR>
0

>  <SCORE.INTER.ROT>
0

>  <SCORE.INTER.SOLV>
7.82587

>  <SCORE.INTER.VDW>
-15.9259

>  <SCORE.INTER.norm>
-1.45759

>  <SCORE.INTRA>
0

>  <SCORE.INTRA.DIHEDRAL>
0

>  <SCORE.INTRA.DIHEDRAL.0>
0

>  <SCORE.INTRA.POLAR>
0

>  <SCORE.INTRA.POLAR.0>
0

>  <SCORE.INTRA.REPUL>
0

>  <SCORE.INTRA.REPUL.0>
0

>  <SCORE.INTRA.SOLV>
0

>  <SCORE.INTRA.SOLV.lig_0>
-23.8918

>  <SCORE.INTRA.VDW>
0

>  <SCORE.INTRA.VDW.0>
0

>  <SCORE.INTRA.norm>
0

>  <SCORE.RESTR>
0

>  <SCORE.RESTR.CAVITY>
0

>  <SCORE.RESTR.norm>
0

>  <SCORE.SYSTEM>
0

>  <SCORE.SYSTEM.CONST>
0

>  <SCORE.SYSTEM.DIHEDRAL>
0

>  <SCORE.SYSTEM.SOLV>
0

>  <SCORE.SYSTEM.norm>
0

>  <SCORE.heavy>
10

>  <SCORE.norm>
-1.45759

>  <RMSD>
0.753

$$$$
ligand
 OpenBabel11021811513D
libRbt.so/2013.1/901 2013/11/27
 10 11  0  0  0  0  0  0  0  0999 V2000
    5.8902   17.4296    2.6277 N   0  0  0  0  0  0  0  0  0  0  0  0
    6.7425   18.4578    2.5392 C   0  0  0  0  0  0  0  0  0  0  0  0
    7.1355   19.3047    3.4895 N   0  0  0  0  0  0  0  0  0  0  0  0
    6.5484   19.0125    4.6604 C   0  0  0  0  0  0  0  0  0  0  0  0
    5.6524   17.9903    4.9073 C   0  0  0  0  0  0  0  0  0  0  0  0
    5.3162   17.1610    3.8191 C   0  0  0  0  0  0  0  0  0  0  0  0
    4.4649   16.1346    3.9118 N   0  0  0  0  0  0  0  0  0  0  0  0
    5.2570   17.9940    6.2346 N   0  0  0  0  0  0  0  0  0  0  0  0
    5.9115   19.0049    6.7552 C   0  0  0  0  0  0  0  0  0  0  0  0
    6.7095   19.6641    5.8618 N   0  0  0  0  0  0  0  0  0  0  0  0
  1  2  2  0  0  0  0
  1  6  1  0  0  0  0
  2  3  1  0  0  0  0
  3  4  2  0  0  0  0
  4  5  1  0  0  0  0
  4 10  1  0  0  0  0
  5  6  2  0  0  0  0
  5  8  1  0  0  0  0
  6  7  1  0  0  0  0
  8  9  1  0  0  0  0
  9 10  2  0  0  0  0
M  END
>  <CHROM.1>
5.95734027,18.20692693,4.47639499,-1.81202270,0.86219842,1.21169071

>  <Name>
ligand

>  <RI>
0

>  <Rbt.Current_Directory>
/home/itssahil/PROJECTS/Mol_Feturizer/New_Systems/rnas/4XNR

>  <Rbt.Executable>
rbdock ($Id: //depot/dev/client3/rdock/2013.1/src/exe/rbdock.cxx#4 $)

>  <Rbt.Library>
libRbt.so (2013.1, Build901 2013/11/27)

>  <Rbt.Parameter_File>
/export/apps/rDock/src/rDock_2013.1_src/data/scripts/dock_solv.prm

>  <Rbt.Receptor>
prm/pocket_docking_6.prm

>  <SCORE>
-14.5636

>  <SCORE.INTER>
-14.5636

>  <SCORE.INTER.CONST>
1

>  <SCORE.INTER.POLAR>
0

>  <SCORE.INTER.ROT>
0

>  <SCORE.INTER.SOLV>
7.84002

>  <SCORE.INTER.VDW>
-15.9224

>  <SCORE.INTER.norm>
-1.45636

>  <SCORE.INTRA>
0

>  <SCORE.INTRA.DIHEDRAL>
0

>  <SCORE.INTRA.DIHEDRAL.0>
0

>  <SCORE.INTRA.POLAR>
0

>  <SCORE.INTRA.POLAR.0>
0

>  <SCORE.INTRA.REPUL>
0

>  <SCORE.INTRA.REPUL.0>
0

>  <SCORE.INTRA.SOLV>
0

>  <SCORE.INTRA.SOLV.lig_0>
-23.8918

>  <SCORE.INTRA.VDW>
0

>  <SCORE.INTRA.VDW.0>
0

>  <SCORE.INTRA.norm>
0

>  <SCORE.RESTR>
0

>  <SCORE.RESTR.CAVITY>
0

>  <SCORE.RESTR.norm>
0

>  <SCORE.SYSTEM>
0

>  <SCORE.SYSTEM.CONST>
0

>  <SCORE.SYSTEM.DIHEDRAL>
0

>  <SCORE.SYSTEM.SOLV>
0

>  <SCORE.SYSTEM.norm>
0

>  <SCORE.heavy>
10

>  <SCORE.norm>
-1.45636

>  <RMSD>
0.753

$$$$
ligand
 OpenBabel11021811513D
libRbt.so/2013.1/901 2013/11/27
 10 11  0  0  0  0  0  0  0  0999 V2000
    5.8707   17.4237    2.6305 N   0  0  0  0  0  0  0  0  0  0  0  0
    6.7172   18.4564    2.5394 C   0  0  0  0  0  0  0  0  0  0  0  0
    7.1099   19.3045    3.4888 N   0  0  0  0  0  0  0  0  0  0  0  0
    6.5294   19.0080    4.6620 C   0  0  0  0  0  0  0  0  0  0  0  0
    5.6399   17.9809    4.9116 C   0  0  0  0  0  0  0  0  0  0  0  0
    5.3033   17.1509    3.8241 C   0  0  0  0  0  0  0  0  0  0  0  0
    4.4578   16.1200    3.9195 N   0  0  0  0  0  0  0  0  0  0  0  0
    5.2502   17.9811    6.2407 N   0  0  0  0  0  0  0  0  0  0  0  0
    5.9016   18.9950    6.7595 C   0  0  0  0  0  0  0  0  0  0  0  0
    6.6923   19.6593    5.8634 N   0  0  0  0  0  0  0  0  0  0  0  0
  1  2  2  0  0  0  0
  1  6  1  0  0  0  0
  2  3  1  0  0  0  0
  3  4  2  0  0  0  0
  4  5  1  0  0  0  0
  4 10  1  0  0  0  0
  5  6  2  0  0  0  0
  5  8  1  0  0  0  0
  6  7  1  0  0  0  0
  8  9  1  0  0  0  0
  9 10  2  0  0  0  0
M  END
>  <CHROM.1>
5.94178596,18.19952653,4.47969140,-1.81546625,0.86862477,1.21532717

>  <Name>
ligand

>  <RI>
0

>  <Rbt.Current_Directory>
/home/itssahil/PROJECTS/Mol_Feturizer/New_Systems/rnas/4XNR

>  <Rbt.Executable>
rbdock ($Id: //depot/dev/client3/rdock/2013.1/src/exe/rbdock.cxx#4 $)

>  <Rbt.Library>
libRbt.so (2013.1, Build901 2013/11/27)

>  <Rbt.Parameter_File>
/export/apps/rDock/src/rDock_2013.1_src/data/scripts/dock_solv.prm

>  <Rbt.Receptor>
prm/pocket_docking_7.prm

>  <SCORE>
-14.5355

>  <SCORE.INTER>
-14.5355

>  <SCORE.INTER.CONST>
1

>  <SCORE.INTER.POLAR>
0

>  <SCORE.INTER.ROT>
0

>  <SCORE.INTER.SOLV>
7.87675

>  <SCORE.INTER.VDW>
-15.9159

>  <SCORE.INTER.norm>
-1.45355

>  <SCORE.INTRA>
0

>  <SCORE.INTRA.DIHEDRAL>
0

>  <SCORE.INTRA.DIHEDRAL.0>
0

>  <SCORE.INTRA.POLAR>
0

>  <SCORE.INTRA.POLAR.0>
0

>  <SCORE.INTRA.REPUL>
0

>  <SCORE.INTRA.REPUL.0>
0

>  <SCORE.INTRA.SOLV>
0

>  <SCORE.INTRA.SOLV.lig_0>
-23.8918

>  <SCORE.INTRA.VDW>
0

>  <SCORE.INTRA.VDW.0>
0

>  <SCORE.INTRA.norm>
0

>  <SCORE.RESTR>
0

>  <SCORE.RESTR.CAVITY>
0

>  <SCORE.RESTR.norm>
0

>  <SCORE.SYSTEM>
0

>  <SCORE.SYSTEM.CONST>
0

>  <SCORE.SYSTEM.DIHEDRAL>
0

>  <SCORE.SYSTEM.SOLV>
0

>  <SCORE.SYSTEM.norm>
0

>  <SCORE.heavy>
10

>  <SCORE.norm>
-1.45355

>  <RMSD>
0.753

$$$$
ligand
 OpenBabel11021811513D
libRbt.so/2013.1/901 2013/11/27
 10 11  0  0  0  0  0  0  0  0999 V2000
    5.9038   17.4225    2.6296 N   0  0  0  0  0  0  0  0  0  0  0  0
    6.7880   18.4245    2.5537 C   0  0  0  0  0  0  0  0  0  0  0  0
    7.1935   19.2585    3.5101 N   0  0  0  0  0  0  0  0  0  0  0  0
    6.5821   18.9835    4.6727 C   0  0  0  0  0  0  0  0  0  0  0  0
    5.6523   17.9887    4.9063 C   0  0  0  0  0  0  0  0  0  0  0  0
    5.3059   17.1706    3.8128 C   0  0  0  0  0  0  0  0  0  0  0  0
    4.4227   16.1705    3.8930 N   0  0  0  0  0  0  0  0  0  0  0  0
    5.2393   18.0035    6.2282 N   0  0  0  0  0  0  0  0  0  0  0  0
    5.9169   18.9938    6.7587 C   0  0  0  0  0  0  0  0  0  0  0  0
    6.7465   19.6291    5.8769 N   0  0  0  0  0  0  0  0  0  0  0  0
  1  2  2  0  0  0  0
  1  6  1  0  0  0  0
  2  3  1  0  0  0  0
  3  4  2  0  0  0  0
  4  5  1  0  0  0  0
  4 10  1  0  0  0  0
  5  6  2  0  0  0  0
  5  8  1  0  0  0  0
  6  7  1  0  0  0  0
  8  9  1  0  0  0  0
  9 10  2  0  0  0  0
M  END
>  <CHROM.1>
5.96943625,18.19625177,4.47986196,-1.80903067,0.82909249,1.21030720

>  <Name>
ligand

>  <RI>
0

>  <Rbt.Current_Directory>
/home/itssahil/PROJECTS/Mol_Feturizer/New_Systems/rnas/4XNR

>  <Rbt.Executable>
rbdock ($Id: //depot/dev/client3/rdock/2013.1/src/exe/rbdock.cxx#4 $)

>  <Rbt.Library>
libRbt.so (2013.1, Build901 2013/11/27)

>  <Rbt.Parameter_File>
/export/apps/rDock/src/rDock_2013.1_src/data/scripts/dock_solv.prm

>  <Rbt.Receptor>
prm/blind_docking_100.prm

>  <SCORE>
-14.5838

>  <SCORE.INTER>
-14.5838

>  <SCORE.INTER.CONST>
1

>  <SCORE.INTER.POLAR>
0

>  <SCORE.INTER.ROT>
0

>  <SCORE.INTER.SOLV>
7.62874

>  <SCORE.INTER.VDW>
-15.8655

>  <SCORE.INTER.norm>
-1.45838

>  <SCORE.INTRA>
0

>  <SCORE.INTRA.DIHEDRAL>
0

>  <SCORE.INTRA.DIHEDRAL.0>
0

>  <SCORE.INTRA.POLAR>
0

>  <SCORE.INTRA.POLAR.0>
0

>  <SCORE.INTRA.REPUL>
0

>  <SCORE.INTRA.REPUL.0>
0

>  <SCORE.INTRA.SOLV>
0

>  <SCORE.INTRA.SOLV.lig_0>
-23.8918

>  <SCORE.INTRA.VDW>
0

>  <SCORE.INTRA.VDW.0>
0

>  <SCORE.INTRA.norm>
0

>  <SCORE.RESTR>
0

>  <SCORE.RESTR.CAVITY>
0

>  <SCORE.RESTR.norm>
0

>  <SCORE.SYSTEM>
0

>  <SCORE.SYSTEM.CONST>
0

>  <SCORE.SYSTEM.DIHEDRAL>
0

>  <SCORE.SYSTEM.SOLV>
0

>  <SCORE.SYSTEM.norm>
0

>  <SCORE.heavy>
10

>  <SCORE.norm>
-1.45838

>  <RMSD>
0.754

$$$$
ligand
 OpenBabel11021811513D
libRbt.so/2013.1/901 2013/11/27
 10 11  0  0  0  0  0  0  0  0999 V2000
    5.8919   17.4284    2.6265 N   0  0  0  0  0  0  0  0  0  0  0  0
    6.7744   18.4316    2.5483 C   0  0  0  0  0  0  0  0  0  0  0  0
    7.1840   19.2639    3.5044 N   0  0  0  0  0  0  0  0  0  0  0  0
    6.5791   18.9854    4.6696 C   0  0  0  0  0  0  0  0  0  0  0  0
    5.6518   17.9890    4.9059 C   0  0  0  0  0  0  0  0  0  0  0  0
    5.3006   17.1730    3.8123 C   0  0  0  0  0  0  0  0  0  0  0  0
    4.4191   16.1716    3.8948 N   0  0  0  0  0  0  0  0  0  0  0  0
    5.2458   18.0002    6.2300 N   0  0  0  0  0  0  0  0  0  0  0  0
    5.9251   18.9900    6.7592 C   0  0  0  0  0  0  0  0  0  0  0  0
    6.7492   19.6285    5.8744 N   0  0  0  0  0  0  0  0  0  0  0  0
  1  2  2  0  0  0  0
  1  6  1  0  0  0  0
  2  3  1  0  0  0  0
  3  4  2  0  0  0  0
  4  5  1  0  0  0  0
  4 10  1  0  0  0  0
  5  6  2  0  0  0  0
  5  8  1  0  0  0  0
  6  7  1  0  0  0  0
  8  9  1  0  0  0  0
  9 10  2  0  0  0  0
M  END
>  <CHROM.1>
5.96641814,18.19791951,4.47819574,-1.81578431,0.83209126,1.21762886

>  <Name>
ligand

>  <RI>
0

>  <Rbt.Current_Directory>
/home/itssahil/PROJECTS/Mol_Feturizer/New_Systems/rnas/4XNR

>  <Rbt.Executable>
rbdock ($Id: //depot/dev/client3/rdock/2013.1/src/exe/rbdock.cxx#4 $)

>  <Rbt.Library>
libRbt.so (2013.1, Build901 2013/11/27)

>  <Rbt.Parameter_File>
/export/apps/rDock/src/rDock_2013.1_src/data/scripts/dock_solv.prm

>  <Rbt.Receptor>
prm/blind_docking_60.prm

>  <SCORE>
-14.5895

>  <SCORE.INTER>
-14.5895

>  <SCORE.INTER.CONST>
1

>  <SCORE.INTER.POLAR>
0

>  <SCORE.INTER.ROT>
0

>  <SCORE.INTER.SOLV>
7.62697

>  <SCORE.INTER.VDW>
-15.8686

>  <SCORE.INTER.norm>
-1.45895

>  <SCORE.INTRA>
0

>  <SCORE.INTRA.DIHEDRAL>
0

>  <SCORE.INTRA.DIHEDRAL.0>
0

>  <SCORE.INTRA.POLAR>
0

>  <SCORE.INTRA.POLAR.0>
0

>  <SCORE.INTRA.REPUL>
0

>  <SCORE.INTRA.REPUL.0>
0

>  <SCORE.INTRA.SOLV>
0

>  <SCORE.INTRA.SOLV.lig_0>
-23.8918

>  <SCORE.INTRA.VDW>
0

>  <SCORE.INTRA.VDW.0>
0

>  <SCORE.INTRA.norm>
0

>  <SCORE.RESTR>
0

>  <SCORE.RESTR.CAVITY>
0

>  <SCORE.RESTR.norm>
0

>  <SCORE.SYSTEM>
0

>  <SCORE.SYSTEM.CONST>
0

>  <SCORE.SYSTEM.DIHEDRAL>
0

>  <SCORE.SYSTEM.SOLV>
0

>  <SCORE.SYSTEM.norm>
0

>  <SCORE.heavy>
10

>  <SCORE.norm>
-1.45895

>  <RMSD>
0.754

$$$$
ligand
 OpenBabel11021811513D
libRbt.so/2013.1/901 2013/11/27
 10 11  0  0  0  0  0  0  0  0999 V2000
    5.8495   17.5348    2.5617 N   0  0  0  0  0  0  0  0  0  0  0  0
    6.7431   18.5297    2.5066 C   0  0  0  0  0  0  0  0  0  0  0  0
    7.1652   19.3320    3.4827 N   0  0  0  0  0  0  0  0  0  0  0  0
    6.5608   19.0301    4.6423 C   0  0  0  0  0  0  0  0  0  0  0  0
    5.6229   18.0384    4.8557 C   0  0  0  0  0  0  0  0  0  0  0  0
    5.2589   17.2553    3.7424 C   0  0  0  0  0  0  0  0  0  0  0  0
    4.3663   16.2621    3.8018 N   0  0  0  0  0  0  0  0  0  0  0  0
    5.2211   18.0196    6.1810 N   0  0  0  0  0  0  0  0  0  0  0  0
    5.9133   18.9876    6.7335 C   0  0  0  0  0  0  0  0  0  0  0  0
    6.7419   19.6395    5.8628 N   0  0  0  0  0  0  0  0  0  0  0  0
  1  2  2  0  0  0  0
  1  6  1  0  0  0  0
  2  3  1  0  0  0  0
  3  4  2  0  0  0  0
  4  5  1  0  0  0  0
  4 10  1  0  0  0  0
  5  6  2  0  0  0  0
  5  8  1  0  0  0  0
  6  7  1  0  0  0  0
  8  9  1  0  0  0  0
  9 10  2  0  0  0  0
M  END
>  <CHROM.1>
5.93851283,18.25484458,4.43250422,-1.82589527,0.82243898,1.25115168

>  <Name>
ligand

>  <RI>
0

>  <Rbt.Current_Directory>
/home/itssahil/PROJECTS/Mol_Feturizer/New_Systems/rnas/4XNR

>  <Rbt.Executable>
rbdock ($Id: //depot/dev/client3/rdock/2013.1/src/exe/rbdock.cxx#4 $)

>  <Rbt.Library>
libRbt.so (2013.1, Build901 2013/11/27)

>  <Rbt.Parameter_File>
/export/apps/rDock/src/rDock_2013.1_src/data/scripts/dock_solv.prm

>  <Rbt.Receptor>
prm/blind_docking_60.prm

>  <SCORE>
-14.5426

>  <SCORE.INTER>
-14.5426

>  <SCORE.INTER.CONST>
1

>  <SCORE.INTER.POLAR>
0

>  <SCORE.INTER.ROT>
0

>  <SCORE.INTER.SOLV>
7.21826

>  <SCORE.INTER.VDW>
-15.7012

>  <SCORE.INTER.norm>
-1.45426

>  <SCORE.INTRA>
0

>  <SCORE.INTRA.DIHEDRAL>
0

>  <SCORE.INTRA.DIHEDRAL.0>
0

>  <SCORE.INTRA.POLAR>
0

>  <SCORE.INTRA.POLAR.0>
0

>  <SCORE.INTRA.REPUL>
0

>  <SCORE.INTRA.REPUL.0>
0

>  <SCORE.INTRA.SOLV>
0

>  <SCORE.INTRA.SOLV.lig_0>
-23.8918

>  <SCORE.INTRA.VDW>
0

>  <SCORE.INTRA.VDW.0>
0

>  <SCORE.INTRA.norm>
0

>  <SCORE.RESTR>
0

>  <SCORE.RESTR.CAVITY>
0

>  <SCORE.RESTR.norm>
0

>  <SCORE.SYSTEM>
0

>  <SCORE.SYSTEM.CONST>
0

>  <SCORE.SYSTEM.DIHEDRAL>
0

>  <SCORE.SYSTEM.SOLV>
0

>  <SCORE.SYSTEM.norm>
0

>  <SCORE.heavy>
10

>  <SCORE.norm>
-1.45426

>  <RMSD>
0.754

$$$$
ligand
 OpenBabel11021811513D
libRbt.so/2013.1/901 2013/11/27
 10 11  0  0  0  0  0  0  0  0999 V2000
    5.9047   17.4112    2.6310 N   0  0  0  0  0  0  0  0  0  0  0  0
    6.7967   18.4069    2.5664 C   0  0  0  0  0  0  0  0  0  0  0  0
    7.1987   19.2356    3.5289 N   0  0  0  0  0  0  0  0  0  0  0  0
    6.5739   18.9620    4.6847 C   0  0  0  0  0  0  0  0  0  0  0  0
    5.6348   17.9733    4.9066 C   0  0  0  0  0  0  0  0  0  0  0  0
    5.2933   17.1605    3.8076 C   0  0  0  0  0  0  0  0  0  0  0  0
    4.4023   16.1665    3.8764 N   0  0  0  0  0  0  0  0  0  0  0  0
    5.2088   17.9876    6.2244 N   0  0  0  0  0  0  0  0  0  0  0  0
    5.8883   18.9717    6.7641 C   0  0  0  0  0  0  0  0  0  0  0  0
    6.7311   19.6033    5.8922 N   0  0  0  0  0  0  0  0  0  0  0  0
  1  2  2  0  0  0  0
  1  6  1  0  0  0  0
  2  3  1  0  0  0  0
  3  4  2  0  0  0  0
  4  5  1  0  0  0  0
  4 10  1  0  0  0  0
  5  6  2  0  0  0  0
  5  8  1  0  0  0  0
  6  7  1  0  0  0  0
  8  9  1  0  0  0  0
  9 10  2  0  0  0  0
M  END
>  <CHROM.1>
5.95757077,18.17964257,4.48380969,-1.79920852,0.81892230,1.20569558

>  <Name>
ligand

>  <RI>
0

>  <Rbt.Current_Directory>
/home/itssahil/PROJECTS/Mol_Feturizer/New_Systems/rnas/4XNR

>  <Rbt.Executable>
rbdock ($Id: //depot/dev/client3/rdock/2013.1/src/exe/rbdock.cxx#4 $)

>  <Rbt.Library>
libRbt.so (2013.1, Build901 2013/11/27)

>  <Rbt.Parameter_File>
/export/apps/rDock/src/rDock_2013.1_src/data/scripts/dock_solv.prm

>  <Rbt.Receptor>
prm/pocket_docking_3.prm

>  <SCORE>
-14.5814

>  <SCORE.INTER>
-14.5814

>  <SCORE.INTER.CONST>
1

>  <SCORE.INTER.POLAR>
0

>  <SCORE.INTER.ROT>
0

>  <SCORE.INTER.SOLV>
7.55553

>  <SCORE.INTER.VDW>
-15.8394

>  <SCORE.INTER.norm>
-1.45814

>  <SCORE.INTRA>
0

>  <SCORE.INTRA.DIHEDRAL>
0

>  <SCORE.INTRA.DIHEDRAL.0>
0

>  <SCORE.INTRA.POLAR>
0

>  <SCORE.INTRA.POLAR.0>
0

>  <SCORE.INTRA.REPUL>
0

>  <SCORE.INTRA.REPUL.0>
0

>  <SCORE.INTRA.SOLV>
0

>  <SCORE.INTRA.SOLV.lig_0>
-23.8918

>  <SCORE.INTRA.VDW>
0

>  <SCORE.INTRA.VDW.0>
0

>  <SCORE.INTRA.norm>
0

>  <SCORE.RESTR>
0

>  <SCORE.RESTR.CAVITY>
0

>  <SCORE.RESTR.norm>
0

>  <SCORE.SYSTEM>
0

>  <SCORE.SYSTEM.CONST>
0

>  <SCORE.SYSTEM.DIHEDRAL>
0

>  <SCORE.SYSTEM.SOLV>
0

>  <SCORE.SYSTEM.norm>
0

>  <SCORE.heavy>
10

>  <SCORE.norm>
-1.45814

>  <RMSD>
0.754

$$$$
ligand
 OpenBabel11021811513D
libRbt.so/2013.1/901 2013/11/27
 10 11  0  0  0  0  0  0  0  0999 V2000
    5.9651   17.4399    2.6177 N   0  0  0  0  0  0  0  0  0  0  0  0
    6.7789   18.5003    2.5492 C   0  0  0  0  0  0  0  0  0  0  0  0
    7.1258   19.3540    3.5112 N   0  0  0  0  0  0  0  0  0  0  0  0
    6.5336   19.0306    4.6713 C   0  0  0  0  0  0  0  0  0  0  0  0
    5.6736   17.9732    4.8976 C   0  0  0  0  0  0  0  0  0  0  0  0
    5.3847   17.1404    3.7985 C   0  0  0  0  0  0  0  0  0  0  0  0
    4.5717   16.0818    3.8713 N   0  0  0  0  0  0  0  0  0  0  0  0
    5.2594   17.9515    6.2190 N   0  0  0  0  0  0  0  0  0  0  0  0
    5.8675   18.9823    6.7565 C   0  0  0  0  0  0  0  0  0  0  0  0
    6.6526   19.6783    5.8797 N   0  0  0  0  0  0  0  0  0  0  0  0
  1  2  2  0  0  0  0
  1  6  1  0  0  0  0
  2  3  1  0  0  0  0
  3  4  2  0  0  0  0
  4  5  1  0  0  0  0
  4 10  1  0  0  0  0
  5  6  2  0  0  0  0
  5  8  1  0  0  0  0
  6  7  1  0  0  0  0
  8  9  1  0  0  0  0
  9 10  2  0  0  0  0
M  END
>  <CHROM.1>
5.97619546,18.20462261,4.47281519,-1.76942985,0.89229361,1.18654534

>  <Name>
ligand

>  <RI>
0

>  <Rbt.Current_Directory>
/home/itssahil/PROJECTS/Mol_Feturizer/New_Systems/rnas/4XNR

>  <Rbt.Executable>
rbdock ($Id: //depot/dev/client3/rdock/2013.1/src/exe/rbdock.cxx#4 $)

>  <Rbt.Library>
libRbt.so (2013.1, Build901 2013/11/27)

>  <Rbt.Parameter_File>
/export/apps/rDock/src/rDock_2013.1_src/data/scripts/dock_solv.prm

>  <Rbt.Receptor>
prm/pocket_docking_4.prm

>  <SCORE>
-14.5565

>  <SCORE.INTER>
-14.5565

>  <SCORE.INTER.CONST>
1

>  <SCORE.INTER.POLAR>
0

>  <SCORE.INTER.ROT>
0

>  <SCORE.INTER.SOLV>
8.14016

>  <SCORE.INTER.VDW>
-16.0177

>  <SCORE.INTER.norm>
-1.45565

>  <SCORE.INTRA>
0

>  <SCORE.INTRA.DIHEDRAL>
0

>  <SCORE.INTRA.DIHEDRAL.0>
0

>  <SCORE.INTRA.POLAR>
0

>  <SCORE.INTRA.POLAR.0>
0

>  <SCORE.INTRA.REPUL>
0

>  <SCORE.INTRA.REPUL.0>
0

>  <SCORE.INTRA.SOLV>
0

>  <SCORE.INTRA.SOLV.lig_0>
-23.8918

>  <SCORE.INTRA.VDW>
0

>  <SCORE.INTRA.VDW.0>
0

>  <SCORE.INTRA.norm>
0

>  <SCORE.RESTR>
0

>  <SCORE.RESTR.CAVITY>
0

>  <SCORE.RESTR.norm>
0

>  <SCORE.SYSTEM>
0

>  <SCORE.SYSTEM.CONST>
0

>  <SCORE.SYSTEM.DIHEDRAL>
0

>  <SCORE.SYSTEM.SOLV>
0

>  <SCORE.SYSTEM.norm>
0

>  <SCORE.heavy>
10

>  <SCORE.norm>
-1.45565

>  <RMSD>
0.754

$$$$
ligand
 OpenBabel11021811513D
libRbt.so/2013.1/901 2013/11/27
 10 11  0  0  0  0  0  0  0  0999 V2000
    5.8982   17.4306    2.6271 N   0  0  0  0  0  0  0  0  0  0  0  0
    6.7607   18.4508    2.5453 C   0  0  0  0  0  0  0  0  0  0  0  0
    7.1569   19.2918    3.4995 N   0  0  0  0  0  0  0  0  0  0  0  0
    6.5611   19.0026    4.6668 C   0  0  0  0  0  0  0  0  0  0  0  0
    5.6542   17.9884    4.9067 C   0  0  0  0  0  0  0  0  0  0  0  0
    5.3156   17.1647    3.8149 C   0  0  0  0  0  0  0  0  0  0  0  0
    4.4541   16.1463    3.9010 N   0  0  0  0  0  0  0  0  0  0  0  0
    5.2520   17.9928    6.2320 N   0  0  0  0  0  0  0  0  0  0  0  0
    5.9134   18.9963    6.7583 C   0  0  0  0  0  0  0  0  0  0  0  0
    6.7222   19.6499    5.8705 N   0  0  0  0  0  0  0  0  0  0  0  0
  1  2  2  0  0  0  0
  1  6  1  0  0  0  0
  2  3  1  0  0  0  0
  3  4  2  0  0  0  0
  4  5  1  0  0  0  0
  4 10  1  0  0  0  0
  5  6  2  0  0  0  0
  5  8  1  0  0  0  0
  6  7  1  0  0  0  0
  8  9  1  0  0  0  0
  9 10  2  0  0  0  0
M  END
>  <CHROM.1>
5.96331762,18.20303527,4.47791367,-1.80985965,0.85149660,1.21233182

>  <Name>
ligand

>  <RI>
0

>  <Rbt.Current_Directory>
/home/itssahil/PROJECTS/Mol_Feturizer/New_Systems/rnas/4XNR

>  <Rbt.Executable>
rbdock ($Id: //depot/dev/client3/rdock/2013.1/src/exe/rbdock.cxx#4 $)

>  <Rbt.Library>
libRbt.so (2013.1, Build901 2013/11/27)

>  <Rbt.Parameter_File>
/export/apps/rDock/src/rDock_2013.1_src/data/scripts/dock_solv.prm

>  <Rbt.Receptor>
prm/pocket_docking_4.prm

>  <SCORE>
-14.5602

>  <SCORE.INTER>
-14.5602

>  <SCORE.INTER.CONST>
1

>  <SCORE.INTER.POLAR>
0

>  <SCORE.INTER.ROT>
0

>  <SCORE.INTER.SOLV>
7.76634

>  <SCORE.INTER.VDW>
-15.8956

>  <SCORE.INTER.norm>
-1.45602

>  <SCORE.INTRA>
0

>  <SCORE.INTRA.DIHEDRAL>
0

>  <SCORE.INTRA.DIHEDRAL.0>
0

>  <SCORE.INTRA.POLAR>
0

>  <SCORE.INTRA.POLAR.0>
0

>  <SCORE.INTRA.REPUL>
0

>  <SCORE.INTRA.REPUL.0>
0

>  <SCORE.INTRA.SOLV>
0

>  <SCORE.INTRA.SOLV.lig_0>
-23.8918

>  <SCORE.INTRA.VDW>
0

>  <SCORE.INTRA.VDW.0>
0

>  <SCORE.INTRA.norm>
0

>  <SCORE.RESTR>
0

>  <SCORE.RESTR.CAVITY>
0

>  <SCORE.RESTR.norm>
0

>  <SCORE.SYSTEM>
0

>  <SCORE.SYSTEM.CONST>
0

>  <SCORE.SYSTEM.DIHEDRAL>
0

>  <SCORE.SYSTEM.SOLV>
0

>  <SCORE.SYSTEM.norm>
0

>  <SCORE.heavy>
10

>  <SCORE.norm>
-1.45602

>  <RMSD>
0.754

$$$$
ligand
 OpenBabel11021811513D
libRbt.so/2013.1/901 2013/11/27
 10 11  0  0  0  0  0  0  0  0999 V2000
    5.9559   17.4344    2.6207 N   0  0  0  0  0  0  0  0  0  0  0  0
    6.7645   18.4988    2.5535 C   0  0  0  0  0  0  0  0  0  0  0  0
    7.1062   19.3538    3.5163 N   0  0  0  0  0  0  0  0  0  0  0  0
    6.5144   19.0268    4.6757 C   0  0  0  0  0  0  0  0  0  0  0  0
    5.6595   17.9651    4.9005 C   0  0  0  0  0  0  0  0  0  0  0  0
    5.3759   17.1313    3.8008 C   0  0  0  0  0  0  0  0  0  0  0  0
    4.5681   16.0687    3.8722 N   0  0  0  0  0  0  0  0  0  0  0  0
    5.2441   17.9405    6.2215 N   0  0  0  0  0  0  0  0  0  0  0  0
    5.8465   18.9741    6.7602 C   0  0  0  0  0  0  0  0  0  0  0  0
    6.6290   19.6745    5.8845 N   0  0  0  0  0  0  0  0  0  0  0  0
  1  2  2  0  0  0  0
  1  6  1  0  0  0  0
  2  3  1  0  0  0  0
  3  4  2  0  0  0  0
  4  5  1  0  0  0  0
  4 10  1  0  0  0  0
  5  6  2  0  0  0  0
  5  8  1  0  0  0  0
  6  7  1  0  0  0  0
  8  9  1  0  0  0  0
  9 10  2  0  0  0  0
M  END
>  <CHROM.1>
5.96136154,18.19818000,4.47617228,-1.76493040,0.89654899,1.18354213

>  <Name>
ligand

>  <RI>
0

>  <Rbt.Current_Directory>
/home/itssahil/PROJECTS/Mol_Feturizer/New_Systems/rnas/4XNR

>  <Rbt.Executable>
rbdock ($Id: //depot/dev/client3/rdock/2013.1/src/exe/rbdock.cxx#4 $)

>  <Rbt.Library>
libRbt.so (2013.1, Build901 2013/11/27)

>  <Rbt.Parameter_File>
/export/apps/rDock/src/rDock_2013.1_src/data/scripts/dock_solv.prm

>  <Rbt.Receptor>
prm/blind_docking_100.prm

>  <SCORE>
-14.5266

>  <SCORE.INTER>
-14.5266

>  <SCORE.INTER.CONST>
1

>  <SCORE.INTER.POLAR>
0

>  <SCORE.INTER.ROT>
0

>  <SCORE.INTER.SOLV>
8.16521

>  <SCORE.INTER.VDW>
-16.0061

>  <SCORE.INTER.norm>
-1.45266

>  <SCORE.INTRA>
0

>  <SCORE.INTRA.DIHEDRAL>
0

>  <SCORE.INTRA.DIHEDRAL.0>
0

>  <SCORE.INTRA.POLAR>
0

>  <SCORE.INTRA.POLAR.0>
0

>  <SCORE.INTRA.REPUL>
0

>  <SCORE.INTRA.REPUL.0>
0

>  <SCORE.INTRA.SOLV>
0

>  <SCORE.INTRA.SOLV.lig_0>
-23.8918

>  <SCORE.INTRA.VDW>
0

>  <SCORE.INTRA.VDW.0>
0

>  <SCORE.INTRA.norm>
0

>  <SCORE.RESTR>
0

>  <SCORE.RESTR.CAVITY>
0

>  <SCORE.RESTR.norm>
0

>  <SCORE.SYSTEM>
0

>  <SCORE.SYSTEM.CONST>
0

>  <SCORE.SYSTEM.DIHEDRAL>
0

>  <SCORE.SYSTEM.SOLV>
0

>  <SCORE.SYSTEM.norm>
0

>  <SCORE.heavy>
10

>  <SCORE.norm>
-1.45266

>  <RMSD>
0.755

$$$$
ligand
 OpenBabel11021811513D
libRbt.so/2013.1/901 2013/11/27
 10 11  0  0  0  0  0  0  0  0999 V2000
    6.0028   17.5233    2.5642 N   0  0  0  0  0  0  0  0  0  0  0  0
    6.8199   18.5830    2.5386 C   0  0  0  0  0  0  0  0  0  0  0  0
    7.1567   19.4057    3.5309 N   0  0  0  0  0  0  0  0  0  0  0  0
    6.5492   19.0483    4.6729 C   0  0  0  0  0  0  0  0  0  0  0  0
    5.6839   17.9868    4.8556 C   0  0  0  0  0  0  0  0  0  0  0  0
    5.4069   17.1890    3.7279 C   0  0  0  0  0  0  0  0  0  0  0  0
    4.5906   16.1310    3.7578 N   0  0  0  0  0  0  0  0  0  0  0  0
    5.2531   17.9255    6.1705 N   0  0  0  0  0  0  0  0  0  0  0  0
    5.8568   18.9376    6.7471 C   0  0  0  0  0  0  0  0  0  0  0  0
    6.6545   19.6581    5.9021 N   0  0  0  0  0  0  0  0  0  0  0  0
  1  2  2  0  0  0  0
  1  6  1  0  0  0  0
  2  3  1  0  0  0  0
  3  4  2  0  0  0  0
  4  5  1  0  0  0  0
  4 10  1  0  0  0  0
  5  6  2  0  0  0  0
  5  8  1  0  0  0  0
  6  7  1  0  0  0  0
  8  9  1  0  0  0  0
  9 10  2  0  0  0  0
M  END
>  <CHROM.1>
5.99238803,18.23037076,4.44204150,-1.75238409,0.88532170,1.20416738

>  <Name>
ligand

>  <RI>
0

>  <Rbt.Current_Directory>
/home/itssahil/PROJECTS/Mol_Feturizer/New_Systems/rnas/4XNR

>  <Rbt.Executable>
rbdock ($Id: //depot/dev/client3/rdock/2013.1/src/exe/rbdock.cxx#4 $)

>  <Rbt.Library>
libRbt.so (2013.1, Build901 2013/11/27)

>  <Rbt.Parameter_File>
/export/apps/rDock/src/rDock_2013.1_src/data/scripts/dock_solv.prm

>  <Rbt.Receptor>
prm/blind_docking_100.prm

>  <SCORE>
-14.5367

>  <SCORE.INTER>
-14.5367

>  <SCORE.INTER.CONST>
1

>  <SCORE.INTER.POLAR>
0

>  <SCORE.INTER.ROT>
0

>  <SCORE.INTER.SOLV>
7.84773

>  <SCORE.INTER.VDW>
-15.907

>  <SCORE.INTER.norm>
-1.45367

>  <SCORE.INTRA>
0

>  <SCORE.INTRA.DIHEDRAL>
0

>  <SCORE.INTRA.DIHEDRAL.0>
0

>  <SCORE.INTRA.POLAR>
0

>  <SCORE.INTRA.POLAR.0>
0

>  <SCORE.INTRA.REPUL>
0

>  <SCORE.INTRA.REPUL.0>
0

>  <SCORE.INTRA.SOLV>
0

>  <SCORE.INTRA.SOLV.lig_0>
-23.8918

>  <SCORE.INTRA.VDW>
0

>  <SCORE.INTRA.VDW.0>
0

>  <SCORE.INTRA.norm>
0

>  <SCORE.RESTR>
0

>  <SCORE.RESTR.CAVITY>
0

>  <SCORE.RESTR.norm>
0

>  <SCORE.SYSTEM>
0

>  <SCORE.SYSTEM.CONST>
0

>  <SCORE.SYSTEM.DIHEDRAL>
0

>  <SCORE.SYSTEM.SOLV>
0

>  <SCORE.SYSTEM.norm>
0

>  <SCORE.heavy>
10

>  <SCORE.norm>
-1.45367

>  <RMSD>
0.755

$$$$
ligand
 OpenBabel11021811513D
libRbt.so/2013.1/901 2013/11/27
 10 11  0  0  0  0  0  0  0  0999 V2000
    5.9059   17.4253    2.6306 N   0  0  0  0  0  0  0  0  0  0  0  0
    6.7709   18.4436    2.5506 C   0  0  0  0  0  0  0  0  0  0  0  0
    7.1638   19.2862    3.5047 N   0  0  0  0  0  0  0  0  0  0  0  0
    6.5614   19.0013    4.6696 C   0  0  0  0  0  0  0  0  0  0  0  0
    5.6512   17.9895    4.9074 C   0  0  0  0  0  0  0  0  0  0  0  0
    5.3166   17.1638    3.8160 C   0  0  0  0  0  0  0  0  0  0  0  0
    4.4526   16.1473    3.9003 N   0  0  0  0  0  0  0  0  0  0  0  0
    5.2422   17.9982    6.2307 N   0  0  0  0  0  0  0  0  0  0  0  0
    5.9029   19.0017    6.7578 C   0  0  0  0  0  0  0  0  0  0  0  0
    6.7176   19.6514    5.8725 N   0  0  0  0  0  0  0  0  0  0  0  0
  1  2  2  0  0  0  0
  1  6  1  0  0  0  0
  2  3  1  0  0  0  0
  3  4  2  0  0  0  0
  4  5  1  0  0  0  0
  4 10  1  0  0  0  0
  5  6  2  0  0  0  0
  5  8  1  0  0  0  0
  6  7  1  0  0  0  0
  8  9  1  0  0  0  0
  9 10  2  0  0  0  0
M  END
>  <CHROM.1>
5.96299342,18.20246026,4.47970046,-1.80362542,0.84775629,1.20507044

>  <Name>
ligand

>  <RI>
0

>  <Rbt.Current_Directory>
/home/itssahil/PROJECTS/Mol_Feturizer/New_Systems/rnas/4XNR

>  <Rbt.Executable>
rbdock ($Id: //depot/dev/client3/rdock/2013.1/src/exe/rbdock.cxx#4 $)

>  <Rbt.Library>
libRbt.so (2013.1, Build901 2013/11/27)

>  <Rbt.Parameter_File>
/export/apps/rDock/src/rDock_2013.1_src/data/scripts/dock_solv.prm

>  <Rbt.Receptor>
prm/blind_docking_40.prm

>  <SCORE>
-14.592

>  <SCORE.INTER>
-14.592

>  <SCORE.INTER.CONST>
1

>  <SCORE.INTER.POLAR>
0

>  <SCORE.INTER.ROT>
0

>  <SCORE.INTER.SOLV>
7.75954

>  <SCORE.INTER.VDW>
-15.9145

>  <SCORE.INTER.norm>
-1.4592

>  <SCORE.INTRA>
0

>  <SCORE.INTRA.DIHEDRAL>
0

>  <SCORE.INTRA.DIHEDRAL.0>
0

>  <SCORE.INTRA.POLAR>
0

>  <SCORE.INTRA.POLAR.0>
0

>  <SCORE.INTRA.REPUL>
0

>  <SCORE.INTRA.REPUL.0>
0

>  <SCORE.INTRA.SOLV>
0

>  <SCORE.INTRA.SOLV.lig_0>
-23.8918

>  <SCORE.INTRA.VDW>
0

>  <SCORE.INTRA.VDW.0>
0

>  <SCORE.INTRA.norm>
0

>  <SCORE.RESTR>
0

>  <SCORE.RESTR.CAVITY>
0

>  <SCORE.RESTR.norm>
0

>  <SCORE.SYSTEM>
0

>  <SCORE.SYSTEM.CONST>
0

>  <SCORE.SYSTEM.DIHEDRAL>
0

>  <SCORE.SYSTEM.SOLV>
0

>  <SCORE.SYSTEM.norm>
0

>  <SCORE.heavy>
10

>  <SCORE.norm>
-1.4592

>  <RMSD>
0.755

$$$$
ligand
 OpenBabel11021811513D
libRbt.so/2013.1/901 2013/11/27
 10 11  0  0  0  0  0  0  0  0999 V2000
    5.9192   17.4160    2.6308 N   0  0  0  0  0  0  0  0  0  0  0  0
    6.8189   18.4046    2.5629 C   0  0  0  0  0  0  0  0  0  0  0  0
    7.2285   19.2324    3.5230 N   0  0  0  0  0  0  0  0  0  0  0  0
    6.6028   18.9665    4.6801 C   0  0  0  0  0  0  0  0  0  0  0  0
    5.6562   17.9857    4.9054 C   0  0  0  0  0  0  0  0  0  0  0  0
    5.3072   17.1730    3.8087 C   0  0  0  0  0  0  0  0  0  0  0  0
    4.4085   16.1862    3.8809 N   0  0  0  0  0  0  0  0  0  0  0  0
    5.2318   18.0066    6.2236 N   0  0  0  0  0  0  0  0  0  0  0  0
    5.9195   18.9866    6.7602 C   0  0  0  0  0  0  0  0  0  0  0  0
    6.7663   19.6095    5.8858 N   0  0  0  0  0  0  0  0  0  0  0  0
  1  2  2  0  0  0  0
  1  6  1  0  0  0  0
  2  3  1  0  0  0  0
  3  4  2  0  0  0  0
  4  5  1  0  0  0  0
  4 10  1  0  0  0  0
  5  6  2  0  0  0  0
  5  8  1  0  0  0  0
  6  7  1  0  0  0  0
  8  9  1  0  0  0  0
  9 10  2  0  0  0  0
M  END
>  <CHROM.1>
5.98013828,18.18852593,4.48173696,-1.80473936,0.81197813,1.20728976

>  <Name>
ligand

>  <RI>
0

>  <Rbt.Current_Directory>
/home/itssahil/PROJECTS/Mol_Feturizer/New_Systems/rnas/4XNR

>  <Rbt.Executable>
rbdock ($Id: //depot/dev/client3/rdock/2013.1/src/exe/rbdock.cxx#4 $)

>  <Rbt.Library>
libRbt.so (2013.1, Build901 2013/11/27)

>  <Rbt.Parameter_File>
/export/apps/rDock/src/rDock_2013.1_src/data/scripts/dock_solv.prm

>  <Rbt.Receptor>
prm/blind_docking_80.prm

>  <SCORE>
-14.5968

>  <SCORE.INTER>
-14.5968

>  <SCORE.INTER.CONST>
1

>  <SCORE.INTER.POLAR>
0

>  <SCORE.INTER.ROT>
0

>  <SCORE.INTER.SOLV>
7.535

>  <SCORE.INTER.VDW>
-15.8429

>  <SCORE.INTER.norm>
-1.45968

>  <SCORE.INTRA>
0

>  <SCORE.INTRA.DIHEDRAL>
0

>  <SCORE.INTRA.DIHEDRAL.0>
0

>  <SCORE.INTRA.POLAR>
0

>  <SCORE.INTRA.POLAR.0>
0

>  <SCORE.INTRA.REPUL>
0

>  <SCORE.INTRA.REPUL.0>
0

>  <SCORE.INTRA.SOLV>
0

>  <SCORE.INTRA.SOLV.lig_0>
-23.8918

>  <SCORE.INTRA.VDW>
0

>  <SCORE.INTRA.VDW.0>
0

>  <SCORE.INTRA.norm>
0

>  <SCORE.RESTR>
0

>  <SCORE.RESTR.CAVITY>
0

>  <SCORE.RESTR.norm>
0

>  <SCORE.SYSTEM>
0

>  <SCORE.SYSTEM.CONST>
0

>  <SCORE.SYSTEM.DIHEDRAL>
0

>  <SCORE.SYSTEM.SOLV>
0

>  <SCORE.SYSTEM.norm>
0

>  <SCORE.heavy>
10

>  <SCORE.norm>
-1.45968

>  <RMSD>
0.755

$$$$
ligand
 OpenBabel11021811513D
libRbt.so/2013.1/901 2013/11/27
 10 11  0  0  0  0  0  0  0  0999 V2000
    5.8972   17.4170    2.6297 N   0  0  0  0  0  0  0  0  0  0  0  0
    6.7928   18.4095    2.5654 C   0  0  0  0  0  0  0  0  0  0  0  0
    7.1992   19.2353    3.5285 N   0  0  0  0  0  0  0  0  0  0  0  0
    6.5749   18.9624    4.6848 C   0  0  0  0  0  0  0  0  0  0  0  0
    5.6324   17.9769    4.9065 C   0  0  0  0  0  0  0  0  0  0  0  0
    5.2864   17.1670    3.8068 C   0  0  0  0  0  0  0  0  0  0  0  0
    4.3917   16.1762    3.8754 N   0  0  0  0  0  0  0  0  0  0  0  0
    5.2082   17.9910    6.2249 N   0  0  0  0  0  0  0  0  0  0  0  0
    5.8920   18.9718    6.7651 C   0  0  0  0  0  0  0  0  0  0  0  0
    6.7360   19.6015    5.8929 N   0  0  0  0  0  0  0  0  0  0  0  0
  1  2  2  0  0  0  0
  1  6  1  0  0  0  0
  2  3  1  0  0  0  0
  3  4  2  0  0  0  0
  4  5  1  0  0  0  0
  4 10  1  0  0  0  0
  5  6  2  0  0  0  0
  5  8  1  0  0  0  0
  6  7  1  0  0  0  0
  8  9  1  0  0  0  0
  9 10  2  0  0  0  0
M  END
>  <CHROM.1>
5.95537207,18.18265948,4.48356915,-1.80293469,0.81585919,1.20980815

>  <Name>
ligand

>  <RI>
0

>  <Rbt.Current_Directory>
/home/itssahil/PROJECTS/Mol_Feturizer/New_Systems/rnas/4XNR

>  <Rbt.Executable>
rbdock ($Id: //depot/dev/client3/rdock/2013.1/src/exe/rbdock.cxx#4 $)

>  <Rbt.Library>
libRbt.so (2013.1, Build901 2013/11/27)

>  <Rbt.Parameter_File>
/export/apps/rDock/src/rDock_2013.1_src/data/scripts/dock_solv.prm

>  <Rbt.Receptor>
prm/pocket_docking_4.prm

>  <SCORE>
-14.5836

>  <SCORE.INTER>
-14.5836

>  <SCORE.INTER.CONST>
1

>  <SCORE.INTER.POLAR>
0

>  <SCORE.INTER.ROT>
0

>  <SCORE.INTER.SOLV>
7.51982

>  <SCORE.INTER.VDW>
-15.829

>  <SCORE.INTER.norm>
-1.45836

>  <SCORE.INTRA>
0

>  <SCORE.INTRA.DIHEDRAL>
0

>  <SCORE.INTRA.DIHEDRAL.0>
0

>  <SCORE.INTRA.POLAR>
0

>  <SCORE.INTRA.POLAR.0>
0

>  <SCORE.INTRA.REPUL>
0

>  <SCORE.INTRA.REPUL.0>
0

>  <SCORE.INTRA.SOLV>
0

>  <SCORE.INTRA.SOLV.lig_0>
-23.8918

>  <SCORE.INTRA.VDW>
0

>  <SCORE.INTRA.VDW.0>
0

>  <SCORE.INTRA.norm>
0

>  <SCORE.RESTR>
0

>  <SCORE.RESTR.CAVITY>
0

>  <SCORE.RESTR.norm>
0

>  <SCORE.SYSTEM>
0

>  <SCORE.SYSTEM.CONST>
0

>  <SCORE.SYSTEM.DIHEDRAL>
0

>  <SCORE.SYSTEM.SOLV>
0

>  <SCORE.SYSTEM.norm>
0

>  <SCORE.heavy>
10

>  <SCORE.norm>
-1.45836

>  <RMSD>
0.755

$$$$
ligand
 OpenBabel11021811513D
libRbt.so/2013.1/901 2013/11/27
 10 11  0  0  0  0  0  0  0  0999 V2000
    5.8992   17.4320    2.6259 N   0  0  0  0  0  0  0  0  0  0  0  0
    6.7766   18.4398    2.5488 C   0  0  0  0  0  0  0  0  0  0  0  0
    7.1816   19.2733    3.5057 N   0  0  0  0  0  0  0  0  0  0  0  0
    6.5777   18.9908    4.6705 C   0  0  0  0  0  0  0  0  0  0  0  0
    5.6554   17.9894    4.9056 C   0  0  0  0  0  0  0  0  0  0  0  0
    5.3087   17.1726    3.8112 C   0  0  0  0  0  0  0  0  0  0  0  0
    4.4323   16.1666    3.8926 N   0  0  0  0  0  0  0  0  0  0  0  0
    5.2489   17.9974    6.2295 N   0  0  0  0  0  0  0  0  0  0  0  0
    5.9229   18.9903    6.7598 C   0  0  0  0  0  0  0  0  0  0  0  0
    6.7441   19.6337    5.8759 N   0  0  0  0  0  0  0  0  0  0  0  0
  1  2  2  0  0  0  0
  1  6  1  0  0  0  0
  2  3  1  0  0  0  0
  3  4  2  0  0  0  0
  4  5  1  0  0  0  0
  4 10  1  0  0  0  0
  5  6  2  0  0  0  0
  5  8  1  0  0  0  0
  6  7  1  0  0  0  0
  8  9  1  0  0  0  0
  9 10  2  0  0  0  0
M  END
>  <CHROM.1>
5.96909616,18.20031693,4.47820537,-1.81265253,0.83676221,1.21614559

>  <Name>
ligand

>  <RI>
0

>  <Rbt.Current_Directory>
/home/itssahil/PROJECTS/Mol_Feturizer/New_Systems/rnas/4XNR

>  <Rbt.Executable>
rbdock ($Id: //depot/dev/client3/rdock/2013.1/src/exe/rbdock.cxx#4 $)

>  <Rbt.Library>
libRbt.so (2013.1, Build901 2013/11/27)

>  <Rbt.Parameter_File>
/export/apps/rDock/src/rDock_2013.1_src/data/scripts/dock_solv.prm

>  <Rbt.Receptor>
prm/pocket_docking_5.prm

>  <SCORE>
-14.5907

>  <SCORE.INTER>
-14.5907

>  <SCORE.INTER.CONST>
1

>  <SCORE.INTER.POLAR>
0

>  <SCORE.INTER.ROT>
0

>  <SCORE.INTER.SOLV>
7.65484

>  <SCORE.INTER.VDW>
-15.8788

>  <SCORE.INTER.norm>
-1.45907

>  <SCORE.INTRA>
0

>  <SCORE.INTRA.DIHEDRAL>
0

>  <SCORE.INTRA.DIHEDRAL.0>
0

>  <SCORE.INTRA.POLAR>
0

>  <SCORE.INTRA.POLAR.0>
0

>  <SCORE.INTRA.REPUL>
0

>  <SCORE.INTRA.REPUL.0>
0

>  <SCORE.INTRA.SOLV>
0

>  <SCORE.INTRA.SOLV.lig_0>
-23.8918

>  <SCORE.INTRA.VDW>
0

>  <SCORE.INTRA.VDW.0>
0

>  <SCORE.INTRA.norm>
0

>  <SCORE.RESTR>
0

>  <SCORE.RESTR.CAVITY>
0

>  <SCORE.RESTR.norm>
0

>  <SCORE.SYSTEM>
0

>  <SCORE.SYSTEM.CONST>
0

>  <SCORE.SYSTEM.DIHEDRAL>
0

>  <SCORE.SYSTEM.SOLV>
0

>  <SCORE.SYSTEM.norm>
0

>  <SCORE.heavy>
10

>  <SCORE.norm>
-1.45907

>  <RMSD>
0.755

$$$$
ligand
 OpenBabel11021811513D
libRbt.so/2013.1/901 2013/11/27
 10 11  0  0  0  0  0  0  0  0999 V2000
    5.9468   17.4737    2.6006 N   0  0  0  0  0  0  0  0  0  0  0  0
    6.7452   18.5460    2.5370 C   0  0  0  0  0  0  0  0  0  0  0  0
    7.0938   19.3899    3.5070 N   0  0  0  0  0  0  0  0  0  0  0  0
    6.5220   19.0413    4.6700 C   0  0  0  0  0  0  0  0  0  0  0  0
    5.6795   17.9691    4.8920 C   0  0  0  0  0  0  0  0  0  0  0  0
    5.3867   17.1487    3.7846 C   0  0  0  0  0  0  0  0  0  0  0  0
    4.5892   16.0782    3.8525 N   0  0  0  0  0  0  0  0  0  0  0  0
    5.2838   17.9220    6.2184 N   0  0  0  0  0  0  0  0  0  0  0  0
    5.8853   18.9530    6.7631 C   0  0  0  0  0  0  0  0  0  0  0  0
    6.6488   19.6726    5.8863 N   0  0  0  0  0  0  0  0  0  0  0  0
  1  2  2  0  0  0  0
  1  6  1  0  0  0  0
  2  3  1  0  0  0  0
  3  4  2  0  0  0  0
  4  5  1  0  0  0  0
  4 10  1  0  0  0  0
  5  6  2  0  0  0  0
  5  8  1  0  0  0  0
  6  7  1  0  0  0  0
  8  9  1  0  0  0  0
  9 10  2  0  0  0  0
M  END
>  <CHROM.1>
5.97307567,18.21085733,4.46670048,-1.78197244,0.90988055,1.21131862

>  <Name>
ligand

>  <RI>
0

>  <Rbt.Current_Directory>
/home/itssahil/PROJECTS/Mol_Feturizer/New_Systems/rnas/4XNR

>  <Rbt.Executable>
rbdock ($Id: //depot/dev/client3/rdock/2013.1/src/exe/rbdock.cxx#4 $)

>  <Rbt.Library>
libRbt.so (2013.1, Build901 2013/11/27)

>  <Rbt.Parameter_File>
/export/apps/rDock/src/rDock_2013.1_src/data/scripts/dock_solv.prm

>  <Rbt.Receptor>
prm/pocket_docking_6.prm

>  <SCORE>
-14.5449

>  <SCORE.INTER>
-14.5449

>  <SCORE.INTER.CONST>
1

>  <SCORE.INTER.POLAR>
0

>  <SCORE.INTER.ROT>
0

>  <SCORE.INTER.SOLV>
8.15473

>  <SCORE.INTER.VDW>
-16.0149

>  <SCORE.INTER.norm>
-1.45449

>  <SCORE.INTRA>
0

>  <SCORE.INTRA.DIHEDRAL>
0

>  <SCORE.INTRA.DIHEDRAL.0>
0

>  <SCORE.INTRA.POLAR>
0

>  <SCORE.INTRA.POLAR.0>
0

>  <SCORE.INTRA.REPUL>
0

>  <SCORE.INTRA.REPUL.0>
0

>  <SCORE.INTRA.SOLV>
0

>  <SCORE.INTRA.SOLV.lig_0>
-23.8918

>  <SCORE.INTRA.VDW>
0

>  <SCORE.INTRA.VDW.0>
0

>  <SCORE.INTRA.norm>
0

>  <SCORE.RESTR>
0

>  <SCORE.RESTR.CAVITY>
0

>  <SCORE.RESTR.norm>
0

>  <SCORE.SYSTEM>
0

>  <SCORE.SYSTEM.CONST>
0

>  <SCORE.SYSTEM.DIHEDRAL>
0

>  <SCORE.SYSTEM.SOLV>
0

>  <SCORE.SYSTEM.norm>
0

>  <SCORE.heavy>
10

>  <SCORE.norm>
-1.45449

>  <RMSD>
0.755

$$$$
ligand
 OpenBabel11021811513D
libRbt.so/2013.1/901 2013/11/27
 10 11  0  0  0  0  0  0  0  0999 V2000
    5.9341   17.4287    2.6214 N   0  0  0  0  0  0  0  0  0  0  0  0
    6.8344   18.4177    2.5688 C   0  0  0  0  0  0  0  0  0  0  0  0
    7.2383   19.2358    3.5395 N   0  0  0  0  0  0  0  0  0  0  0  0
    6.6055   18.9586    4.6901 C   0  0  0  0  0  0  0  0  0  0  0  0
    5.6573   17.9759    4.8998 C   0  0  0  0  0  0  0  0  0  0  0  0
    5.3148   17.1742    3.7930 C   0  0  0  0  0  0  0  0  0  0  0  0
    4.4154   16.1870    3.8499 N   0  0  0  0  0  0  0  0  0  0  0  0
    5.2249   17.9838    6.2155 N   0  0  0  0  0  0  0  0  0  0  0  0
    5.9096   18.9583    6.7660 C   0  0  0  0  0  0  0  0  0  0  0  0
    6.7618   19.5896    5.9031 N   0  0  0  0  0  0  0  0  0  0  0  0
  1  2  2  0  0  0  0
  1  6  1  0  0  0  0
  2  3  1  0  0  0  0
  3  4  2  0  0  0  0
  4  5  1  0  0  0  0
  4 10  1  0  0  0  0
  5  6  2  0  0  0  0
  5  8  1  0  0  0  0
  6  7  1  0  0  0  0
  8  9  1  0  0  0  0
  9 10  2  0  0  0  0
M  END
>  <CHROM.1>
5.98387740,18.18282290,4.48019346,-1.79659522,0.80955582,1.21131818

>  <Name>
ligand

>  <RI>
0

>  <Rbt.Current_Directory>
/home/itssahil/PROJECTS/Mol_Feturizer/New_Systems/rnas/4XNR

>  <Rbt.Executable>
rbdock ($Id: //depot/dev/client3/rdock/2013.1/src/exe/rbdock.cxx#4 $)

>  <Rbt.Library>
libRbt.so (2013.1, Build901 2013/11/27)

>  <Rbt.Parameter_File>
/export/apps/rDock/src/rDock_2013.1_src/data/scripts/dock_solv.prm

>  <Rbt.Receptor>
prm/pocket_docking_6.prm

>  <SCORE>
-14.5925

>  <SCORE.INTER>
-14.5925

>  <SCORE.INTER.CONST>
1

>  <SCORE.INTER.POLAR>
0

>  <SCORE.INTER.ROT>
0

>  <SCORE.INTER.SOLV>
7.49672

>  <SCORE.INTER.VDW>
-15.8273

>  <SCORE.INTER.norm>
-1.45925

>  <SCORE.INTRA>
0

>  <SCORE.INTRA.DIHEDRAL>
0

>  <SCORE.INTRA.DIHEDRAL.0>
0

>  <SCORE.INTRA.POLAR>
0

>  <SCORE.INTRA.POLAR.0>
0

>  <SCORE.INTRA.REPUL>
0

>  <SCORE.INTRA.REPUL.0>
0

>  <SCORE.INTRA.SOLV>
0

>  <SCORE.INTRA.SOLV.lig_0>
-23.8918

>  <SCORE.INTRA.VDW>
0

>  <SCORE.INTRA.VDW.0>
0

>  <SCORE.INTRA.norm>
0

>  <SCORE.RESTR>
0

>  <SCORE.RESTR.CAVITY>
0

>  <SCORE.RESTR.norm>
0

>  <SCORE.SYSTEM>
0

>  <SCORE.SYSTEM.CONST>
0

>  <SCORE.SYSTEM.DIHEDRAL>
0

>  <SCORE.SYSTEM.SOLV>
0

>  <SCORE.SYSTEM.norm>
0

>  <SCORE.heavy>
10

>  <SCORE.norm>
-1.45925

>  <RMSD>
0.755

$$$$
ligand
 OpenBabel11021811513D
libRbt.so/2013.1/901 2013/11/27
 10 11  0  0  0  0  0  0  0  0999 V2000
    5.8891   17.4191    2.6291 N   0  0  0  0  0  0  0  0  0  0  0  0
    6.7866   18.4098    2.5638 C   0  0  0  0  0  0  0  0  0  0  0  0
    7.1975   19.2332    3.5270 N   0  0  0  0  0  0  0  0  0  0  0  0
    6.5760   18.9598    4.6846 C   0  0  0  0  0  0  0  0  0  0  0  0
    5.6320   17.9759    4.9075 C   0  0  0  0  0  0  0  0  0  0  0  0
    5.2812   17.1685    3.8075 C   0  0  0  0  0  0  0  0  0  0  0  0
    4.3847   16.1795    3.8771 N   0  0  0  0  0  0  0  0  0  0  0  0
    5.2117   17.9888    6.2271 N   0  0  0  0  0  0  0  0  0  0  0  0
    5.8992   18.9672    6.7669 C   0  0  0  0  0  0  0  0  0  0  0  0
    6.7419   19.5966    5.8933 N   0  0  0  0  0  0  0  0  0  0  0  0
  1  2  2  0  0  0  0
  1  6  1  0  0  0  0
  2  3  1  0  0  0  0
  3  4  2  0  0  0  0
  4  5  1  0  0  0  0
  4 10  1  0  0  0  0
  5  6  2  0  0  0  0
  5  8  1  0  0  0  0
  6  7  1  0  0  0  0
  8  9  1  0  0  0  0
  9 10  2  0  0  0  0
M  END
>  <CHROM.1>
5.95424083,18.18165883,4.48398043,-1.80795784,0.81492556,1.21507067

>  <Name>
ligand

>  <RI>
0

>  <Rbt.Current_Directory>
/home/itssahil/PROJECTS/Mol_Feturizer/New_Systems/rnas/4XNR

>  <Rbt.Executable>
rbdock ($Id: //depot/dev/client3/rdock/2013.1/src/exe/rbdock.cxx#4 $)

>  <Rbt.Library>
libRbt.so (2013.1, Build901 2013/11/27)

>  <Rbt.Parameter_File>
/export/apps/rDock/src/rDock_2013.1_src/data/scripts/dock_solv.prm

>  <Rbt.Receptor>
prm/pocket_docking_7.prm

>  <SCORE>
-14.5844

>  <SCORE.INTER>
-14.5844

>  <SCORE.INTER.CONST>
1

>  <SCORE.INTER.POLAR>
0

>  <SCORE.INTER.ROT>
0

>  <SCORE.INTER.SOLV>
7.50869

>  <SCORE.INTER.VDW>
-15.8258

>  <SCORE.INTER.norm>
-1.45844

>  <SCORE.INTRA>
0

>  <SCORE.INTRA.DIHEDRAL>
0

>  <SCORE.INTRA.DIHEDRAL.0>
0

>  <SCORE.INTRA.POLAR>
0

>  <SCORE.INTRA.POLAR.0>
0

>  <SCORE.INTRA.REPUL>
0

>  <SCORE.INTRA.REPUL.0>
0

>  <SCORE.INTRA.SOLV>
0

>  <SCORE.INTRA.SOLV.lig_0>
-23.8918

>  <SCORE.INTRA.VDW>
0

>  <SCORE.INTRA.VDW.0>
0

>  <SCORE.INTRA.norm>
0

>  <SCORE.RESTR>
0

>  <SCORE.RESTR.CAVITY>
0

>  <SCORE.RESTR.norm>
0

>  <SCORE.SYSTEM>
0

>  <SCORE.SYSTEM.CONST>
0

>  <SCORE.SYSTEM.DIHEDRAL>
0

>  <SCORE.SYSTEM.SOLV>
0

>  <SCORE.SYSTEM.norm>
0

>  <SCORE.heavy>
10

>  <SCORE.norm>
-1.45844

>  <RMSD>
0.755

$$$$
ligand
 OpenBabel11021811513D
libRbt.so/2013.1/901 2013/11/27
 10 11  0  0  0  0  0  0  0  0999 V2000
    5.9243   17.4217    2.6289 N   0  0  0  0  0  0  0  0  0  0  0  0
    6.8223   18.4120    2.5647 C   0  0  0  0  0  0  0  0  0  0  0  0
    7.2297   19.2375    3.5275 N   0  0  0  0  0  0  0  0  0  0  0  0
    6.6036   18.9670    4.6834 C   0  0  0  0  0  0  0  0  0  0  0  0
    5.6585   17.9840    4.9049 C   0  0  0  0  0  0  0  0  0  0  0  0
    5.3117   17.1740    3.8055 C   0  0  0  0  0  0  0  0  0  0  0  0
    4.4146   16.1855    3.8741 N   0  0  0  0  0  0  0  0  0  0  0  0
    5.2331   18.0002    6.2229 N   0  0  0  0  0  0  0  0  0  0  0  0
    5.9188   18.9797    6.7630 C   0  0  0  0  0  0  0  0  0  0  0  0
    6.7651   19.6067    5.8912 N   0  0  0  0  0  0  0  0  0  0  0  0
  1  2  2  0  0  0  0
  1  6  1  0  0  0  0
  2  3  1  0  0  0  0
  3  4  2  0  0  0  0
  4  5  1  0  0  0  0
  4 10  1  0  0  0  0
  5  6  2  0  0  0  0
  5  8  1  0  0  0  0
  6  7  1  0  0  0  0
  8  9  1  0  0  0  0
  9 10  2  0  0  0  0
M  END
>  <CHROM.1>
5.98244202,18.18865134,4.48218809,-1.80284133,0.81327081,1.20896069

>  <Name>
ligand

>  <RI>
0

>  <Rbt.Current_Directory>
/home/itssahil/PROJECTS/Mol_Feturizer/New_Systems/rnas/4XNR

>  <Rbt.Executable>
rbdock ($Id: //depot/dev/client3/rdock/2013.1/src/exe/rbdock.cxx#4 $)

>  <Rbt.Library>
libRbt.so (2013.1, Build901 2013/11/27)

>  <Rbt.Parameter_File>
/export/apps/rDock/src/rDock_2013.1_src/data/scripts/dock_solv.prm

>  <Rbt.Receptor>
prm/blind_docking_40.prm

>  <SCORE>
-14.5958

>  <SCORE.INTER>
-14.5958

>  <SCORE.INTER.CONST>
1

>  <SCORE.INTER.POLAR>
0

>  <SCORE.INTER.ROT>
0

>  <SCORE.INTER.SOLV>
7.53314

>  <SCORE.INTER.VDW>
-15.8416

>  <SCORE.INTER.norm>
-1.45958

>  <SCORE.INTRA>
0

>  <SCORE.INTRA.DIHEDRAL>
0

>  <SCORE.INTRA.DIHEDRAL.0>
0

>  <SCORE.INTRA.POLAR>
0

>  <SCORE.INTRA.POLAR.0>
0

>  <SCORE.INTRA.REPUL>
0

>  <SCORE.INTRA.REPUL.0>
0

>  <SCORE.INTRA.SOLV>
0

>  <SCORE.INTRA.SOLV.lig_0>
-23.8918

>  <SCORE.INTRA.VDW>
0

>  <SCORE.INTRA.VDW.0>
0

>  <SCORE.INTRA.norm>
0

>  <SCORE.RESTR>
0

>  <SCORE.RESTR.CAVITY>
0

>  <SCORE.RESTR.norm>
0

>  <SCORE.SYSTEM>
0

>  <SCORE.SYSTEM.CONST>
0

>  <SCORE.SYSTEM.DIHEDRAL>
0

>  <SCORE.SYSTEM.SOLV>
0

>  <SCORE.SYSTEM.norm>
0

>  <SCORE.heavy>
10

>  <SCORE.norm>
-1.45958

>  <RMSD>
0.756

$$$$
ligand
 OpenBabel11021811513D
libRbt.so/2013.1/901 2013/11/27
 10 11  0  0  0  0  0  0  0  0999 V2000
    5.8971   17.4304    2.6289 N   0  0  0  0  0  0  0  0  0  0  0  0
    6.7653   18.4459    2.5484 C   0  0  0  0  0  0  0  0  0  0  0  0
    7.1636   19.2855    3.5029 N   0  0  0  0  0  0  0  0  0  0  0  0
    6.5632   19.0006    4.6689 C   0  0  0  0  0  0  0  0  0  0  0  0
    5.6502   17.9915    4.9073 C   0  0  0  0  0  0  0  0  0  0  0  0
    5.3100   17.1688    3.8154 C   0  0  0  0  0  0  0  0  0  0  0  0
    4.4428   16.1551    3.9001 N   0  0  0  0  0  0  0  0  0  0  0  0
    5.2446   17.9993    6.2316 N   0  0  0  0  0  0  0  0  0  0  0  0
    5.9101   18.9996    6.7588 C   0  0  0  0  0  0  0  0  0  0  0  0
    6.7247   19.6481    5.8725 N   0  0  0  0  0  0  0  0  0  0  0  0
  1  2  2  0  0  0  0
  1  6  1  0  0  0  0
  2  3  1  0  0  0  0
  3  4  2  0  0  0  0
  4  5  1  0  0  0  0
  4 10  1  0  0  0  0
  5  6  2  0  0  0  0
  5  8  1  0  0  0  0
  6  7  1  0  0  0  0
  8  9  1  0  0  0  0
  9 10  2  0  0  0  0
M  END
>  <CHROM.1>
5.96159344,18.20413078,4.47915988,-1.80905983,0.84551524,1.21088201

>  <Name>
ligand

>  <RI>
0

>  <Rbt.Current_Directory>
/home/itssahil/PROJECTS/Mol_Feturizer/New_Systems/rnas/4XNR

>  <Rbt.Executable>
rbdock ($Id: //depot/dev/client3/rdock/2013.1/src/exe/rbdock.cxx#4 $)

>  <Rbt.Library>
libRbt.so (2013.1, Build901 2013/11/27)

>  <Rbt.Parameter_File>
/export/apps/rDock/src/rDock_2013.1_src/data/scripts/dock_solv.prm

>  <Rbt.Receptor>
prm/pocket_docking_3.prm

>  <SCORE>
-14.5954

>  <SCORE.INTER>
-14.5954

>  <SCORE.INTER.CONST>
1

>  <SCORE.INTER.POLAR>
0

>  <SCORE.INTER.ROT>
0

>  <SCORE.INTER.SOLV>
7.7229

>  <SCORE.INTER.VDW>
-15.9046

>  <SCORE.INTER.norm>
-1.45954

>  <SCORE.INTRA>
0

>  <SCORE.INTRA.DIHEDRAL>
0

>  <SCORE.INTRA.DIHEDRAL.0>
0

>  <SCORE.INTRA.POLAR>
0

>  <SCORE.INTRA.POLAR.0>
0

>  <SCORE.INTRA.REPUL>
0

>  <SCORE.INTRA.REPUL.0>
0

>  <SCORE.INTRA.SOLV>
0

>  <SCORE.INTRA.SOLV.lig_0>
-23.8918

>  <SCORE.INTRA.VDW>
0

>  <SCORE.INTRA.VDW.0>
0

>  <SCORE.INTRA.norm>
0

>  <SCORE.RESTR>
0

>  <SCORE.RESTR.CAVITY>
0

>  <SCORE.RESTR.norm>
0

>  <SCORE.SYSTEM>
0

>  <SCORE.SYSTEM.CONST>
0

>  <SCORE.SYSTEM.DIHEDRAL>
0

>  <SCORE.SYSTEM.SOLV>
0

>  <SCORE.SYSTEM.norm>
0

>  <SCORE.heavy>
10

>  <SCORE.norm>
-1.45954

>  <RMSD>
0.756

$$$$
ligand
 OpenBabel11021811513D
libRbt.so/2013.1/901 2013/11/27
 10 11  0  0  0  0  0  0  0  0999 V2000
    5.8995   17.4150    2.6316 N   0  0  0  0  0  0  0  0  0  0  0  0
    6.7934   18.4090    2.5672 C   0  0  0  0  0  0  0  0  0  0  0  0
    7.1977   19.2361    3.5301 N   0  0  0  0  0  0  0  0  0  0  0  0
    6.5732   18.9629    4.6861 C   0  0  0  0  0  0  0  0  0  0  0  0
    5.6323   17.9758    4.9078 C   0  0  0  0  0  0  0  0  0  0  0  0
    5.2885   17.1646    3.8084 C   0  0  0  0  0  0  0  0  0  0  0  0
    4.3955   16.1723    3.8771 N   0  0  0  0  0  0  0  0  0  0  0  0
    5.2073   17.9900    6.2259 N   0  0  0  0  0  0  0  0  0  0  0  0
    5.8890   18.9723    6.7660 C   0  0  0  0  0  0  0  0  0  0  0  0
    6.7324   19.6030    5.8939 N   0  0  0  0  0  0  0  0  0  0  0  0
  1  2  2  0  0  0  0
  1  6  1  0  0  0  0
  2  3  1  0  0  0  0
  3  4  2  0  0  0  0
  4  5  1  0  0  0  0
  4 10  1  0  0  0  0
  5  6  2  0  0  0  0
  5  8  1  0  0  0  0
  6  7  1  0  0  0  0
  8  9  1  0  0  0  0
  9 10  2  0  0  0  0
M  END
>  <CHROM.1>
5.95519153,18.18189724,4.48498552,-1.80117027,0.81732235,1.20789793

>  <Name>
ligand

>  <RI>
0

>  <Rbt.Current_Directory>
/home/itssahil/PROJECTS/Mol_Feturizer/New_Systems/rnas/4XNR

>  <Rbt.Executable>
rbdock ($Id: //depot/dev/client3/rdock/2013.1/src/exe/rbdock.cxx#4 $)

>  <Rbt.Library>
libRbt.so (2013.1, Build901 2013/11/27)

>  <Rbt.Parameter_File>
/export/apps/rDock/src/rDock_2013.1_src/data/scripts/dock_solv.prm

>  <Rbt.Receptor>
prm/pocket_docking_3.prm

>  <SCORE>
-14.582

>  <SCORE.INTER>
-14.582

>  <SCORE.INTER.CONST>
1

>  <SCORE.INTER.POLAR>
0

>  <SCORE.INTER.ROT>
0

>  <SCORE.INTER.SOLV>
7.53625

>  <SCORE.INTER.VDW>
-15.8334

>  <SCORE.INTER.norm>
-1.4582

>  <SCORE.INTRA>
0

>  <SCORE.INTRA.DIHEDRAL>
0

>  <SCORE.INTRA.DIHEDRAL.0>
0

>  <SCORE.INTRA.POLAR>
0

>  <SCORE.INTRA.POLAR.0>
0

>  <SCORE.INTRA.REPUL>
0

>  <SCORE.INTRA.REPUL.0>
0

>  <SCORE.INTRA.SOLV>
0

>  <SCORE.INTRA.SOLV.lig_0>
-23.8918

>  <SCORE.INTRA.VDW>
0

>  <SCORE.INTRA.VDW.0>
0

>  <SCORE.INTRA.norm>
0

>  <SCORE.RESTR>
0

>  <SCORE.RESTR.CAVITY>
0

>  <SCORE.RESTR.norm>
0

>  <SCORE.SYSTEM>
0

>  <SCORE.SYSTEM.CONST>
0

>  <SCORE.SYSTEM.DIHEDRAL>
0

>  <SCORE.SYSTEM.SOLV>
0

>  <SCORE.SYSTEM.norm>
0

>  <SCORE.heavy>
10

>  <SCORE.norm>
-1.4582

>  <RMSD>
0.756

$$$$
ligand
 OpenBabel11021811513D
libRbt.so/2013.1/901 2013/11/27
 10 11  0  0  0  0  0  0  0  0999 V2000
    5.8982   17.4304    2.6279 N   0  0  0  0  0  0  0  0  0  0  0  0
    6.7766   18.4374    2.5515 C   0  0  0  0  0  0  0  0  0  0  0  0
    7.1805   19.2714    3.5086 N   0  0  0  0  0  0  0  0  0  0  0  0
    6.5743   18.9904    4.6724 C   0  0  0  0  0  0  0  0  0  0  0  0
    5.6507   17.9899    4.9067 C   0  0  0  0  0  0  0  0  0  0  0  0
    5.3054   17.1725    3.8123 C   0  0  0  0  0  0  0  0  0  0  0  0
    4.4280   16.1673    3.8929 N   0  0  0  0  0  0  0  0  0  0  0  0
    5.2417   17.9994    6.2299 N   0  0  0  0  0  0  0  0  0  0  0  0
    5.9156   18.9922    6.7605 C   0  0  0  0  0  0  0  0  0  0  0  0
    6.7389   19.6341    5.8776 N   0  0  0  0  0  0  0  0  0  0  0  0
  1  2  2  0  0  0  0
  1  6  1  0  0  0  0
  2  3  1  0  0  0  0
  3  4  2  0  0  0  0
  4  5  1  0  0  0  0
  4 10  1  0  0  0  0
  5  6  2  0  0  0  0
  5  8  1  0  0  0  0
  6  7  1  0  0  0  0
  8  9  1  0  0  0  0
  9 10  2  0  0  0  0
M  END
>  <CHROM.1>
5.96534455,18.20022530,4.47968883,-1.81047985,0.83532824,1.21368481

>  <Name>
ligand

>  <RI>
0

>  <Rbt.Current_Directory>
/home/itssahil/PROJECTS/Mol_Feturizer/New_Systems/rnas/4XNR

>  <Rbt.Executable>
rbdock ($Id: //depot/dev/client3/rdock/2013.1/src/exe/rbdock.cxx#4 $)

>  <Rbt.Library>
libRbt.so (2013.1, Build901 2013/11/27)

>  <Rbt.Parameter_File>
/export/apps/rDock/src/rDock_2013.1_src/data/scripts/dock_solv.prm

>  <Rbt.Receptor>
prm/pocket_docking_5.prm

>  <SCORE>
-14.5918

>  <SCORE.INTER>
-14.5918

>  <SCORE.INTER.CONST>
1

>  <SCORE.INTER.POLAR>
0

>  <SCORE.INTER.ROT>
0

>  <SCORE.INTER.SOLV>
7.64774

>  <SCORE.INTER.VDW>
-15.8771

>  <SCORE.INTER.norm>
-1.45918

>  <SCORE.INTRA>
0

>  <SCORE.INTRA.DIHEDRAL>
0

>  <SCORE.INTRA.DIHEDRAL.0>
0

>  <SCORE.INTRA.POLAR>
0

>  <SCORE.INTRA.POLAR.0>
0

>  <SCORE.INTRA.REPUL>
0

>  <SCORE.INTRA.REPUL.0>
0

>  <SCORE.INTRA.SOLV>
0

>  <SCORE.INTRA.SOLV.lig_0>
-23.8918

>  <SCORE.INTRA.VDW>
0

>  <SCORE.INTRA.VDW.0>
0

>  <SCORE.INTRA.norm>
0

>  <SCORE.RESTR>
0

>  <SCORE.RESTR.CAVITY>
0

>  <SCORE.RESTR.norm>
0

>  <SCORE.SYSTEM>
0

>  <SCORE.SYSTEM.CONST>
0

>  <SCORE.SYSTEM.DIHEDRAL>
0

>  <SCORE.SYSTEM.SOLV>
0

>  <SCORE.SYSTEM.norm>
0

>  <SCORE.heavy>
10

>  <SCORE.norm>
-1.45918

>  <RMSD>
0.756

$$$$
ligand
 OpenBabel11021811513D
libRbt.so/2013.1/901 2013/11/27
 10 11  0  0  0  0  0  0  0  0999 V2000
    5.8980   17.4246    2.6334 N   0  0  0  0  0  0  0  0  0  0  0  0
    6.7426   18.4588    2.5424 C   0  0  0  0  0  0  0  0  0  0  0  0
    7.1260   19.3135    3.4896 N   0  0  0  0  0  0  0  0  0  0  0  0
    6.5375   19.0227    4.6602 C   0  0  0  0  0  0  0  0  0  0  0  0
    5.6486   17.9949    4.9093 C   0  0  0  0  0  0  0  0  0  0  0  0
    5.3222   17.1575    3.8243 C   0  0  0  0  0  0  0  0  0  0  0  0
    4.4785   16.1252    3.9195 N   0  0  0  0  0  0  0  0  0  0  0  0
    5.2489   18.0022    6.2354 N   0  0  0  0  0  0  0  0  0  0  0  0
    5.8939   19.0207    6.7530 C   0  0  0  0  0  0  0  0  0  0  0  0
    6.6897   19.6816    5.8588 N   0  0  0  0  0  0  0  0  0  0  0  0
  1  2  2  0  0  0  0
  1  6  1  0  0  0  0
  2  3  1  0  0  0  0
  3  4  2  0  0  0  0
  4  5  1  0  0  0  0
  4 10  1  0  0  0  0
  5  6  2  0  0  0  0
  5  8  1  0  0  0  0
  6  7  1  0  0  0  0
  8  9  1  0  0  0  0
  9 10  2  0  0  0  0
M  END
>  <CHROM.1>
5.95318768,18.21168248,4.47836155,-1.80320116,0.86822914,1.19994328

>  <Name>
ligand

>  <RI>
0

>  <Rbt.Current_Directory>
/home/itssahil/PROJECTS/Mol_Feturizer/New_Systems/rnas/4XNR

>  <Rbt.Executable>
rbdock ($Id: //depot/dev/client3/rdock/2013.1/src/exe/rbdock.cxx#4 $)

>  <Rbt.Library>
libRbt.so (2013.1, Build901 2013/11/27)

>  <Rbt.Parameter_File>
/export/apps/rDock/src/rDock_2013.1_src/data/scripts/dock_solv.prm

>  <Rbt.Receptor>
prm/pocket_docking_5.prm

>  <SCORE>
-14.5553

>  <SCORE.INTER>
-14.5553

>  <SCORE.INTER.CONST>
1

>  <SCORE.INTER.POLAR>
0

>  <SCORE.INTER.ROT>
0

>  <SCORE.INTER.SOLV>
7.91015

>  <SCORE.INTER.VDW>
-15.9402

>  <SCORE.INTER.norm>
-1.45553

>  <SCORE.INTRA>
0

>  <SCORE.INTRA.DIHEDRAL>
0

>  <SCORE.INTRA.DIHEDRAL.0>
0

>  <SCORE.INTRA.POLAR>
0

>  <SCORE.INTRA.POLAR.0>
0

>  <SCORE.INTRA.REPUL>
0

>  <SCORE.INTRA.REPUL.0>
0

>  <SCORE.INTRA.SOLV>
0

>  <SCORE.INTRA.SOLV.lig_0>
-23.8918

>  <SCORE.INTRA.VDW>
0

>  <SCORE.INTRA.VDW.0>
0

>  <SCORE.INTRA.norm>
0

>  <SCORE.RESTR>
0

>  <SCORE.RESTR.CAVITY>
0

>  <SCORE.RESTR.norm>
0

>  <SCORE.SYSTEM>
0

>  <SCORE.SYSTEM.CONST>
0

>  <SCORE.SYSTEM.DIHEDRAL>
0

>  <SCORE.SYSTEM.SOLV>
0

>  <SCORE.SYSTEM.norm>
0

>  <SCORE.heavy>
10

>  <SCORE.norm>
-1.45553

>  <RMSD>
0.756

$$$$
ligand
 OpenBabel11021811513D
libRbt.so/2013.1/901 2013/11/27
 10 11  0  0  0  0  0  0  0  0999 V2000
    5.8936   17.4145    2.6326 N   0  0  0  0  0  0  0  0  0  0  0  0
    6.7837   18.4119    2.5673 C   0  0  0  0  0  0  0  0  0  0  0  0
    7.1910   19.2360    3.5315 N   0  0  0  0  0  0  0  0  0  0  0  0
    6.5744   18.9553    4.6900 C   0  0  0  0  0  0  0  0  0  0  0  0
    5.6383   17.9641    4.9129 C   0  0  0  0  0  0  0  0  0  0  0  0
    5.2906   17.1567    3.8119 C   0  0  0  0  0  0  0  0  0  0  0  0
    4.4014   16.1610    3.8815 N   0  0  0  0  0  0  0  0  0  0  0  0
    5.2212   17.9708    6.2336 N   0  0  0  0  0  0  0  0  0  0  0  0
    5.9029   18.9530    6.7740 C   0  0  0  0  0  0  0  0  0  0  0  0
    6.7388   19.5905    5.8997 N   0  0  0  0  0  0  0  0  0  0  0  0
  1  2  2  0  0  0  0
  1  6  1  0  0  0  0
  2  3  1  0  0  0  0
  3  4  2  0  0  0  0
  4  5  1  0  0  0  0
  4 10  1  0  0  0  0
  5  6  2  0  0  0  0
  5  8  1  0  0  0  0
  6  7  1  0  0  0  0
  8  9  1  0  0  0  0
  9 10  2  0  0  0  0
M  END
>  <CHROM.1>
5.95789846,18.17319693,4.48906783,-1.80771521,0.82263970,1.21722620

>  <Name>
ligand

>  <RI>
0

>  <Rbt.Current_Directory>
/home/itssahil/PROJECTS/Mol_Feturizer/New_Systems/rnas/4XNR

>  <Rbt.Executable>
rbdock ($Id: //depot/dev/client3/rdock/2013.1/src/exe/rbdock.cxx#4 $)

>  <Rbt.Library>
libRbt.so (2013.1, Build901 2013/11/27)

>  <Rbt.Parameter_File>
/export/apps/rDock/src/rDock_2013.1_src/data/scripts/dock_solv.prm

>  <Rbt.Receptor>
prm/pocket_docking_5.prm

>  <SCORE>
-14.5475

>  <SCORE.INTER>
-14.5475

>  <SCORE.INTER.CONST>
1

>  <SCORE.INTER.POLAR>
0

>  <SCORE.INTER.ROT>
0

>  <SCORE.INTER.SOLV>
7.57157

>  <SCORE.INTER.VDW>
-15.8222

>  <SCORE.INTER.norm>
-1.45475

>  <SCORE.INTRA>
0

>  <SCORE.INTRA.DIHEDRAL>
0

>  <SCORE.INTRA.DIHEDRAL.0>
0

>  <SCORE.INTRA.POLAR>
0

>  <SCORE.INTRA.POLAR.0>
0

>  <SCORE.INTRA.REPUL>
0

>  <SCORE.INTRA.REPUL.0>
0

>  <SCORE.INTRA.SOLV>
0

>  <SCORE.INTRA.SOLV.lig_0>
-23.8918

>  <SCORE.INTRA.VDW>
0

>  <SCORE.INTRA.VDW.0>
0

>  <SCORE.INTRA.norm>
0

>  <SCORE.RESTR>
0

>  <SCORE.RESTR.CAVITY>
0

>  <SCORE.RESTR.norm>
0

>  <SCORE.SYSTEM>
0

>  <SCORE.SYSTEM.CONST>
0

>  <SCORE.SYSTEM.DIHEDRAL>
0

>  <SCORE.SYSTEM.SOLV>
0

>  <SCORE.SYSTEM.norm>
0

>  <SCORE.heavy>
10

>  <SCORE.norm>
-1.45475

>  <RMSD>
0.756

$$$$
ligand
 OpenBabel11021811513D
libRbt.so/2013.1/901 2013/11/27
 10 11  0  0  0  0  0  0  0  0999 V2000
    5.8813   17.4305    2.6310 N   0  0  0  0  0  0  0  0  0  0  0  0
    6.7396   18.4536    2.5422 C   0  0  0  0  0  0  0  0  0  0  0  0
    7.1385   19.2978    3.4924 N   0  0  0  0  0  0  0  0  0  0  0  0
    6.5507   19.0086    4.6638 C   0  0  0  0  0  0  0  0  0  0  0  0
    5.6489   17.9916    4.9109 C   0  0  0  0  0  0  0  0  0  0  0  0
    5.3068   17.1647    3.8227 C   0  0  0  0  0  0  0  0  0  0  0  0
    4.4494   16.1434    3.9157 N   0  0  0  0  0  0  0  0  0  0  0  0
    5.2546   17.9970    6.2386 N   0  0  0  0  0  0  0  0  0  0  0  0
    5.9155   19.0038    6.7591 C   0  0  0  0  0  0  0  0  0  0  0  0
    6.7166   19.6587    5.8654 N   0  0  0  0  0  0  0  0  0  0  0  0
  1  2  2  0  0  0  0
  1  6  1  0  0  0  0
  2  3  1  0  0  0  0
  3  4  2  0  0  0  0
  4  5  1  0  0  0  0
  4 10  1  0  0  0  0
  5  6  2  0  0  0  0
  5  8  1  0  0  0  0
  6  7  1  0  0  0  0
  8  9  1  0  0  0  0
  9 10  2  0  0  0  0
M  END
>  <CHROM.1>
5.95465880,18.20656360,4.47992061,-1.81644744,0.85692830,1.21547572

>  <Name>
ligand

>  <RI>
0

>  <Rbt.Current_Directory>
/home/itssahil/PROJECTS/Mol_Feturizer/New_Systems/rnas/4XNR

>  <Rbt.Executable>
rbdock ($Id: //depot/dev/client3/rdock/2013.1/src/exe/rbdock.cxx#4 $)

>  <Rbt.Library>
libRbt.so (2013.1, Build901 2013/11/27)

>  <Rbt.Parameter_File>
/export/apps/rDock/src/rDock_2013.1_src/data/scripts/dock_solv.prm

>  <Rbt.Receptor>
prm/pocket_docking_6.prm

>  <SCORE>
-14.5584

>  <SCORE.INTER>
-14.5584

>  <SCORE.INTER.CONST>
1

>  <SCORE.INTER.POLAR>
0

>  <SCORE.INTER.ROT>
0

>  <SCORE.INTER.SOLV>
7.80761

>  <SCORE.INTER.VDW>
-15.9081

>  <SCORE.INTER.norm>
-1.45584

>  <SCORE.INTRA>
0

>  <SCORE.INTRA.DIHEDRAL>
0

>  <SCORE.INTRA.DIHEDRAL.0>
0

>  <SCORE.INTRA.POLAR>
0

>  <SCORE.INTRA.POLAR.0>
0

>  <SCORE.INTRA.REPUL>
0

>  <SCORE.INTRA.REPUL.0>
0

>  <SCORE.INTRA.SOLV>
0

>  <SCORE.INTRA.SOLV.lig_0>
-23.8918

>  <SCORE.INTRA.VDW>
0

>  <SCORE.INTRA.VDW.0>
0

>  <SCORE.INTRA.norm>
0

>  <SCORE.RESTR>
0

>  <SCORE.RESTR.CAVITY>
0

>  <SCORE.RESTR.norm>
0

>  <SCORE.SYSTEM>
0

>  <SCORE.SYSTEM.CONST>
0

>  <SCORE.SYSTEM.DIHEDRAL>
0

>  <SCORE.SYSTEM.SOLV>
0

>  <SCORE.SYSTEM.norm>
0

>  <SCORE.heavy>
10

>  <SCORE.norm>
-1.45584

>  <RMSD>
0.756

$$$$
ligand
 OpenBabel11021811513D
libRbt.so/2013.1/901 2013/11/27
 10 11  0  0  0  0  0  0  0  0999 V2000
    5.8989   17.4291    2.6296 N   0  0  0  0  0  0  0  0  0  0  0  0
    6.7684   18.4435    2.5501 C   0  0  0  0  0  0  0  0  0  0  0  0
    7.1666   19.2827    3.5051 N   0  0  0  0  0  0  0  0  0  0  0  0
    6.5646   18.9984    4.6704 C   0  0  0  0  0  0  0  0  0  0  0  0
    5.6501   17.9904    4.9078 C   0  0  0  0  0  0  0  0  0  0  0  0
    5.3101   17.1681    3.8155 C   0  0  0  0  0  0  0  0  0  0  0  0
    4.4416   16.1555    3.8992 N   0  0  0  0  0  0  0  0  0  0  0  0
    5.2431   17.9987    6.2317 N   0  0  0  0  0  0  0  0  0  0  0  0
    5.9092   18.9982    6.7595 C   0  0  0  0  0  0  0  0  0  0  0  0
    6.7256   19.6457    5.8742 N   0  0  0  0  0  0  0  0  0  0  0  0
  1  2  2  0  0  0  0
  1  6  1  0  0  0  0
  2  3  1  0  0  0  0
  3  4  2  0  0  0  0
  4  5  1  0  0  0  0
  4 10  1  0  0  0  0
  5  6  2  0  0  0  0
  5  8  1  0  0  0  0
  6  7  1  0  0  0  0
  8  9  1  0  0  0  0
  9 10  2  0  0  0  0
M  END
>  <CHROM.1>
5.96222753,18.20267852,4.48000455,-1.80816030,0.84400390,1.21021473

>  <Name>
ligand

>  <RI>
0

>  <Rbt.Current_Directory>
/home/itssahil/PROJECTS/Mol_Feturizer/New_Systems/rnas/4XNR

>  <Rbt.Executable>
rbdock ($Id: //depot/dev/client3/rdock/2013.1/src/exe/rbdock.cxx#4 $)

>  <Rbt.Library>
libRbt.so (2013.1, Build901 2013/11/27)

>  <Rbt.Parameter_File>
/export/apps/rDock/src/rDock_2013.1_src/data/scripts/dock_solv.prm

>  <Rbt.Receptor>
prm/pocket_docking_7.prm

>  <SCORE>
-14.594

>  <SCORE.INTER>
-14.594

>  <SCORE.INTER.CONST>
1

>  <SCORE.INTER.POLAR>
0

>  <SCORE.INTER.ROT>
0

>  <SCORE.INTER.SOLV>
7.71692

>  <SCORE.INTER.VDW>
-15.9016

>  <SCORE.INTER.norm>
-1.4594

>  <SCORE.INTRA>
0

>  <SCORE.INTRA.DIHEDRAL>
0

>  <SCORE.INTRA.DIHEDRAL.0>
0

>  <SCORE.INTRA.POLAR>
0

>  <SCORE.INTRA.POLAR.0>
0

>  <SCORE.INTRA.REPUL>
0

>  <SCORE.INTRA.REPUL.0>
0

>  <SCORE.INTRA.SOLV>
0

>  <SCORE.INTRA.SOLV.lig_0>
-23.8918

>  <SCORE.INTRA.VDW>
0

>  <SCORE.INTRA.VDW.0>
0

>  <SCORE.INTRA.norm>
0

>  <SCORE.RESTR>
0

>  <SCORE.RESTR.CAVITY>
0

>  <SCORE.RESTR.norm>
0

>  <SCORE.SYSTEM>
0

>  <SCORE.SYSTEM.CONST>
0

>  <SCORE.SYSTEM.DIHEDRAL>
0

>  <SCORE.SYSTEM.SOLV>
0

>  <SCORE.SYSTEM.norm>
0

>  <SCORE.heavy>
10

>  <SCORE.norm>
-1.4594

>  <RMSD>
0.756

$$$$
ligand
 OpenBabel11021811513D
libRbt.so/2013.1/901 2013/11/27
 10 11  0  0  0  0  0  0  0  0999 V2000
    5.8976   17.4314    2.6285 N   0  0  0  0  0  0  0  0  0  0  0  0
    6.7555   18.4553    2.5456 C   0  0  0  0  0  0  0  0  0  0  0  0
    7.1480   19.2990    3.4989 N   0  0  0  0  0  0  0  0  0  0  0  0
    6.5537   19.0083    4.6665 C   0  0  0  0  0  0  0  0  0  0  0  0
    5.6513   17.9903    4.9075 C   0  0  0  0  0  0  0  0  0  0  0  0
    5.3163   17.1641    3.8166 C   0  0  0  0  0  0  0  0  0  0  0  0
    4.4594   16.1419    3.9037 N   0  0  0  0  0  0  0  0  0  0  0  0
    5.2493   17.9942    6.2329 N   0  0  0  0  0  0  0  0  0  0  0  0
    5.9063   19.0011    6.7581 C   0  0  0  0  0  0  0  0  0  0  0  0
    6.7120   19.6575    5.8696 N   0  0  0  0  0  0  0  0  0  0  0  0
  1  2  2  0  0  0  0
  1  6  1  0  0  0  0
  2  3  1  0  0  0  0
  3  4  2  0  0  0  0
  4  5  1  0  0  0  0
  4 10  1  0  0  0  0
  5  6  2  0  0  0  0
  5  8  1  0  0  0  0
  6  7  1  0  0  0  0
  8  9  1  0  0  0  0
  9 10  2  0  0  0  0
M  END
>  <CHROM.1>
5.95946468,18.20589632,4.47849232,-1.80763156,0.85572301,1.20969816

>  <Name>
ligand

>  <RI>
0

>  <Rbt.Current_Directory>
/home/itssahil/PROJECTS/Mol_Feturizer/New_Systems/rnas/4XNR

>  <Rbt.Executable>
rbdock ($Id: //depot/dev/client3/rdock/2013.1/src/exe/rbdock.cxx#4 $)

>  <Rbt.Library>
libRbt.so (2013.1, Build901 2013/11/27)

>  <Rbt.Parameter_File>
/export/apps/rDock/src/rDock_2013.1_src/data/scripts/dock_solv.prm

>  <Rbt.Receptor>
prm/pocket_docking_7.prm

>  <SCORE>
-14.5615

>  <SCORE.INTER>
-14.5615

>  <SCORE.INTER.CONST>
1

>  <SCORE.INTER.POLAR>
0

>  <SCORE.INTER.ROT>
0

>  <SCORE.INTER.SOLV>
7.79658

>  <SCORE.INTER.VDW>
-15.9066

>  <SCORE.INTER.norm>
-1.45615

>  <SCORE.INTRA>
0

>  <SCORE.INTRA.DIHEDRAL>
0

>  <SCORE.INTRA.DIHEDRAL.0>
0

>  <SCORE.INTRA.POLAR>
0

>  <SCORE.INTRA.POLAR.0>
0

>  <SCORE.INTRA.REPUL>
0

>  <SCORE.INTRA.REPUL.0>
0

>  <SCORE.INTRA.SOLV>
0

>  <SCORE.INTRA.SOLV.lig_0>
-23.8918

>  <SCORE.INTRA.VDW>
0

>  <SCORE.INTRA.VDW.0>
0

>  <SCORE.INTRA.norm>
0

>  <SCORE.RESTR>
0

>  <SCORE.RESTR.CAVITY>
0

>  <SCORE.RESTR.norm>
0

>  <SCORE.SYSTEM>
0

>  <SCORE.SYSTEM.CONST>
0

>  <SCORE.SYSTEM.DIHEDRAL>
0

>  <SCORE.SYSTEM.SOLV>
0

>  <SCORE.SYSTEM.norm>
0

>  <SCORE.heavy>
10

>  <SCORE.norm>
-1.45615

>  <RMSD>
0.756

$$$$
ligand
 OpenBabel11021811513D
libRbt.so/2013.1/901 2013/11/27
 10 11  0  0  0  0  0  0  0  0999 V2000
    5.9030   17.4219    2.6291 N   0  0  0  0  0  0  0  0  0  0  0  0
    6.8076   18.4059    2.5586 C   0  0  0  0  0  0  0  0  0  0  0  0
    7.2272   19.2288    3.5185 N   0  0  0  0  0  0  0  0  0  0  0  0
    6.6069   18.9630    4.6786 C   0  0  0  0  0  0  0  0  0  0  0  0
    5.6564   17.9867    4.9067 C   0  0  0  0  0  0  0  0  0  0  0  0
    5.2966   17.1789    3.8099 C   0  0  0  0  0  0  0  0  0  0  0  0
    4.3930   16.1968    3.8847 N   0  0  0  0  0  0  0  0  0  0  0  0
    5.2398   18.0062    6.2275 N   0  0  0  0  0  0  0  0  0  0  0  0
    5.9360   18.9810    6.7627 C   0  0  0  0  0  0  0  0  0  0  0  0
    6.7809   19.6018    5.8851 N   0  0  0  0  0  0  0  0  0  0  0  0
  1  2  2  0  0  0  0
  1  6  1  0  0  0  0
  2  3  1  0  0  0  0
  3  4  2  0  0  0  0
  4  5  1  0  0  0  0
  4 10  1  0  0  0  0
  5  6  2  0  0  0  0
  5  8  1  0  0  0  0
  6  7  1  0  0  0  0
  8  9  1  0  0  0  0
  9 10  2  0  0  0  0
M  END
>  <CHROM.1>
5.97891115,18.18897517,4.48176225,-1.81546466,0.80899588,1.21783369

>  <Name>
ligand

>  <RI>
0

>  <Rbt.Current_Directory>
/home/itssahil/PROJECTS/Mol_Feturizer/New_Systems/rnas/4XNR

>  <Rbt.Executable>
rbdock ($Id: //depot/dev/client3/rdock/2013.1/src/exe/rbdock.cxx#4 $)

>  <Rbt.Library>
libRbt.so (2013.1, Build901 2013/11/27)

>  <Rbt.Parameter_File>
/export/apps/rDock/src/rDock_2013.1_src/data/scripts/dock_solv.prm

>  <Rbt.Receptor>
prm/pocket_docking_7.prm

>  <SCORE>
-14.5921

>  <SCORE.INTER>
-14.5921

>  <SCORE.INTER.CONST>
1

>  <SCORE.INTER.POLAR>
0

>  <SCORE.INTER.ROT>
0

>  <SCORE.INTER.SOLV>
7.51041

>  <SCORE.INTER.VDW>
-15.8315

>  <SCORE.INTER.norm>
-1.45921

>  <SCORE.INTRA>
0

>  <SCORE.INTRA.DIHEDRAL>
0

>  <SCORE.INTRA.DIHEDRAL.0>
0

>  <SCORE.INTRA.POLAR>
0

>  <SCORE.INTRA.POLAR.0>
0

>  <SCORE.INTRA.REPUL>
0

>  <SCORE.INTRA.REPUL.0>
0

>  <SCORE.INTRA.SOLV>
0

>  <SCORE.INTRA.SOLV.lig_0>
-23.8918

>  <SCORE.INTRA.VDW>
0

>  <SCORE.INTRA.VDW.0>
0

>  <SCORE.INTRA.norm>
0

>  <SCORE.RESTR>
0

>  <SCORE.RESTR.CAVITY>
0

>  <SCORE.RESTR.norm>
0

>  <SCORE.SYSTEM>
0

>  <SCORE.SYSTEM.CONST>
0

>  <SCORE.SYSTEM.DIHEDRAL>
0

>  <SCORE.SYSTEM.SOLV>
0

>  <SCORE.SYSTEM.norm>
0

>  <SCORE.heavy>
10

>  <SCORE.norm>
-1.45921

>  <RMSD>
0.756

$$$$
ligand
 OpenBabel11021811513D
libRbt.so/2013.1/901 2013/11/27
 10 11  0  0  0  0  0  0  0  0999 V2000
    6.0136   17.5156    2.5708 N   0  0  0  0  0  0  0  0  0  0  0  0
    6.8277   18.5774    2.5373 C   0  0  0  0  0  0  0  0  0  0  0  0
    7.1595   19.4104    3.5226 N   0  0  0  0  0  0  0  0  0  0  0  0
    6.5498   19.0622    4.6664 C   0  0  0  0  0  0  0  0  0  0  0  0
    5.6871   18.0001    4.8568 C   0  0  0  0  0  0  0  0  0  0  0  0
    5.4154   17.1908    3.7360 C   0  0  0  0  0  0  0  0  0  0  0  0
    4.6020   16.1308    3.7738 N   0  0  0  0  0  0  0  0  0  0  0  0
    5.2527   17.9501    6.1710 N   0  0  0  0  0  0  0  0  0  0  0  0
    5.8520   18.9693    6.7396 C   0  0  0  0  0  0  0  0  0  0  0  0
    6.6500   19.6840    5.8900 N   0  0  0  0  0  0  0  0  0  0  0  0
  1  2  2  0  0  0  0
  1  6  1  0  0  0  0
  2  3  1  0  0  0  0
  3  4  2  0  0  0  0
  4  5  1  0  0  0  0
  4 10  1  0  0  0  0
  5  6  2  0  0  0  0
  5  8  1  0  0  0  0
  6  7  1  0  0  0  0
  8  9  1  0  0  0  0
  9 10  2  0  0  0  0
M  END
>  <CHROM.1>
5.99595902,18.24056237,4.44178258,-1.74672034,0.88694761,1.19022756

>  <Name>
ligand

>  <RI>
0

>  <Rbt.Current_Directory>
/home/itssahil/PROJECTS/Mol_Feturizer/New_Systems/rnas/4XNR

>  <Rbt.Executable>
rbdock ($Id: //depot/dev/client3/rdock/2013.1/src/exe/rbdock.cxx#4 $)

>  <Rbt.Library>
libRbt.so (2013.1, Build901 2013/11/27)

>  <Rbt.Parameter_File>
/export/apps/rDock/src/rDock_2013.1_src/data/scripts/dock_solv.prm

>  <Rbt.Receptor>
prm/blind_docking_80.prm

>  <SCORE>
-14.5659

>  <SCORE.INTER>
-14.5659

>  <SCORE.INTER.CONST>
1

>  <SCORE.INTER.POLAR>
0

>  <SCORE.INTER.ROT>
0

>  <SCORE.INTER.SOLV>
7.90388

>  <SCORE.INTER.VDW>
-15.9453

>  <SCORE.INTER.norm>
-1.45659

>  <SCORE.INTRA>
0

>  <SCORE.INTRA.DIHEDRAL>
0

>  <SCORE.INTRA.DIHEDRAL.0>
0

>  <SCORE.INTRA.POLAR>
0

>  <SCORE.INTRA.POLAR.0>
0

>  <SCORE.INTRA.REPUL>
0

>  <SCORE.INTRA.REPUL.0>
0

>  <SCORE.INTRA.SOLV>
0

>  <SCORE.INTRA.SOLV.lig_0>
-23.8918

>  <SCORE.INTRA.VDW>
0

>  <SCORE.INTRA.VDW.0>
0

>  <SCORE.INTRA.norm>
0

>  <SCORE.RESTR>
0

>  <SCORE.RESTR.CAVITY>
0

>  <SCORE.RESTR.norm>
0

>  <SCORE.SYSTEM>
0

>  <SCORE.SYSTEM.CONST>
0

>  <SCORE.SYSTEM.DIHEDRAL>
0

>  <SCORE.SYSTEM.SOLV>
0

>  <SCORE.SYSTEM.norm>
0

>  <SCORE.heavy>
10

>  <SCORE.norm>
-1.45659

>  <RMSD>
0.757

$$$$
ligand
 OpenBabel11021811513D
libRbt.so/2013.1/901 2013/11/27
 10 11  0  0  0  0  0  0  0  0999 V2000
    5.8954   17.4315    2.6295 N   0  0  0  0  0  0  0  0  0  0  0  0
    6.7646   18.4461    2.5485 C   0  0  0  0  0  0  0  0  0  0  0  0
    7.1640   19.2855    3.5027 N   0  0  0  0  0  0  0  0  0  0  0  0
    6.5638   19.0014    4.6689 C   0  0  0  0  0  0  0  0  0  0  0  0
    5.6499   17.9933    4.9079 C   0  0  0  0  0  0  0  0  0  0  0  0
    5.3085   17.1707    3.8162 C   0  0  0  0  0  0  0  0  0  0  0  0
    4.4402   16.1579    3.9015 N   0  0  0  0  0  0  0  0  0  0  0  0
    5.2448   18.0017    6.2323 N   0  0  0  0  0  0  0  0  0  0  0  0
    5.9114   19.0015    6.7590 C   0  0  0  0  0  0  0  0  0  0  0  0
    6.7264   19.6490    5.8724 N   0  0  0  0  0  0  0  0  0  0  0  0
  1  2  2  0  0  0  0
  1  6  1  0  0  0  0
  2  3  1  0  0  0  0
  3  4  2  0  0  0  0
  4  5  1  0  0  0  0
  4 10  1  0  0  0  0
  5  6  2  0  0  0  0
  5  8  1  0  0  0  0
  6  7  1  0  0  0  0
  8  9  1  0  0  0  0
  9 10  2  0  0  0  0
M  END
>  <CHROM.1>
5.96132323,18.20551912,4.47958388,-1.81010050,0.84469945,1.21144905

>  <Name>
ligand

>  <RI>
0

>  <Rbt.Current_Directory>
/home/itssahil/PROJECTS/Mol_Feturizer/New_Systems/rnas/4XNR

>  <Rbt.Executable>
rbdock ($Id: //depot/dev/client3/rdock/2013.1/src/exe/rbdock.cxx#4 $)

>  <Rbt.Library>
libRbt.so (2013.1, Build901 2013/11/27)

>  <Rbt.Parameter_File>
/export/apps/rDock/src/rDock_2013.1_src/data/scripts/dock_solv.prm

>  <Rbt.Receptor>
prm/pocket_docking_3.prm

>  <SCORE>
-14.5939

>  <SCORE.INTER>
-14.5939

>  <SCORE.INTER.CONST>
1

>  <SCORE.INTER.POLAR>
0

>  <SCORE.INTER.ROT>
0

>  <SCORE.INTER.SOLV>
7.71829

>  <SCORE.INTER.VDW>
-15.902

>  <SCORE.INTER.norm>
-1.45939

>  <SCORE.INTRA>
0

>  <SCORE.INTRA.DIHEDRAL>
0

>  <SCORE.INTRA.DIHEDRAL.0>
0

>  <SCORE.INTRA.POLAR>
0

>  <SCORE.INTRA.POLAR.0>
0

>  <SCORE.INTRA.REPUL>
0

>  <SCORE.INTRA.REPUL.0>
0

>  <SCORE.INTRA.SOLV>
0

>  <SCORE.INTRA.SOLV.lig_0>
-23.8918

>  <SCORE.INTRA.VDW>
0

>  <SCORE.INTRA.VDW.0>
0

>  <SCORE.INTRA.norm>
0

>  <SCORE.RESTR>
0

>  <SCORE.RESTR.CAVITY>
0

>  <SCORE.RESTR.norm>
0

>  <SCORE.SYSTEM>
0

>  <SCORE.SYSTEM.CONST>
0

>  <SCORE.SYSTEM.DIHEDRAL>
0

>  <SCORE.SYSTEM.SOLV>
0

>  <SCORE.SYSTEM.norm>
0

>  <SCORE.heavy>
10

>  <SCORE.norm>
-1.45939

>  <RMSD>
0.757

$$$$
ligand
 OpenBabel11021811513D
libRbt.so/2013.1/901 2013/11/27
 10 11  0  0  0  0  0  0  0  0999 V2000
    5.9068   17.4182    2.6319 N   0  0  0  0  0  0  0  0  0  0  0  0
    6.8024   18.4107    2.5671 C   0  0  0  0  0  0  0  0  0  0  0  0
    7.2078   19.2377    3.5296 N   0  0  0  0  0  0  0  0  0  0  0  0
    6.5824   18.9662    4.6856 C   0  0  0  0  0  0  0  0  0  0  0  0
    5.6398   17.9809    4.9077 C   0  0  0  0  0  0  0  0  0  0  0  0
    5.2949   17.1696    3.8086 C   0  0  0  0  0  0  0  0  0  0  0  0
    4.4003   16.1789    3.8777 N   0  0  0  0  0  0  0  0  0  0  0  0
    5.2144   17.9966    6.2256 N   0  0  0  0  0  0  0  0  0  0  0  0
    5.8977   18.9781    6.7653 C   0  0  0  0  0  0  0  0  0  0  0  0
    6.7424   19.6068    5.8931 N   0  0  0  0  0  0  0  0  0  0  0  0
  1  2  2  0  0  0  0
  1  6  1  0  0  0  0
  2  3  1  0  0  0  0
  3  4  2  0  0  0  0
  4  5  1  0  0  0  0
  4 10  1  0  0  0  0
  5  6  2  0  0  0  0
  5  8  1  0  0  0  0
  6  7  1  0  0  0  0
  8  9  1  0  0  0  0
  9 10  2  0  0  0  0
M  END
>  <CHROM.1>
5.96317220,18.18619838,4.48479681,-1.80162635,0.81562288,1.20762215

>  <Name>
ligand

>  <RI>
0

>  <Rbt.Current_Directory>
/home/itssahil/PROJECTS/Mol_Feturizer/New_Systems/rnas/4XNR

>  <Rbt.Executable>
rbdock ($Id: //depot/dev/client3/rdock/2013.1/src/exe/rbdock.cxx#4 $)

>  <Rbt.Library>
libRbt.so (2013.1, Build901 2013/11/27)

>  <Rbt.Parameter_File>
/export/apps/rDock/src/rDock_2013.1_src/data/scripts/dock_solv.prm

>  <Rbt.Receptor>
prm/pocket_docking_4.prm

>  <SCORE>
-14.5804

>  <SCORE.INTER>
-14.5804

>  <SCORE.INTER.CONST>
1

>  <SCORE.INTER.POLAR>
0

>  <SCORE.INTER.ROT>
0

>  <SCORE.INTER.SOLV>
7.53292

>  <SCORE.INTER.VDW>
-15.8313

>  <SCORE.INTER.norm>
-1.45804

>  <SCORE.INTRA>
0

>  <SCORE.INTRA.DIHEDRAL>
0

>  <SCORE.INTRA.DIHEDRAL.0>
0

>  <SCORE.INTRA.POLAR>
0

>  <SCORE.INTRA.POLAR.0>
0

>  <SCORE.INTRA.REPUL>
0

>  <SCORE.INTRA.REPUL.0>
0

>  <SCORE.INTRA.SOLV>
0

>  <SCORE.INTRA.SOLV.lig_0>
-23.8918

>  <SCORE.INTRA.VDW>
0

>  <SCORE.INTRA.VDW.0>
0

>  <SCORE.INTRA.norm>
0

>  <SCORE.RESTR>
0

>  <SCORE.RESTR.CAVITY>
0

>  <SCORE.RESTR.norm>
0

>  <SCORE.SYSTEM>
0

>  <SCORE.SYSTEM.CONST>
0

>  <SCORE.SYSTEM.DIHEDRAL>
0

>  <SCORE.SYSTEM.SOLV>
0

>  <SCORE.SYSTEM.norm>
0

>  <SCORE.heavy>
10

>  <SCORE.norm>
-1.45804

>  <RMSD>
0.757

$$$$
ligand
 OpenBabel11021811513D
libRbt.so/2013.1/901 2013/11/27
 10 11  0  0  0  0  0  0  0  0999 V2000
    5.8676   17.4287    2.6304 N   0  0  0  0  0  0  0  0  0  0  0  0
    6.7624   18.4206    2.5471 C   0  0  0  0  0  0  0  0  0  0  0  0
    7.1865   19.2487    3.5006 N   0  0  0  0  0  0  0  0  0  0  0  0
    6.5832   18.9791    4.6687 C   0  0  0  0  0  0  0  0  0  0  0  0
    5.6444   17.9947    4.9100 C   0  0  0  0  0  0  0  0  0  0  0  0
    5.2782   17.1821    3.8189 C   0  0  0  0  0  0  0  0  0  0  0  0
    4.3845   16.1920    3.9064 N   0  0  0  0  0  0  0  0  0  0  0  0
    5.2443   18.0125    6.2359 N   0  0  0  0  0  0  0  0  0  0  0  0
    5.9383   18.9943    6.7610 C   0  0  0  0  0  0  0  0  0  0  0  0
    6.7666   19.6213    5.8720 N   0  0  0  0  0  0  0  0  0  0  0  0
  1  2  2  0  0  0  0
  1  6  1  0  0  0  0
  2  3  1  0  0  0  0
  3  4  2  0  0  0  0
  4  5  1  0  0  0  0
  4 10  1  0  0  0  0
  5  6  2  0  0  0  0
  5  8  1  0  0  0  0
  6  7  1  0  0  0  0
  8  9  1  0  0  0  0
  9 10  2  0  0  0  0
M  END
>  <CHROM.1>
5.95978193,18.19918608,4.48079509,-1.82813181,0.82169953,1.22558718

>  <Name>
ligand

>  <RI>
0

>  <Rbt.Current_Directory>
/home/itssahil/PROJECTS/Mol_Feturizer/New_Systems/rnas/4XNR

>  <Rbt.Executable>
rbdock ($Id: //depot/dev/client3/rdock/2013.1/src/exe/rbdock.cxx#4 $)

>  <Rbt.Library>
libRbt.so (2013.1, Build901 2013/11/27)

>  <Rbt.Parameter_File>
/export/apps/rDock/src/rDock_2013.1_src/data/scripts/dock_solv.prm

>  <Rbt.Receptor>
prm/pocket_docking_5.prm

>  <SCORE>
-14.5682

>  <SCORE.INTER>
-14.5682

>  <SCORE.INTER.CONST>
1

>  <SCORE.INTER.POLAR>
0

>  <SCORE.INTER.ROT>
0

>  <SCORE.INTER.SOLV>
7.58771

>  <SCORE.INTER.VDW>
-15.8413

>  <SCORE.INTER.norm>
-1.45682

>  <SCORE.INTRA>
0

>  <SCORE.INTRA.DIHEDRAL>
0

>  <SCORE.INTRA.DIHEDRAL.0>
0

>  <SCORE.INTRA.POLAR>
0

>  <SCORE.INTRA.POLAR.0>
0

>  <SCORE.INTRA.REPUL>
0

>  <SCORE.INTRA.REPUL.0>
0

>  <SCORE.INTRA.SOLV>
0

>  <SCORE.INTRA.SOLV.lig_0>
-23.8918

>  <SCORE.INTRA.VDW>
0

>  <SCORE.INTRA.VDW.0>
0

>  <SCORE.INTRA.norm>
0

>  <SCORE.RESTR>
0

>  <SCORE.RESTR.CAVITY>
0

>  <SCORE.RESTR.norm>
0

>  <SCORE.SYSTEM>
0

>  <SCORE.SYSTEM.CONST>
0

>  <SCORE.SYSTEM.DIHEDRAL>
0

>  <SCORE.SYSTEM.SOLV>
0

>  <SCORE.SYSTEM.norm>
0

>  <SCORE.heavy>
10

>  <SCORE.norm>
-1.45682

>  <RMSD>
0.757

$$$$
ligand
 OpenBabel11021811513D
libRbt.so/2013.1/901 2013/11/27
 10 11  0  0  0  0  0  0  0  0999 V2000
    5.8993   17.4309    2.6290 N   0  0  0  0  0  0  0  0  0  0  0  0
    6.7697   18.4446    2.5497 C   0  0  0  0  0  0  0  0  0  0  0  0
    7.1689   19.2830    3.5048 N   0  0  0  0  0  0  0  0  0  0  0  0
    6.5671   18.9987    4.6702 C   0  0  0  0  0  0  0  0  0  0  0  0
    5.6518   17.9914    4.9075 C   0  0  0  0  0  0  0  0  0  0  0  0
    5.3108   17.1699    3.8149 C   0  0  0  0  0  0  0  0  0  0  0  0
    4.4414   16.1580    3.8985 N   0  0  0  0  0  0  0  0  0  0  0  0
    5.2453   17.9994    6.2315 N   0  0  0  0  0  0  0  0  0  0  0  0
    5.9124   18.9981    6.7596 C   0  0  0  0  0  0  0  0  0  0  0  0
    6.7290   19.6453    5.8743 N   0  0  0  0  0  0  0  0  0  0  0  0
  1  2  2  0  0  0  0
  1  6  1  0  0  0  0
  2  3  1  0  0  0  0
  3  4  2  0  0  0  0
  4  5  1  0  0  0  0
  4 10  1  0  0  0  0
  5  6  2  0  0  0  0
  5  8  1  0  0  0  0
  6  7  1  0  0  0  0
  8  9  1  0  0  0  0
  9 10  2  0  0  0  0
M  END
>  <CHROM.1>
5.96398157,18.20358779,4.47967117,-1.80909101,0.84330962,1.21135946

>  <Name>
ligand

>  <RI>
0

>  <Rbt.Current_Directory>
/home/itssahil/PROJECTS/Mol_Feturizer/New_Systems/rnas/4XNR

>  <Rbt.Executable>
rbdock ($Id: //depot/dev/client3/rdock/2013.1/src/exe/rbdock.cxx#4 $)

>  <Rbt.Library>
libRbt.so (2013.1, Build901 2013/11/27)

>  <Rbt.Parameter_File>
/export/apps/rDock/src/rDock_2013.1_src/data/scripts/dock_solv.prm

>  <Rbt.Receptor>
prm/pocket_docking_8.prm

>  <SCORE>
-14.5933

>  <SCORE.INTER>
-14.5933

>  <SCORE.INTER.CONST>
1

>  <SCORE.INTER.POLAR>
0

>  <SCORE.INTER.ROT>
0

>  <SCORE.INTER.SOLV>
7.70947

>  <SCORE.INTER.VDW>
-15.8987

>  <SCORE.INTER.norm>
-1.45933

>  <SCORE.INTRA>
0

>  <SCORE.INTRA.DIHEDRAL>
0

>  <SCORE.INTRA.DIHEDRAL.0>
0

>  <SCORE.INTRA.POLAR>
0

>  <SCORE.INTRA.POLAR.0>
0

>  <SCORE.INTRA.REPUL>
0

>  <SCORE.INTRA.REPUL.0>
0

>  <SCORE.INTRA.SOLV>
0

>  <SCORE.INTRA.SOLV.lig_0>
-23.8918

>  <SCORE.INTRA.VDW>
0

>  <SCORE.INTRA.VDW.0>
0

>  <SCORE.INTRA.norm>
0

>  <SCORE.RESTR>
0

>  <SCORE.RESTR.CAVITY>
0

>  <SCORE.RESTR.norm>
0

>  <SCORE.SYSTEM>
0

>  <SCORE.SYSTEM.CONST>
0

>  <SCORE.SYSTEM.DIHEDRAL>
0

>  <SCORE.SYSTEM.SOLV>
0

>  <SCORE.SYSTEM.norm>
0

>  <SCORE.heavy>
10

>  <SCORE.norm>
-1.45933

>  <RMSD>
0.757

$$$$
ligand
 OpenBabel11021811513D
libRbt.so/2013.1/901 2013/11/27
 10 11  0  0  0  0  0  0  0  0999 V2000
    5.9232   17.4258    2.6312 N   0  0  0  0  0  0  0  0  0  0  0  0
    6.7820   18.4496    2.5557 C   0  0  0  0  0  0  0  0  0  0  0  0
    7.1642   19.2950    3.5116 N   0  0  0  0  0  0  0  0  0  0  0  0
    6.5572   19.0066    4.6733 C   0  0  0  0  0  0  0  0  0  0  0  0
    5.6522   17.9891    4.9064 C   0  0  0  0  0  0  0  0  0  0  0  0
    5.3290   17.1608    3.8135 C   0  0  0  0  0  0  0  0  0  0  0  0
    4.4710   16.1389    3.8933 N   0  0  0  0  0  0  0  0  0  0  0  0
    5.2358   17.9956    6.2273 N   0  0  0  0  0  0  0  0  0  0  0  0
    5.8871   19.0034    6.7578 C   0  0  0  0  0  0  0  0  0  0  0  0
    6.7025   19.6580    5.8768 N   0  0  0  0  0  0  0  0  0  0  0  0
  1  2  2  0  0  0  0
  1  6  1  0  0  0  0
  2  3  1  0  0  0  0
  3  4  2  0  0  0  0
  4  5  1  0  0  0  0
  4 10  1  0  0  0  0
  5  6  2  0  0  0  0
  5  8  1  0  0  0  0
  6  7  1  0  0  0  0
  8  9  1  0  0  0  0
  9 10  2  0  0  0  0
M  END
>  <CHROM.1>
5.96496102,18.20387687,4.48034305,-1.79225342,0.85173404,1.19620015

>  <Name>
ligand

>  <RI>
0

>  <Rbt.Current_Directory>
/home/itssahil/PROJECTS/Mol_Feturizer/New_Systems/rnas/4XNR

>  <Rbt.Executable>
rbdock ($Id: //depot/dev/client3/rdock/2013.1/src/exe/rbdock.cxx#4 $)

>  <Rbt.Library>
libRbt.so (2013.1, Build901 2013/11/27)

>  <Rbt.Parameter_File>
/export/apps/rDock/src/rDock_2013.1_src/data/scripts/dock_solv.prm

>  <Rbt.Receptor>
prm/pocket_docking_8.prm

>  <SCORE>
-14.5807

>  <SCORE.INTER>
-14.5807

>  <SCORE.INTER.CONST>
1

>  <SCORE.INTER.POLAR>
0

>  <SCORE.INTER.ROT>
0

>  <SCORE.INTER.SOLV>
7.81197

>  <SCORE.INTER.VDW>
-15.9245

>  <SCORE.INTER.norm>
-1.45807

>  <SCORE.INTRA>
0

>  <SCORE.INTRA.DIHEDRAL>
0

>  <SCORE.INTRA.DIHEDRAL.0>
0

>  <SCORE.INTRA.POLAR>
0

>  <SCORE.INTRA.POLAR.0>
0

>  <SCORE.INTRA.REPUL>
0

>  <SCORE.INTRA.REPUL.0>
0

>  <SCORE.INTRA.SOLV>
0

>  <SCORE.INTRA.SOLV.lig_0>
-23.8918

>  <SCORE.INTRA.VDW>
0

>  <SCORE.INTRA.VDW.0>
0

>  <SCORE.INTRA.norm>
0

>  <SCORE.RESTR>
0

>  <SCORE.RESTR.CAVITY>
0

>  <SCORE.RESTR.norm>
0

>  <SCORE.SYSTEM>
0

>  <SCORE.SYSTEM.CONST>
0

>  <SCORE.SYSTEM.DIHEDRAL>
0

>  <SCORE.SYSTEM.SOLV>
0

>  <SCORE.SYSTEM.norm>
0

>  <SCORE.heavy>
10

>  <SCORE.norm>
-1.45807

>  <RMSD>
0.757

$$$$
ligand
 OpenBabel11021811513D
libRbt.so/2013.1/901 2013/11/27
 10 11  0  0  0  0  0  0  0  0999 V2000
    5.8344   17.5357    2.5652 N   0  0  0  0  0  0  0  0  0  0  0  0
    6.7282   18.5303    2.5065 C   0  0  0  0  0  0  0  0  0  0  0  0
    7.1542   19.3327    3.4808 N   0  0  0  0  0  0  0  0  0  0  0  0
    6.5540   19.0312    4.6428 C   0  0  0  0  0  0  0  0  0  0  0  0
    5.6166   18.0399    4.8599 C   0  0  0  0  0  0  0  0  0  0  0  0
    5.2482   17.2567    3.7482 C   0  0  0  0  0  0  0  0  0  0  0  0
    4.3555   16.2638    3.8111 N   0  0  0  0  0  0  0  0  0  0  0  0
    5.2198   18.0216    6.1867 N   0  0  0  0  0  0  0  0  0  0  0  0
    5.9144   18.9894    6.7363 C   0  0  0  0  0  0  0  0  0  0  0  0
    6.7399   19.6409    5.8625 N   0  0  0  0  0  0  0  0  0  0  0  0
  1  2  2  0  0  0  0
  1  6  1  0  0  0  0
  2  3  1  0  0  0  0
  3  4  2  0  0  0  0
  4  5  1  0  0  0  0
  4 10  1  0  0  0  0
  5  6  2  0  0  0  0
  5  8  1  0  0  0  0
  6  7  1  0  0  0  0
  8  9  1  0  0  0  0
  9 10  2  0  0  0  0
M  END
>  <CHROM.1>
5.93071290,18.25614079,4.43548527,-1.83125752,0.82328023,1.25484944

>  <Name>
ligand

>  <RI>
0

>  <Rbt.Current_Directory>
/home/itssahil/PROJECTS/Mol_Feturizer/New_Systems/rnas/4XNR

>  <Rbt.Executable>
rbdock ($Id: //depot/dev/client3/rdock/2013.1/src/exe/rbdock.cxx#4 $)

>  <Rbt.Library>
libRbt.so (2013.1, Build901 2013/11/27)

>  <Rbt.Parameter_File>
/export/apps/rDock/src/rDock_2013.1_src/data/scripts/dock_solv.prm

>  <Rbt.Receptor>
prm/blind_docking_60.prm

>  <SCORE>
-14.5403

>  <SCORE.INTER>
-14.5403

>  <SCORE.INTER.CONST>
1

>  <SCORE.INTER.POLAR>
0

>  <SCORE.INTER.ROT>
0

>  <SCORE.INTER.SOLV>
7.21786

>  <SCORE.INTER.VDW>
-15.6995

>  <SCORE.INTER.norm>
-1.45403

>  <SCORE.INTRA>
0

>  <SCORE.INTRA.DIHEDRAL>
0

>  <SCORE.INTRA.DIHEDRAL.0>
0

>  <SCORE.INTRA.POLAR>
0

>  <SCORE.INTRA.POLAR.0>
0

>  <SCORE.INTRA.REPUL>
0

>  <SCORE.INTRA.REPUL.0>
0

>  <SCORE.INTRA.SOLV>
0

>  <SCORE.INTRA.SOLV.lig_0>
-23.8918

>  <SCORE.INTRA.VDW>
0

>  <SCORE.INTRA.VDW.0>
0

>  <SCORE.INTRA.norm>
0

>  <SCORE.RESTR>
0

>  <SCORE.RESTR.CAVITY>
0

>  <SCORE.RESTR.norm>
0

>  <SCORE.SYSTEM>
0

>  <SCORE.SYSTEM.CONST>
0

>  <SCORE.SYSTEM.DIHEDRAL>
0

>  <SCORE.SYSTEM.SOLV>
0

>  <SCORE.SYSTEM.norm>
0

>  <SCORE.heavy>
10

>  <SCORE.norm>
-1.45403

>  <RMSD>
0.758

$$$$
ligand
 OpenBabel11021811513D
libRbt.so/2013.1/901 2013/11/27
 10 11  0  0  0  0  0  0  0  0999 V2000
    5.8409   17.5359    2.5664 N   0  0  0  0  0  0  0  0  0  0  0  0
    6.7325   18.5325    2.5109 C   0  0  0  0  0  0  0  0  0  0  0  0
    7.1566   19.3330    3.4877 N   0  0  0  0  0  0  0  0  0  0  0  0
    6.5568   19.0268    4.6486 C   0  0  0  0  0  0  0  0  0  0  0  0
    5.6215   18.0328    4.8625 C   0  0  0  0  0  0  0  0  0  0  0  0
    5.2550   17.2520    3.7484 C   0  0  0  0  0  0  0  0  0  0  0  0
    4.3644   16.2571    3.8083 N   0  0  0  0  0  0  0  0  0  0  0  0
    5.2244   18.0097    6.1892 N   0  0  0  0  0  0  0  0  0  0  0  0
    5.9168   18.9774    6.7419 C   0  0  0  0  0  0  0  0  0  0  0  0
    6.7411   19.6332    5.8701 N   0  0  0  0  0  0  0  0  0  0  0  0
  1  2  2  0  0  0  0
  1  6  1  0  0  0  0
  2  3  1  0  0  0  0
  3  4  2  0  0  0  0
  4  5  1  0  0  0  0
  4 10  1  0  0  0  0
  5  6  2  0  0  0  0
  5  8  1  0  0  0  0
  6  7  1  0  0  0  0
  8  9  1  0  0  0  0
  9 10  2  0  0  0  0
M  END
>  <CHROM.1>
5.93520377,18.25095773,4.43886211,-1.82995706,0.82526523,1.25684163

>  <Name>
ligand

>  <RI>
0

>  <Rbt.Current_Directory>
/home/itssahil/PROJECTS/Mol_Feturizer/New_Systems/rnas/4XNR

>  <Rbt.Executable>
rbdock ($Id: //depot/dev/client3/rdock/2013.1/src/exe/rbdock.cxx#4 $)

>  <Rbt.Library>
libRbt.so (2013.1, Build901 2013/11/27)

>  <Rbt.Parameter_File>
/export/apps/rDock/src/rDock_2013.1_src/data/scripts/dock_solv.prm

>  <Rbt.Receptor>
prm/blind_docking_60.prm

>  <SCORE>
-14.5402

>  <SCORE.INTER>
-14.5402

>  <SCORE.INTER.CONST>
1

>  <SCORE.INTER.POLAR>
0

>  <SCORE.INTER.ROT>
0

>  <SCORE.INTER.SOLV>
7.23731

>  <SCORE.INTER.VDW>
-15.7059

>  <SCORE.INTER.norm>
-1.45402

>  <SCORE.INTRA>
0

>  <SCORE.INTRA.DIHEDRAL>
0

>  <SCORE.INTRA.DIHEDRAL.0>
0

>  <SCORE.INTRA.POLAR>
0

>  <SCORE.INTRA.POLAR.0>
0

>  <SCORE.INTRA.REPUL>
0

>  <SCORE.INTRA.REPUL.0>
0

>  <SCORE.INTRA.SOLV>
0

>  <SCORE.INTRA.SOLV.lig_0>
-23.8918

>  <SCORE.INTRA.VDW>
0

>  <SCORE.INTRA.VDW.0>
0

>  <SCORE.INTRA.norm>
0

>  <SCORE.RESTR>
0

>  <SCORE.RESTR.CAVITY>
0

>  <SCORE.RESTR.norm>
0

>  <SCORE.SYSTEM>
0

>  <SCORE.SYSTEM.CONST>
0

>  <SCORE.SYSTEM.DIHEDRAL>
0

>  <SCORE.SYSTEM.SOLV>
0

>  <SCORE.SYSTEM.norm>
0

>  <SCORE.heavy>
10

>  <SCORE.norm>
-1.45402

>  <RMSD>
0.758

$$$$
ligand
 OpenBabel11021811513D
libRbt.so/2013.1/901 2013/11/27
 10 11  0  0  0  0  0  0  0  0999 V2000
    5.8978   17.4269    2.6257 N   0  0  0  0  0  0  0  0  0  0  0  0
    6.8027   18.4115    2.5686 C   0  0  0  0  0  0  0  0  0  0  0  0
    7.2154   19.2275    3.5373 N   0  0  0  0  0  0  0  0  0  0  0  0
    6.5871   18.9534    4.6910 C   0  0  0  0  0  0  0  0  0  0  0  0
    5.6351   17.9753    4.9055 C   0  0  0  0  0  0  0  0  0  0  0  0
    5.2831   17.1754    3.8004 C   0  0  0  0  0  0  0  0  0  0  0  0
    4.3792   16.1926    3.8618 N   0  0  0  0  0  0  0  0  0  0  0  0
    5.2093   17.9853    6.2234 N   0  0  0  0  0  0  0  0  0  0  0  0
    5.9015   18.9563    6.7705 C   0  0  0  0  0  0  0  0  0  0  0  0
    6.7525   19.5835    5.9033 N   0  0  0  0  0  0  0  0  0  0  0  0
  1  2  2  0  0  0  0
  1  6  1  0  0  0  0
  2  3  1  0  0  0  0
  3  4  2  0  0  0  0
  4  5  1  0  0  0  0
  4 10  1  0  0  0  0
  5  6  2  0  0  0  0
  5  8  1  0  0  0  0
  6  7  1  0  0  0  0
  8  9  1  0  0  0  0
  9 10  2  0  0  0  0
M  END
>  <CHROM.1>
5.96059398,18.18067396,4.48426001,-1.80587196,0.80670604,1.21807309

>  <Name>
ligand

>  <RI>
0

>  <Rbt.Current_Directory>
/home/itssahil/PROJECTS/Mol_Feturizer/New_Systems/rnas/4XNR

>  <Rbt.Executable>
rbdock ($Id: //depot/dev/client3/rdock/2013.1/src/exe/rbdock.cxx#4 $)

>  <Rbt.Library>
libRbt.so (2013.1, Build901 2013/11/27)

>  <Rbt.Parameter_File>
/export/apps/rDock/src/rDock_2013.1_src/data/scripts/dock_solv.prm

>  <Rbt.Receptor>
prm/pocket_docking_3.prm

>  <SCORE>
-14.6131

>  <SCORE.INTER>
-14.6131

>  <SCORE.INTER.CONST>
1

>  <SCORE.INTER.POLAR>
0

>  <SCORE.INTER.ROT>
0

>  <SCORE.INTER.SOLV>
7.43996

>  <SCORE.INTER.VDW>
-15.822

>  <SCORE.INTER.norm>
-1.46131

>  <SCORE.INTRA>
0

>  <SCORE.INTRA.DIHEDRAL>
0

>  <SCORE.INTRA.DIHEDRAL.0>
0

>  <SCORE.INTRA.POLAR>
0

>  <SCORE.INTRA.POLAR.0>
0

>  <SCORE.INTRA.REPUL>
0

>  <SCORE.INTRA.REPUL.0>
0

>  <SCORE.INTRA.SOLV>
0

>  <SCORE.INTRA.SOLV.lig_0>
-23.8918

>  <SCORE.INTRA.VDW>
0

>  <SCORE.INTRA.VDW.0>
0

>  <SCORE.INTRA.norm>
0

>  <SCORE.RESTR>
0

>  <SCORE.RESTR.CAVITY>
0

>  <SCORE.RESTR.norm>
0

>  <SCORE.SYSTEM>
0

>  <SCORE.SYSTEM.CONST>
0

>  <SCORE.SYSTEM.DIHEDRAL>
0

>  <SCORE.SYSTEM.SOLV>
0

>  <SCORE.SYSTEM.norm>
0

>  <SCORE.heavy>
10

>  <SCORE.norm>
-1.46131

>  <RMSD>
0.758

$$$$
ligand
 OpenBabel11021811513D
libRbt.so/2013.1/901 2013/11/27
 10 11  0  0  0  0  0  0  0  0999 V2000
    5.8977   17.4321    2.6284 N   0  0  0  0  0  0  0  0  0  0  0  0
    6.7767   18.4387    2.5551 C   0  0  0  0  0  0  0  0  0  0  0  0
    7.1793   19.2711    3.5141 N   0  0  0  0  0  0  0  0  0  0  0  0
    6.5709   18.9886    4.6765 C   0  0  0  0  0  0  0  0  0  0  0  0
    5.6465   17.9883    4.9076 C   0  0  0  0  0  0  0  0  0  0  0  0
    5.3026   17.1727    3.8115 C   0  0  0  0  0  0  0  0  0  0  0  0
    4.4246   16.1678    3.8891 N   0  0  0  0  0  0  0  0  0  0  0  0
    5.2352   17.9960    6.2301 N   0  0  0  0  0  0  0  0  0  0  0  0
    5.9086   18.9876    6.7635 C   0  0  0  0  0  0  0  0  0  0  0  0
    6.7338   19.6305    5.8829 N   0  0  0  0  0  0  0  0  0  0  0  0
  1  2  2  0  0  0  0
  1  6  1  0  0  0  0
  2  3  1  0  0  0  0
  3  4  2  0  0  0  0
  4  5  1  0  0  0  0
  4 10  1  0  0  0  0
  5  6  2  0  0  0  0
  5  8  1  0  0  0  0
  6  7  1  0  0  0  0
  8  9  1  0  0  0  0
  9 10  2  0  0  0  0
M  END
>  <CHROM.1>
5.96196006,18.19906796,4.48153085,-1.80832026,0.83428576,1.21359151

>  <Name>
ligand

>  <RI>
0

>  <Rbt.Current_Directory>
/home/itssahil/PROJECTS/Mol_Feturizer/New_Systems/rnas/4XNR

>  <Rbt.Executable>
rbdock ($Id: //depot/dev/client3/rdock/2013.1/src/exe/rbdock.cxx#4 $)

>  <Rbt.Library>
libRbt.so (2013.1, Build901 2013/11/27)

>  <Rbt.Parameter_File>
/export/apps/rDock/src/rDock_2013.1_src/data/scripts/dock_solv.prm

>  <Rbt.Receptor>
prm/pocket_docking_4.prm

>  <SCORE>
-14.5666

>  <SCORE.INTER>
-14.5666

>  <SCORE.INTER.CONST>
1

>  <SCORE.INTER.POLAR>
0

>  <SCORE.INTER.ROT>
0

>  <SCORE.INTER.SOLV>
7.63019

>  <SCORE.INTER.VDW>
-15.8544

>  <SCORE.INTER.norm>
-1.45666

>  <SCORE.INTRA>
0

>  <SCORE.INTRA.DIHEDRAL>
0

>  <SCORE.INTRA.DIHEDRAL.0>
0

>  <SCORE.INTRA.POLAR>
0

>  <SCORE.INTRA.POLAR.0>
0

>  <SCORE.INTRA.REPUL>
0

>  <SCORE.INTRA.REPUL.0>
0

>  <SCORE.INTRA.SOLV>
0

>  <SCORE.INTRA.SOLV.lig_0>
-23.8918

>  <SCORE.INTRA.VDW>
0

>  <SCORE.INTRA.VDW.0>
0

>  <SCORE.INTRA.norm>
0

>  <SCORE.RESTR>
0

>  <SCORE.RESTR.CAVITY>
0

>  <SCORE.RESTR.norm>
0

>  <SCORE.SYSTEM>
0

>  <SCORE.SYSTEM.CONST>
0

>  <SCORE.SYSTEM.DIHEDRAL>
0

>  <SCORE.SYSTEM.SOLV>
0

>  <SCORE.SYSTEM.norm>
0

>  <SCORE.heavy>
10

>  <SCORE.norm>
-1.45666

>  <RMSD>
0.758

$$$$
ligand
 OpenBabel11021811513D
libRbt.so/2013.1/901 2013/11/27
 10 11  0  0  0  0  0  0  0  0999 V2000
    5.9041   17.4321    2.6292 N   0  0  0  0  0  0  0  0  0  0  0  0
    6.7791   18.4421    2.5547 C   0  0  0  0  0  0  0  0  0  0  0  0
    7.1780   19.2777    3.5125 N   0  0  0  0  0  0  0  0  0  0  0  0
    6.5701   18.9947    4.6751 C   0  0  0  0  0  0  0  0  0  0  0  0
    5.6496   17.9911    4.9074 C   0  0  0  0  0  0  0  0  0  0  0  0
    5.3095   17.1723    3.8124 C   0  0  0  0  0  0  0  0  0  0  0  0
    4.4355   16.1640    3.8913 N   0  0  0  0  0  0  0  0  0  0  0  0
    5.2376   17.9993    6.2297 N   0  0  0  0  0  0  0  0  0  0  0  0
    5.9068   18.9945    6.7617 C   0  0  0  0  0  0  0  0  0  0  0  0
    6.7298   19.6393    5.8805 N   0  0  0  0  0  0  0  0  0  0  0  0
  1  2  2  0  0  0  0
  1  6  1  0  0  0  0
  2  3  1  0  0  0  0
  3  4  2  0  0  0  0
  4  5  1  0  0  0  0
  4 10  1  0  0  0  0
  5  6  2  0  0  0  0
  5  8  1  0  0  0  0
  6  7  1  0  0  0  0
  8  9  1  0  0  0  0
  9 10  2  0  0  0  0
M  END
>  <CHROM.1>
5.96442566,18.20242332,4.48107991,-1.80555651,0.83785631,1.20987778

>  <Name>
ligand

>  <RI>
0

>  <Rbt.Current_Directory>
/home/itssahil/PROJECTS/Mol_Feturizer/New_Systems/rnas/4XNR

>  <Rbt.Executable>
rbdock ($Id: //depot/dev/client3/rdock/2013.1/src/exe/rbdock.cxx#4 $)

>  <Rbt.Library>
libRbt.so (2013.1, Build901 2013/11/27)

>  <Rbt.Parameter_File>
/export/apps/rDock/src/rDock_2013.1_src/data/scripts/dock_solv.prm

>  <Rbt.Receptor>
prm/pocket_docking_4.prm

>  <SCORE>
-14.5913

>  <SCORE.INTER>
-14.5913

>  <SCORE.INTER.CONST>
1

>  <SCORE.INTER.POLAR>
0

>  <SCORE.INTER.ROT>
0

>  <SCORE.INTER.SOLV>
7.66759

>  <SCORE.INTER.VDW>
-15.8834

>  <SCORE.INTER.norm>
-1.45913

>  <SCORE.INTRA>
0

>  <SCORE.INTRA.DIHEDRAL>
0

>  <SCORE.INTRA.DIHEDRAL.0>
0

>  <SCORE.INTRA.POLAR>
0

>  <SCORE.INTRA.POLAR.0>
0

>  <SCORE.INTRA.REPUL>
0

>  <SCORE.INTRA.REPUL.0>
0

>  <SCORE.INTRA.SOLV>
0

>  <SCORE.INTRA.SOLV.lig_0>
-23.8918

>  <SCORE.INTRA.VDW>
0

>  <SCORE.INTRA.VDW.0>
0

>  <SCORE.INTRA.norm>
0

>  <SCORE.RESTR>
0

>  <SCORE.RESTR.CAVITY>
0

>  <SCORE.RESTR.norm>
0

>  <SCORE.SYSTEM>
0

>  <SCORE.SYSTEM.CONST>
0

>  <SCORE.SYSTEM.DIHEDRAL>
0

>  <SCORE.SYSTEM.SOLV>
0

>  <SCORE.SYSTEM.norm>
0

>  <SCORE.heavy>
10

>  <SCORE.norm>
-1.45913

>  <RMSD>
0.758

$$$$
ligand
 OpenBabel11021811513D
libRbt.so/2013.1/901 2013/11/27
 10 11  0  0  0  0  0  0  0  0999 V2000
    5.8830   17.4050    2.6412 N   0  0  0  0  0  0  0  0  0  0  0  0
    6.7737   18.4014    2.5687 C   0  0  0  0  0  0  0  0  0  0  0  0
    7.1826   19.2312    3.5273 N   0  0  0  0  0  0  0  0  0  0  0  0
    6.5670   18.9582    4.6882 C   0  0  0  0  0  0  0  0  0  0  0  0
    5.6304   17.9690    4.9183 C   0  0  0  0  0  0  0  0  0  0  0  0
    5.2810   17.1550    3.8227 C   0  0  0  0  0  0  0  0  0  0  0  0
    4.3912   16.1604    3.8995 N   0  0  0  0  0  0  0  0  0  0  0  0
    5.2147   17.9843    6.2394 N   0  0  0  0  0  0  0  0  0  0  0  0
    5.8976   18.9694    6.7729 C   0  0  0  0  0  0  0  0  0  0  0  0
    6.7331   19.6008    5.8938 N   0  0  0  0  0  0  0  0  0  0  0  0
  1  2  2  0  0  0  0
  1  6  1  0  0  0  0
  2  3  1  0  0  0  0
  3  4  2  0  0  0  0
  4  5  1  0  0  0  0
  4 10  1  0  0  0  0
  5  6  2  0  0  0  0
  5  8  1  0  0  0  0
  6  7  1  0  0  0  0
  8  9  1  0  0  0  0
  9 10  2  0  0  0  0
M  END
>  <CHROM.1>
5.94970319,18.17525912,4.49281915,-1.80951039,0.82236416,1.21229036

>  <Name>
ligand

>  <RI>
0

>  <Rbt.Current_Directory>
/home/itssahil/PROJECTS/Mol_Feturizer/New_Systems/rnas/4XNR

>  <Rbt.Executable>
rbdock ($Id: //depot/dev/client3/rdock/2013.1/src/exe/rbdock.cxx#4 $)

>  <Rbt.Library>
libRbt.so (2013.1, Build901 2013/11/27)

>  <Rbt.Parameter_File>
/export/apps/rDock/src/rDock_2013.1_src/data/scripts/dock_solv.prm

>  <Rbt.Receptor>
prm/pocket_docking_5.prm

>  <SCORE>
-14.5391

>  <SCORE.INTER>
-14.5391

>  <SCORE.INTER.CONST>
1

>  <SCORE.INTER.POLAR>
0

>  <SCORE.INTER.ROT>
0

>  <SCORE.INTER.SOLV>
7.60925

>  <SCORE.INTER.VDW>
-15.8291

>  <SCORE.INTER.norm>
-1.45391

>  <SCORE.INTRA>
0

>  <SCORE.INTRA.DIHEDRAL>
0

>  <SCORE.INTRA.DIHEDRAL.0>
0

>  <SCORE.INTRA.POLAR>
0

>  <SCORE.INTRA.POLAR.0>
0

>  <SCORE.INTRA.REPUL>
0

>  <SCORE.INTRA.REPUL.0>
0

>  <SCORE.INTRA.SOLV>
0

>  <SCORE.INTRA.SOLV.lig_0>
-23.8918

>  <SCORE.INTRA.VDW>
0

>  <SCORE.INTRA.VDW.0>
0

>  <SCORE.INTRA.norm>
0

>  <SCORE.RESTR>
0

>  <SCORE.RESTR.CAVITY>
0

>  <SCORE.RESTR.norm>
0

>  <SCORE.SYSTEM>
0

>  <SCORE.SYSTEM.CONST>
0

>  <SCORE.SYSTEM.DIHEDRAL>
0

>  <SCORE.SYSTEM.SOLV>
0

>  <SCORE.SYSTEM.norm>
0

>  <SCORE.heavy>
10

>  <SCORE.norm>
-1.45391

>  <RMSD>
0.758

$$$$
ligand
 OpenBabel11021811513D
libRbt.so/2013.1/901 2013/11/27
 10 11  0  0  0  0  0  0  0  0999 V2000
    5.8987   17.4347    2.6284 N   0  0  0  0  0  0  0  0  0  0  0  0
    6.7686   18.4489    2.5503 C   0  0  0  0  0  0  0  0  0  0  0  0
    7.1672   19.2864    3.5065 N   0  0  0  0  0  0  0  0  0  0  0  0
    6.5654   19.0006    4.6715 C   0  0  0  0  0  0  0  0  0  0  0  0
    5.6506   17.9925    4.9075 C   0  0  0  0  0  0  0  0  0  0  0  0
    5.3101   17.1720    3.8139 C   0  0  0  0  0  0  0  0  0  0  0  0
    4.4412   16.1596    3.8962 N   0  0  0  0  0  0  0  0  0  0  0  0
    5.2438   17.9989    6.2314 N   0  0  0  0  0  0  0  0  0  0  0  0
    5.9103   18.9973    6.7607 C   0  0  0  0  0  0  0  0  0  0  0  0
    6.7268   19.6459    5.8762 N   0  0  0  0  0  0  0  0  0  0  0  0
  1  2  2  0  0  0  0
  1  6  1  0  0  0  0
  2  3  1  0  0  0  0
  3  4  2  0  0  0  0
  4  5  1  0  0  0  0
  4 10  1  0  0  0  0
  5  6  2  0  0  0  0
  5  8  1  0  0  0  0
  6  7  1  0  0  0  0
  8  9  1  0  0  0  0
  9 10  2  0  0  0  0
M  END
>  <CHROM.1>
5.96269375,18.20534440,4.47993869,-1.80859391,0.84373937,1.21209897

>  <Name>
ligand

>  <RI>
0

>  <Rbt.Current_Directory>
/home/itssahil/PROJECTS/Mol_Feturizer/New_Systems/rnas/4XNR

>  <Rbt.Executable>
rbdock ($Id: //depot/dev/client3/rdock/2013.1/src/exe/rbdock.cxx#4 $)

>  <Rbt.Library>
libRbt.so (2013.1, Build901 2013/11/27)

>  <Rbt.Parameter_File>
/export/apps/rDock/src/rDock_2013.1_src/data/scripts/dock_solv.prm

>  <Rbt.Receptor>
prm/pocket_docking_8.prm

>  <SCORE>
-14.5947

>  <SCORE.INTER>
-14.5947

>  <SCORE.INTER.CONST>
1

>  <SCORE.INTER.POLAR>
0

>  <SCORE.INTER.ROT>
0

>  <SCORE.INTER.SOLV>
7.70221

>  <SCORE.INTER.VDW>
-15.8972

>  <SCORE.INTER.norm>
-1.45947

>  <SCORE.INTRA>
0

>  <SCORE.INTRA.DIHEDRAL>
0

>  <SCORE.INTRA.DIHEDRAL.0>
0

>  <SCORE.INTRA.POLAR>
0

>  <SCORE.INTRA.POLAR.0>
0

>  <SCORE.INTRA.REPUL>
0

>  <SCORE.INTRA.REPUL.0>
0

>  <SCORE.INTRA.SOLV>
0

>  <SCORE.INTRA.SOLV.lig_0>
-23.8918

>  <SCORE.INTRA.VDW>
0

>  <SCORE.INTRA.VDW.0>
0

>  <SCORE.INTRA.norm>
0

>  <SCORE.RESTR>
0

>  <SCORE.RESTR.CAVITY>
0

>  <SCORE.RESTR.norm>
0

>  <SCORE.SYSTEM>
0

>  <SCORE.SYSTEM.CONST>
0

>  <SCORE.SYSTEM.DIHEDRAL>
0

>  <SCORE.SYSTEM.SOLV>
0

>  <SCORE.SYSTEM.norm>
0

>  <SCORE.heavy>
10

>  <SCORE.norm>
-1.45947

>  <RMSD>
0.758

$$$$
ligand
 OpenBabel11021811513D
libRbt.so/2013.1/901 2013/11/27
 10 11  0  0  0  0  0  0  0  0999 V2000
    5.8924   17.4061    2.6346 N   0  0  0  0  0  0  0  0  0  0  0  0
    6.7938   18.3939    2.5807 C   0  0  0  0  0  0  0  0  0  0  0  0
    7.1942   19.2168    3.5488 N   0  0  0  0  0  0  0  0  0  0  0  0
    6.5561   18.9462    4.6981 C   0  0  0  0  0  0  0  0  0  0  0  0
    5.6061   17.9655    4.9088 C   0  0  0  0  0  0  0  0  0  0  0  0
    5.2678   17.1583    3.8048 C   0  0  0  0  0  0  0  0  0  0  0  0
    4.3673   16.1722    3.8629 N   0  0  0  0  0  0  0  0  0  0  0  0
    5.1679   17.9807    6.2226 N   0  0  0  0  0  0  0  0  0  0  0  0
    5.8511   18.9574    6.7710 C   0  0  0  0  0  0  0  0  0  0  0  0
    6.7076   19.5834    5.9085 N   0  0  0  0  0  0  0  0  0  0  0  0
  1  2  2  0  0  0  0
  1  6  1  0  0  0  0
  2  3  1  0  0  0  0
  3  4  2  0  0  0  0
  4  5  1  0  0  0  0
  4 10  1  0  0  0  0
  5  6  2  0  0  0  0
  5  8  1  0  0  0  0
  6  7  1  0  0  0  0
  8  9  1  0  0  0  0
  9 10  2  0  0  0  0
M  END
>  <CHROM.1>
5.93470760,18.16988725,4.48958895,-1.79111630,0.80717340,1.20209778

>  <Name>
ligand

>  <RI>
0

>  <Rbt.Current_Directory>
/home/itssahil/PROJECTS/Mol_Feturizer/New_Systems/rnas/4XNR

>  <Rbt.Executable>
rbdock ($Id: //depot/dev/client3/rdock/2013.1/src/exe/rbdock.cxx#4 $)

>  <Rbt.Library>
libRbt.so (2013.1, Build901 2013/11/27)

>  <Rbt.Parameter_File>
/export/apps/rDock/src/rDock_2013.1_src/data/scripts/dock_solv.prm

>  <Rbt.Receptor>
prm/pocket_docking_8.prm

>  <SCORE>
-14.546

>  <SCORE.INTER>
-14.546

>  <SCORE.INTER.CONST>
1

>  <SCORE.INTER.POLAR>
0

>  <SCORE.INTER.ROT>
0

>  <SCORE.INTER.SOLV>
7.46221

>  <SCORE.INTER.VDW>
-15.7847

>  <SCORE.INTER.norm>
-1.4546

>  <SCORE.INTRA>
0

>  <SCORE.INTRA.DIHEDRAL>
0

>  <SCORE.INTRA.DIHEDRAL.0>
0

>  <SCORE.INTRA.POLAR>
0

>  <SCORE.INTRA.POLAR.0>
0

>  <SCORE.INTRA.REPUL>
0

>  <SCORE.INTRA.REPUL.0>
0

>  <SCORE.INTRA.SOLV>
0

>  <SCORE.INTRA.SOLV.lig_0>
-23.8918

>  <SCORE.INTRA.VDW>
0

>  <SCORE.INTRA.VDW.0>
0

>  <SCORE.INTRA.norm>
0

>  <SCORE.RESTR>
0

>  <SCORE.RESTR.CAVITY>
0

>  <SCORE.RESTR.norm>
0

>  <SCORE.SYSTEM>
0

>  <SCORE.SYSTEM.CONST>
0

>  <SCORE.SYSTEM.DIHEDRAL>
0

>  <SCORE.SYSTEM.SOLV>
0

>  <SCORE.SYSTEM.norm>
0

>  <SCORE.heavy>
10

>  <SCORE.norm>
-1.4546

>  <RMSD>
0.759

$$$$
ligand
 OpenBabel11021811513D
libRbt.so/2013.1/901 2013/11/27
 10 11  0  0  0  0  0  0  0  0999 V2000
    5.9004   17.4321    2.6308 N   0  0  0  0  0  0  0  0  0  0  0  0
    6.7773   18.4405    2.5554 C   0  0  0  0  0  0  0  0  0  0  0  0
    7.1780   19.2759    3.5125 N   0  0  0  0  0  0  0  0  0  0  0  0
    6.5698   18.9949    4.6754 C   0  0  0  0  0  0  0  0  0  0  0  0
    5.6474   17.9931    4.9086 C   0  0  0  0  0  0  0  0  0  0  0  0
    5.3056   17.1742    3.8143 C   0  0  0  0  0  0  0  0  0  0  0  0
    4.4297   16.1677    3.8939 N   0  0  0  0  0  0  0  0  0  0  0  0
    5.2357   18.0030    6.2310 N   0  0  0  0  0  0  0  0  0  0  0  0
    5.9069   18.9973    6.7622 C   0  0  0  0  0  0  0  0  0  0  0  0
    6.7310   19.6399    5.8804 N   0  0  0  0  0  0  0  0  0  0  0  0
  1  2  2  0  0  0  0
  1  6  1  0  0  0  0
  2  3  1  0  0  0  0
  3  4  2  0  0  0  0
  4  5  1  0  0  0  0
  4 10  1  0  0  0  0
  5  6  2  0  0  0  0
  5  8  1  0  0  0  0
  6  7  1  0  0  0  0
  8  9  1  0  0  0  0
  9 10  2  0  0  0  0
M  END
>  <CHROM.1>
5.96256115,18.20356876,4.48208760,-1.80682488,0.83615506,1.21014802

>  <Name>
ligand

>  <RI>
0

>  <Rbt.Current_Directory>
/home/itssahil/PROJECTS/Mol_Feturizer/New_Systems/rnas/4XNR

>  <Rbt.Executable>
rbdock ($Id: //depot/dev/client3/rdock/2013.1/src/exe/rbdock.cxx#4 $)

>  <Rbt.Library>
libRbt.so (2013.1, Build901 2013/11/27)

>  <Rbt.Parameter_File>
/export/apps/rDock/src/rDock_2013.1_src/data/scripts/dock_solv.prm

>  <Rbt.Receptor>
prm/pocket_docking_3.prm

>  <SCORE>
-14.5906

>  <SCORE.INTER>
-14.5906

>  <SCORE.INTER.CONST>
1

>  <SCORE.INTER.POLAR>
0

>  <SCORE.INTER.ROT>
0

>  <SCORE.INTER.SOLV>
7.65667

>  <SCORE.INTER.VDW>
-15.8793

>  <SCORE.INTER.norm>
-1.45906

>  <SCORE.INTRA>
0

>  <SCORE.INTRA.DIHEDRAL>
0

>  <SCORE.INTRA.DIHEDRAL.0>
0

>  <SCORE.INTRA.POLAR>
0

>  <SCORE.INTRA.POLAR.0>
0

>  <SCORE.INTRA.REPUL>
0

>  <SCORE.INTRA.REPUL.0>
0

>  <SCORE.INTRA.SOLV>
0

>  <SCORE.INTRA.SOLV.lig_0>
-23.8918

>  <SCORE.INTRA.VDW>
0

>  <SCORE.INTRA.VDW.0>
0

>  <SCORE.INTRA.norm>
0

>  <SCORE.RESTR>
0

>  <SCORE.RESTR.CAVITY>
0

>  <SCORE.RESTR.norm>
0

>  <SCORE.SYSTEM>
0

>  <SCORE.SYSTEM.CONST>
0

>  <SCORE.SYSTEM.DIHEDRAL>
0

>  <SCORE.SYSTEM.SOLV>
0

>  <SCORE.SYSTEM.norm>
0

>  <SCORE.heavy>
10

>  <SCORE.norm>
-1.45906

>  <RMSD>
0.760

$$$$
ligand
 OpenBabel11021811513D
libRbt.so/2013.1/901 2013/11/27
 10 11  0  0  0  0  0  0  0  0999 V2000
    5.9273   17.4136    2.6369 N   0  0  0  0  0  0  0  0  0  0  0  0
    6.8279   18.4015    2.5698 C   0  0  0  0  0  0  0  0  0  0  0  0
    7.2325   19.2331    3.5287 N   0  0  0  0  0  0  0  0  0  0  0  0
    6.6002   18.9723    4.6834 C   0  0  0  0  0  0  0  0  0  0  0  0
    5.6519   17.9930    4.9075 C   0  0  0  0  0  0  0  0  0  0  0  0
    5.3086   17.1758    3.8123 C   0  0  0  0  0  0  0  0  0  0  0  0
    4.4090   16.1898    3.8836 N   0  0  0  0  0  0  0  0  0  0  0  0
    5.2201   18.0196    6.2232 N   0  0  0  0  0  0  0  0  0  0  0  0
    5.9054   19.0015    6.7596 C   0  0  0  0  0  0  0  0  0  0  0  0
    6.7573   19.6203    5.8873 N   0  0  0  0  0  0  0  0  0  0  0  0
  1  2  2  0  0  0  0
  1  6  1  0  0  0  0
  2  3  1  0  0  0  0
  3  4  2  0  0  0  0
  4  5  1  0  0  0  0
  4 10  1  0  0  0  0
  5  6  2  0  0  0  0
  5  8  1  0  0  0  0
  6  7  1  0  0  0  0
  8  9  1  0  0  0  0
  9 10  2  0  0  0  0
M  END
>  <CHROM.1>
5.97827370,18.19385501,4.48484176,-1.79743676,0.80950417,1.19781136

>  <Name>
ligand

>  <RI>
0

>  <Rbt.Current_Directory>
/home/itssahil/PROJECTS/Mol_Feturizer/New_Systems/rnas/4XNR

>  <Rbt.Executable>
rbdock ($Id: //depot/dev/client3/rdock/2013.1/src/exe/rbdock.cxx#4 $)

>  <Rbt.Library>
libRbt.so (2013.1, Build901 2013/11/27)

>  <Rbt.Parameter_File>
/export/apps/rDock/src/rDock_2013.1_src/data/scripts/dock_solv.prm

>  <Rbt.Receptor>
prm/pocket_docking_4.prm

>  <SCORE>
-14.5848

>  <SCORE.INTER>
-14.5848

>  <SCORE.INTER.CONST>
1

>  <SCORE.INTER.POLAR>
0

>  <SCORE.INTER.ROT>
0

>  <SCORE.INTER.SOLV>
7.54029

>  <SCORE.INTER.VDW>
-15.8366

>  <SCORE.INTER.norm>
-1.45848

>  <SCORE.INTRA>
0

>  <SCORE.INTRA.DIHEDRAL>
0

>  <SCORE.INTRA.DIHEDRAL.0>
0

>  <SCORE.INTRA.POLAR>
0

>  <SCORE.INTRA.POLAR.0>
0

>  <SCORE.INTRA.REPUL>
0

>  <SCORE.INTRA.REPUL.0>
0

>  <SCORE.INTRA.SOLV>
0

>  <SCORE.INTRA.SOLV.lig_0>
-23.8918

>  <SCORE.INTRA.VDW>
0

>  <SCORE.INTRA.VDW.0>
0

>  <SCORE.INTRA.norm>
0

>  <SCORE.RESTR>
0

>  <SCORE.RESTR.CAVITY>
0

>  <SCORE.RESTR.norm>
0

>  <SCORE.SYSTEM>
0

>  <SCORE.SYSTEM.CONST>
0

>  <SCORE.SYSTEM.DIHEDRAL>
0

>  <SCORE.SYSTEM.SOLV>
0

>  <SCORE.SYSTEM.norm>
0

>  <SCORE.heavy>
10

>  <SCORE.norm>
-1.45848

>  <RMSD>
0.760

$$$$
ligand
 OpenBabel11021811513D
libRbt.so/2013.1/901 2013/11/27
 10 11  0  0  0  0  0  0  0  0999 V2000
    5.9160   17.4227    2.6328 N   0  0  0  0  0  0  0  0  0  0  0  0
    6.8125   18.4145    2.5690 C   0  0  0  0  0  0  0  0  0  0  0  0
    7.2175   19.2413    3.5319 N   0  0  0  0  0  0  0  0  0  0  0  0
    6.5904   18.9705    4.6872 C   0  0  0  0  0  0  0  0  0  0  0  0
    5.6467   17.9860    4.9082 C   0  0  0  0  0  0  0  0  0  0  0  0
    5.3025   17.1748    3.8089 C   0  0  0  0  0  0  0  0  0  0  0  0
    4.4069   16.1849    3.8769 N   0  0  0  0  0  0  0  0  0  0  0  0
    5.2196   18.0023    6.2256 N   0  0  0  0  0  0  0  0  0  0  0  0
    5.9031   18.9833    6.7660 C   0  0  0  0  0  0  0  0  0  0  0  0
    6.7495   19.6111    5.8948 N   0  0  0  0  0  0  0  0  0  0  0  0
  1  2  2  0  0  0  0
  1  6  1  0  0  0  0
  2  3  1  0  0  0  0
  3  4  2  0  0  0  0
  4  5  1  0  0  0  0
  4 10  1  0  0  0  0
  5  6  2  0  0  0  0
  5  8  1  0  0  0  0
  6  7  1  0  0  0  0
  8  9  1  0  0  0  0
  9 10  2  0  0  0  0
M  END
>  <CHROM.1>
5.97074589,18.19095607,4.48570961,-1.80037745,0.81437303,1.20655820

>  <Name>
ligand

>  <RI>
0

>  <Rbt.Current_Directory>
/home/itssahil/PROJECTS/Mol_Feturizer/New_Systems/rnas/4XNR

>  <Rbt.Executable>
rbdock ($Id: //depot/dev/client3/rdock/2013.1/src/exe/rbdock.cxx#4 $)

>  <Rbt.Library>
libRbt.so (2013.1, Build901 2013/11/27)

>  <Rbt.Parameter_File>
/export/apps/rDock/src/rDock_2013.1_src/data/scripts/dock_solv.prm

>  <Rbt.Receptor>
prm/pocket_docking_5.prm

>  <SCORE>
-14.5748

>  <SCORE.INTER>
-14.5748

>  <SCORE.INTER.CONST>
1

>  <SCORE.INTER.POLAR>
0

>  <SCORE.INTER.ROT>
0

>  <SCORE.INTER.SOLV>
7.53166

>  <SCORE.INTER.VDW>
-15.8271

>  <SCORE.INTER.norm>
-1.45748

>  <SCORE.INTRA>
0

>  <SCORE.INTRA.DIHEDRAL>
0

>  <SCORE.INTRA.DIHEDRAL.0>
0

>  <SCORE.INTRA.POLAR>
0

>  <SCORE.INTRA.POLAR.0>
0

>  <SCORE.INTRA.REPUL>
0

>  <SCORE.INTRA.REPUL.0>
0

>  <SCORE.INTRA.SOLV>
0

>  <SCORE.INTRA.SOLV.lig_0>
-23.8918

>  <SCORE.INTRA.VDW>
0

>  <SCORE.INTRA.VDW.0>
0

>  <SCORE.INTRA.norm>
0

>  <SCORE.RESTR>
0

>  <SCORE.RESTR.CAVITY>
0

>  <SCORE.RESTR.norm>
0

>  <SCORE.SYSTEM>
0

>  <SCORE.SYSTEM.CONST>
0

>  <SCORE.SYSTEM.DIHEDRAL>
0

>  <SCORE.SYSTEM.SOLV>
0

>  <SCORE.SYSTEM.norm>
0

>  <SCORE.heavy>
10

>  <SCORE.norm>
-1.45748

>  <RMSD>
0.760

$$$$
ligand
 OpenBabel11021811513D
libRbt.so/2013.1/901 2013/11/27
 10 11  0  0  0  0  0  0  0  0999 V2000
    5.8973   17.4342    2.6308 N   0  0  0  0  0  0  0  0  0  0  0  0
    6.7654   18.4499    2.5524 C   0  0  0  0  0  0  0  0  0  0  0  0
    7.1619   19.2890    3.5080 N   0  0  0  0  0  0  0  0  0  0  0  0
    6.5597   19.0032    4.6729 C   0  0  0  0  0  0  0  0  0  0  0  0
    5.6466   17.9938    4.9093 C   0  0  0  0  0  0  0  0  0  0  0  0
    5.3083   17.1716    3.8162 C   0  0  0  0  0  0  0  0  0  0  0  0
    4.4412   16.1577    3.8989 N   0  0  0  0  0  0  0  0  0  0  0  0
    5.2389   18.0006    6.2329 N   0  0  0  0  0  0  0  0  0  0  0  0
    5.9033   19.0008    6.7617 C   0  0  0  0  0  0  0  0  0  0  0  0
    6.7192   19.6500    5.8771 N   0  0  0  0  0  0  0  0  0  0  0  0
  1  2  2  0  0  0  0
  1  6  1  0  0  0  0
  2  3  1  0  0  0  0
  3  4  2  0  0  0  0
  4  5  1  0  0  0  0
  4 10  1  0  0  0  0
  5  6  2  0  0  0  0
  5  8  1  0  0  0  0
  6  7  1  0  0  0  0
  8  9  1  0  0  0  0
  9 10  2  0  0  0  0
M  END
>  <CHROM.1>
5.95860973,18.20674318,4.48169715,-1.80669200,0.84517637,1.20972091

>  <Name>
ligand

>  <RI>
0

>  <Rbt.Current_Directory>
/home/itssahil/PROJECTS/Mol_Feturizer/New_Systems/rnas/4XNR

>  <Rbt.Executable>
rbdock ($Id: //depot/dev/client3/rdock/2013.1/src/exe/rbdock.cxx#4 $)

>  <Rbt.Library>
libRbt.so (2013.1, Build901 2013/11/27)

>  <Rbt.Parameter_File>
/export/apps/rDock/src/rDock_2013.1_src/data/scripts/dock_solv.prm

>  <Rbt.Receptor>
prm/pocket_docking_5.prm

>  <SCORE>
-14.5951

>  <SCORE.INTER>
-14.5951

>  <SCORE.INTER.CONST>
1

>  <SCORE.INTER.POLAR>
0

>  <SCORE.INTER.ROT>
0

>  <SCORE.INTER.SOLV>
7.71468

>  <SCORE.INTER.VDW>
-15.9016

>  <SCORE.INTER.norm>
-1.45951

>  <SCORE.INTRA>
0

>  <SCORE.INTRA.DIHEDRAL>
0

>  <SCORE.INTRA.DIHEDRAL.0>
0

>  <SCORE.INTRA.POLAR>
0

>  <SCORE.INTRA.POLAR.0>
0

>  <SCORE.INTRA.REPUL>
0

>  <SCORE.INTRA.REPUL.0>
0

>  <SCORE.INTRA.SOLV>
0

>  <SCORE.INTRA.SOLV.lig_0>
-23.8918

>  <SCORE.INTRA.VDW>
0

>  <SCORE.INTRA.VDW.0>
0

>  <SCORE.INTRA.norm>
0

>  <SCORE.RESTR>
0

>  <SCORE.RESTR.CAVITY>
0

>  <SCORE.RESTR.norm>
0

>  <SCORE.SYSTEM>
0

>  <SCORE.SYSTEM.CONST>
0

>  <SCORE.SYSTEM.DIHEDRAL>
0

>  <SCORE.SYSTEM.SOLV>
0

>  <SCORE.SYSTEM.norm>
0

>  <SCORE.heavy>
10

>  <SCORE.norm>
-1.45951

>  <RMSD>
0.760

$$$$
ligand
 OpenBabel11021811513D
libRbt.so/2013.1/901 2013/11/27
 10 11  0  0  0  0  0  0  0  0999 V2000
    5.9042   17.4345    2.6298 N   0  0  0  0  0  0  0  0  0  0  0  0
    6.7718   18.4508    2.5541 C   0  0  0  0  0  0  0  0  0  0  0  0
    7.1659   19.2892    3.5114 N   0  0  0  0  0  0  0  0  0  0  0  0
    6.5617   19.0018    4.6748 C   0  0  0  0  0  0  0  0  0  0  0  0
    5.6487   17.9915    4.9083 C   0  0  0  0  0  0  0  0  0  0  0  0
    5.3131   17.1703    3.8138 C   0  0  0  0  0  0  0  0  0  0  0  0
    4.4465   16.1558    3.8937 N   0  0  0  0  0  0  0  0  0  0  0  0
    5.2385   17.9968    6.2312 N   0  0  0  0  0  0  0  0  0  0  0  0
    5.9013   18.9968    6.7623 C   0  0  0  0  0  0  0  0  0  0  0  0
    6.7184   19.6474    5.8800 N   0  0  0  0  0  0  0  0  0  0  0  0
  1  2  2  0  0  0  0
  1  6  1  0  0  0  0
  2  3  1  0  0  0  0
  3  4  2  0  0  0  0
  4  5  1  0  0  0  0
  4 10  1  0  0  0  0
  5  6  2  0  0  0  0
  5  8  1  0  0  0  0
  6  7  1  0  0  0  0
  8  9  1  0  0  0  0
  9 10  2  0  0  0  0
M  END
>  <CHROM.1>
5.96147535,18.20514434,4.48157897,-1.80364267,0.84506443,1.20848447

>  <Name>
ligand

>  <RI>
0

>  <Rbt.Current_Directory>
/home/itssahil/PROJECTS/Mol_Feturizer/New_Systems/rnas/4XNR

>  <Rbt.Executable>
rbdock ($Id: //depot/dev/client3/rdock/2013.1/src/exe/rbdock.cxx#4 $)

>  <Rbt.Library>
libRbt.so (2013.1, Build901 2013/11/27)

>  <Rbt.Parameter_File>
/export/apps/rDock/src/rDock_2013.1_src/data/scripts/dock_solv.prm

>  <Rbt.Receptor>
prm/pocket_docking_6.prm

>  <SCORE>
-14.5934

>  <SCORE.INTER>
-14.5934

>  <SCORE.INTER.CONST>
1

>  <SCORE.INTER.POLAR>
0

>  <SCORE.INTER.ROT>
0

>  <SCORE.INTER.SOLV>
7.71628

>  <SCORE.INTER.VDW>
-15.901

>  <SCORE.INTER.norm>
-1.45934

>  <SCORE.INTRA>
0

>  <SCORE.INTRA.DIHEDRAL>
0

>  <SCORE.INTRA.DIHEDRAL.0>
0

>  <SCORE.INTRA.POLAR>
0

>  <SCORE.INTRA.POLAR.0>
0

>  <SCORE.INTRA.REPUL>
0

>  <SCORE.INTRA.REPUL.0>
0

>  <SCORE.INTRA.SOLV>
0

>  <SCORE.INTRA.SOLV.lig_0>
-23.8918

>  <SCORE.INTRA.VDW>
0

>  <SCORE.INTRA.VDW.0>
0

>  <SCORE.INTRA.norm>
0

>  <SCORE.RESTR>
0

>  <SCORE.RESTR.CAVITY>
0

>  <SCORE.RESTR.norm>
0

>  <SCORE.SYSTEM>
0

>  <SCORE.SYSTEM.CONST>
0

>  <SCORE.SYSTEM.DIHEDRAL>
0

>  <SCORE.SYSTEM.SOLV>
0

>  <SCORE.SYSTEM.norm>
0

>  <SCORE.heavy>
10

>  <SCORE.norm>
-1.45934

>  <RMSD>
0.760

$$$$
ligand
 OpenBabel11021811513D
libRbt.so/2013.1/901 2013/11/27
 10 11  0  0  0  0  0  0  0  0999 V2000
    5.9612   17.4795    2.6023 N   0  0  0  0  0  0  0  0  0  0  0  0
    6.7629   18.5496    2.5429 C   0  0  0  0  0  0  0  0  0  0  0  0
    7.1094   19.3921    3.5150 N   0  0  0  0  0  0  0  0  0  0  0  0
    6.5314   19.0444    4.6752 C   0  0  0  0  0  0  0  0  0  0  0  0
    5.6850   17.9744    4.8928 C   0  0  0  0  0  0  0  0  0  0  0  0
    5.3949   17.1554    3.7836 C   0  0  0  0  0  0  0  0  0  0  0  0
    4.5941   16.0871    3.8473 N   0  0  0  0  0  0  0  0  0  0  0  0
    5.2832   17.9277    6.2174 N   0  0  0  0  0  0  0  0  0  0  0  0
    5.8851   18.9567    6.7653 C   0  0  0  0  0  0  0  0  0  0  0  0
    6.6545   19.6747    5.8924 N   0  0  0  0  0  0  0  0  0  0  0  0
  1  2  2  0  0  0  0
  1  6  1  0  0  0  0
  2  3  1  0  0  0  0
  3  4  2  0  0  0  0
  4  5  1  0  0  0  0
  4 10  1  0  0  0  0
  5  6  2  0  0  0  0
  5  8  1  0  0  0  0
  6  7  1  0  0  0  0
  8  9  1  0  0  0  0
  9 10  2  0  0  0  0
M  END
>  <CHROM.1>
5.98111612,18.21556183,4.46891743,-1.77669994,0.90569734,1.20770521

>  <Name>
ligand

>  <RI>
0

>  <Rbt.Current_Directory>
/home/itssahil/PROJECTS/Mol_Feturizer/New_Systems/rnas/4XNR

>  <Rbt.Executable>
rbdock ($Id: //depot/dev/client3/rdock/2013.1/src/exe/rbdock.cxx#4 $)

>  <Rbt.Library>
libRbt.so (2013.1, Build901 2013/11/27)

>  <Rbt.Parameter_File>
/export/apps/rDock/src/rDock_2013.1_src/data/scripts/dock_solv.prm

>  <Rbt.Receptor>
prm/pocket_docking_8.prm

>  <SCORE>
-14.5439

>  <SCORE.INTER>
-14.5439

>  <SCORE.INTER.CONST>
1

>  <SCORE.INTER.POLAR>
0

>  <SCORE.INTER.ROT>
0

>  <SCORE.INTER.SOLV>
8.13532

>  <SCORE.INTER.VDW>
-16.0077

>  <SCORE.INTER.norm>
-1.45439

>  <SCORE.INTRA>
0

>  <SCORE.INTRA.DIHEDRAL>
0

>  <SCORE.INTRA.DIHEDRAL.0>
0

>  <SCORE.INTRA.POLAR>
0

>  <SCORE.INTRA.POLAR.0>
0

>  <SCORE.INTRA.REPUL>
0

>  <SCORE.INTRA.REPUL.0>
0

>  <SCORE.INTRA.SOLV>
0

>  <SCORE.INTRA.SOLV.lig_0>
-23.8918

>  <SCORE.INTRA.VDW>
0

>  <SCORE.INTRA.VDW.0>
0

>  <SCORE.INTRA.norm>
0

>  <SCORE.RESTR>
0

>  <SCORE.RESTR.CAVITY>
0

>  <SCORE.RESTR.norm>
0

>  <SCORE.SYSTEM>
0

>  <SCORE.SYSTEM.CONST>
0

>  <SCORE.SYSTEM.DIHEDRAL>
0

>  <SCORE.SYSTEM.SOLV>
0

>  <SCORE.SYSTEM.norm>
0

>  <SCORE.heavy>
10

>  <SCORE.norm>
-1.45439

>  <RMSD>
0.760

$$$$
ligand
 OpenBabel11021811513D
libRbt.so/2013.1/901 2013/11/27
 10 11  0  0  0  0  0  0  0  0999 V2000
    5.9061   17.4164    2.6358 N   0  0  0  0  0  0  0  0  0  0  0  0
    6.7987   18.4115    2.5700 C   0  0  0  0  0  0  0  0  0  0  0  0
    7.2029   19.2396    3.5321 N   0  0  0  0  0  0  0  0  0  0  0  0
    6.5798   18.9662    4.6889 C   0  0  0  0  0  0  0  0  0  0  0  0
    5.6403   17.9781    4.9120 C   0  0  0  0  0  0  0  0  0  0  0  0
    5.2964   17.1659    3.8133 C   0  0  0  0  0  0  0  0  0  0  0  0
    4.4047   16.1726    3.8833 N   0  0  0  0  0  0  0  0  0  0  0  0
    5.2164   17.9925    6.2305 N   0  0  0  0  0  0  0  0  0  0  0  0
    5.8975   18.9759    6.7694 C   0  0  0  0  0  0  0  0  0  0  0  0
    6.7394   19.6071    5.8962 N   0  0  0  0  0  0  0  0  0  0  0  0
  1  2  2  0  0  0  0
  1  6  1  0  0  0  0
  2  3  1  0  0  0  0
  3  4  2  0  0  0  0
  4  5  1  0  0  0  0
  4 10  1  0  0  0  0
  5  6  2  0  0  0  0
  5  8  1  0  0  0  0
  6  7  1  0  0  0  0
  8  9  1  0  0  0  0
  9 10  2  0  0  0  0
M  END
>  <CHROM.1>
5.96251611,18.18437325,4.48873795,-1.80181753,0.81874465,1.20784812

>  <Name>
ligand

>  <RI>
0

>  <Rbt.Current_Directory>
/home/itssahil/PROJECTS/Mol_Feturizer/New_Systems/rnas/4XNR

>  <Rbt.Executable>
rbdock ($Id: //depot/dev/client3/rdock/2013.1/src/exe/rbdock.cxx#4 $)

>  <Rbt.Library>
libRbt.so (2013.1, Build901 2013/11/27)

>  <Rbt.Parameter_File>
/export/apps/rDock/src/rDock_2013.1_src/data/scripts/dock_solv.prm

>  <Rbt.Receptor>
prm/pocket_docking_8.prm

>  <SCORE>
-14.5792

>  <SCORE.INTER>
-14.5792

>  <SCORE.INTER.CONST>
1

>  <SCORE.INTER.POLAR>
0

>  <SCORE.INTER.ROT>
0

>  <SCORE.INTER.SOLV>
7.56394

>  <SCORE.INTER.VDW>
-15.8408

>  <SCORE.INTER.norm>
-1.45792

>  <SCORE.INTRA>
0

>  <SCORE.INTRA.DIHEDRAL>
0

>  <SCORE.INTRA.DIHEDRAL.0>
0

>  <SCORE.INTRA.POLAR>
0

>  <SCORE.INTRA.POLAR.0>
0

>  <SCORE.INTRA.REPUL>
0

>  <SCORE.INTRA.REPUL.0>
0

>  <SCORE.INTRA.SOLV>
0

>  <SCORE.INTRA.SOLV.lig_0>
-23.8918

>  <SCORE.INTRA.VDW>
0

>  <SCORE.INTRA.VDW.0>
0

>  <SCORE.INTRA.norm>
0

>  <SCORE.RESTR>
0

>  <SCORE.RESTR.CAVITY>
0

>  <SCORE.RESTR.norm>
0

>  <SCORE.SYSTEM>
0

>  <SCORE.SYSTEM.CONST>
0

>  <SCORE.SYSTEM.DIHEDRAL>
0

>  <SCORE.SYSTEM.SOLV>
0

>  <SCORE.SYSTEM.norm>
0

>  <SCORE.heavy>
10

>  <SCORE.norm>
-1.45792

>  <RMSD>
0.760

$$$$
ligand
 OpenBabel11021811513D
libRbt.so/2013.1/901 2013/11/27
 10 11  0  0  0  0  0  0  0  0999 V2000
    5.9213   17.3818    2.6539 N   0  0  0  0  0  0  0  0  0  0  0  0
    6.8252   18.3664    2.5846 C   0  0  0  0  0  0  0  0  0  0  0  0
    7.2299   19.2013    3.5406 N   0  0  0  0  0  0  0  0  0  0  0  0
    6.5935   18.9481    4.6948 C   0  0  0  0  0  0  0  0  0  0  0  0
    5.6413   17.9730    4.9209 C   0  0  0  0  0  0  0  0  0  0  0  0
    5.2984   17.1517    3.8286 C   0  0  0  0  0  0  0  0  0  0  0  0
    4.3954   16.1690    3.9021 N   0  0  0  0  0  0  0  0  0  0  0  0
    5.2059   18.0074    6.2352 N   0  0  0  0  0  0  0  0  0  0  0  0
    5.8929   18.9896    6.7688 C   0  0  0  0  0  0  0  0  0  0  0  0
    6.7493   19.6014    5.8960 N   0  0  0  0  0  0  0  0  0  0  0  0
  1  2  2  0  0  0  0
  1  6  1  0  0  0  0
  2  3  1  0  0  0  0
  3  4  2  0  0  0  0
  4  5  1  0  0  0  0
  4 10  1  0  0  0  0
  5  6  2  0  0  0  0
  5  8  1  0  0  0  0
  6  7  1  0  0  0  0
  8  9  1  0  0  0  0
  9 10  2  0  0  0  0
M  END
>  <CHROM.1>
5.96955508,18.17076097,4.49816915,-1.79536780,0.80540787,1.19150411

>  <Name>
ligand

>  <RI>
0

>  <Rbt.Current_Directory>
/home/itssahil/PROJECTS/Mol_Feturizer/New_Systems/rnas/4XNR

>  <Rbt.Executable>
rbdock ($Id: //depot/dev/client3/rdock/2013.1/src/exe/rbdock.cxx#4 $)

>  <Rbt.Library>
libRbt.so (2013.1, Build901 2013/11/27)

>  <Rbt.Parameter_File>
/export/apps/rDock/src/rDock_2013.1_src/data/scripts/dock_solv.prm

>  <Rbt.Receptor>
prm/pocket_docking_5.prm

>  <SCORE>
-14.5665

>  <SCORE.INTER>
-14.5665

>  <SCORE.INTER.CONST>
1

>  <SCORE.INTER.POLAR>
0

>  <SCORE.INTER.ROT>
0

>  <SCORE.INTER.SOLV>
7.60163

>  <SCORE.INTER.VDW>
-15.8449

>  <SCORE.INTER.norm>
-1.45665

>  <SCORE.INTRA>
0

>  <SCORE.INTRA.DIHEDRAL>
0

>  <SCORE.INTRA.DIHEDRAL.0>
0

>  <SCORE.INTRA.POLAR>
0

>  <SCORE.INTRA.POLAR.0>
0

>  <SCORE.INTRA.REPUL>
0

>  <SCORE.INTRA.REPUL.0>
0

>  <SCORE.INTRA.SOLV>
0

>  <SCORE.INTRA.SOLV.lig_0>
-23.8918

>  <SCORE.INTRA.VDW>
0

>  <SCORE.INTRA.VDW.0>
0

>  <SCORE.INTRA.norm>
0

>  <SCORE.RESTR>
0

>  <SCORE.RESTR.CAVITY>
0

>  <SCORE.RESTR.norm>
0

>  <SCORE.SYSTEM>
0

>  <SCORE.SYSTEM.CONST>
0

>  <SCORE.SYSTEM.DIHEDRAL>
0

>  <SCORE.SYSTEM.SOLV>
0

>  <SCORE.SYSTEM.norm>
0

>  <SCORE.heavy>
10

>  <SCORE.norm>
-1.45665

>  <RMSD>
0.761

$$$$
ligand
 OpenBabel11021811513D
libRbt.so/2013.1/901 2013/11/27
 10 11  0  0  0  0  0  0  0  0999 V2000
    5.8346   17.5454    2.5642 N   0  0  0  0  0  0  0  0  0  0  0  0
    6.7314   18.5376    2.5120 C   0  0  0  0  0  0  0  0  0  0  0  0
    7.1606   19.3316    3.4918 N   0  0  0  0  0  0  0  0  0  0  0  0
    6.5606   19.0234    4.6521 C   0  0  0  0  0  0  0  0  0  0  0  0
    5.6204   18.0333    4.8627 C   0  0  0  0  0  0  0  0  0  0  0  0
    5.2486   17.2594    3.7456 C   0  0  0  0  0  0  0  0  0  0  0  0
    4.3530   16.2688    3.8021 N   0  0  0  0  0  0  0  0  0  0  0  0
    5.2247   18.0064    6.1897 N   0  0  0  0  0  0  0  0  0  0  0  0
    5.9227   18.9681    6.7459 C   0  0  0  0  0  0  0  0  0  0  0  0
    6.7494   19.6235    5.8761 N   0  0  0  0  0  0  0  0  0  0  0  0
  1  2  2  0  0  0  0
  1  6  1  0  0  0  0
  2  3  1  0  0  0  0
  3  4  2  0  0  0  0
  4  5  1  0  0  0  0
  4 10  1  0  0  0  0
  5  6  2  0  0  0  0
  5  8  1  0  0  0  0
  6  7  1  0  0  0  0
  8  9  1  0  0  0  0
  9 10  2  0  0  0  0
M  END
>  <CHROM.1>
5.93475057,18.25171066,4.43965534,-1.83387598,0.82067838,1.26412129

>  <Name>
ligand

>  <RI>
0

>  <Rbt.Current_Directory>
/home/itssahil/PROJECTS/Mol_Feturizer/New_Systems/rnas/4XNR

>  <Rbt.Executable>
rbdock ($Id: //depot/dev/client3/rdock/2013.1/src/exe/rbdock.cxx#4 $)

>  <Rbt.Library>
libRbt.so (2013.1, Build901 2013/11/27)

>  <Rbt.Parameter_File>
/export/apps/rDock/src/rDock_2013.1_src/data/scripts/dock_solv.prm

>  <Rbt.Receptor>
prm/pocket_docking_7.prm

>  <SCORE>
-14.5373

>  <SCORE.INTER>
-14.5373

>  <SCORE.INTER.CONST>
1

>  <SCORE.INTER.POLAR>
0

>  <SCORE.INTER.ROT>
0

>  <SCORE.INTER.SOLV>
7.18379

>  <SCORE.INTER.VDW>
-15.6861

>  <SCORE.INTER.norm>
-1.45373

>  <SCORE.INTRA>
0

>  <SCORE.INTRA.DIHEDRAL>
0

>  <SCORE.INTRA.DIHEDRAL.0>
0

>  <SCORE.INTRA.POLAR>
0

>  <SCORE.INTRA.POLAR.0>
0

>  <SCORE.INTRA.REPUL>
0

>  <SCORE.INTRA.REPUL.0>
0

>  <SCORE.INTRA.SOLV>
0

>  <SCORE.INTRA.SOLV.lig_0>
-23.8918

>  <SCORE.INTRA.VDW>
0

>  <SCORE.INTRA.VDW.0>
0

>  <SCORE.INTRA.norm>
0

>  <SCORE.RESTR>
0

>  <SCORE.RESTR.CAVITY>
0

>  <SCORE.RESTR.norm>
0

>  <SCORE.SYSTEM>
0

>  <SCORE.SYSTEM.CONST>
0

>  <SCORE.SYSTEM.DIHEDRAL>
0

>  <SCORE.SYSTEM.SOLV>
0

>  <SCORE.SYSTEM.norm>
0

>  <SCORE.heavy>
10

>  <SCORE.norm>
-1.45373

>  <RMSD>
0.761

$$$$
ligand
 OpenBabel11021811513D
libRbt.so/2013.1/901 2013/11/27
 10 11  0  0  0  0  0  0  0  0999 V2000
    5.9016   17.4352    2.6326 N   0  0  0  0  0  0  0  0  0  0  0  0
    6.7519   18.4655    2.5504 C   0  0  0  0  0  0  0  0  0  0  0  0
    7.1376   19.3119    3.5041 N   0  0  0  0  0  0  0  0  0  0  0  0
    6.5448   19.0165    4.6713 C   0  0  0  0  0  0  0  0  0  0  0  0
    5.6499   17.9918    4.9117 C   0  0  0  0  0  0  0  0  0  0  0  0
    5.3216   17.1633    3.8204 C   0  0  0  0  0  0  0  0  0  0  0  0
    4.4723   16.1348    3.9069 N   0  0  0  0  0  0  0  0  0  0  0  0
    5.2471   17.9925    6.2368 N   0  0  0  0  0  0  0  0  0  0  0  0
    5.8963   19.0042    6.7626 C   0  0  0  0  0  0  0  0  0  0  0  0
    6.6976   19.6667    5.8746 N   0  0  0  0  0  0  0  0  0  0  0  0
  1  2  2  0  0  0  0
  1  6  1  0  0  0  0
  2  3  1  0  0  0  0
  3  4  2  0  0  0  0
  4  5  1  0  0  0  0
  4 10  1  0  0  0  0
  5  6  2  0  0  0  0
  5  8  1  0  0  0  0
  6  7  1  0  0  0  0
  8  9  1  0  0  0  0
  9 10  2  0  0  0  0
M  END
>  <CHROM.1>
5.95663349,18.20979679,4.48281739,-1.80279116,0.86245974,1.20619964

>  <Name>
ligand

>  <RI>
0

>  <Rbt.Current_Directory>
/home/itssahil/PROJECTS/Mol_Feturizer/New_Systems/rnas/4XNR

>  <Rbt.Executable>
rbdock ($Id: //depot/dev/client3/rdock/2013.1/src/exe/rbdock.cxx#4 $)

>  <Rbt.Library>
libRbt.so (2013.1, Build901 2013/11/27)

>  <Rbt.Parameter_File>
/export/apps/rDock/src/rDock_2013.1_src/data/scripts/dock_solv.prm

>  <Rbt.Receptor>
prm/pocket_docking_7.prm

>  <SCORE>
-14.5574

>  <SCORE.INTER>
-14.5574

>  <SCORE.INTER.CONST>
1

>  <SCORE.INTER.POLAR>
0

>  <SCORE.INTER.ROT>
0

>  <SCORE.INTER.SOLV>
7.85241

>  <SCORE.INTER.VDW>
-15.9224

>  <SCORE.INTER.norm>
-1.45574

>  <SCORE.INTRA>
0

>  <SCORE.INTRA.DIHEDRAL>
0

>  <SCORE.INTRA.DIHEDRAL.0>
0

>  <SCORE.INTRA.POLAR>
0

>  <SCORE.INTRA.POLAR.0>
0

>  <SCORE.INTRA.REPUL>
0

>  <SCORE.INTRA.REPUL.0>
0

>  <SCORE.INTRA.SOLV>
0

>  <SCORE.INTRA.SOLV.lig_0>
-23.8918

>  <SCORE.INTRA.VDW>
0

>  <SCORE.INTRA.VDW.0>
0

>  <SCORE.INTRA.norm>
0

>  <SCORE.RESTR>
0

>  <SCORE.RESTR.CAVITY>
0

>  <SCORE.RESTR.norm>
0

>  <SCORE.SYSTEM>
0

>  <SCORE.SYSTEM.CONST>
0

>  <SCORE.SYSTEM.DIHEDRAL>
0

>  <SCORE.SYSTEM.SOLV>
0

>  <SCORE.SYSTEM.norm>
0

>  <SCORE.heavy>
10

>  <SCORE.norm>
-1.45574

>  <RMSD>
0.761

$$$$
ligand
 OpenBabel11021811513D
libRbt.so/2013.1/901 2013/11/27
 10 11  0  0  0  0  0  0  0  0999 V2000
    5.8515   17.5449    2.5650 N   0  0  0  0  0  0  0  0  0  0  0  0
    6.7501   18.5358    2.5198 C   0  0  0  0  0  0  0  0  0  0  0  0
    7.1747   19.3275    3.5035 N   0  0  0  0  0  0  0  0  0  0  0  0
    6.5673   19.0183    4.6596 C   0  0  0  0  0  0  0  0  0  0  0  0
    5.6243   18.0294    4.8630 C   0  0  0  0  0  0  0  0  0  0  0  0
    5.2580   17.2579    3.7424 C   0  0  0  0  0  0  0  0  0  0  0  0
    4.3604   16.2687    3.7920 N   0  0  0  0  0  0  0  0  0  0  0  0
    5.2206   18.0010    6.1876 N   0  0  0  0  0  0  0  0  0  0  0  0
    5.9168   18.9607    6.7495 C   0  0  0  0  0  0  0  0  0  0  0  0
    6.7498   19.6161    5.8857 N   0  0  0  0  0  0  0  0  0  0  0  0
  1  2  2  0  0  0  0
  1  6  1  0  0  0  0
  2  3  1  0  0  0  0
  3  4  2  0  0  0  0
  4  5  1  0  0  0  0
  4 10  1  0  0  0  0
  5  6  2  0  0  0  0
  5  8  1  0  0  0  0
  6  7  1  0  0  0  0
  8  9  1  0  0  0  0
  9 10  2  0  0  0  0
M  END
>  <CHROM.1>
5.94151464,18.24801638,4.44219975,-1.82624997,0.81735491,1.26019448

>  <Name>
ligand

>  <RI>
0

>  <Rbt.Current_Directory>
/home/itssahil/PROJECTS/Mol_Feturizer/New_Systems/rnas/4XNR

>  <Rbt.Executable>
rbdock ($Id: //depot/dev/client3/rdock/2013.1/src/exe/rbdock.cxx#4 $)

>  <Rbt.Library>
libRbt.so (2013.1, Build901 2013/11/27)

>  <Rbt.Parameter_File>
/export/apps/rDock/src/rDock_2013.1_src/data/scripts/dock_solv.prm

>  <Rbt.Receptor>
prm/blind_docking_80.prm

>  <SCORE>
-14.5397

>  <SCORE.INTER>
-14.5397

>  <SCORE.INTER.CONST>
1

>  <SCORE.INTER.POLAR>
0

>  <SCORE.INTER.ROT>
0

>  <SCORE.INTER.SOLV>
7.17403

>  <SCORE.INTER.VDW>
-15.6845

>  <SCORE.INTER.norm>
-1.45397

>  <SCORE.INTRA>
0

>  <SCORE.INTRA.DIHEDRAL>
0

>  <SCORE.INTRA.DIHEDRAL.0>
0

>  <SCORE.INTRA.POLAR>
0

>  <SCORE.INTRA.POLAR.0>
0

>  <SCORE.INTRA.REPUL>
0

>  <SCORE.INTRA.REPUL.0>
0

>  <SCORE.INTRA.SOLV>
0

>  <SCORE.INTRA.SOLV.lig_0>
-23.8918

>  <SCORE.INTRA.VDW>
0

>  <SCORE.INTRA.VDW.0>
0

>  <SCORE.INTRA.norm>
0

>  <SCORE.RESTR>
0

>  <SCORE.RESTR.CAVITY>
0

>  <SCORE.RESTR.norm>
0

>  <SCORE.SYSTEM>
0

>  <SCORE.SYSTEM.CONST>
0

>  <SCORE.SYSTEM.DIHEDRAL>
0

>  <SCORE.SYSTEM.SOLV>
0

>  <SCORE.SYSTEM.norm>
0

>  <SCORE.heavy>
10

>  <SCORE.norm>
-1.45397

>  <RMSD>
0.762

$$$$
ligand
 OpenBabel11021811513D
libRbt.so/2013.1/901 2013/11/27
 10 11  0  0  0  0  0  0  0  0999 V2000
    5.9315   17.4171    2.6380 N   0  0  0  0  0  0  0  0  0  0  0  0
    6.8273   18.4095    2.5735 C   0  0  0  0  0  0  0  0  0  0  0  0
    7.2298   19.2389    3.5352 N   0  0  0  0  0  0  0  0  0  0  0  0
    6.6008   18.9702    4.6900 C   0  0  0  0  0  0  0  0  0  0  0  0
    5.6575   17.9855    4.9116 C   0  0  0  0  0  0  0  0  0  0  0  0
    5.3160   17.1715    3.8135 C   0  0  0  0  0  0  0  0  0  0  0  0
    4.4211   16.1810    3.8822 N   0  0  0  0  0  0  0  0  0  0  0  0
    5.2280   18.0045    6.2282 N   0  0  0  0  0  0  0  0  0  0  0  0
    5.9096   18.9873    6.7675 C   0  0  0  0  0  0  0  0  0  0  0  0
    6.7571   19.6138    5.8963 N   0  0  0  0  0  0  0  0  0  0  0  0
  1  2  2  0  0  0  0
  1  6  1  0  0  0  0
  2  3  1  0  0  0  0
  3  4  2  0  0  0  0
  4  5  1  0  0  0  0
  4 10  1  0  0  0  0
  5  6  2  0  0  0  0
  5  8  1  0  0  0  0
  6  7  1  0  0  0  0
  8  9  1  0  0  0  0
  9 10  2  0  0  0  0
M  END
>  <CHROM.1>
5.98214393,18.18973850,4.48917754,-1.79743866,0.81449114,1.20208009

>  <Name>
ligand

>  <RI>
0

>  <Rbt.Current_Directory>
/home/itssahil/PROJECTS/Mol_Feturizer/New_Systems/rnas/4XNR

>  <Rbt.Executable>
rbdock ($Id: //depot/dev/client3/rdock/2013.1/src/exe/rbdock.cxx#4 $)

>  <Rbt.Library>
libRbt.so (2013.1, Build901 2013/11/27)

>  <Rbt.Parameter_File>
/export/apps/rDock/src/rDock_2013.1_src/data/scripts/dock_solv.prm

>  <Rbt.Receptor>
prm/blind_docking_80.prm

>  <SCORE>
-14.5881

>  <SCORE.INTER>
-14.5881

>  <SCORE.INTER.CONST>
1

>  <SCORE.INTER.POLAR>
0

>  <SCORE.INTER.ROT>
0

>  <SCORE.INTER.SOLV>
7.56867

>  <SCORE.INTER.VDW>
-15.8483

>  <SCORE.INTER.norm>
-1.45881

>  <SCORE.INTRA>
0

>  <SCORE.INTRA.DIHEDRAL>
0

>  <SCORE.INTRA.DIHEDRAL.0>
0

>  <SCORE.INTRA.POLAR>
0

>  <SCORE.INTRA.POLAR.0>
0

>  <SCORE.INTRA.REPUL>
0

>  <SCORE.INTRA.REPUL.0>
0

>  <SCORE.INTRA.SOLV>
0

>  <SCORE.INTRA.SOLV.lig_0>
-23.8918

>  <SCORE.INTRA.VDW>
0

>  <SCORE.INTRA.VDW.0>
0

>  <SCORE.INTRA.norm>
0

>  <SCORE.RESTR>
0

>  <SCORE.RESTR.CAVITY>
0

>  <SCORE.RESTR.norm>
0

>  <SCORE.SYSTEM>
0

>  <SCORE.SYSTEM.CONST>
0

>  <SCORE.SYSTEM.DIHEDRAL>
0

>  <SCORE.SYSTEM.SOLV>
0

>  <SCORE.SYSTEM.norm>
0

>  <SCORE.heavy>
10

>  <SCORE.norm>
-1.45881

>  <RMSD>
0.762

$$$$
ligand
 OpenBabel11021811513D
libRbt.so/2013.1/901 2013/11/27
 10 11  0  0  0  0  0  0  0  0999 V2000
    5.9231   17.4241    2.6344 N   0  0  0  0  0  0  0  0  0  0  0  0
    6.8185   18.4169    2.5697 C   0  0  0  0  0  0  0  0  0  0  0  0
    7.2244   19.2433    3.5325 N   0  0  0  0  0  0  0  0  0  0  0  0
    6.5998   18.9709    4.6887 C   0  0  0  0  0  0  0  0  0  0  0  0
    5.6576   17.9853    4.9108 C   0  0  0  0  0  0  0  0  0  0  0  0
    5.3121   17.1746    3.8114 C   0  0  0  0  0  0  0  0  0  0  0  0
    4.4177   16.1836    3.8804 N   0  0  0  0  0  0  0  0  0  0  0  0
    5.2330   18.0000    6.2290 N   0  0  0  0  0  0  0  0  0  0  0  0
    5.9164   18.9812    6.7689 C   0  0  0  0  0  0  0  0  0  0  0  0
    6.7605   19.6107    5.8965 N   0  0  0  0  0  0  0  0  0  0  0  0
  1  2  2  0  0  0  0
  1  6  1  0  0  0  0
  2  3  1  0  0  0  0
  3  4  2  0  0  0  0
  4  5  1  0  0  0  0
  4 10  1  0  0  0  0
  5  6  2  0  0  0  0
  5  8  1  0  0  0  0
  6  7  1  0  0  0  0
  8  9  1  0  0  0  0
  9 10  2  0  0  0  0
M  END
>  <CHROM.1>
5.98059409,18.19086696,4.48780425,-1.80243119,0.81605498,1.20887756

>  <Name>
ligand

>  <RI>
0

>  <Rbt.Current_Directory>
/home/itssahil/PROJECTS/Mol_Feturizer/New_Systems/rnas/4XNR

>  <Rbt.Executable>
rbdock ($Id: //depot/dev/client3/rdock/2013.1/src/exe/rbdock.cxx#4 $)

>  <Rbt.Library>
libRbt.so (2013.1, Build901 2013/11/27)

>  <Rbt.Parameter_File>
/export/apps/rDock/src/rDock_2013.1_src/data/scripts/dock_solv.prm

>  <Rbt.Receptor>
prm/pocket_docking_3.prm

>  <SCORE>
-14.5957

>  <SCORE.INTER>
-14.5957

>  <SCORE.INTER.CONST>
1

>  <SCORE.INTER.POLAR>
0

>  <SCORE.INTER.ROT>
0

>  <SCORE.INTER.SOLV>
7.55572

>  <SCORE.INTER.VDW>
-15.8491

>  <SCORE.INTER.norm>
-1.45957

>  <SCORE.INTRA>
0

>  <SCORE.INTRA.DIHEDRAL>
0

>  <SCORE.INTRA.DIHEDRAL.0>
0

>  <SCORE.INTRA.POLAR>
0

>  <SCORE.INTRA.POLAR.0>
0

>  <SCORE.INTRA.REPUL>
0

>  <SCORE.INTRA.REPUL.0>
0

>  <SCORE.INTRA.SOLV>
0

>  <SCORE.INTRA.SOLV.lig_0>
-23.8918

>  <SCORE.INTRA.VDW>
0

>  <SCORE.INTRA.VDW.0>
0

>  <SCORE.INTRA.norm>
0

>  <SCORE.RESTR>
0

>  <SCORE.RESTR.CAVITY>
0

>  <SCORE.RESTR.norm>
0

>  <SCORE.SYSTEM>
0

>  <SCORE.SYSTEM.CONST>
0

>  <SCORE.SYSTEM.DIHEDRAL>
0

>  <SCORE.SYSTEM.SOLV>
0

>  <SCORE.SYSTEM.norm>
0

>  <SCORE.heavy>
10

>  <SCORE.norm>
-1.45957

>  <RMSD>
0.762

$$$$
ligand
 OpenBabel11021811513D
libRbt.so/2013.1/901 2013/11/27
 10 11  0  0  0  0  0  0  0  0999 V2000
    5.8971   17.4319    2.6279 N   0  0  0  0  0  0  0  0  0  0  0  0
    6.7966   18.4214    2.5723 C   0  0  0  0  0  0  0  0  0  0  0  0
    7.2037   19.2394    3.5418 N   0  0  0  0  0  0  0  0  0  0  0  0
    6.5755   18.9613    4.6947 C   0  0  0  0  0  0  0  0  0  0  0  0
    5.6288   17.9779    4.9076 C   0  0  0  0  0  0  0  0  0  0  0  0
    5.2825   17.1764    3.8018 C   0  0  0  0  0  0  0  0  0  0  0  0
    4.3840   16.1886    3.8618 N   0  0  0  0  0  0  0  0  0  0  0  0
    5.2014   17.9849    6.2250 N   0  0  0  0  0  0  0  0  0  0  0  0
    5.8876   18.9595    6.7733 C   0  0  0  0  0  0  0  0  0  0  0  0
    6.7361   19.5918    5.9074 N   0  0  0  0  0  0  0  0  0  0  0  0
  1  2  2  0  0  0  0
  1  6  1  0  0  0  0
  2  3  1  0  0  0  0
  3  4  2  0  0  0  0
  4  5  1  0  0  0  0
  4 10  1  0  0  0  0
  5  6  2  0  0  0  0
  5  8  1  0  0  0  0
  6  7  1  0  0  0  0
  8  9  1  0  0  0  0
  9 10  2  0  0  0  0
M  END
>  <CHROM.1>
5.95359197,18.18517600,4.48686457,-1.80151605,0.81153298,1.21533472

>  <Name>
ligand

>  <RI>
0

>  <Rbt.Current_Directory>
/home/itssahil/PROJECTS/Mol_Feturizer/New_Systems/rnas/4XNR

>  <Rbt.Executable>
rbdock ($Id: //depot/dev/client3/rdock/2013.1/src/exe/rbdock.cxx#4 $)

>  <Rbt.Library>
libRbt.so (2013.1, Build901 2013/11/27)

>  <Rbt.Parameter_File>
/export/apps/rDock/src/rDock_2013.1_src/data/scripts/dock_solv.prm

>  <Rbt.Receptor>
prm/pocket_docking_6.prm

>  <SCORE>
-14.6136

>  <SCORE.INTER>
-14.6136

>  <SCORE.INTER.CONST>
1

>  <SCORE.INTER.POLAR>
0

>  <SCORE.INTER.ROT>
0

>  <SCORE.INTER.SOLV>
7.46195

>  <SCORE.INTER.VDW>
-15.8297

>  <SCORE.INTER.norm>
-1.46136

>  <SCORE.INTRA>
0

>  <SCORE.INTRA.DIHEDRAL>
0

>  <SCORE.INTRA.DIHEDRAL.0>
0

>  <SCORE.INTRA.POLAR>
0

>  <SCORE.INTRA.POLAR.0>
0

>  <SCORE.INTRA.REPUL>
0

>  <SCORE.INTRA.REPUL.0>
0

>  <SCORE.INTRA.SOLV>
0

>  <SCORE.INTRA.SOLV.lig_0>
-23.8918

>  <SCORE.INTRA.VDW>
0

>  <SCORE.INTRA.VDW.0>
0

>  <SCORE.INTRA.norm>
0

>  <SCORE.RESTR>
0

>  <SCORE.RESTR.CAVITY>
0

>  <SCORE.RESTR.norm>
0

>  <SCORE.SYSTEM>
0

>  <SCORE.SYSTEM.CONST>
0

>  <SCORE.SYSTEM.DIHEDRAL>
0

>  <SCORE.SYSTEM.SOLV>
0

>  <SCORE.SYSTEM.norm>
0

>  <SCORE.heavy>
10

>  <SCORE.norm>
-1.46136

>  <RMSD>
0.762

$$$$
ligand
 OpenBabel11021811513D
libRbt.so/2013.1/901 2013/11/27
 10 11  0  0  0  0  0  0  0  0999 V2000
    5.8981   17.4321    2.6272 N   0  0  0  0  0  0  0  0  0  0  0  0
    6.7997   18.4197    2.5712 C   0  0  0  0  0  0  0  0  0  0  0  0
    7.2090   19.2366    3.5407 N   0  0  0  0  0  0  0  0  0  0  0  0
    6.5808   18.9597    4.6939 C   0  0  0  0  0  0  0  0  0  0  0  0
    5.6321   17.9784    4.9071 C   0  0  0  0  0  0  0  0  0  0  0  0
    5.2835   17.1779    3.8014 C   0  0  0  0  0  0  0  0  0  0  0  0
    4.3829   16.1920    3.8616 N   0  0  0  0  0  0  0  0  0  0  0  0
    5.2054   17.9862    6.2248 N   0  0  0  0  0  0  0  0  0  0  0  0
    5.8939   18.9592    6.7728 C   0  0  0  0  0  0  0  0  0  0  0  0
    6.7434   19.5897    5.9065 N   0  0  0  0  0  0  0  0  0  0  0  0
  1  2  2  0  0  0  0
  1  6  1  0  0  0  0
  2  3  1  0  0  0  0
  3  4  2  0  0  0  0
  4  5  1  0  0  0  0
  4 10  1  0  0  0  0
  5  6  2  0  0  0  0
  5  8  1  0  0  0  0
  6  7  1  0  0  0  0
  8  9  1  0  0  0  0
  9 10  2  0  0  0  0
M  END
>  <CHROM.1>
5.95710624,18.18503029,4.48623706,-1.80329100,0.80964778,1.21675302

>  <Name>
ligand

>  <RI>
0

>  <Rbt.Current_Directory>
/home/itssahil/PROJECTS/Mol_Feturizer/New_Systems/rnas/4XNR

>  <Rbt.Executable>
rbdock ($Id: //depot/dev/client3/rdock/2013.1/src/exe/rbdock.cxx#4 $)

>  <Rbt.Library>
libRbt.so (2013.1, Build901 2013/11/27)

>  <Rbt.Parameter_File>
/export/apps/rDock/src/rDock_2013.1_src/data/scripts/dock_solv.prm

>  <Rbt.Receptor>
prm/pocket_docking_8.prm

>  <SCORE>
-14.614

>  <SCORE.INTER>
-14.614

>  <SCORE.INTER.CONST>
1

>  <SCORE.INTER.POLAR>
0

>  <SCORE.INTER.ROT>
0

>  <SCORE.INTER.SOLV>
7.45164

>  <SCORE.INTER.VDW>
-15.8265

>  <SCORE.INTER.norm>
-1.4614

>  <SCORE.INTRA>
0

>  <SCORE.INTRA.DIHEDRAL>
0

>  <SCORE.INTRA.DIHEDRAL.0>
0

>  <SCORE.INTRA.POLAR>
0

>  <SCORE.INTRA.POLAR.0>
0

>  <SCORE.INTRA.REPUL>
0

>  <SCORE.INTRA.REPUL.0>
0

>  <SCORE.INTRA.SOLV>
0

>  <SCORE.INTRA.SOLV.lig_0>
-23.8918

>  <SCORE.INTRA.VDW>
0

>  <SCORE.INTRA.VDW.0>
0

>  <SCORE.INTRA.norm>
0

>  <SCORE.RESTR>
0

>  <SCORE.RESTR.CAVITY>
0

>  <SCORE.RESTR.norm>
0

>  <SCORE.SYSTEM>
0

>  <SCORE.SYSTEM.CONST>
0

>  <SCORE.SYSTEM.DIHEDRAL>
0

>  <SCORE.SYSTEM.SOLV>
0

>  <SCORE.SYSTEM.norm>
0

>  <SCORE.heavy>
10

>  <SCORE.norm>
-1.4614

>  <RMSD>
0.762

$$$$
ligand
 OpenBabel11021811513D
libRbt.so/2013.1/901 2013/11/27
 10 11  0  0  0  0  0  0  0  0999 V2000
    5.9478   17.4853    2.6028 N   0  0  0  0  0  0  0  0  0  0  0  0
    6.7552   18.5513    2.5465 C   0  0  0  0  0  0  0  0  0  0  0  0
    7.1066   19.3887    3.5211 N   0  0  0  0  0  0  0  0  0  0  0  0
    6.5272   19.0404    4.6805 C   0  0  0  0  0  0  0  0  0  0  0  0
    5.6752   17.9742    4.8949 C   0  0  0  0  0  0  0  0  0  0  0  0
    5.3803   17.1605    3.7832 C   0  0  0  0  0  0  0  0  0  0  0  0
    4.5738   16.0963    3.8438 N   0  0  0  0  0  0  0  0  0  0  0  0
    5.2736   17.9255    6.2195 N   0  0  0  0  0  0  0  0  0  0  0  0
    5.8813   18.9494    6.7706 C   0  0  0  0  0  0  0  0  0  0  0  0
    6.6542   19.6661    5.8996 N   0  0  0  0  0  0  0  0  0  0  0  0
  1  2  2  0  0  0  0
  1  6  1  0  0  0  0
  2  3  1  0  0  0  0
  3  4  2  0  0  0  0
  4  5  1  0  0  0  0
  4 10  1  0  0  0  0
  5  6  2  0  0  0  0
  5  8  1  0  0  0  0
  6  7  1  0  0  0  0
  8  9  1  0  0  0  0
  9 10  2  0  0  0  0
M  END
>  <CHROM.1>
5.97242917,18.21520667,4.47174611,-1.78037540,0.90081818,1.21382372

>  <Name>
ligand

>  <RI>
0

>  <Rbt.Current_Directory>
/home/itssahil/PROJECTS/Mol_Feturizer/New_Systems/rnas/4XNR

>  <Rbt.Executable>
rbdock ($Id: //depot/dev/client3/rdock/2013.1/src/exe/rbdock.cxx#4 $)

>  <Rbt.Library>
libRbt.so (2013.1, Build901 2013/11/27)

>  <Rbt.Parameter_File>
/export/apps/rDock/src/rDock_2013.1_src/data/scripts/dock_solv.prm

>  <Rbt.Receptor>
prm/blind_docking_100.prm

>  <SCORE>
-14.5517

>  <SCORE.INTER>
-14.5517

>  <SCORE.INTER.CONST>
1

>  <SCORE.INTER.POLAR>
0

>  <SCORE.INTER.ROT>
0

>  <SCORE.INTER.SOLV>
8.05751

>  <SCORE.INTER.VDW>
-15.9869

>  <SCORE.INTER.norm>
-1.45517

>  <SCORE.INTRA>
0

>  <SCORE.INTRA.DIHEDRAL>
0

>  <SCORE.INTRA.DIHEDRAL.0>
0

>  <SCORE.INTRA.POLAR>
0

>  <SCORE.INTRA.POLAR.0>
0

>  <SCORE.INTRA.REPUL>
0

>  <SCORE.INTRA.REPUL.0>
0

>  <SCORE.INTRA.SOLV>
0

>  <SCORE.INTRA.SOLV.lig_0>
-23.8918

>  <SCORE.INTRA.VDW>
0

>  <SCORE.INTRA.VDW.0>
0

>  <SCORE.INTRA.norm>
0

>  <SCORE.RESTR>
0

>  <SCORE.RESTR.CAVITY>
0

>  <SCORE.RESTR.norm>
0

>  <SCORE.SYSTEM>
0

>  <SCORE.SYSTEM.CONST>
0

>  <SCORE.SYSTEM.DIHEDRAL>
0

>  <SCORE.SYSTEM.SOLV>
0

>  <SCORE.SYSTEM.norm>
0

>  <SCORE.heavy>
10

>  <SCORE.norm>
-1.45517

>  <RMSD>
0.763

$$$$
ligand
 OpenBabel11021811513D
libRbt.so/2013.1/901 2013/11/27
 10 11  0  0  0  0  0  0  0  0999 V2000
    5.9087   17.4355    2.6308 N   0  0  0  0  0  0  0  0  0  0  0  0
    6.7913   18.4393    2.5619 C   0  0  0  0  0  0  0  0  0  0  0  0
    7.1916   19.2706    3.5228 N   0  0  0  0  0  0  0  0  0  0  0  0
    6.5763   18.9903    4.6821 C   0  0  0  0  0  0  0  0  0  0  0  0
    5.6475   17.9930    4.9086 C   0  0  0  0  0  0  0  0  0  0  0  0
    5.3067   17.1782    3.8108 C   0  0  0  0  0  0  0  0  0  0  0  0
    4.4251   16.1762    3.8840 N   0  0  0  0  0  0  0  0  0  0  0  0
    5.2294   18.0022    6.2289 N   0  0  0  0  0  0  0  0  0  0  0  0
    5.9032   18.9918    6.7656 C   0  0  0  0  0  0  0  0  0  0  0  0
    6.7350   19.6319    5.8892 N   0  0  0  0  0  0  0  0  0  0  0  0
  1  2  2  0  0  0  0
  1  6  1  0  0  0  0
  2  3  1  0  0  0  0
  3  4  2  0  0  0  0
  4  5  1  0  0  0  0
  4 10  1  0  0  0  0
  5  6  2  0  0  0  0
  5  8  1  0  0  0  0
  6  7  1  0  0  0  0
  8  9  1  0  0  0  0
  9 10  2  0  0  0  0
M  END
>  <CHROM.1>
5.96583901,18.20263944,4.48404905,-1.80281152,0.82946256,1.20933740

>  <Name>
ligand

>  <RI>
0

>  <Rbt.Current_Directory>
/home/itssahil/PROJECTS/Mol_Feturizer/New_Systems/rnas/4XNR

>  <Rbt.Executable>
rbdock ($Id: //depot/dev/client3/rdock/2013.1/src/exe/rbdock.cxx#4 $)

>  <Rbt.Library>
libRbt.so (2013.1, Build901 2013/11/27)

>  <Rbt.Parameter_File>
/export/apps/rDock/src/rDock_2013.1_src/data/scripts/dock_solv.prm

>  <Rbt.Receptor>
prm/pocket_docking_4.prm

>  <SCORE>
-14.586

>  <SCORE.INTER>
-14.586

>  <SCORE.INTER.CONST>
1

>  <SCORE.INTER.POLAR>
0

>  <SCORE.INTER.ROT>
0

>  <SCORE.INTER.SOLV>
7.60312

>  <SCORE.INTER.VDW>
-15.8584

>  <SCORE.INTER.norm>
-1.4586

>  <SCORE.INTRA>
0

>  <SCORE.INTRA.DIHEDRAL>
0

>  <SCORE.INTRA.DIHEDRAL.0>
0

>  <SCORE.INTRA.POLAR>
0

>  <SCORE.INTRA.POLAR.0>
0

>  <SCORE.INTRA.REPUL>
0

>  <SCORE.INTRA.REPUL.0>
0

>  <SCORE.INTRA.SOLV>
0

>  <SCORE.INTRA.SOLV.lig_0>
-23.8918

>  <SCORE.INTRA.VDW>
0

>  <SCORE.INTRA.VDW.0>
0

>  <SCORE.INTRA.norm>
0

>  <SCORE.RESTR>
0

>  <SCORE.RESTR.CAVITY>
0

>  <SCORE.RESTR.norm>
0

>  <SCORE.SYSTEM>
0

>  <SCORE.SYSTEM.CONST>
0

>  <SCORE.SYSTEM.DIHEDRAL>
0

>  <SCORE.SYSTEM.SOLV>
0

>  <SCORE.SYSTEM.norm>
0

>  <SCORE.heavy>
10

>  <SCORE.norm>
-1.4586

>  <RMSD>
0.763

$$$$
ligand
 OpenBabel11021811513D
libRbt.so/2013.1/901 2013/11/27
 10 11  0  0  0  0  0  0  0  0999 V2000
    5.8434   17.5427    2.5669 N   0  0  0  0  0  0  0  0  0  0  0  0
    6.7396   18.5355    2.5168 C   0  0  0  0  0  0  0  0  0  0  0  0
    7.1642   19.3313    3.4972 N   0  0  0  0  0  0  0  0  0  0  0  0
    6.5595   19.0246    4.6554 C   0  0  0  0  0  0  0  0  0  0  0  0
    5.6191   18.0341    4.8637 C   0  0  0  0  0  0  0  0  0  0  0  0
    5.2527   17.2581    3.7463 C   0  0  0  0  0  0  0  0  0  0  0  0
    4.3575   16.2670    3.8006 N   0  0  0  0  0  0  0  0  0  0  0  0
    5.2179   18.0091    6.1890 N   0  0  0  0  0  0  0  0  0  0  0  0
    5.9128   18.9722    6.7466 C   0  0  0  0  0  0  0  0  0  0  0  0
    6.7427   19.6268    5.8792 N   0  0  0  0  0  0  0  0  0  0  0  0
  1  2  2  0  0  0  0
  1  6  1  0  0  0  0
  2  3  1  0  0  0  0
  3  4  2  0  0  0  0
  4  5  1  0  0  0  0
  4 10  1  0  0  0  0
  5  6  2  0  0  0  0
  5  8  1  0  0  0  0
  6  7  1  0  0  0  0
  8  9  1  0  0  0  0
  9 10  2  0  0  0  0
M  END
>  <CHROM.1>
5.93512170,18.25210473,4.44158557,-1.82768696,0.82010090,1.25797594

>  <Name>
ligand

>  <RI>
0

>  <Rbt.Current_Directory>
/home/itssahil/PROJECTS/Mol_Feturizer/New_Systems/rnas/4XNR

>  <Rbt.Executable>
rbdock ($Id: //depot/dev/client3/rdock/2013.1/src/exe/rbdock.cxx#4 $)

>  <Rbt.Library>
libRbt.so (2013.1, Build901 2013/11/27)

>  <Rbt.Parameter_File>
/export/apps/rDock/src/rDock_2013.1_src/data/scripts/dock_solv.prm

>  <Rbt.Receptor>
prm/pocket_docking_6.prm

>  <SCORE>
-14.5402

>  <SCORE.INTER>
-14.5402

>  <SCORE.INTER.CONST>
1

>  <SCORE.INTER.POLAR>
0

>  <SCORE.INTER.ROT>
0

>  <SCORE.INTER.SOLV>
7.19264

>  <SCORE.INTER.VDW>
-15.691

>  <SCORE.INTER.norm>
-1.45402

>  <SCORE.INTRA>
0

>  <SCORE.INTRA.DIHEDRAL>
0

>  <SCORE.INTRA.DIHEDRAL.0>
0

>  <SCORE.INTRA.POLAR>
0

>  <SCORE.INTRA.POLAR.0>
0

>  <SCORE.INTRA.REPUL>
0

>  <SCORE.INTRA.REPUL.0>
0

>  <SCORE.INTRA.SOLV>
0

>  <SCORE.INTRA.SOLV.lig_0>
-23.8918

>  <SCORE.INTRA.VDW>
0

>  <SCORE.INTRA.VDW.0>
0

>  <SCORE.INTRA.norm>
0

>  <SCORE.RESTR>
0

>  <SCORE.RESTR.CAVITY>
0

>  <SCORE.RESTR.norm>
0

>  <SCORE.SYSTEM>
0

>  <SCORE.SYSTEM.CONST>
0

>  <SCORE.SYSTEM.DIHEDRAL>
0

>  <SCORE.SYSTEM.SOLV>
0

>  <SCORE.SYSTEM.norm>
0

>  <SCORE.heavy>
10

>  <SCORE.norm>
-1.45402

>  <RMSD>
0.763

$$$$
ligand
 OpenBabel11021811513D
libRbt.so/2013.1/901 2013/11/27
 10 11  0  0  0  0  0  0  0  0999 V2000
    5.8996   17.4358    2.6327 N   0  0  0  0  0  0  0  0  0  0  0  0
    6.7723   18.4478    2.5573 C   0  0  0  0  0  0  0  0  0  0  0  0
    7.1693   19.2850    3.5145 N   0  0  0  0  0  0  0  0  0  0  0  0
    6.5621   19.0015    4.6773 C   0  0  0  0  0  0  0  0  0  0  0  0
    5.6439   17.9960    4.9104 C   0  0  0  0  0  0  0  0  0  0  0  0
    5.3057   17.1755    3.8161 C   0  0  0  0  0  0  0  0  0  0  0  0
    4.4339   16.1654    3.8957 N   0  0  0  0  0  0  0  0  0  0  0  0
    5.2319   18.0042    6.2327 N   0  0  0  0  0  0  0  0  0  0  0  0
    5.8989   19.0014    6.7639 C   0  0  0  0  0  0  0  0  0  0  0  0
    6.7204   19.6473    5.8822 N   0  0  0  0  0  0  0  0  0  0  0  0
  1  2  2  0  0  0  0
  1  6  1  0  0  0  0
  2  3  1  0  0  0  0
  3  4  2  0  0  0  0
  4  5  1  0  0  0  0
  4 10  1  0  0  0  0
  5  6  2  0  0  0  0
  5  8  1  0  0  0  0
  6  7  1  0  0  0  0
  8  9  1  0  0  0  0
  9 10  2  0  0  0  0
M  END
>  <CHROM.1>
5.95823051,18.20767436,4.48391004,-1.80439796,0.83998549,1.20826295

>  <Name>
ligand

>  <RI>
0

>  <Rbt.Current_Directory>
/home/itssahil/PROJECTS/Mol_Feturizer/New_Systems/rnas/4XNR

>  <Rbt.Executable>
rbdock ($Id: //depot/dev/client3/rdock/2013.1/src/exe/rbdock.cxx#4 $)

>  <Rbt.Library>
libRbt.so (2013.1, Build901 2013/11/27)

>  <Rbt.Parameter_File>
/export/apps/rDock/src/rDock_2013.1_src/data/scripts/dock_solv.prm

>  <Rbt.Receptor>
prm/pocket_docking_6.prm

>  <SCORE>
-14.5914

>  <SCORE.INTER>
-14.5914

>  <SCORE.INTER.CONST>
1

>  <SCORE.INTER.POLAR>
0

>  <SCORE.INTER.ROT>
0

>  <SCORE.INTER.SOLV>
7.67815

>  <SCORE.INTER.VDW>
-15.887

>  <SCORE.INTER.norm>
-1.45914

>  <SCORE.INTRA>
0

>  <SCORE.INTRA.DIHEDRAL>
0

>  <SCORE.INTRA.DIHEDRAL.0>
0

>  <SCORE.INTRA.POLAR>
0

>  <SCORE.INTRA.POLAR.0>
0

>  <SCORE.INTRA.REPUL>
0

>  <SCORE.INTRA.REPUL.0>
0

>  <SCORE.INTRA.SOLV>
0

>  <SCORE.INTRA.SOLV.lig_0>
-23.8918

>  <SCORE.INTRA.VDW>
0

>  <SCORE.INTRA.VDW.0>
0

>  <SCORE.INTRA.norm>
0

>  <SCORE.RESTR>
0

>  <SCORE.RESTR.CAVITY>
0

>  <SCORE.RESTR.norm>
0

>  <SCORE.SYSTEM>
0

>  <SCORE.SYSTEM.CONST>
0

>  <SCORE.SYSTEM.DIHEDRAL>
0

>  <SCORE.SYSTEM.SOLV>
0

>  <SCORE.SYSTEM.norm>
0

>  <SCORE.heavy>
10

>  <SCORE.norm>
-1.45914

>  <RMSD>
0.763

$$$$
ligand
 OpenBabel11021811513D
libRbt.so/2013.1/901 2013/11/27
 10 11  0  0  0  0  0  0  0  0999 V2000
    5.9222   17.4309    2.6308 N   0  0  0  0  0  0  0  0  0  0  0  0
    6.8207   18.4211    2.5701 C   0  0  0  0  0  0  0  0  0  0  0  0
    7.2271   19.2442    3.5355 N   0  0  0  0  0  0  0  0  0  0  0  0
    6.5993   18.9712    4.6898 C   0  0  0  0  0  0  0  0  0  0  0  0
    5.6536   17.9879    4.9078 C   0  0  0  0  0  0  0  0  0  0  0  0
    5.3080   17.1807    3.8060 C   0  0  0  0  0  0  0  0  0  0  0  0
    4.4105   16.1923    3.8709 N   0  0  0  0  0  0  0  0  0  0  0  0
    5.2264   18.0011    6.2252 N   0  0  0  0  0  0  0  0  0  0  0  0
    5.9117   18.9791    6.7686 C   0  0  0  0  0  0  0  0  0  0  0  0
    6.7594   19.6079    5.8994 N   0  0  0  0  0  0  0  0  0  0  0  0
  1  2  2  0  0  0  0
  1  6  1  0  0  0  0
  2  3  1  0  0  0  0
  3  4  2  0  0  0  0
  4  5  1  0  0  0  0
  4 10  1  0  0  0  0
  5  6  2  0  0  0  0
  5  8  1  0  0  0  0
  6  7  1  0  0  0  0
  8  9  1  0  0  0  0
  9 10  2  0  0  0  0
M  END
>  <CHROM.1>
5.97814295,18.19348711,4.48593924,-1.80118655,0.81248551,1.21014772

>  <Name>
ligand

>  <RI>
0

>  <Rbt.Current_Directory>
/home/itssahil/PROJECTS/Mol_Feturizer/New_Systems/rnas/4XNR

>  <Rbt.Executable>
rbdock ($Id: //depot/dev/client3/rdock/2013.1/src/exe/rbdock.cxx#4 $)

>  <Rbt.Library>
libRbt.so (2013.1, Build901 2013/11/27)

>  <Rbt.Parameter_File>
/export/apps/rDock/src/rDock_2013.1_src/data/scripts/dock_solv.prm

>  <Rbt.Receptor>
prm/pocket_docking_8.prm

>  <SCORE>
-14.5962

>  <SCORE.INTER>
-14.5962

>  <SCORE.INTER.CONST>
1

>  <SCORE.INTER.POLAR>
0

>  <SCORE.INTER.ROT>
0

>  <SCORE.INTER.SOLV>
7.51229

>  <SCORE.INTER.VDW>
-15.8349

>  <SCORE.INTER.norm>
-1.45962

>  <SCORE.INTRA>
0

>  <SCORE.INTRA.DIHEDRAL>
0

>  <SCORE.INTRA.DIHEDRAL.0>
0

>  <SCORE.INTRA.POLAR>
0

>  <SCORE.INTRA.POLAR.0>
0

>  <SCORE.INTRA.REPUL>
0

>  <SCORE.INTRA.REPUL.0>
0

>  <SCORE.INTRA.SOLV>
0

>  <SCORE.INTRA.SOLV.lig_0>
-23.8918

>  <SCORE.INTRA.VDW>
0

>  <SCORE.INTRA.VDW.0>
0

>  <SCORE.INTRA.norm>
0

>  <SCORE.RESTR>
0

>  <SCORE.RESTR.CAVITY>
0

>  <SCORE.RESTR.norm>
0

>  <SCORE.SYSTEM>
0

>  <SCORE.SYSTEM.CONST>
0

>  <SCORE.SYSTEM.DIHEDRAL>
0

>  <SCORE.SYSTEM.SOLV>
0

>  <SCORE.SYSTEM.norm>
0

>  <SCORE.heavy>
10

>  <SCORE.norm>
-1.45962

>  <RMSD>
0.763

$$$$
ligand
 OpenBabel11021811513D
libRbt.so/2013.1/901 2013/11/27
 10 11  0  0  0  0  0  0  0  0999 V2000
    5.9221   17.4282    2.6340 N   0  0  0  0  0  0  0  0  0  0  0  0
    6.8186   18.4201    2.5709 C   0  0  0  0  0  0  0  0  0  0  0  0
    7.2241   19.2456    3.5347 N   0  0  0  0  0  0  0  0  0  0  0  0
    6.5979   18.9732    4.6900 C   0  0  0  0  0  0  0  0  0  0  0  0
    5.6543   17.9884    4.9103 C   0  0  0  0  0  0  0  0  0  0  0  0
    5.3094   17.1787    3.8101 C   0  0  0  0  0  0  0  0  0  0  0  0
    4.4139   16.1886    3.8774 N   0  0  0  0  0  0  0  0  0  0  0  0
    5.2282   18.0028    6.2280 N   0  0  0  0  0  0  0  0  0  0  0  0
    5.9119   18.9830    6.7693 C   0  0  0  0  0  0  0  0  0  0  0  0
    6.7577   19.6121    5.8984 N   0  0  0  0  0  0  0  0  0  0  0  0
  1  2  2  0  0  0  0
  1  6  1  0  0  0  0
  2  3  1  0  0  0  0
  3  4  2  0  0  0  0
  4  5  1  0  0  0  0
  4 10  1  0  0  0  0
  5  6  2  0  0  0  0
  5  8  1  0  0  0  0
  6  7  1  0  0  0  0
  8  9  1  0  0  0  0
  9 10  2  0  0  0  0
M  END
>  <CHROM.1>
5.97808013,18.19389638,4.48786301,-1.80129545,0.81463509,1.20861168

>  <Name>
ligand

>  <RI>
0

>  <Rbt.Current_Directory>
/home/itssahil/PROJECTS/Mol_Feturizer/New_Systems/rnas/4XNR

>  <Rbt.Executable>
rbdock ($Id: //depot/dev/client3/rdock/2013.1/src/exe/rbdock.cxx#4 $)

>  <Rbt.Library>
libRbt.so (2013.1, Build901 2013/11/27)

>  <Rbt.Parameter_File>
/export/apps/rDock/src/rDock_2013.1_src/data/scripts/dock_solv.prm

>  <Rbt.Receptor>
prm/pocket_docking_6.prm

>  <SCORE>
-14.5964

>  <SCORE.INTER>
-14.5964

>  <SCORE.INTER.CONST>
1

>  <SCORE.INTER.POLAR>
0

>  <SCORE.INTER.ROT>
0

>  <SCORE.INTER.SOLV>
7.53687

>  <SCORE.INTER.VDW>
-15.8432

>  <SCORE.INTER.norm>
-1.45964

>  <SCORE.INTRA>
0

>  <SCORE.INTRA.DIHEDRAL>
0

>  <SCORE.INTRA.DIHEDRAL.0>
0

>  <SCORE.INTRA.POLAR>
0

>  <SCORE.INTRA.POLAR.0>
0

>  <SCORE.INTRA.REPUL>
0

>  <SCORE.INTRA.REPUL.0>
0

>  <SCORE.INTRA.SOLV>
0

>  <SCORE.INTRA.SOLV.lig_0>
-23.8918

>  <SCORE.INTRA.VDW>
0

>  <SCORE.INTRA.VDW.0>
0

>  <SCORE.INTRA.norm>
0

>  <SCORE.RESTR>
0

>  <SCORE.RESTR.CAVITY>
0

>  <SCORE.RESTR.norm>
0

>  <SCORE.SYSTEM>
0

>  <SCORE.SYSTEM.CONST>
0

>  <SCORE.SYSTEM.DIHEDRAL>
0

>  <SCORE.SYSTEM.SOLV>
0

>  <SCORE.SYSTEM.norm>
0

>  <SCORE.heavy>
10

>  <SCORE.norm>
-1.45964

>  <RMSD>
0.764

$$$$
ligand
 OpenBabel11021811513D
libRbt.so/2013.1/901 2013/11/27
 10 11  0  0  0  0  0  0  0  0999 V2000
    5.8936   17.4905    2.5930 N   0  0  0  0  0  0  0  0  0  0  0  0
    6.8170   18.4587    2.5560 C   0  0  0  0  0  0  0  0  0  0  0  0
    7.2387   19.2524    3.5392 N   0  0  0  0  0  0  0  0  0  0  0  0
    6.5981   18.9731    4.6849 C   0  0  0  0  0  0  0  0  0  0  0  0
    5.6269   18.0099    4.8791 C   0  0  0  0  0  0  0  0  0  0  0  0
    5.2670   17.2331    3.7601 C   0  0  0  0  0  0  0  0  0  0  0  0
    4.3446   16.2666    3.8014 N   0  0  0  0  0  0  0  0  0  0  0  0
    5.1931   18.0083    6.1944 N   0  0  0  0  0  0  0  0  0  0  0  0
    5.8998   18.9581    6.7601 C   0  0  0  0  0  0  0  0  0  0  0  0
    6.7677   19.5820    5.9074 N   0  0  0  0  0  0  0  0  0  0  0  0
  1  2  2  0  0  0  0
  1  6  1  0  0  0  0
  2  3  1  0  0  0  0
  3  4  2  0  0  0  0
  4  5  1  0  0  0  0
  4 10  1  0  0  0  0
  5  6  2  0  0  0  0
  5  8  1  0  0  0  0
  6  7  1  0  0  0  0
  8  9  1  0  0  0  0
  9 10  2  0  0  0  0
M  END
>  <CHROM.1>
5.95874051,18.21534180,4.46292130,-1.80662592,0.78710360,1.23345863

>  <Name>
ligand

>  <RI>
0

>  <Rbt.Current_Directory>
/home/itssahil/PROJECTS/Mol_Feturizer/New_Systems/rnas/4XNR

>  <Rbt.Executable>
rbdock ($Id: //depot/dev/client3/rdock/2013.1/src/exe/rbdock.cxx#4 $)

>  <Rbt.Library>
libRbt.so (2013.1, Build901 2013/11/27)

>  <Rbt.Parameter_File>
/export/apps/rDock/src/rDock_2013.1_src/data/scripts/dock_solv.prm

>  <Rbt.Receptor>
prm/pocket_docking_8.prm

>  <SCORE>
-14.5168

>  <SCORE.INTER>
-14.5168

>  <SCORE.INTER.CONST>
1

>  <SCORE.INTER.POLAR>
0

>  <SCORE.INTER.ROT>
0

>  <SCORE.INTER.SOLV>
7.13767

>  <SCORE.INTER.VDW>
-15.6571

>  <SCORE.INTER.norm>
-1.45168

>  <SCORE.INTRA>
0

>  <SCORE.INTRA.DIHEDRAL>
0

>  <SCORE.INTRA.DIHEDRAL.0>
0

>  <SCORE.INTRA.POLAR>
0

>  <SCORE.INTRA.POLAR.0>
0

>  <SCORE.INTRA.REPUL>
0

>  <SCORE.INTRA.REPUL.0>
0

>  <SCORE.INTRA.SOLV>
0

>  <SCORE.INTRA.SOLV.lig_0>
-23.8918

>  <SCORE.INTRA.VDW>
0

>  <SCORE.INTRA.VDW.0>
0

>  <SCORE.INTRA.norm>
0

>  <SCORE.RESTR>
0

>  <SCORE.RESTR.CAVITY>
0

>  <SCORE.RESTR.norm>
0

>  <SCORE.SYSTEM>
0

>  <SCORE.SYSTEM.CONST>
0

>  <SCORE.SYSTEM.DIHEDRAL>
0

>  <SCORE.SYSTEM.SOLV>
0

>  <SCORE.SYSTEM.norm>
0

>  <SCORE.heavy>
10

>  <SCORE.norm>
-1.45168

>  <RMSD>
0.764

$$$$
ligand
 OpenBabel11021811513D
libRbt.so/2013.1/901 2013/11/27
 10 11  0  0  0  0  0  0  0  0999 V2000
    5.8632   17.5337    2.5752 N   0  0  0  0  0  0  0  0  0  0  0  0
    6.7438   18.5405    2.5269 C   0  0  0  0  0  0  0  0  0  0  0  0
    7.1504   19.3459    3.5071 N   0  0  0  0  0  0  0  0  0  0  0  0
    6.5444   19.0331    4.6629 C   0  0  0  0  0  0  0  0  0  0  0  0
    5.6187   18.0285    4.8692 C   0  0  0  0  0  0  0  0  0  0  0  0
    5.2706   17.2434    3.7523 C   0  0  0  0  0  0  0  0  0  0  0  0
    4.3910   16.2384    3.8049 N   0  0  0  0  0  0  0  0  0  0  0  0
    5.2107   18.0010    6.1925 N   0  0  0  0  0  0  0  0  0  0  0  0
    5.8873   18.9767    6.7508 C   0  0  0  0  0  0  0  0  0  0  0  0
    6.7114   19.6418    5.8859 N   0  0  0  0  0  0  0  0  0  0  0  0
  1  2  2  0  0  0  0
  1  6  1  0  0  0  0
  2  3  1  0  0  0  0
  3  4  2  0  0  0  0
  4  5  1  0  0  0  0
  4 10  1  0  0  0  0
  5  6  2  0  0  0  0
  5  8  1  0  0  0  0
  6  7  1  0  0  0  0
  8  9  1  0  0  0  0
  9 10  2  0  0  0  0
M  END
>  <CHROM.1>
5.93348565,18.25015916,4.44818284,-1.81275239,0.83345210,1.24395386

>  <Name>
ligand

>  <RI>
0

>  <Rbt.Current_Directory>
/home/itssahil/PROJECTS/Mol_Feturizer/New_Systems/rnas/4XNR

>  <Rbt.Executable>
rbdock ($Id: //depot/dev/client3/rdock/2013.1/src/exe/rbdock.cxx#4 $)

>  <Rbt.Library>
libRbt.so (2013.1, Build901 2013/11/27)

>  <Rbt.Parameter_File>
/export/apps/rDock/src/rDock_2013.1_src/data/scripts/dock_solv.prm

>  <Rbt.Receptor>
prm/blind_docking_100.prm

>  <SCORE>
-14.5299

>  <SCORE.INTER>
-14.5299

>  <SCORE.INTER.CONST>
1

>  <SCORE.INTER.POLAR>
0

>  <SCORE.INTER.ROT>
0

>  <SCORE.INTER.SOLV>
7.32806

>  <SCORE.INTER.VDW>
-15.7293

>  <SCORE.INTER.norm>
-1.45299

>  <SCORE.INTRA>
0

>  <SCORE.INTRA.DIHEDRAL>
0

>  <SCORE.INTRA.DIHEDRAL.0>
0

>  <SCORE.INTRA.POLAR>
0

>  <SCORE.INTRA.POLAR.0>
0

>  <SCORE.INTRA.REPUL>
0

>  <SCORE.INTRA.REPUL.0>
0

>  <SCORE.INTRA.SOLV>
0

>  <SCORE.INTRA.SOLV.lig_0>
-23.8918

>  <SCORE.INTRA.VDW>
0

>  <SCORE.INTRA.VDW.0>
0

>  <SCORE.INTRA.norm>
0

>  <SCORE.RESTR>
0

>  <SCORE.RESTR.CAVITY>
0

>  <SCORE.RESTR.norm>
0

>  <SCORE.SYSTEM>
0

>  <SCORE.SYSTEM.CONST>
0

>  <SCORE.SYSTEM.DIHEDRAL>
0

>  <SCORE.SYSTEM.SOLV>
0

>  <SCORE.SYSTEM.norm>
0

>  <SCORE.heavy>
10

>  <SCORE.norm>
-1.45299

>  <RMSD>
0.765

$$$$
ligand
 OpenBabel11021811513D
libRbt.so/2013.1/901 2013/11/27
 10 11  0  0  0  0  0  0  0  0999 V2000
    5.9264   17.4252    2.6367 N   0  0  0  0  0  0  0  0  0  0  0  0
    6.8215   18.4183    2.5737 C   0  0  0  0  0  0  0  0  0  0  0  0
    7.2233   19.2466    3.5366 N   0  0  0  0  0  0  0  0  0  0  0  0
    6.5946   18.9758    4.6909 C   0  0  0  0  0  0  0  0  0  0  0  0
    5.6520   17.9901    4.9111 C   0  0  0  0  0  0  0  0  0  0  0  0
    5.3111   17.1774    3.8119 C   0  0  0  0  0  0  0  0  0  0  0  0
    4.4169   16.1861    3.8792 N   0  0  0  0  0  0  0  0  0  0  0  0
    5.2225   18.0068    6.2277 N   0  0  0  0  0  0  0  0  0  0  0  0
    5.9034   18.9893    6.7685 C   0  0  0  0  0  0  0  0  0  0  0  0
    6.7504   19.6178    5.8983 N   0  0  0  0  0  0  0  0  0  0  0  0
  1  2  2  0  0  0  0
  1  6  1  0  0  0  0
  2  3  1  0  0  0  0
  3  4  2  0  0  0  0
  4  5  1  0  0  0  0
  4 10  1  0  0  0  0
  5  6  2  0  0  0  0
  5  8  1  0  0  0  0
  6  7  1  0  0  0  0
  8  9  1  0  0  0  0
  9 10  2  0  0  0  0
M  END
>  <CHROM.1>
5.97651734,18.19515228,4.48902557,-1.79707294,0.81518641,1.20328147

>  <Name>
ligand

>  <RI>
0

>  <Rbt.Current_Directory>
/home/itssahil/PROJECTS/Mol_Feturizer/New_Systems/rnas/4XNR

>  <Rbt.Executable>
rbdock ($Id: //depot/dev/client3/rdock/2013.1/src/exe/rbdock.cxx#4 $)

>  <Rbt.Library>
libRbt.so (2013.1, Build901 2013/11/27)

>  <Rbt.Parameter_File>
/export/apps/rDock/src/rDock_2013.1_src/data/scripts/dock_solv.prm

>  <Rbt.Receptor>
prm/blind_docking_60.prm

>  <SCORE>
-14.5937

>  <SCORE.INTER>
-14.5937

>  <SCORE.INTER.CONST>
1

>  <SCORE.INTER.POLAR>
0

>  <SCORE.INTER.ROT>
0

>  <SCORE.INTER.SOLV>
7.5515

>  <SCORE.INTER.VDW>
-15.8463

>  <SCORE.INTER.norm>
-1.45937

>  <SCORE.INTRA>
0

>  <SCORE.INTRA.DIHEDRAL>
0

>  <SCORE.INTRA.DIHEDRAL.0>
0

>  <SCORE.INTRA.POLAR>
0

>  <SCORE.INTRA.POLAR.0>
0

>  <SCORE.INTRA.REPUL>
0

>  <SCORE.INTRA.REPUL.0>
0

>  <SCORE.INTRA.SOLV>
0

>  <SCORE.INTRA.SOLV.lig_0>
-23.8918

>  <SCORE.INTRA.VDW>
0

>  <SCORE.INTRA.VDW.0>
0

>  <SCORE.INTRA.norm>
0

>  <SCORE.RESTR>
0

>  <SCORE.RESTR.CAVITY>
0

>  <SCORE.RESTR.norm>
0

>  <SCORE.SYSTEM>
0

>  <SCORE.SYSTEM.CONST>
0

>  <SCORE.SYSTEM.DIHEDRAL>
0

>  <SCORE.SYSTEM.SOLV>
0

>  <SCORE.SYSTEM.norm>
0

>  <SCORE.heavy>
10

>  <SCORE.norm>
-1.45937

>  <RMSD>
0.765

$$$$
ligand
 OpenBabel11021811513D
libRbt.so/2013.1/901 2013/11/27
 10 11  0  0  0  0  0  0  0  0999 V2000
    5.9458   17.4400    2.6252 N   0  0  0  0  0  0  0  0  0  0  0  0
    6.8460   18.4293    2.5781 C   0  0  0  0  0  0  0  0  0  0  0  0
    7.2450   19.2463    3.5517 N   0  0  0  0  0  0  0  0  0  0  0  0
    6.6069   18.9674    4.6990 C   0  0  0  0  0  0  0  0  0  0  0  0
    5.6581   17.9841    4.9030 C   0  0  0  0  0  0  0  0  0  0  0  0
    5.3211   17.1838    3.7935 C   0  0  0  0  0  0  0  0  0  0  0  0
    4.4218   16.1962    3.8449 N   0  0  0  0  0  0  0  0  0  0  0  0
    5.2194   17.9902    6.2166 N   0  0  0  0  0  0  0  0  0  0  0  0
    5.9012   18.9641    6.7717 C   0  0  0  0  0  0  0  0  0  0  0  0
    6.7572   19.5969    5.9135 N   0  0  0  0  0  0  0  0  0  0  0  0
  1  2  2  0  0  0  0
  1  6  1  0  0  0  0
  2  3  1  0  0  0  0
  3  4  2  0  0  0  0
  4  5  1  0  0  0  0
  4 10  1  0  0  0  0
  5  6  2  0  0  0  0
  5  8  1  0  0  0  0
  6  7  1  0  0  0  0
  8  9  1  0  0  0  0
  9 10  2  0  0  0  0
M  END
>  <CHROM.1>
5.98655455,18.19171008,4.48517066,-1.79000917,0.80822588,1.20785158

>  <Name>
ligand

>  <RI>
0

>  <Rbt.Current_Directory>
/home/itssahil/PROJECTS/Mol_Feturizer/New_Systems/rnas/4XNR

>  <Rbt.Executable>
rbdock ($Id: //depot/dev/client3/rdock/2013.1/src/exe/rbdock.cxx#4 $)

>  <Rbt.Library>
libRbt.so (2013.1, Build901 2013/11/27)

>  <Rbt.Parameter_File>
/export/apps/rDock/src/rDock_2013.1_src/data/scripts/dock_solv.prm

>  <Rbt.Receptor>
prm/pocket_docking_3.prm

>  <SCORE>
-14.6087

>  <SCORE.INTER>
-14.6087

>  <SCORE.INTER.CONST>
1

>  <SCORE.INTER.POLAR>
0

>  <SCORE.INTER.ROT>
0

>  <SCORE.INTER.SOLV>
7.48646

>  <SCORE.INTER.VDW>
-15.8346

>  <SCORE.INTER.norm>
-1.46087

>  <SCORE.INTRA>
0

>  <SCORE.INTRA.DIHEDRAL>
0

>  <SCORE.INTRA.DIHEDRAL.0>
0

>  <SCORE.INTRA.POLAR>
0

>  <SCORE.INTRA.POLAR.0>
0

>  <SCORE.INTRA.REPUL>
0

>  <SCORE.INTRA.REPUL.0>
0

>  <SCORE.INTRA.SOLV>
0

>  <SCORE.INTRA.SOLV.lig_0>
-23.8918

>  <SCORE.INTRA.VDW>
0

>  <SCORE.INTRA.VDW.0>
0

>  <SCORE.INTRA.norm>
0

>  <SCORE.RESTR>
0

>  <SCORE.RESTR.CAVITY>
0

>  <SCORE.RESTR.norm>
0

>  <SCORE.SYSTEM>
0

>  <SCORE.SYSTEM.CONST>
0

>  <SCORE.SYSTEM.DIHEDRAL>
0

>  <SCORE.SYSTEM.SOLV>
0

>  <SCORE.SYSTEM.norm>
0

>  <SCORE.heavy>
10

>  <SCORE.norm>
-1.46087

>  <RMSD>
0.765

$$$$
ligand
 OpenBabel11021811513D
libRbt.so/2013.1/901 2013/11/27
 10 11  0  0  0  0  0  0  0  0999 V2000
    5.9398   17.4320    2.6220 N   0  0  0  0  0  0  0  0  0  0  0  0
    6.8801   18.3835    2.5818 C   0  0  0  0  0  0  0  0  0  0  0  0
    7.3100   19.1787    3.5603 N   0  0  0  0  0  0  0  0  0  0  0  0
    6.6580   18.9210    4.7047 C   0  0  0  0  0  0  0  0  0  0  0  0
    5.6689   17.9768    4.9017 C   0  0  0  0  0  0  0  0  0  0  0  0
    5.3020   17.1963    3.7877 C   0  0  0  0  0  0  0  0  0  0  0  0
    4.3626   16.2464    3.8322 N   0  0  0  0  0  0  0  0  0  0  0  0
    5.2275   17.9948    6.2144 N   0  0  0  0  0  0  0  0  0  0  0  0
    5.9475   18.9372    6.7757 C   0  0  0  0  0  0  0  0  0  0  0  0
    6.8311   19.5380    5.9226 N   0  0  0  0  0  0  0  0  0  0  0  0
  1  2  2  0  0  0  0
  1  6  1  0  0  0  0
  2  3  1  0  0  0  0
  3  4  2  0  0  0  0
  4  5  1  0  0  0  0
  4 10  1  0  0  0  0
  5  6  2  0  0  0  0
  5  8  1  0  0  0  0
  6  7  1  0  0  0  0
  8  9  1  0  0  0  0
  9 10  2  0  0  0  0
M  END
>  <CHROM.1>
6.00673158,18.17260609,4.48570083,-1.80708409,0.76865258,1.22471711

>  <Name>
ligand

>  <RI>
0

>  <Rbt.Current_Directory>
/home/itssahil/PROJECTS/Mol_Feturizer/New_Systems/rnas/4XNR

>  <Rbt.Executable>
rbdock ($Id: //depot/dev/client3/rdock/2013.1/src/exe/rbdock.cxx#4 $)

>  <Rbt.Library>
libRbt.so (2013.1, Build901 2013/11/27)

>  <Rbt.Parameter_File>
/export/apps/rDock/src/rDock_2013.1_src/data/scripts/dock_solv.prm

>  <Rbt.Receptor>
prm/pocket_docking_4.prm

>  <SCORE>
-14.5684

>  <SCORE.INTER>
-14.5684

>  <SCORE.INTER.CONST>
1

>  <SCORE.INTER.POLAR>
0

>  <SCORE.INTER.ROT>
0

>  <SCORE.INTER.SOLV>
7.24009

>  <SCORE.INTER.VDW>
-15.7256

>  <SCORE.INTER.norm>
-1.45684

>  <SCORE.INTRA>
0

>  <SCORE.INTRA.DIHEDRAL>
0

>  <SCORE.INTRA.DIHEDRAL.0>
0

>  <SCORE.INTRA.POLAR>
0

>  <SCORE.INTRA.POLAR.0>
0

>  <SCORE.INTRA.REPUL>
0

>  <SCORE.INTRA.REPUL.0>
0

>  <SCORE.INTRA.SOLV>
0

>  <SCORE.INTRA.SOLV.lig_0>
-23.8918

>  <SCORE.INTRA.VDW>
0

>  <SCORE.INTRA.VDW.0>
0

>  <SCORE.INTRA.norm>
0

>  <SCORE.RESTR>
0

>  <SCORE.RESTR.CAVITY>
0

>  <SCORE.RESTR.norm>
0

>  <SCORE.SYSTEM>
0

>  <SCORE.SYSTEM.CONST>
0

>  <SCORE.SYSTEM.DIHEDRAL>
0

>  <SCORE.SYSTEM.SOLV>
0

>  <SCORE.SYSTEM.norm>
0

>  <SCORE.heavy>
10

>  <SCORE.norm>
-1.45684

>  <RMSD>
0.765

$$$$
ligand
 OpenBabel11021811513D
libRbt.so/2013.1/901 2013/11/27
 10 11  0  0  0  0  0  0  0  0999 V2000
    5.8941   17.4380    2.6362 N   0  0  0  0  0  0  0  0  0  0  0  0
    6.7426   18.4697    2.5521 C   0  0  0  0  0  0  0  0  0  0  0  0
    7.1298   19.3161    3.5052 N   0  0  0  0  0  0  0  0  0  0  0  0
    6.5407   19.0191    4.6740 C   0  0  0  0  0  0  0  0  0  0  0  0
    5.6481   17.9929    4.9163 C   0  0  0  0  0  0  0  0  0  0  0  0
    5.3180   17.1646    3.8254 C   0  0  0  0  0  0  0  0  0  0  0  0
    4.4704   16.1348    3.9137 N   0  0  0  0  0  0  0  0  0  0  0  0
    5.2491   17.9922    6.2426 N   0  0  0  0  0  0  0  0  0  0  0  0
    5.8983   19.0045    6.7671 C   0  0  0  0  0  0  0  0  0  0  0  0
    6.6961   19.6688    5.8772 N   0  0  0  0  0  0  0  0  0  0  0  0
  1  2  2  0  0  0  0
  1  6  1  0  0  0  0
  2  3  1  0  0  0  0
  3  4  2  0  0  0  0
  4  5  1  0  0  0  0
  4 10  1  0  0  0  0
  5  6  2  0  0  0  0
  5  8  1  0  0  0  0
  6  7  1  0  0  0  0
  8  9  1  0  0  0  0
  9 10  2  0  0  0  0
M  END
>  <CHROM.1>
5.95328576,18.21162723,4.48667529,-1.80610032,0.86489406,1.20932993

>  <Name>
ligand

>  <RI>
0

>  <Rbt.Current_Directory>
/home/itssahil/PROJECTS/Mol_Feturizer/New_Systems/rnas/4XNR

>  <Rbt.Executable>
rbdock ($Id: //depot/dev/client3/rdock/2013.1/src/exe/rbdock.cxx#4 $)

>  <Rbt.Library>
libRbt.so (2013.1, Build901 2013/11/27)

>  <Rbt.Parameter_File>
/export/apps/rDock/src/rDock_2013.1_src/data/scripts/dock_solv.prm

>  <Rbt.Receptor>
prm/pocket_docking_6.prm

>  <SCORE>
-14.558

>  <SCORE.INTER>
-14.558

>  <SCORE.INTER.CONST>
1

>  <SCORE.INTER.POLAR>
0

>  <SCORE.INTER.ROT>
0

>  <SCORE.INTER.SOLV>
7.86193

>  <SCORE.INTER.VDW>
-15.926

>  <SCORE.INTER.norm>
-1.4558

>  <SCORE.INTRA>
0

>  <SCORE.INTRA.DIHEDRAL>
0

>  <SCORE.INTRA.DIHEDRAL.0>
0

>  <SCORE.INTRA.POLAR>
0

>  <SCORE.INTRA.POLAR.0>
0

>  <SCORE.INTRA.REPUL>
0

>  <SCORE.INTRA.REPUL.0>
0

>  <SCORE.INTRA.SOLV>
0

>  <SCORE.INTRA.SOLV.lig_0>
-23.8918

>  <SCORE.INTRA.VDW>
0

>  <SCORE.INTRA.VDW.0>
0

>  <SCORE.INTRA.norm>
0

>  <SCORE.RESTR>
0

>  <SCORE.RESTR.CAVITY>
0

>  <SCORE.RESTR.norm>
0

>  <SCORE.SYSTEM>
0

>  <SCORE.SYSTEM.CONST>
0

>  <SCORE.SYSTEM.DIHEDRAL>
0

>  <SCORE.SYSTEM.SOLV>
0

>  <SCORE.SYSTEM.norm>
0

>  <SCORE.heavy>
10

>  <SCORE.norm>
-1.4558

>  <RMSD>
0.765

$$$$
ligand
 OpenBabel11021811513D
libRbt.so/2013.1/901 2013/11/27
 10 11  0  0  0  0  0  0  0  0999 V2000
    5.9223   17.4160    2.6428 N   0  0  0  0  0  0  0  0  0  0  0  0
    6.8187   18.4074    2.5719 C   0  0  0  0  0  0  0  0  0  0  0  0
    7.2249   19.2399    3.5293 N   0  0  0  0  0  0  0  0  0  0  0  0
    6.5995   18.9759    4.6870 C   0  0  0  0  0  0  0  0  0  0  0  0
    5.6561   17.9927    4.9152 C   0  0  0  0  0  0  0  0  0  0  0  0
    5.3105   17.1750    3.8212 C   0  0  0  0  0  0  0  0  0  0  0  0
    4.4151   16.1854    3.8963 N   0  0  0  0  0  0  0  0  0  0  0  0
    5.2309   18.0167    6.2331 N   0  0  0  0  0  0  0  0  0  0  0  0
    5.9150   19.0009    6.7667 C   0  0  0  0  0  0  0  0  0  0  0  0
    6.7601   19.6237    5.8906 N   0  0  0  0  0  0  0  0  0  0  0  0
  1  2  2  0  0  0  0
  1  6  1  0  0  0  0
  2  3  1  0  0  0  0
  3  4  2  0  0  0  0
  4  5  1  0  0  0  0
  4 10  1  0  0  0  0
  5  6  2  0  0  0  0
  5  8  1  0  0  0  0
  6  7  1  0  0  0  0
  8  9  1  0  0  0  0
  9 10  2  0  0  0  0
M  END
>  <CHROM.1>
5.97958471,18.19516655,4.49103943,-1.80223598,0.81496653,1.20200194

>  <Name>
ligand

>  <RI>
0

>  <Rbt.Current_Directory>
/home/itssahil/PROJECTS/Mol_Feturizer/New_Systems/rnas/4XNR

>  <Rbt.Executable>
rbdock ($Id: //depot/dev/client3/rdock/2013.1/src/exe/rbdock.cxx#4 $)

>  <Rbt.Library>
libRbt.so (2013.1, Build901 2013/11/27)

>  <Rbt.Parameter_File>
/export/apps/rDock/src/rDock_2013.1_src/data/scripts/dock_solv.prm

>  <Rbt.Receptor>
prm/pocket_docking_8.prm

>  <SCORE>
-14.5827

>  <SCORE.INTER>
-14.5827

>  <SCORE.INTER.CONST>
1

>  <SCORE.INTER.POLAR>
0

>  <SCORE.INTER.ROT>
0

>  <SCORE.INTER.SOLV>
7.5943

>  <SCORE.INTER.VDW>
-15.8533

>  <SCORE.INTER.norm>
-1.45827

>  <SCORE.INTRA>
0

>  <SCORE.INTRA.DIHEDRAL>
0

>  <SCORE.INTRA.DIHEDRAL.0>
0

>  <SCORE.INTRA.POLAR>
0

>  <SCORE.INTRA.POLAR.0>
0

>  <SCORE.INTRA.REPUL>
0

>  <SCORE.INTRA.REPUL.0>
0

>  <SCORE.INTRA.SOLV>
0

>  <SCORE.INTRA.SOLV.lig_0>
-23.8918

>  <SCORE.INTRA.VDW>
0

>  <SCORE.INTRA.VDW.0>
0

>  <SCORE.INTRA.norm>
0

>  <SCORE.RESTR>
0

>  <SCORE.RESTR.CAVITY>
0

>  <SCORE.RESTR.norm>
0

>  <SCORE.SYSTEM>
0

>  <SCORE.SYSTEM.CONST>
0

>  <SCORE.SYSTEM.DIHEDRAL>
0

>  <SCORE.SYSTEM.SOLV>
0

>  <SCORE.SYSTEM.norm>
0

>  <SCORE.heavy>
10

>  <SCORE.norm>
-1.45827

>  <RMSD>
0.765

$$$$
ligand
 OpenBabel11021811513D
libRbt.so/2013.1/901 2013/11/27
 10 11  0  0  0  0  0  0  0  0999 V2000
    5.9003   17.4337    2.6308 N   0  0  0  0  0  0  0  0  0  0  0  0
    6.8003   18.4229    2.5770 C   0  0  0  0  0  0  0  0  0  0  0  0
    7.2053   19.2410    3.5472 N   0  0  0  0  0  0  0  0  0  0  0  0
    6.5743   18.9635    4.6986 C   0  0  0  0  0  0  0  0  0  0  0  0
    5.6267   17.9806    4.9097 C   0  0  0  0  0  0  0  0  0  0  0  0
    5.2828   17.1789    3.8033 C   0  0  0  0  0  0  0  0  0  0  0  0
    4.3838   16.1914    3.8614 N   0  0  0  0  0  0  0  0  0  0  0  0
    5.1962   17.9882    6.2260 N   0  0  0  0  0  0  0  0  0  0  0  0
    5.8813   18.9628    6.7756 C   0  0  0  0  0  0  0  0  0  0  0  0
    6.7321   19.5944    5.9115 N   0  0  0  0  0  0  0  0  0  0  0  0
  1  2  2  0  0  0  0
  1  6  1  0  0  0  0
  2  3  1  0  0  0  0
  3  4  2  0  0  0  0
  4  5  1  0  0  0  0
  4 10  1  0  0  0  0
  5  6  2  0  0  0  0
  5  8  1  0  0  0  0
  6  7  1  0  0  0  0
  8  9  1  0  0  0  0
  9 10  2  0  0  0  0
M  END
>  <CHROM.1>
5.95258417,18.18760898,4.48959905,-1.79840193,0.81035051,1.21272026

>  <Name>
ligand

>  <RI>
0

>  <Rbt.Current_Directory>
/home/itssahil/PROJECTS/Mol_Feturizer/New_Systems/rnas/4XNR

>  <Rbt.Executable>
rbdock ($Id: //depot/dev/client3/rdock/2013.1/src/exe/rbdock.cxx#4 $)

>  <Rbt.Library>
libRbt.so (2013.1, Build901 2013/11/27)

>  <Rbt.Parameter_File>
/export/apps/rDock/src/rDock_2013.1_src/data/scripts/dock_solv.prm

>  <Rbt.Receptor>
prm/pocket_docking_7.prm

>  <SCORE>
-14.6075

>  <SCORE.INTER>
-14.6075

>  <SCORE.INTER.CONST>
1

>  <SCORE.INTER.POLAR>
0

>  <SCORE.INTER.ROT>
0

>  <SCORE.INTER.SOLV>
7.45761

>  <SCORE.INTER.VDW>
-15.8242

>  <SCORE.INTER.norm>
-1.46075

>  <SCORE.INTRA>
0

>  <SCORE.INTRA.DIHEDRAL>
0

>  <SCORE.INTRA.DIHEDRAL.0>
0

>  <SCORE.INTRA.POLAR>
0

>  <SCORE.INTRA.POLAR.0>
0

>  <SCORE.INTRA.REPUL>
0

>  <SCORE.INTRA.REPUL.0>
0

>  <SCORE.INTRA.SOLV>
0

>  <SCORE.INTRA.SOLV.lig_0>
-23.8918

>  <SCORE.INTRA.VDW>
0

>  <SCORE.INTRA.VDW.0>
0

>  <SCORE.INTRA.norm>
0

>  <SCORE.RESTR>
0

>  <SCORE.RESTR.CAVITY>
0

>  <SCORE.RESTR.norm>
0

>  <SCORE.SYSTEM>
0

>  <SCORE.SYSTEM.CONST>
0

>  <SCORE.SYSTEM.DIHEDRAL>
0

>  <SCORE.SYSTEM.SOLV>
0

>  <SCORE.SYSTEM.norm>
0

>  <SCORE.heavy>
10

>  <SCORE.norm>
-1.46075

>  <RMSD>
0.766

$$$$
ligand
 OpenBabel11021811513D
libRbt.so/2013.1/901 2013/11/27
 10 11  0  0  0  0  0  0  0  0999 V2000
    5.8928   17.5163    2.5875 N   0  0  0  0  0  0  0  0  0  0  0  0
    6.7477   18.5448    2.5354 C   0  0  0  0  0  0  0  0  0  0  0  0
    7.1320   19.3653    3.5120 N   0  0  0  0  0  0  0  0  0  0  0  0
    6.5322   19.0431    4.6686 C   0  0  0  0  0  0  0  0  0  0  0  0
    5.6320   18.0164    4.8786 C   0  0  0  0  0  0  0  0  0  0  0  0
    5.3059   17.2170    3.7652 C   0  0  0  0  0  0  0  0  0  0  0  0
    4.4519   16.1902    3.8216 N   0  0  0  0  0  0  0  0  0  0  0  0
    5.2226   17.9853    6.2014 N   0  0  0  0  0  0  0  0  0  0  0  0
    5.8733   18.9807    6.7557 C   0  0  0  0  0  0  0  0  0  0  0  0
    6.6817   19.6621    5.8886 N   0  0  0  0  0  0  0  0  0  0  0  0
  1  2  2  0  0  0  0
  1  6  1  0  0  0  0
  2  3  1  0  0  0  0
  3  4  2  0  0  0  0
  4  5  1  0  0  0  0
  4 10  1  0  0  0  0
  5  6  2  0  0  0  0
  5  8  1  0  0  0  0
  6  7  1  0  0  0  0
  8  9  1  0  0  0  0
  9 10  2  0  0  0  0
M  END
>  <CHROM.1>
5.94175836,18.24380880,4.45691658,-1.79787453,0.85691482,1.22768610

>  <Name>
ligand

>  <RI>
0

>  <Rbt.Current_Directory>
/home/itssahil/PROJECTS/Mol_Feturizer/New_Systems/rnas/4XNR

>  <Rbt.Executable>
rbdock ($Id: //depot/dev/client3/rdock/2013.1/src/exe/rbdock.cxx#4 $)

>  <Rbt.Library>
libRbt.so (2013.1, Build901 2013/11/27)

>  <Rbt.Parameter_File>
/export/apps/rDock/src/rDock_2013.1_src/data/scripts/dock_solv.prm

>  <Rbt.Receptor>
prm/pocket_docking_8.prm

>  <SCORE>
-14.5178

>  <SCORE.INTER>
-14.5178

>  <SCORE.INTER.CONST>
1

>  <SCORE.INTER.POLAR>
0

>  <SCORE.INTER.ROT>
0

>  <SCORE.INTER.SOLV>
7.57054

>  <SCORE.INTER.VDW>
-15.8021

>  <SCORE.INTER.norm>
-1.45178

>  <SCORE.INTRA>
0

>  <SCORE.INTRA.DIHEDRAL>
0

>  <SCORE.INTRA.DIHEDRAL.0>
0

>  <SCORE.INTRA.POLAR>
0

>  <SCORE.INTRA.POLAR.0>
0

>  <SCORE.INTRA.REPUL>
0

>  <SCORE.INTRA.REPUL.0>
0

>  <SCORE.INTRA.SOLV>
0

>  <SCORE.INTRA.SOLV.lig_0>
-23.8918

>  <SCORE.INTRA.VDW>
0

>  <SCORE.INTRA.VDW.0>
0

>  <SCORE.INTRA.norm>
0

>  <SCORE.RESTR>
0

>  <SCORE.RESTR.CAVITY>
0

>  <SCORE.RESTR.norm>
0

>  <SCORE.SYSTEM>
0

>  <SCORE.SYSTEM.CONST>
0

>  <SCORE.SYSTEM.DIHEDRAL>
0

>  <SCORE.SYSTEM.SOLV>
0

>  <SCORE.SYSTEM.norm>
0

>  <SCORE.heavy>
10

>  <SCORE.norm>
-1.45178

>  <RMSD>
0.766

$$$$
ligand
 OpenBabel11021811513D
libRbt.so/2013.1/901 2013/11/27
 10 11  0  0  0  0  0  0  0  0999 V2000
    5.8526   17.5397    2.5780 N   0  0  0  0  0  0  0  0  0  0  0  0
    6.7403   18.5401    2.5260 C   0  0  0  0  0  0  0  0  0  0  0  0
    7.1668   19.3338    3.5072 N   0  0  0  0  0  0  0  0  0  0  0  0
    6.5746   19.0156    4.6688 C   0  0  0  0  0  0  0  0  0  0  0  0
    5.6442   18.0163    4.8795 C   0  0  0  0  0  0  0  0  0  0  0  0
    5.2744   17.2437    3.7608 C   0  0  0  0  0  0  0  0  0  0  0  0
    4.3879   16.2449    3.8172 N   0  0  0  0  0  0  0  0  0  0  0  0
    5.2546   17.9805    6.2081 N   0  0  0  0  0  0  0  0  0  0  0  0
    5.9465   18.9461    6.7651 C   0  0  0  0  0  0  0  0  0  0  0  0
    6.7635   19.6123    5.8944 N   0  0  0  0  0  0  0  0  0  0  0  0
  1  2  2  0  0  0  0
  1  6  1  0  0  0  0
  2  3  1  0  0  0  0
  3  4  2  0  0  0  0
  4  5  1  0  0  0  0
  4 10  1  0  0  0  0
  5  6  2  0  0  0  0
  5  8  1  0  0  0  0
  6  7  1  0  0  0  0
  8  9  1  0  0  0  0
  9 10  2  0  0  0  0
M  END
>  <CHROM.1>
5.95474817,18.23923226,4.45595167,-1.83613591,0.83049361,1.26989024

>  <Name>
ligand

>  <RI>
0

>  <Rbt.Current_Directory>
/home/itssahil/PROJECTS/Mol_Feturizer/New_Systems/rnas/4XNR

>  <Rbt.Executable>
rbdock ($Id: //depot/dev/client3/rdock/2013.1/src/exe/rbdock.cxx#4 $)

>  <Rbt.Library>
libRbt.so (2013.1, Build901 2013/11/27)

>  <Rbt.Parameter_File>
/export/apps/rDock/src/rDock_2013.1_src/data/scripts/dock_solv.prm

>  <Rbt.Receptor>
prm/pocket_docking_6.prm

>  <SCORE>
-14.5063

>  <SCORE.INTER>
-14.5063

>  <SCORE.INTER.CONST>
1

>  <SCORE.INTER.POLAR>
0

>  <SCORE.INTER.ROT>
0

>  <SCORE.INTER.SOLV>
7.30949

>  <SCORE.INTER.VDW>
-15.7074

>  <SCORE.INTER.norm>
-1.45063

>  <SCORE.INTRA>
0

>  <SCORE.INTRA.DIHEDRAL>
0

>  <SCORE.INTRA.DIHEDRAL.0>
0

>  <SCORE.INTRA.POLAR>
0

>  <SCORE.INTRA.POLAR.0>
0

>  <SCORE.INTRA.REPUL>
0

>  <SCORE.INTRA.REPUL.0>
0

>  <SCORE.INTRA.SOLV>
0

>  <SCORE.INTRA.SOLV.lig_0>
-23.8918

>  <SCORE.INTRA.VDW>
0

>  <SCORE.INTRA.VDW.0>
0

>  <SCORE.INTRA.norm>
0

>  <SCORE.RESTR>
0

>  <SCORE.RESTR.CAVITY>
0

>  <SCORE.RESTR.norm>
0

>  <SCORE.SYSTEM>
0

>  <SCORE.SYSTEM.CONST>
0

>  <SCORE.SYSTEM.DIHEDRAL>
0

>  <SCORE.SYSTEM.SOLV>
0

>  <SCORE.SYSTEM.norm>
0

>  <SCORE.heavy>
10

>  <SCORE.norm>
-1.45063

>  <RMSD>
0.767

$$$$
ligand
 OpenBabel11021811513D
libRbt.so/2013.1/901 2013/11/27
 10 11  0  0  0  0  0  0  0  0999 V2000
    5.9406   17.4215    2.6303 N   0  0  0  0  0  0  0  0  0  0  0  0
    6.8750   18.3790    2.5934 C   0  0  0  0  0  0  0  0  0  0  0  0
    7.2924   19.1807    3.5720 N   0  0  0  0  0  0  0  0  0  0  0  0
    6.6337   18.9229    4.7125 C   0  0  0  0  0  0  0  0  0  0  0  0
    5.6494   17.9730    4.9058 C   0  0  0  0  0  0  0  0  0  0  0  0
    5.2958   17.1859    3.7920 C   0  0  0  0  0  0  0  0  0  0  0  0
    4.3624   16.2300    3.8332 N   0  0  0  0  0  0  0  0  0  0  0  0
    5.1982   17.9930    6.2151 N   0  0  0  0  0  0  0  0  0  0  0  0
    5.9078   18.9421    6.7781 C   0  0  0  0  0  0  0  0  0  0  0  0
    6.7938   19.5456    5.9293 N   0  0  0  0  0  0  0  0  0  0  0  0
  1  2  2  0  0  0  0
  1  6  1  0  0  0  0
  2  3  1  0  0  0  0
  3  4  2  0  0  0  0
  4  5  1  0  0  0  0
  4 10  1  0  0  0  0
  5  6  2  0  0  0  0
  5  8  1  0  0  0  0
  6  7  1  0  0  0  0
  8  9  1  0  0  0  0
  9 10  2  0  0  0  0
M  END
>  <CHROM.1>
5.98898073,18.16944526,4.49156719,-1.79429337,0.77226548,1.21206464

>  <Name>
ligand

>  <RI>
0

>  <Rbt.Current_Directory>
/home/itssahil/PROJECTS/Mol_Feturizer/New_Systems/rnas/4XNR

>  <Rbt.Executable>
rbdock ($Id: //depot/dev/client3/rdock/2013.1/src/exe/rbdock.cxx#4 $)

>  <Rbt.Library>
libRbt.so (2013.1, Build901 2013/11/27)

>  <Rbt.Parameter_File>
/export/apps/rDock/src/rDock_2013.1_src/data/scripts/dock_solv.prm

>  <Rbt.Receptor>
prm/pocket_docking_5.prm

>  <SCORE>
-14.5852

>  <SCORE.INTER>
-14.5852

>  <SCORE.INTER.CONST>
1

>  <SCORE.INTER.POLAR>
0

>  <SCORE.INTER.ROT>
0

>  <SCORE.INTER.SOLV>
7.27343

>  <SCORE.INTER.VDW>
-15.748

>  <SCORE.INTER.norm>
-1.45852

>  <SCORE.INTRA>
0

>  <SCORE.INTRA.DIHEDRAL>
0

>  <SCORE.INTRA.DIHEDRAL.0>
0

>  <SCORE.INTRA.POLAR>
0

>  <SCORE.INTRA.POLAR.0>
0

>  <SCORE.INTRA.REPUL>
0

>  <SCORE.INTRA.REPUL.0>
0

>  <SCORE.INTRA.SOLV>
0

>  <SCORE.INTRA.SOLV.lig_0>
-23.8918

>  <SCORE.INTRA.VDW>
0

>  <SCORE.INTRA.VDW.0>
0

>  <SCORE.INTRA.norm>
0

>  <SCORE.RESTR>
0

>  <SCORE.RESTR.CAVITY>
0

>  <SCORE.RESTR.norm>
0

>  <SCORE.SYSTEM>
0

>  <SCORE.SYSTEM.CONST>
0

>  <SCORE.SYSTEM.DIHEDRAL>
0

>  <SCORE.SYSTEM.SOLV>
0

>  <SCORE.SYSTEM.norm>
0

>  <SCORE.heavy>
10

>  <SCORE.norm>
-1.45852

>  <RMSD>
0.768

$$$$
ligand
 OpenBabel11021811513D
libRbt.so/2013.1/901 2013/11/27
 10 11  0  0  0  0  0  0  0  0999 V2000
    5.9246   17.4241    2.6413 N   0  0  0  0  0  0  0  0  0  0  0  0
    6.8181   18.4185    2.5766 C   0  0  0  0  0  0  0  0  0  0  0  0
    7.2202   19.2477    3.5386 N   0  0  0  0  0  0  0  0  0  0  0  0
    6.5935   18.9765    4.6940 C   0  0  0  0  0  0  0  0  0  0  0  0
    5.6527   17.9895    4.9159 C   0  0  0  0  0  0  0  0  0  0  0  0
    5.3113   17.1759    3.8175 C   0  0  0  0  0  0  0  0  0  0  0  0
    4.4187   16.1833    3.8865 N   0  0  0  0  0  0  0  0  0  0  0  0
    5.2251   18.0062    6.2331 N   0  0  0  0  0  0  0  0  0  0  0  0
    5.9054   18.9899    6.7725 C   0  0  0  0  0  0  0  0  0  0  0  0
    6.7502   19.6192    5.9008 N   0  0  0  0  0  0  0  0  0  0  0  0
  1  2  2  0  0  0  0
  1  6  1  0  0  0  0
  2  3  1  0  0  0  0
  3  4  2  0  0  0  0
  4  5  1  0  0  0  0
  4 10  1  0  0  0  0
  5  6  2  0  0  0  0
  5  8  1  0  0  0  0
  6  7  1  0  0  0  0
  8  9  1  0  0  0  0
  9 10  2  0  0  0  0
M  END
>  <CHROM.1>
5.97627485,18.19485436,4.49325710,-1.79829630,0.81706679,1.20376543

>  <Name>
ligand

>  <RI>
0

>  <Rbt.Current_Directory>
/home/itssahil/PROJECTS/Mol_Feturizer/New_Systems/rnas/4XNR

>  <Rbt.Executable>
rbdock ($Id: //depot/dev/client3/rdock/2013.1/src/exe/rbdock.cxx#4 $)

>  <Rbt.Library>
libRbt.so (2013.1, Build901 2013/11/27)

>  <Rbt.Parameter_File>
/export/apps/rDock/src/rDock_2013.1_src/data/scripts/dock_solv.prm

>  <Rbt.Receptor>
prm/pocket_docking_8.prm

>  <SCORE>
-14.5917

>  <SCORE.INTER>
-14.5917

>  <SCORE.INTER.CONST>
1

>  <SCORE.INTER.POLAR>
0

>  <SCORE.INTER.ROT>
0

>  <SCORE.INTER.SOLV>
7.57594

>  <SCORE.INTER.VDW>
-15.8531

>  <SCORE.INTER.norm>
-1.45917

>  <SCORE.INTRA>
0

>  <SCORE.INTRA.DIHEDRAL>
0

>  <SCORE.INTRA.DIHEDRAL.0>
0

>  <SCORE.INTRA.POLAR>
0

>  <SCORE.INTRA.POLAR.0>
0

>  <SCORE.INTRA.REPUL>
0

>  <SCORE.INTRA.REPUL.0>
0

>  <SCORE.INTRA.SOLV>
0

>  <SCORE.INTRA.SOLV.lig_0>
-23.8918

>  <SCORE.INTRA.VDW>
0

>  <SCORE.INTRA.VDW.0>
0

>  <SCORE.INTRA.norm>
0

>  <SCORE.RESTR>
0

>  <SCORE.RESTR.CAVITY>
0

>  <SCORE.RESTR.norm>
0

>  <SCORE.SYSTEM>
0

>  <SCORE.SYSTEM.CONST>
0

>  <SCORE.SYSTEM.DIHEDRAL>
0

>  <SCORE.SYSTEM.SOLV>
0

>  <SCORE.SYSTEM.norm>
0

>  <SCORE.heavy>
10

>  <SCORE.norm>
-1.45917

>  <RMSD>
0.768

$$$$
ligand
 OpenBabel11021811513D
libRbt.so/2013.1/901 2013/11/27
 10 11  0  0  0  0  0  0  0  0999 V2000
    5.9101   17.4362    2.6368 N   0  0  0  0  0  0  0  0  0  0  0  0
    6.8094   18.4254    2.5738 C   0  0  0  0  0  0  0  0  0  0  0  0
    7.2190   19.2482    3.5382 N   0  0  0  0  0  0  0  0  0  0  0  0
    6.5940   18.9758    4.6941 C   0  0  0  0  0  0  0  0  0  0  0  0
    5.6479   17.9935    4.9145 C   0  0  0  0  0  0  0  0  0  0  0  0
    5.2987   17.1866    3.8136 C   0  0  0  0  0  0  0  0  0  0  0  0
    4.4003   16.1991    3.8809 N   0  0  0  0  0  0  0  0  0  0  0  0
    5.2241   18.0071    6.2330 N   0  0  0  0  0  0  0  0  0  0  0  0
    5.9117   18.9844    6.7746 C   0  0  0  0  0  0  0  0  0  0  0  0
    6.7578   19.6124    5.9032 N   0  0  0  0  0  0  0  0  0  0  0  0
  1  2  2  0  0  0  0
  1  6  1  0  0  0  0
  2  3  1  0  0  0  0
  3  4  2  0  0  0  0
  4  5  1  0  0  0  0
  4 10  1  0  0  0  0
  5  6  2  0  0  0  0
  5  8  1  0  0  0  0
  6  7  1  0  0  0  0
  8  9  1  0  0  0  0
  9 10  2  0  0  0  0
M  END
>  <CHROM.1>
5.97154190,18.19871339,4.49185370,-1.80516995,0.81248169,1.21300610

>  <Name>
ligand

>  <RI>
0

>  <Rbt.Current_Directory>
/home/itssahil/PROJECTS/Mol_Feturizer/New_Systems/rnas/4XNR

>  <Rbt.Executable>
rbdock ($Id: //depot/dev/client3/rdock/2013.1/src/exe/rbdock.cxx#4 $)

>  <Rbt.Library>
libRbt.so (2013.1, Build901 2013/11/27)

>  <Rbt.Parameter_File>
/export/apps/rDock/src/rDock_2013.1_src/data/scripts/dock_solv.prm

>  <Rbt.Receptor>
prm/blind_docking_100.prm

>  <SCORE>
-14.5955

>  <SCORE.INTER>
-14.5955

>  <SCORE.INTER.CONST>
1

>  <SCORE.INTER.POLAR>
0

>  <SCORE.INTER.ROT>
0

>  <SCORE.INTER.SOLV>
7.51242

>  <SCORE.INTER.VDW>
-15.8344

>  <SCORE.INTER.norm>
-1.45955

>  <SCORE.INTRA>
0

>  <SCORE.INTRA.DIHEDRAL>
0

>  <SCORE.INTRA.DIHEDRAL.0>
0

>  <SCORE.INTRA.POLAR>
0

>  <SCORE.INTRA.POLAR.0>
0

>  <SCORE.INTRA.REPUL>
0

>  <SCORE.INTRA.REPUL.0>
0

>  <SCORE.INTRA.SOLV>
0

>  <SCORE.INTRA.SOLV.lig_0>
-23.8918

>  <SCORE.INTRA.VDW>
0

>  <SCORE.INTRA.VDW.0>
0

>  <SCORE.INTRA.norm>
0

>  <SCORE.RESTR>
0

>  <SCORE.RESTR.CAVITY>
0

>  <SCORE.RESTR.norm>
0

>  <SCORE.SYSTEM>
0

>  <SCORE.SYSTEM.CONST>
0

>  <SCORE.SYSTEM.DIHEDRAL>
0

>  <SCORE.SYSTEM.SOLV>
0

>  <SCORE.SYSTEM.norm>
0

>  <SCORE.heavy>
10

>  <SCORE.norm>
-1.45955

>  <RMSD>
0.770

$$$$
ligand
 OpenBabel11021811513D
libRbt.so/2013.1/901 2013/11/27
 10 11  0  0  0  0  0  0  0  0999 V2000
    5.9631   17.4906    2.6077 N   0  0  0  0  0  0  0  0  0  0  0  0
    6.7767   18.5518    2.5516 C   0  0  0  0  0  0  0  0  0  0  0  0
    7.1292   19.3900    3.5252 N   0  0  0  0  0  0  0  0  0  0  0  0
    6.5434   19.0481    4.6833 C   0  0  0  0  0  0  0  0  0  0  0  0
    5.6845   17.9874    4.8974 C   0  0  0  0  0  0  0  0  0  0  0  0
    5.3893   17.1723    3.7869 C   0  0  0  0  0  0  0  0  0  0  0  0
    4.5765   16.1128    3.8473 N   0  0  0  0  0  0  0  0  0  0  0  0
    5.2777   17.9446    6.2207 N   0  0  0  0  0  0  0  0  0  0  0  0
    5.8891   18.9666    6.7712 C   0  0  0  0  0  0  0  0  0  0  0  0
    6.6694   19.6764    5.9012 N   0  0  0  0  0  0  0  0  0  0  0  0
  1  2  2  0  0  0  0
  1  6  1  0  0  0  0
  2  3  1  0  0  0  0
  3  4  2  0  0  0  0
  4  5  1  0  0  0  0
  4 10  1  0  0  0  0
  5  6  2  0  0  0  0
  5  8  1  0  0  0  0
  6  7  1  0  0  0  0
  8  9  1  0  0  0  0
  9 10  2  0  0  0  0
M  END
>  <CHROM.1>
5.98475637,18.22552882,4.47474755,-1.77787229,0.89417962,1.20912230

>  <Name>
ligand

>  <RI>
0

>  <Rbt.Current_Directory>
/home/itssahil/PROJECTS/Mol_Feturizer/New_Systems/rnas/4XNR

>  <Rbt.Executable>
rbdock ($Id: //depot/dev/client3/rdock/2013.1/src/exe/rbdock.cxx#4 $)

>  <Rbt.Library>
libRbt.so (2013.1, Build901 2013/11/27)

>  <Rbt.Parameter_File>
/export/apps/rDock/src/rDock_2013.1_src/data/scripts/dock_solv.prm

>  <Rbt.Receptor>
prm/blind_docking_60.prm

>  <SCORE>
-14.5482

>  <SCORE.INTER>
-14.5482

>  <SCORE.INTER.CONST>
1

>  <SCORE.INTER.POLAR>
0

>  <SCORE.INTER.ROT>
0

>  <SCORE.INTER.SOLV>
8.03072

>  <SCORE.INTER.VDW>
-15.9757

>  <SCORE.INTER.norm>
-1.45482

>  <SCORE.INTRA>
0

>  <SCORE.INTRA.DIHEDRAL>
0

>  <SCORE.INTRA.DIHEDRAL.0>
0

>  <SCORE.INTRA.POLAR>
0

>  <SCORE.INTRA.POLAR.0>
0

>  <SCORE.INTRA.REPUL>
0

>  <SCORE.INTRA.REPUL.0>
0

>  <SCORE.INTRA.SOLV>
0

>  <SCORE.INTRA.SOLV.lig_0>
-23.8918

>  <SCORE.INTRA.VDW>
0

>  <SCORE.INTRA.VDW.0>
0

>  <SCORE.INTRA.norm>
0

>  <SCORE.RESTR>
0

>  <SCORE.RESTR.CAVITY>
0

>  <SCORE.RESTR.norm>
0

>  <SCORE.SYSTEM>
0

>  <SCORE.SYSTEM.CONST>
0

>  <SCORE.SYSTEM.DIHEDRAL>
0

>  <SCORE.SYSTEM.SOLV>
0

>  <SCORE.SYSTEM.norm>
0

>  <SCORE.heavy>
10

>  <SCORE.norm>
-1.45482

>  <RMSD>
0.770

$$$$
ligand
 OpenBabel11021811513D
libRbt.so/2013.1/901 2013/11/27
 10 11  0  0  0  0  0  0  0  0999 V2000
    5.9686   17.5044    2.5966 N   0  0  0  0  0  0  0  0  0  0  0  0
    6.7914   18.5597    2.5678 C   0  0  0  0  0  0  0  0  0  0  0  0
    7.1407   19.3772    3.5599 N   0  0  0  0  0  0  0  0  0  0  0  0
    6.5403   19.0195    4.7057 C   0  0  0  0  0  0  0  0  0  0  0  0
    5.6707   17.9623    4.8919 C   0  0  0  0  0  0  0  0  0  0  0  0
    5.3802   17.1697    3.7639 C   0  0  0  0  0  0  0  0  0  0  0  0
    4.5582   16.1162    3.7970 N   0  0  0  0  0  0  0  0  0  0  0  0
    5.2500   17.8991    6.2100 N   0  0  0  0  0  0  0  0  0  0  0  0
    5.8639   18.9060    6.7850 C   0  0  0  0  0  0  0  0  0  0  0  0
    6.6588   19.6248    5.9359 N   0  0  0  0  0  0  0  0  0  0  0  0
  1  2  2  0  0  0  0
  1  6  1  0  0  0  0
  2  3  1  0  0  0  0
  3  4  2  0  0  0  0
  4  5  1  0  0  0  0
  4 10  1  0  0  0  0
  5  6  2  0  0  0  0
  5  8  1  0  0  0  0
  6  7  1  0  0  0  0
  8  9  1  0  0  0  0
  9 10  2  0  0  0  0
M  END
>  <CHROM.1>
5.97714260,18.20549387,4.47666630,-1.76728941,0.88290992,1.21889654

>  <Name>
ligand

>  <RI>
0

>  <Rbt.Current_Directory>
/home/itssahil/PROJECTS/Mol_Feturizer/New_Systems/rnas/4XNR

>  <Rbt.Executable>
rbdock ($Id: //depot/dev/client3/rdock/2013.1/src/exe/rbdock.cxx#4 $)

>  <Rbt.Library>
libRbt.so (2013.1, Build901 2013/11/27)

>  <Rbt.Parameter_File>
/export/apps/rDock/src/rDock_2013.1_src/data/scripts/dock_solv.prm

>  <Rbt.Receptor>
prm/pocket_docking_8.prm

>  <SCORE>
-14.5366

>  <SCORE.INTER>
-14.5366

>  <SCORE.INTER.CONST>
1

>  <SCORE.INTER.POLAR>
0

>  <SCORE.INTER.ROT>
0

>  <SCORE.INTER.SOLV>
7.89224

>  <SCORE.INTER.VDW>
-15.9218

>  <SCORE.INTER.norm>
-1.45366

>  <SCORE.INTRA>
0

>  <SCORE.INTRA.DIHEDRAL>
0

>  <SCORE.INTRA.DIHEDRAL.0>
0

>  <SCORE.INTRA.POLAR>
0

>  <SCORE.INTRA.POLAR.0>
0

>  <SCORE.INTRA.REPUL>
0

>  <SCORE.INTRA.REPUL.0>
0

>  <SCORE.INTRA.SOLV>
0

>  <SCORE.INTRA.SOLV.lig_0>
-23.8918

>  <SCORE.INTRA.VDW>
0

>  <SCORE.INTRA.VDW.0>
0

>  <SCORE.INTRA.norm>
0

>  <SCORE.RESTR>
0

>  <SCORE.RESTR.CAVITY>
0

>  <SCORE.RESTR.norm>
0

>  <SCORE.SYSTEM>
0

>  <SCORE.SYSTEM.CONST>
0

>  <SCORE.SYSTEM.DIHEDRAL>
0

>  <SCORE.SYSTEM.SOLV>
0

>  <SCORE.SYSTEM.norm>
0

>  <SCORE.heavy>
10

>  <SCORE.norm>
-1.45366

>  <RMSD>
0.770

$$$$
ligand
 OpenBabel11021811513D
libRbt.so/2013.1/901 2013/11/27
 10 11  0  0  0  0  0  0  0  0999 V2000
    5.8947   17.4603    2.6292 N   0  0  0  0  0  0  0  0  0  0  0  0
    6.7645   18.4750    2.5566 C   0  0  0  0  0  0  0  0  0  0  0  0
    7.1641   19.3065    3.5177 N   0  0  0  0  0  0  0  0  0  0  0  0
    6.5635   19.0133    4.6815 C   0  0  0  0  0  0  0  0  0  0  0  0
    5.6489   18.0038    4.9120 C   0  0  0  0  0  0  0  0  0  0  0  0
    5.3073   17.1902    3.8136 C   0  0  0  0  0  0  0  0  0  0  0  0
    4.4385   16.1773    3.8904 N   0  0  0  0  0  0  0  0  0  0  0  0
    5.2435   18.0017    6.2364 N   0  0  0  0  0  0  0  0  0  0  0  0
    5.9106   18.9968    6.7713 C   0  0  0  0  0  0  0  0  0  0  0  0
    6.7261   19.6510    5.8901 N   0  0  0  0  0  0  0  0  0  0  0  0
  1  2  2  0  0  0  0
  1  6  1  0  0  0  0
  2  3  1  0  0  0  0
  3  4  2  0  0  0  0
  4  5  1  0  0  0  0
  4 10  1  0  0  0  0
  5  6  2  0  0  0  0
  5  8  1  0  0  0  0
  6  7  1  0  0  0  0
  8  9  1  0  0  0  0
  9 10  2  0  0  0  0
M  END
>  <CHROM.1>
5.96060441,18.21929577,4.48550606,-1.81005762,0.84409214,1.21952603

>  <Name>
ligand

>  <RI>
0

>  <Rbt.Current_Directory>
/home/itssahil/PROJECTS/Mol_Feturizer/New_Systems/rnas/4XNR

>  <Rbt.Executable>
rbdock ($Id: //depot/dev/client3/rdock/2013.1/src/exe/rbdock.cxx#4 $)

>  <Rbt.Library>
libRbt.so (2013.1, Build901 2013/11/27)

>  <Rbt.Parameter_File>
/export/apps/rDock/src/rDock_2013.1_src/data/scripts/dock_solv.prm

>  <Rbt.Receptor>
prm/blind_docking_60.prm

>  <SCORE>
-14.5572

>  <SCORE.INTER>
-14.5572

>  <SCORE.INTER.CONST>
1

>  <SCORE.INTER.POLAR>
0

>  <SCORE.INTER.ROT>
0

>  <SCORE.INTER.SOLV>
7.65535

>  <SCORE.INTER.VDW>
-15.8566

>  <SCORE.INTER.norm>
-1.45572

>  <SCORE.INTRA>
0

>  <SCORE.INTRA.DIHEDRAL>
0

>  <SCORE.INTRA.DIHEDRAL.0>
0

>  <SCORE.INTRA.POLAR>
0

>  <SCORE.INTRA.POLAR.0>
0

>  <SCORE.INTRA.REPUL>
0

>  <SCORE.INTRA.REPUL.0>
0

>  <SCORE.INTRA.SOLV>
0

>  <SCORE.INTRA.SOLV.lig_0>
-23.8918

>  <SCORE.INTRA.VDW>
0

>  <SCORE.INTRA.VDW.0>
0

>  <SCORE.INTRA.norm>
0

>  <SCORE.RESTR>
0

>  <SCORE.RESTR.CAVITY>
0

>  <SCORE.RESTR.norm>
0

>  <SCORE.SYSTEM>
0

>  <SCORE.SYSTEM.CONST>
0

>  <SCORE.SYSTEM.DIHEDRAL>
0

>  <SCORE.SYSTEM.SOLV>
0

>  <SCORE.SYSTEM.norm>
0

>  <SCORE.heavy>
10

>  <SCORE.norm>
-1.45572

>  <RMSD>
0.771

$$$$
ligand
 OpenBabel11021811513D
libRbt.so/2013.1/901 2013/11/27
 10 11  0  0  0  0  0  0  0  0999 V2000
    5.8802   17.4550    2.6257 N   0  0  0  0  0  0  0  0  0  0  0  0
    6.7836   18.4414    2.5789 C   0  0  0  0  0  0  0  0  0  0  0  0
    7.2040   19.2399    3.5590 N   0  0  0  0  0  0  0  0  0  0  0  0
    6.5860   18.9437    4.7129 C   0  0  0  0  0  0  0  0  0  0  0  0
    5.6369   17.9608    4.9174 C   0  0  0  0  0  0  0  0  0  0  0  0
    5.2761   17.1811    3.8008 C   0  0  0  0  0  0  0  0  0  0  0  0
    4.3737   16.1963    3.8518 N   0  0  0  0  0  0  0  0  0  0  0  0
    5.2226   17.9459    6.2389 N   0  0  0  0  0  0  0  0  0  0  0  0
    5.9186   18.9074    6.7979 C   0  0  0  0  0  0  0  0  0  0  0  0
    6.7613   19.5515    5.9351 N   0  0  0  0  0  0  0  0  0  0  0  0
  1  2  2  0  0  0  0
  1  6  1  0  0  0  0
  2  3  1  0  0  0  0
  3  4  2  0  0  0  0
  4  5  1  0  0  0  0
  4 10  1  0  0  0  0
  5  6  2  0  0  0  0
  5  8  1  0  0  0  0
  6  7  1  0  0  0  0
  8  9  1  0  0  0  0
  9 10  2  0  0  0  0
M  END
>  <CHROM.1>
5.95847003,18.17430033,4.49725514,-1.81723267,0.81059241,1.24480243

>  <Name>
ligand

>  <RI>
0

>  <Rbt.Current_Directory>
/home/itssahil/PROJECTS/Mol_Feturizer/New_Systems/rnas/4XNR

>  <Rbt.Executable>
rbdock ($Id: //depot/dev/client3/rdock/2013.1/src/exe/rbdock.cxx#4 $)

>  <Rbt.Library>
libRbt.so (2013.1, Build901 2013/11/27)

>  <Rbt.Parameter_File>
/export/apps/rDock/src/rDock_2013.1_src/data/scripts/dock_solv.prm

>  <Rbt.Receptor>
prm/pocket_docking_8.prm

>  <SCORE>
-14.5533

>  <SCORE.INTER>
-14.5533

>  <SCORE.INTER.CONST>
1

>  <SCORE.INTER.POLAR>
0

>  <SCORE.INTER.ROT>
0

>  <SCORE.INTER.SOLV>
7.41256

>  <SCORE.INTER.VDW>
-15.773

>  <SCORE.INTER.norm>
-1.45533

>  <SCORE.INTRA>
0

>  <SCORE.INTRA.DIHEDRAL>
0

>  <SCORE.INTRA.DIHEDRAL.0>
0

>  <SCORE.INTRA.POLAR>
0

>  <SCORE.INTRA.POLAR.0>
0

>  <SCORE.INTRA.REPUL>
0

>  <SCORE.INTRA.REPUL.0>
0

>  <SCORE.INTRA.SOLV>
0

>  <SCORE.INTRA.SOLV.lig_0>
-23.8918

>  <SCORE.INTRA.VDW>
0

>  <SCORE.INTRA.VDW.0>
0

>  <SCORE.INTRA.norm>
0

>  <SCORE.RESTR>
0

>  <SCORE.RESTR.CAVITY>
0

>  <SCORE.RESTR.norm>
0

>  <SCORE.SYSTEM>
0

>  <SCORE.SYSTEM.CONST>
0

>  <SCORE.SYSTEM.DIHEDRAL>
0

>  <SCORE.SYSTEM.SOLV>
0

>  <SCORE.SYSTEM.norm>
0

>  <SCORE.heavy>
10

>  <SCORE.norm>
-1.45533

>  <RMSD>
0.771

$$$$
ligand
 OpenBabel11021811513D
libRbt.so/2013.1/901 2013/11/27
 10 11  0  0  0  0  0  0  0  0999 V2000
    5.8986   17.4391    2.6339 N   0  0  0  0  0  0  0  0  0  0  0  0
    6.8025   18.4248    2.5811 C   0  0  0  0  0  0  0  0  0  0  0  0
    7.2097   19.2413    3.5518 N   0  0  0  0  0  0  0  0  0  0  0  0
    6.5761   18.9664    4.7025 C   0  0  0  0  0  0  0  0  0  0  0  0
    5.6244   17.9872    4.9124 C   0  0  0  0  0  0  0  0  0  0  0  0
    5.2786   17.1869    3.8056 C   0  0  0  0  0  0  0  0  0  0  0  0
    4.3756   16.2030    3.8627 N   0  0  0  0  0  0  0  0  0  0  0  0
    5.1922   17.9966    6.2282 N   0  0  0  0  0  0  0  0  0  0  0  0
    5.8806   18.9685    6.7787 C   0  0  0  0  0  0  0  0  0  0  0  0
    6.7350   19.5967    5.9155 N   0  0  0  0  0  0  0  0  0  0  0  0
  1  2  2  0  0  0  0
  1  6  1  0  0  0  0
  2  3  1  0  0  0  0
  3  4  2  0  0  0  0
  4  5  1  0  0  0  0
  4 10  1  0  0  0  0
  5  6  2  0  0  0  0
  5  8  1  0  0  0  0
  6  7  1  0  0  0  0
  8  9  1  0  0  0  0
  9 10  2  0  0  0  0
M  END
>  <CHROM.1>
5.95157265,18.19294105,4.49273182,-1.79876770,0.80617783,1.21295279

>  <Name>
ligand

>  <RI>
0

>  <Rbt.Current_Directory>
/home/itssahil/PROJECTS/Mol_Feturizer/New_Systems/rnas/4XNR

>  <Rbt.Executable>
rbdock ($Id: //depot/dev/client3/rdock/2013.1/src/exe/rbdock.cxx#4 $)

>  <Rbt.Library>
libRbt.so (2013.1, Build901 2013/11/27)

>  <Rbt.Parameter_File>
/export/apps/rDock/src/rDock_2013.1_src/data/scripts/dock_solv.prm

>  <Rbt.Receptor>
prm/pocket_docking_6.prm

>  <SCORE>
-14.6009

>  <SCORE.INTER>
-14.6009

>  <SCORE.INTER.CONST>
1

>  <SCORE.INTER.POLAR>
0

>  <SCORE.INTER.ROT>
0

>  <SCORE.INTER.SOLV>
7.43007

>  <SCORE.INTER.VDW>
-15.8107

>  <SCORE.INTER.norm>
-1.46009

>  <SCORE.INTRA>
0

>  <SCORE.INTRA.DIHEDRAL>
0

>  <SCORE.INTRA.DIHEDRAL.0>
0

>  <SCORE.INTRA.POLAR>
0

>  <SCORE.INTRA.POLAR.0>
0

>  <SCORE.INTRA.REPUL>
0

>  <SCORE.INTRA.REPUL.0>
0

>  <SCORE.INTRA.SOLV>
0

>  <SCORE.INTRA.SOLV.lig_0>
-23.8918

>  <SCORE.INTRA.VDW>
0

>  <SCORE.INTRA.VDW.0>
0

>  <SCORE.INTRA.norm>
0

>  <SCORE.RESTR>
0

>  <SCORE.RESTR.CAVITY>
0

>  <SCORE.RESTR.norm>
0

>  <SCORE.SYSTEM>
0

>  <SCORE.SYSTEM.CONST>
0

>  <SCORE.SYSTEM.DIHEDRAL>
0

>  <SCORE.SYSTEM.SOLV>
0

>  <SCORE.SYSTEM.norm>
0

>  <SCORE.heavy>
10

>  <SCORE.norm>
-1.46009

>  <RMSD>
0.772

$$$$
ligand
 OpenBabel11021811513D
libRbt.so/2013.1/901 2013/11/27
 10 11  0  0  0  0  0  0  0  0999 V2000
    5.8801   17.4328    2.6415 N   0  0  0  0  0  0  0  0  0  0  0  0
    6.7635   18.4366    2.5829 C   0  0  0  0  0  0  0  0  0  0  0  0
    7.1788   19.2453    3.5567 N   0  0  0  0  0  0  0  0  0  0  0  0
    6.5793   18.9397    4.7179 C   0  0  0  0  0  0  0  0  0  0  0  0
    5.6519   17.9389    4.9348 C   0  0  0  0  0  0  0  0  0  0  0  0
    5.2943   17.1498    3.8237 C   0  0  0  0  0  0  0  0  0  0  0  0
    4.4119   16.1477    3.8866 N   0  0  0  0  0  0  0  0  0  0  0  0
    5.2523   17.9189    6.2607 N   0  0  0  0  0  0  0  0  0  0  0  0
    5.9355   18.8951    6.8101 C   0  0  0  0  0  0  0  0  0  0  0  0
    6.7561   19.5535    5.9369 N   0  0  0  0  0  0  0  0  0  0  0  0
  1  2  2  0  0  0  0
  1  6  1  0  0  0  0
  2  3  1  0  0  0  0
  3  4  2  0  0  0  0
  4  5  1  0  0  0  0
  4 10  1  0  0  0  0
  5  6  2  0  0  0  0
  5  8  1  0  0  0  0
  6  7  1  0  0  0  0
  8  9  1  0  0  0  0
  9 10  2  0  0  0  0
M  END
>  <CHROM.1>
5.96464776,18.15769719,4.51068399,-1.82325344,0.83258162,1.24708133

>  <Name>
ligand

>  <RI>
0

>  <Rbt.Current_Directory>
/home/itssahil/PROJECTS/Mol_Feturizer/New_Systems/rnas/4XNR

>  <Rbt.Executable>
rbdock ($Id: //depot/dev/client3/rdock/2013.1/src/exe/rbdock.cxx#4 $)

>  <Rbt.Library>
libRbt.so (2013.1, Build901 2013/11/27)

>  <Rbt.Parameter_File>
/export/apps/rDock/src/rDock_2013.1_src/data/scripts/dock_solv.prm

>  <Rbt.Receptor>
prm/pocket_docking_6.prm

>  <SCORE>
-14.52

>  <SCORE.INTER>
-14.52

>  <SCORE.INTER.CONST>
1

>  <SCORE.INTER.POLAR>
0

>  <SCORE.INTER.ROT>
0

>  <SCORE.INTER.SOLV>
7.62907

>  <SCORE.INTER.VDW>
-15.823

>  <SCORE.INTER.norm>
-1.452

>  <SCORE.INTRA>
0

>  <SCORE.INTRA.DIHEDRAL>
0

>  <SCORE.INTRA.DIHEDRAL.0>
0

>  <SCORE.INTRA.POLAR>
0

>  <SCORE.INTRA.POLAR.0>
0

>  <SCORE.INTRA.REPUL>
0

>  <SCORE.INTRA.REPUL.0>
0

>  <SCORE.INTRA.SOLV>
0

>  <SCORE.INTRA.SOLV.lig_0>
-23.8918

>  <SCORE.INTRA.VDW>
0

>  <SCORE.INTRA.VDW.0>
0

>  <SCORE.INTRA.norm>
0

>  <SCORE.RESTR>
0

>  <SCORE.RESTR.CAVITY>
0

>  <SCORE.RESTR.norm>
0

>  <SCORE.SYSTEM>
0

>  <SCORE.SYSTEM.CONST>
0

>  <SCORE.SYSTEM.DIHEDRAL>
0

>  <SCORE.SYSTEM.SOLV>
0

>  <SCORE.SYSTEM.norm>
0

>  <SCORE.heavy>
10

>  <SCORE.norm>
-1.452

>  <RMSD>
0.772

$$$$
ligand
 OpenBabel11021811513D
libRbt.so/2013.1/901 2013/11/27
 10 11  0  0  0  0  0  0  0  0999 V2000
    5.9052   17.4379    2.6350 N   0  0  0  0  0  0  0  0  0  0  0  0
    6.8171   18.4167    2.5915 C   0  0  0  0  0  0  0  0  0  0  0  0
    7.2317   19.2198    3.5701 N   0  0  0  0  0  0  0  0  0  0  0  0
    6.5970   18.9382    4.7185 C   0  0  0  0  0  0  0  0  0  0  0  0
    5.6376   17.9646    4.9193 C   0  0  0  0  0  0  0  0  0  0  0  0
    5.2844   17.1785    3.8047 C   0  0  0  0  0  0  0  0  0  0  0  0
    4.3735   16.2014    3.8526 N   0  0  0  0  0  0  0  0  0  0  0  0
    5.2068   17.9640    6.2356 N   0  0  0  0  0  0  0  0  0  0  0  0
    5.9035   18.9246    6.7953 C   0  0  0  0  0  0  0  0  0  0  0  0
    6.7621   19.5547    5.9378 N   0  0  0  0  0  0  0  0  0  0  0  0
  1  2  2  0  0  0  0
  1  6  1  0  0  0  0
  2  3  1  0  0  0  0
  3  4  2  0  0  0  0
  4  5  1  0  0  0  0
  4 10  1  0  0  0  0
  5  6  2  0  0  0  0
  5  8  1  0  0  0  0
  6  7  1  0  0  0  0
  8  9  1  0  0  0  0
  9 10  2  0  0  0  0
M  END
>  <CHROM.1>
5.96604790,18.17203080,4.50144722,-1.80408268,0.79893579,1.22706759

>  <Name>
ligand

>  <RI>
0

>  <Rbt.Current_Directory>
/home/itssahil/PROJECTS/Mol_Feturizer/New_Systems/rnas/4XNR

>  <Rbt.Executable>
rbdock ($Id: //depot/dev/client3/rdock/2013.1/src/exe/rbdock.cxx#4 $)

>  <Rbt.Library>
libRbt.so (2013.1, Build901 2013/11/27)

>  <Rbt.Parameter_File>
/export/apps/rDock/src/rDock_2013.1_src/data/scripts/dock_solv.prm

>  <Rbt.Receptor>
prm/blind_docking_40.prm

>  <SCORE>
-14.5755

>  <SCORE.INTER>
-14.5755

>  <SCORE.INTER.CONST>
1

>  <SCORE.INTER.POLAR>
0

>  <SCORE.INTER.ROT>
0

>  <SCORE.INTER.SOLV>
7.39845

>  <SCORE.INTER.VDW>
-15.7832

>  <SCORE.INTER.norm>
-1.45755

>  <SCORE.INTRA>
0

>  <SCORE.INTRA.DIHEDRAL>
0

>  <SCORE.INTRA.DIHEDRAL.0>
0

>  <SCORE.INTRA.POLAR>
0

>  <SCORE.INTRA.POLAR.0>
0

>  <SCORE.INTRA.REPUL>
0

>  <SCORE.INTRA.REPUL.0>
0

>  <SCORE.INTRA.SOLV>
0

>  <SCORE.INTRA.SOLV.lig_0>
-23.8918

>  <SCORE.INTRA.VDW>
0

>  <SCORE.INTRA.VDW.0>
0

>  <SCORE.INTRA.norm>
0

>  <SCORE.RESTR>
0

>  <SCORE.RESTR.CAVITY>
0

>  <SCORE.RESTR.norm>
0

>  <SCORE.SYSTEM>
0

>  <SCORE.SYSTEM.CONST>
0

>  <SCORE.SYSTEM.DIHEDRAL>
0

>  <SCORE.SYSTEM.SOLV>
0

>  <SCORE.SYSTEM.norm>
0

>  <SCORE.heavy>
10

>  <SCORE.norm>
-1.45755

>  <RMSD>
0.774

$$$$
ligand
 OpenBabel11021811513D
libRbt.so/2013.1/901 2013/11/27
 10 11  0  0  0  0  0  0  0  0999 V2000
    5.9371   17.4907    2.6112 N   0  0  0  0  0  0  0  0  0  0  0  0
    6.7364   18.5625    2.5522 C   0  0  0  0  0  0  0  0  0  0  0  0
    7.0821   19.4048    3.5247 N   0  0  0  0  0  0  0  0  0  0  0  0
    6.5058   19.0547    4.6851 C   0  0  0  0  0  0  0  0  0  0  0  0
    5.6619   17.9826    4.9024 C   0  0  0  0  0  0  0  0  0  0  0  0
    5.3726   17.1642    3.7926 C   0  0  0  0  0  0  0  0  0  0  0  0
    4.5741   16.0942    3.8560 N   0  0  0  0  0  0  0  0  0  0  0  0
    5.2613   17.9338    6.2273 N   0  0  0  0  0  0  0  0  0  0  0  0
    5.8616   18.9635    6.7757 C   0  0  0  0  0  0  0  0  0  0  0  0
    6.6287   19.6840    5.9028 N   0  0  0  0  0  0  0  0  0  0  0  0
  1  2  2  0  0  0  0
  1  6  1  0  0  0  0
  2  3  1  0  0  0  0
  3  4  2  0  0  0  0
  4  5  1  0  0  0  0
  4 10  1  0  0  0  0
  5  6  2  0  0  0  0
  5  8  1  0  0  0  0
  6  7  1  0  0  0  0
  8  9  1  0  0  0  0
  9 10  2  0  0  0  0
M  END
>  <CHROM.1>
5.95712539,18.22490224,4.47850973,-1.77684299,0.90799998,1.20882852

>  <Name>
ligand

>  <RI>
0

>  <Rbt.Current_Directory>
/home/itssahil/PROJECTS/Mol_Feturizer/New_Systems/rnas/4XNR

>  <Rbt.Executable>
rbdock ($Id: //depot/dev/client3/rdock/2013.1/src/exe/rbdock.cxx#4 $)

>  <Rbt.Library>
libRbt.so (2013.1, Build901 2013/11/27)

>  <Rbt.Parameter_File>
/export/apps/rDock/src/rDock_2013.1_src/data/scripts/dock_solv.prm

>  <Rbt.Receptor>
prm/blind_docking_60.prm

>  <SCORE>
-14.5465

>  <SCORE.INTER>
-14.5465

>  <SCORE.INTER.CONST>
1

>  <SCORE.INTER.POLAR>
0

>  <SCORE.INTER.ROT>
0

>  <SCORE.INTER.SOLV>
8.09794

>  <SCORE.INTER.VDW>
-15.997

>  <SCORE.INTER.norm>
-1.45465

>  <SCORE.INTRA>
0

>  <SCORE.INTRA.DIHEDRAL>
0

>  <SCORE.INTRA.DIHEDRAL.0>
0

>  <SCORE.INTRA.POLAR>
0

>  <SCORE.INTRA.POLAR.0>
0

>  <SCORE.INTRA.REPUL>
0

>  <SCORE.INTRA.REPUL.0>
0

>  <SCORE.INTRA.SOLV>
0

>  <SCORE.INTRA.SOLV.lig_0>
-23.8918

>  <SCORE.INTRA.VDW>
0

>  <SCORE.INTRA.VDW.0>
0

>  <SCORE.INTRA.norm>
0

>  <SCORE.RESTR>
0

>  <SCORE.RESTR.CAVITY>
0

>  <SCORE.RESTR.norm>
0

>  <SCORE.SYSTEM>
0

>  <SCORE.SYSTEM.CONST>
0

>  <SCORE.SYSTEM.DIHEDRAL>
0

>  <SCORE.SYSTEM.SOLV>
0

>  <SCORE.SYSTEM.norm>
0

>  <SCORE.heavy>
10

>  <SCORE.norm>
-1.45465

>  <RMSD>
0.774

$$$$
ligand
 OpenBabel11021811513D
libRbt.so/2013.1/901 2013/11/27
 10 11  0  0  0  0  0  0  0  0999 V2000
    5.8869   17.4385    2.6370 N   0  0  0  0  0  0  0  0  0  0  0  0
    6.7983   18.4175    2.5908 C   0  0  0  0  0  0  0  0  0  0  0  0
    7.2166   19.2199    3.5685 N   0  0  0  0  0  0  0  0  0  0  0  0
    6.5866   18.9370    4.7192 C   0  0  0  0  0  0  0  0  0  0  0  0
    5.6282   17.9630    4.9229 C   0  0  0  0  0  0  0  0  0  0  0  0
    5.2707   17.1778    3.8090 C   0  0  0  0  0  0  0  0  0  0  0  0
    4.3603   16.2005    3.8595 N   0  0  0  0  0  0  0  0  0  0  0  0
    5.2026   17.9610    6.2409 N   0  0  0  0  0  0  0  0  0  0  0  0
    5.9014   18.9211    6.7987 C   0  0  0  0  0  0  0  0  0  0  0  0
    6.7564   19.5523    5.9384 N   0  0  0  0  0  0  0  0  0  0  0  0
  1  2  2  0  0  0  0
  1  6  1  0  0  0  0
  2  3  1  0  0  0  0
  3  4  2  0  0  0  0
  4  5  1  0  0  0  0
  4 10  1  0  0  0  0
  5  6  2  0  0  0  0
  5  8  1  0  0  0  0
  6  7  1  0  0  0  0
  8  9  1  0  0  0  0
  9 10  2  0  0  0  0
M  END
>  <CHROM.1>
5.95495018,18.17083702,4.50392132,-1.80935961,0.80050325,1.23181770

>  <Name>
ligand

>  <RI>
0

>  <Rbt.Current_Directory>
/home/itssahil/PROJECTS/Mol_Feturizer/New_Systems/rnas/4XNR

>  <Rbt.Executable>
rbdock ($Id: //depot/dev/client3/rdock/2013.1/src/exe/rbdock.cxx#4 $)

>  <Rbt.Library>
libRbt.so (2013.1, Build901 2013/11/27)

>  <Rbt.Parameter_File>
/export/apps/rDock/src/rDock_2013.1_src/data/scripts/dock_solv.prm

>  <Rbt.Receptor>
prm/blind_docking_60.prm

>  <SCORE>
-14.5745

>  <SCORE.INTER>
-14.5745

>  <SCORE.INTER.CONST>
1

>  <SCORE.INTER.POLAR>
0

>  <SCORE.INTER.ROT>
0

>  <SCORE.INTER.SOLV>
7.40309

>  <SCORE.INTER.VDW>
-15.784

>  <SCORE.INTER.norm>
-1.45745

>  <SCORE.INTRA>
0

>  <SCORE.INTRA.DIHEDRAL>
0

>  <SCORE.INTRA.DIHEDRAL.0>
0

>  <SCORE.INTRA.POLAR>
0

>  <SCORE.INTRA.POLAR.0>
0

>  <SCORE.INTRA.REPUL>
0

>  <SCORE.INTRA.REPUL.0>
0

>  <SCORE.INTRA.SOLV>
0

>  <SCORE.INTRA.SOLV.lig_0>
-23.8918

>  <SCORE.INTRA.VDW>
0

>  <SCORE.INTRA.VDW.0>
0

>  <SCORE.INTRA.norm>
0

>  <SCORE.RESTR>
0

>  <SCORE.RESTR.CAVITY>
0

>  <SCORE.RESTR.norm>
0

>  <SCORE.SYSTEM>
0

>  <SCORE.SYSTEM.CONST>
0

>  <SCORE.SYSTEM.DIHEDRAL>
0

>  <SCORE.SYSTEM.SOLV>
0

>  <SCORE.SYSTEM.norm>
0

>  <SCORE.heavy>
10

>  <SCORE.norm>
-1.45745

>  <RMSD>
0.775

$$$$
ligand
 OpenBabel11021811513D
libRbt.so/2013.1/901 2013/11/27
 10 11  0  0  0  0  0  0  0  0999 V2000
    5.9181   17.4377    2.6325 N   0  0  0  0  0  0  0  0  0  0  0  0
    6.8388   18.4084    2.5969 C   0  0  0  0  0  0  0  0  0  0  0  0
    7.2490   19.2107    3.5781 N   0  0  0  0  0  0  0  0  0  0  0  0
    6.5987   18.9377    4.7199 C   0  0  0  0  0  0  0  0  0  0  0  0
    5.6287   17.9730    4.9122 C   0  0  0  0  0  0  0  0  0  0  0  0
    5.2816   17.1869    3.7957 C   0  0  0  0  0  0  0  0  0  0  0  0
    4.3618   16.2179    3.8356 N   0  0  0  0  0  0  0  0  0  0  0  0
    5.1827   17.9797    6.2234 N   0  0  0  0  0  0  0  0  0  0  0  0
    5.8813   18.9358    6.7886 C   0  0  0  0  0  0  0  0  0  0  0  0
    6.7551   19.5561    5.9394 N   0  0  0  0  0  0  0  0  0  0  0  0
  1  2  2  0  0  0  0
  1  6  1  0  0  0  0
  2  3  1  0  0  0  0
  3  4  2  0  0  0  0
  4  5  1  0  0  0  0
  4 10  1  0  0  0  0
  5  6  2  0  0  0  0
  5  8  1  0  0  0  0
  6  7  1  0  0  0  0
  8  9  1  0  0  0  0
  9 10  2  0  0  0  0
M  END
>  <CHROM.1>
5.96373101,18.17642689,4.49757968,-1.79283661,0.78686560,1.21635587

>  <Name>
ligand

>  <RI>
0

>  <Rbt.Current_Directory>
/home/itssahil/PROJECTS/Mol_Feturizer/New_Systems/rnas/4XNR

>  <Rbt.Executable>
rbdock ($Id: //depot/dev/client3/rdock/2013.1/src/exe/rbdock.cxx#4 $)

>  <Rbt.Library>
libRbt.so (2013.1, Build901 2013/11/27)

>  <Rbt.Parameter_File>
/export/apps/rDock/src/rDock_2013.1_src/data/scripts/dock_solv.prm

>  <Rbt.Receptor>
prm/pocket_docking_3.prm

>  <SCORE>
-14.5984

>  <SCORE.INTER>
-14.5984

>  <SCORE.INTER.CONST>
1

>  <SCORE.INTER.POLAR>
0

>  <SCORE.INTER.ROT>
0

>  <SCORE.INTER.SOLV>
7.31518

>  <SCORE.INTER.VDW>
-15.7707

>  <SCORE.INTER.norm>
-1.45984

>  <SCORE.INTRA>
0

>  <SCORE.INTRA.DIHEDRAL>
0

>  <SCORE.INTRA.DIHEDRAL.0>
0

>  <SCORE.INTRA.POLAR>
0

>  <SCORE.INTRA.POLAR.0>
0

>  <SCORE.INTRA.REPUL>
0

>  <SCORE.INTRA.REPUL.0>
0

>  <SCORE.INTRA.SOLV>
0

>  <SCORE.INTRA.SOLV.lig_0>
-23.8918

>  <SCORE.INTRA.VDW>
0

>  <SCORE.INTRA.VDW.0>
0

>  <SCORE.INTRA.norm>
0

>  <SCORE.RESTR>
0

>  <SCORE.RESTR.CAVITY>
0

>  <SCORE.RESTR.norm>
0

>  <SCORE.SYSTEM>
0

>  <SCORE.SYSTEM.CONST>
0

>  <SCORE.SYSTEM.DIHEDRAL>
0

>  <SCORE.SYSTEM.SOLV>
0

>  <SCORE.SYSTEM.norm>
0

>  <SCORE.heavy>
10

>  <SCORE.norm>
-1.45984

>  <RMSD>
0.775

$$$$
ligand
 OpenBabel11021811513D
libRbt.so/2013.1/901 2013/11/27
 10 11  0  0  0  0  0  0  0  0999 V2000
    6.0153   17.5127    2.5966 N   0  0  0  0  0  0  0  0  0  0  0  0
    6.8266   18.5767    2.5630 C   0  0  0  0  0  0  0  0  0  0  0  0
    7.1658   19.4034    3.5511 N   0  0  0  0  0  0  0  0  0  0  0  0
    6.5680   19.0454    4.6981 C   0  0  0  0  0  0  0  0  0  0  0  0
    5.7097   17.9798    4.8891 C   0  0  0  0  0  0  0  0  0  0  0  0
    5.4292   17.1780    3.7651 C   0  0  0  0  0  0  0  0  0  0  0  0
    4.6187   16.1157    3.8030 N   0  0  0  0  0  0  0  0  0  0  0  0
    5.2881   17.9192    6.2070 N   0  0  0  0  0  0  0  0  0  0  0  0
    5.8904   18.9357    6.7772 C   0  0  0  0  0  0  0  0  0  0  0  0
    6.6785   19.6586    5.9252 N   0  0  0  0  0  0  0  0  0  0  0  0
  1  2  2  0  0  0  0
  1  6  1  0  0  0  0
  2  3  1  0  0  0  0
  3  4  2  0  0  0  0
  4  5  1  0  0  0  0
  4 10  1  0  0  0  0
  5  6  2  0  0  0  0
  5  8  1  0  0  0  0
  6  7  1  0  0  0  0
  8  9  1  0  0  0  0
  9 10  2  0  0  0  0
M  END
>  <CHROM.1>
6.01396842,18.22402371,4.47285631,-1.75953618,0.89268914,1.20745350

>  <Name>
ligand

>  <RI>
0

>  <Rbt.Current_Directory>
/home/itssahil/PROJECTS/Mol_Feturizer/New_Systems/rnas/4XNR

>  <Rbt.Executable>
rbdock ($Id: //depot/dev/client3/rdock/2013.1/src/exe/rbdock.cxx#4 $)

>  <Rbt.Library>
libRbt.so (2013.1, Build901 2013/11/27)

>  <Rbt.Parameter_File>
/export/apps/rDock/src/rDock_2013.1_src/data/scripts/dock_solv.prm

>  <Rbt.Receptor>
prm/pocket_docking_4.prm

>  <SCORE>
-14.53

>  <SCORE.INTER>
-14.53

>  <SCORE.INTER.CONST>
1

>  <SCORE.INTER.POLAR>
0

>  <SCORE.INTER.ROT>
0

>  <SCORE.INTER.SOLV>
8.02014

>  <SCORE.INTER.VDW>
-15.96

>  <SCORE.INTER.norm>
-1.453

>  <SCORE.INTRA>
0

>  <SCORE.INTRA.DIHEDRAL>
0

>  <SCORE.INTRA.DIHEDRAL.0>
0

>  <SCORE.INTRA.POLAR>
0

>  <SCORE.INTRA.POLAR.0>
0

>  <SCORE.INTRA.REPUL>
0

>  <SCORE.INTRA.REPUL.0>
0

>  <SCORE.INTRA.SOLV>
0

>  <SCORE.INTRA.SOLV.lig_0>
-23.8918

>  <SCORE.INTRA.VDW>
0

>  <SCORE.INTRA.VDW.0>
0

>  <SCORE.INTRA.norm>
0

>  <SCORE.RESTR>
0

>  <SCORE.RESTR.CAVITY>
0

>  <SCORE.RESTR.norm>
0

>  <SCORE.SYSTEM>
0

>  <SCORE.SYSTEM.CONST>
0

>  <SCORE.SYSTEM.DIHEDRAL>
0

>  <SCORE.SYSTEM.SOLV>
0

>  <SCORE.SYSTEM.norm>
0

>  <SCORE.heavy>
10

>  <SCORE.norm>
-1.453

>  <RMSD>
0.775

$$$$
ligand
 OpenBabel11021811513D
libRbt.so/2013.1/901 2013/11/27
 10 11  0  0  0  0  0  0  0  0999 V2000
    5.9169   17.4438    2.6360 N   0  0  0  0  0  0  0  0  0  0  0  0
    6.8194   18.4312    2.5924 C   0  0  0  0  0  0  0  0  0  0  0  0
    7.2301   19.2351    3.5721 N   0  0  0  0  0  0  0  0  0  0  0  0
    6.6022   18.9439    4.7219 C   0  0  0  0  0  0  0  0  0  0  0  0
    5.6526   17.9608    4.9230 C   0  0  0  0  0  0  0  0  0  0  0  0
    5.3027   17.1750    3.8071 C   0  0  0  0  0  0  0  0  0  0  0  0
    4.4011   16.1893    3.8551 N   0  0  0  0  0  0  0  0  0  0  0  0
    5.2266   17.9520    6.2408 N   0  0  0  0  0  0  0  0  0  0  0  0
    5.9164   18.9172    6.8011 C   0  0  0  0  0  0  0  0  0  0  0  0
    6.7660   19.5580    5.9426 N   0  0  0  0  0  0  0  0  0  0  0  0
  1  2  2  0  0  0  0
  1  6  1  0  0  0  0
  2  3  1  0  0  0  0
  3  4  2  0  0  0  0
  4  5  1  0  0  0  0
  4 10  1  0  0  0  0
  5  6  2  0  0  0  0
  5  8  1  0  0  0  0
  6  7  1  0  0  0  0
  8  9  1  0  0  0  0
  9 10  2  0  0  0  0
M  END
>  <CHROM.1>
5.97760678,18.17259752,4.50460874,-1.80448312,0.80890580,1.23055181

>  <Name>
ligand

>  <RI>
0

>  <Rbt.Current_Directory>
/home/itssahil/PROJECTS/Mol_Feturizer/New_Systems/rnas/4XNR

>  <Rbt.Executable>
rbdock ($Id: //depot/dev/client3/rdock/2013.1/src/exe/rbdock.cxx#4 $)

>  <Rbt.Library>
libRbt.so (2013.1, Build901 2013/11/27)

>  <Rbt.Parameter_File>
/export/apps/rDock/src/rDock_2013.1_src/data/scripts/dock_solv.prm

>  <Rbt.Receptor>
prm/blind_docking_100.prm

>  <SCORE>
-14.5658

>  <SCORE.INTER>
-14.5658

>  <SCORE.INTER.CONST>
1

>  <SCORE.INTER.POLAR>
0

>  <SCORE.INTER.ROT>
0

>  <SCORE.INTER.SOLV>
7.47605

>  <SCORE.INTER.VDW>
-15.8026

>  <SCORE.INTER.norm>
-1.45658

>  <SCORE.INTRA>
0

>  <SCORE.INTRA.DIHEDRAL>
0

>  <SCORE.INTRA.DIHEDRAL.0>
0

>  <SCORE.INTRA.POLAR>
0

>  <SCORE.INTRA.POLAR.0>
0

>  <SCORE.INTRA.REPUL>
0

>  <SCORE.INTRA.REPUL.0>
0

>  <SCORE.INTRA.SOLV>
0

>  <SCORE.INTRA.SOLV.lig_0>
-23.8918

>  <SCORE.INTRA.VDW>
0

>  <SCORE.INTRA.VDW.0>
0

>  <SCORE.INTRA.norm>
0

>  <SCORE.RESTR>
0

>  <SCORE.RESTR.CAVITY>
0

>  <SCORE.RESTR.norm>
0

>  <SCORE.SYSTEM>
0

>  <SCORE.SYSTEM.CONST>
0

>  <SCORE.SYSTEM.DIHEDRAL>
0

>  <SCORE.SYSTEM.SOLV>
0

>  <SCORE.SYSTEM.norm>
0

>  <SCORE.heavy>
10

>  <SCORE.norm>
-1.45658

>  <RMSD>
0.776

$$$$
ligand
 OpenBabel11021811513D
libRbt.so/2013.1/901 2013/11/27
 10 11  0  0  0  0  0  0  0  0999 V2000
    5.9332   17.4910    2.6150 N   0  0  0  0  0  0  0  0  0  0  0  0
    6.7294   18.5648    2.5492 C   0  0  0  0  0  0  0  0  0  0  0  0
    7.0789   19.4096    3.5181 N   0  0  0  0  0  0  0  0  0  0  0  0
    6.5108   19.0600    4.6827 C   0  0  0  0  0  0  0  0  0  0  0  0
    5.6709   17.9862    4.9070 C   0  0  0  0  0  0  0  0  0  0  0  0
    5.3769   17.1652    3.8005 C   0  0  0  0  0  0  0  0  0  0  0  0
    4.5815   16.0932    3.8706 N   0  0  0  0  0  0  0  0  0  0  0  0
    5.2788   17.9386    6.2345 N   0  0  0  0  0  0  0  0  0  0  0  0
    5.8798   18.9708    6.7774 C   0  0  0  0  0  0  0  0  0  0  0  0
    6.6396   19.6917    5.8986 N   0  0  0  0  0  0  0  0  0  0  0  0
  1  2  2  0  0  0  0
  1  6  1  0  0  0  0
  2  3  1  0  0  0  0
  3  4  2  0  0  0  0
  4  5  1  0  0  0  0
  4 10  1  0  0  0  0
  5  6  2  0  0  0  0
  5  8  1  0  0  0  0
  6  7  1  0  0  0  0
  8  9  1  0  0  0  0
  9 10  2  0  0  0  0
M  END
>  <CHROM.1>
5.96293765,18.22848504,4.48090284,-1.78486191,0.91257777,1.21345344

>  <Name>
ligand

>  <RI>
0

>  <Rbt.Current_Directory>
/home/itssahil/PROJECTS/Mol_Feturizer/New_Systems/rnas/4XNR

>  <Rbt.Executable>
rbdock ($Id: //depot/dev/client3/rdock/2013.1/src/exe/rbdock.cxx#4 $)

>  <Rbt.Library>
libRbt.so (2013.1, Build901 2013/11/27)

>  <Rbt.Parameter_File>
/export/apps/rDock/src/rDock_2013.1_src/data/scripts/dock_solv.prm

>  <Rbt.Receptor>
prm/blind_docking_40.prm

>  <SCORE>
-14.5341

>  <SCORE.INTER>
-14.5341

>  <SCORE.INTER.CONST>
1

>  <SCORE.INTER.POLAR>
0

>  <SCORE.INTER.ROT>
0

>  <SCORE.INTER.SOLV>
8.15428

>  <SCORE.INTER.VDW>
-16.0075

>  <SCORE.INTER.norm>
-1.45341

>  <SCORE.INTRA>
0

>  <SCORE.INTRA.DIHEDRAL>
0

>  <SCORE.INTRA.DIHEDRAL.0>
0

>  <SCORE.INTRA.POLAR>
0

>  <SCORE.INTRA.POLAR.0>
0

>  <SCORE.INTRA.REPUL>
0

>  <SCORE.INTRA.REPUL.0>
0

>  <SCORE.INTRA.SOLV>
0

>  <SCORE.INTRA.SOLV.lig_0>
-23.8918

>  <SCORE.INTRA.VDW>
0

>  <SCORE.INTRA.VDW.0>
0

>  <SCORE.INTRA.norm>
0

>  <SCORE.RESTR>
0

>  <SCORE.RESTR.CAVITY>
0

>  <SCORE.RESTR.norm>
0

>  <SCORE.SYSTEM>
0

>  <SCORE.SYSTEM.CONST>
0

>  <SCORE.SYSTEM.DIHEDRAL>
0

>  <SCORE.SYSTEM.SOLV>
0

>  <SCORE.SYSTEM.norm>
0

>  <SCORE.heavy>
10

>  <SCORE.norm>
-1.45341

>  <RMSD>
0.776

$$$$
ligand
 OpenBabel11021811513D
libRbt.so/2013.1/901 2013/11/27
 10 11  0  0  0  0  0  0  0  0999 V2000
    5.8937   17.5044    2.6116 N   0  0  0  0  0  0  0  0  0  0  0  0
    6.7240   18.5519    2.5434 C   0  0  0  0  0  0  0  0  0  0  0  0
    7.1080   19.3813    3.5126 N   0  0  0  0  0  0  0  0  0  0  0  0
    6.5373   19.0463    4.6802 C   0  0  0  0  0  0  0  0  0  0  0  0
    5.6645   17.9997    4.9071 C   0  0  0  0  0  0  0  0  0  0  0  0
    5.3357   17.1926    3.8001 C   0  0  0  0  0  0  0  0  0  0  0  0
    4.5063   16.1469    3.8725 N   0  0  0  0  0  0  0  0  0  0  0  0
    5.2808   17.9601    6.2373 N   0  0  0  0  0  0  0  0  0  0  0  0
    5.9191   18.9702    6.7792 C   0  0  0  0  0  0  0  0  0  0  0  0
    6.6956   19.6691    5.8971 N   0  0  0  0  0  0  0  0  0  0  0  0
  1  2  2  0  0  0  0
  1  6  1  0  0  0  0
  2  3  1  0  0  0  0
  3  4  2  0  0  0  0
  4  5  1  0  0  0  0
  4 10  1  0  0  0  0
  5  6  2  0  0  0  0
  5  8  1  0  0  0  0
  6  7  1  0  0  0  0
  8  9  1  0  0  0  0
  9 10  2  0  0  0  0
M  END
>  <CHROM.1>
5.96116061,18.23383279,4.47966467,-1.81371054,0.88435719,1.23949034

>  <Name>
ligand

>  <RI>
0

>  <Rbt.Current_Directory>
/home/itssahil/PROJECTS/Mol_Feturizer/New_Systems/rnas/4XNR

>  <Rbt.Executable>
rbdock ($Id: //depot/dev/client3/rdock/2013.1/src/exe/rbdock.cxx#4 $)

>  <Rbt.Library>
libRbt.so (2013.1, Build901 2013/11/27)

>  <Rbt.Parameter_File>
/export/apps/rDock/src/rDock_2013.1_src/data/scripts/dock_solv.prm

>  <Rbt.Receptor>
prm/pocket_docking_8.prm

>  <SCORE>
-14.5193

>  <SCORE.INTER>
-14.5193

>  <SCORE.INTER.CONST>
1

>  <SCORE.INTER.POLAR>
0

>  <SCORE.INTER.ROT>
0

>  <SCORE.INTER.SOLV>
7.85324

>  <SCORE.INTER.VDW>
-15.8973

>  <SCORE.INTER.norm>
-1.45193

>  <SCORE.INTRA>
0

>  <SCORE.INTRA.DIHEDRAL>
0

>  <SCORE.INTRA.DIHEDRAL.0>
0

>  <SCORE.INTRA.POLAR>
0

>  <SCORE.INTRA.POLAR.0>
0

>  <SCORE.INTRA.REPUL>
0

>  <SCORE.INTRA.REPUL.0>
0

>  <SCORE.INTRA.SOLV>
0

>  <SCORE.INTRA.SOLV.lig_0>
-23.8918

>  <SCORE.INTRA.VDW>
0

>  <SCORE.INTRA.VDW.0>
0

>  <SCORE.INTRA.norm>
0

>  <SCORE.RESTR>
0

>  <SCORE.RESTR.CAVITY>
0

>  <SCORE.RESTR.norm>
0

>  <SCORE.SYSTEM>
0

>  <SCORE.SYSTEM.CONST>
0

>  <SCORE.SYSTEM.DIHEDRAL>
0

>  <SCORE.SYSTEM.SOLV>
0

>  <SCORE.SYSTEM.norm>
0

>  <SCORE.heavy>
10

>  <SCORE.norm>
-1.45193

>  <RMSD>
0.776

$$$$
ligand
 OpenBabel11021811513D
libRbt.so/2013.1/901 2013/11/27
 10 11  0  0  0  0  0  0  0  0999 V2000
    5.9402   17.4867    2.6174 N   0  0  0  0  0  0  0  0  0  0  0  0
    6.7396   18.5584    2.5563 C   0  0  0  0  0  0  0  0  0  0  0  0
    7.0829   19.4042    3.5266 N   0  0  0  0  0  0  0  0  0  0  0  0
    6.5040   19.0583    4.6869 C   0  0  0  0  0  0  0  0  0  0  0  0
    5.6596   17.9870    4.9061 C   0  0  0  0  0  0  0  0  0  0  0  0
    5.3730   17.1645    3.7987 C   0  0  0  0  0  0  0  0  0  0  0  0
    4.5744   16.0946    3.8640 N   0  0  0  0  0  0  0  0  0  0  0  0
    5.2560   17.9429    6.2302 N   0  0  0  0  0  0  0  0  0  0  0  0
    5.8548   18.9747    6.7763 C   0  0  0  0  0  0  0  0  0  0  0  0
    6.6240   19.6920    5.9026 N   0  0  0  0  0  0  0  0  0  0  0  0
  1  2  2  0  0  0  0
  1  6  1  0  0  0  0
  2  3  1  0  0  0  0
  3  4  2  0  0  0  0
  4  5  1  0  0  0  0
  4 10  1  0  0  0  0
  5  6  2  0  0  0  0
  5  8  1  0  0  0  0
  6  7  1  0  0  0  0
  8  9  1  0  0  0  0
  9 10  2  0  0  0  0
M  END
>  <CHROM.1>
5.95583296,18.22770919,4.48203597,-1.77325660,0.90722748,1.20235763

>  <Name>
ligand

>  <RI>
0

>  <Rbt.Current_Directory>
/home/itssahil/PROJECTS/Mol_Feturizer/New_Systems/rnas/4XNR

>  <Rbt.Executable>
rbdock ($Id: //depot/dev/client3/rdock/2013.1/src/exe/rbdock.cxx#4 $)

>  <Rbt.Library>
libRbt.so (2013.1, Build901 2013/11/27)

>  <Rbt.Parameter_File>
/export/apps/rDock/src/rDock_2013.1_src/data/scripts/dock_solv.prm

>  <Rbt.Receptor>
prm/pocket_docking_5.prm

>  <SCORE>
-14.5463

>  <SCORE.INTER>
-14.5463

>  <SCORE.INTER.CONST>
1

>  <SCORE.INTER.POLAR>
0

>  <SCORE.INTER.ROT>
0

>  <SCORE.INTER.SOLV>
8.11986

>  <SCORE.INTER.VDW>
-16.0041

>  <SCORE.INTER.norm>
-1.45463

>  <SCORE.INTRA>
0

>  <SCORE.INTRA.DIHEDRAL>
0

>  <SCORE.INTRA.DIHEDRAL.0>
0

>  <SCORE.INTRA.POLAR>
0

>  <SCORE.INTRA.POLAR.0>
0

>  <SCORE.INTRA.REPUL>
0

>  <SCORE.INTRA.REPUL.0>
0

>  <SCORE.INTRA.SOLV>
0

>  <SCORE.INTRA.SOLV.lig_0>
-23.8918

>  <SCORE.INTRA.VDW>
0

>  <SCORE.INTRA.VDW.0>
0

>  <SCORE.INTRA.norm>
0

>  <SCORE.RESTR>
0

>  <SCORE.RESTR.CAVITY>
0

>  <SCORE.RESTR.norm>
0

>  <SCORE.SYSTEM>
0

>  <SCORE.SYSTEM.CONST>
0

>  <SCORE.SYSTEM.DIHEDRAL>
0

>  <SCORE.SYSTEM.SOLV>
0

>  <SCORE.SYSTEM.norm>
0

>  <SCORE.heavy>
10

>  <SCORE.norm>
-1.45463

>  <RMSD>
0.777

$$$$
ligand
 OpenBabel11021811513D
libRbt.so/2013.1/901 2013/11/27
 10 11  0  0  0  0  0  0  0  0999 V2000
    6.0993   17.4862    2.5944 N   0  0  0  0  0  0  0  0  0  0  0  0
    6.7974   18.6269    2.5421 C   0  0  0  0  0  0  0  0  0  0  0  0
    7.0460   19.5026    3.5148 N   0  0  0  0  0  0  0  0  0  0  0  0
    6.4832   19.1070    4.6671 C   0  0  0  0  0  0  0  0  0  0  0  0
    5.7378   17.9629    4.8768 C   0  0  0  0  0  0  0  0  0  0  0  0
    5.5457   17.1153    3.7679 C   0  0  0  0  0  0  0  0  0  0  0  0
    4.8481   15.9765    3.8244 N   0  0  0  0  0  0  0  0  0  0  0  0
    5.3192   17.8843    6.1947 N   0  0  0  0  0  0  0  0  0  0  0  0
    5.8118   18.9679    6.7465 C   0  0  0  0  0  0  0  0  0  0  0  0
    6.5252   19.7515    5.8824 N   0  0  0  0  0  0  0  0  0  0  0  0
  1  2  2  0  0  0  0
  1  6  1  0  0  0  0
  2  3  1  0  0  0  0
  3  4  2  0  0  0  0
  4  5  1  0  0  0  0
  4 10  1  0  0  0  0
  5  6  2  0  0  0  0
  5  8  1  0  0  0  0
  6  7  1  0  0  0  0
  8  9  1  0  0  0  0
  9 10  2  0  0  0  0
M  END
>  <CHROM.1>
6.01724847,18.22906786,4.45659814,-1.68645479,0.98599190,1.12921448

>  <Name>
ligand

>  <RI>
0

>  <Rbt.Current_Directory>
/home/itssahil/PROJECTS/Mol_Feturizer/New_Systems/rnas/4XNR

>  <Rbt.Executable>
rbdock ($Id: //depot/dev/client3/rdock/2013.1/src/exe/rbdock.cxx#4 $)

>  <Rbt.Library>
libRbt.so (2013.1, Build901 2013/11/27)

>  <Rbt.Parameter_File>
/export/apps/rDock/src/rDock_2013.1_src/data/scripts/dock_solv.prm

>  <Rbt.Receptor>
prm/blind_docking_60.prm

>  <SCORE>
-14.5209

>  <SCORE.INTER>
-14.5209

>  <SCORE.INTER.CONST>
1

>  <SCORE.INTER.POLAR>
0

>  <SCORE.INTER.ROT>
0

>  <SCORE.INTER.SOLV>
9.07202

>  <SCORE.INTER.VDW>
-16.3046

>  <SCORE.INTER.norm>
-1.45209

>  <SCORE.INTRA>
0

>  <SCORE.INTRA.DIHEDRAL>
0

>  <SCORE.INTRA.DIHEDRAL.0>
0

>  <SCORE.INTRA.POLAR>
0

>  <SCORE.INTRA.POLAR.0>
0

>  <SCORE.INTRA.REPUL>
0

>  <SCORE.INTRA.REPUL.0>
0

>  <SCORE.INTRA.SOLV>
0

>  <SCORE.INTRA.SOLV.lig_0>
-23.8918

>  <SCORE.INTRA.VDW>
0

>  <SCORE.INTRA.VDW.0>
0

>  <SCORE.INTRA.norm>
0

>  <SCORE.RESTR>
0

>  <SCORE.RESTR.CAVITY>
0

>  <SCORE.RESTR.norm>
0

>  <SCORE.SYSTEM>
0

>  <SCORE.SYSTEM.CONST>
0

>  <SCORE.SYSTEM.DIHEDRAL>
0

>  <SCORE.SYSTEM.SOLV>
0

>  <SCORE.SYSTEM.norm>
0

>  <SCORE.heavy>
10

>  <SCORE.norm>
-1.45209

>  <RMSD>
0.778

$$$$
ligand
 OpenBabel11021811513D
libRbt.so/2013.1/901 2013/11/27
 10 11  0  0  0  0  0  0  0  0999 V2000
    5.9887   17.5363    2.5837 N   0  0  0  0  0  0  0  0  0  0  0  0
    6.7738   18.6201    2.5645 C   0  0  0  0  0  0  0  0  0  0  0  0
    7.0996   19.4367    3.5653 N   0  0  0  0  0  0  0  0  0  0  0  0
    6.5183   19.0436    4.7093 C   0  0  0  0  0  0  0  0  0  0  0  0
    5.6873   17.9542    4.8862 C   0  0  0  0  0  0  0  0  0  0  0  0
    5.4187   17.1663    3.7495 C   0  0  0  0  0  0  0  0  0  0  0  0
    4.6344   16.0842    3.7730 N   0  0  0  0  0  0  0  0  0  0  0  0
    5.2762   17.8595    6.2054 N   0  0  0  0  0  0  0  0  0  0  0  0
    5.8576   18.8798    6.7903 C   0  0  0  0  0  0  0  0  0  0  0  0
    6.6222   19.6369    5.9467 N   0  0  0  0  0  0  0  0  0  0  0  0
  1  2  2  0  0  0  0
  1  6  1  0  0  0  0
  2  3  1  0  0  0  0
  3  4  2  0  0  0  0
  4  5  1  0  0  0  0
  4 10  1  0  0  0  0
  5  6  2  0  0  0  0
  5  8  1  0  0  0  0
  6  7  1  0  0  0  0
  8  9  1  0  0  0  0
  9 10  2  0  0  0  0
M  END
>  <CHROM.1>
5.98280410,18.21323334,4.47259503,-1.75575031,0.91765586,1.22269077

>  <Name>
ligand

>  <RI>
0

>  <Rbt.Current_Directory>
/home/itssahil/PROJECTS/Mol_Feturizer/New_Systems/rnas/4XNR

>  <Rbt.Executable>
rbdock ($Id: //depot/dev/client3/rdock/2013.1/src/exe/rbdock.cxx#4 $)

>  <Rbt.Library>
libRbt.so (2013.1, Build901 2013/11/27)

>  <Rbt.Parameter_File>
/export/apps/rDock/src/rDock_2013.1_src/data/scripts/dock_solv.prm

>  <Rbt.Receptor>
prm/blind_docking_60.prm

>  <SCORE>
-14.5234

>  <SCORE.INTER>
-14.5234

>  <SCORE.INTER.CONST>
1

>  <SCORE.INTER.POLAR>
0

>  <SCORE.INTER.ROT>
0

>  <SCORE.INTER.SOLV>
8.08022

>  <SCORE.INTER.VDW>
-15.9756

>  <SCORE.INTER.norm>
-1.45234

>  <SCORE.INTRA>
0

>  <SCORE.INTRA.DIHEDRAL>
0

>  <SCORE.INTRA.DIHEDRAL.0>
0

>  <SCORE.INTRA.POLAR>
0

>  <SCORE.INTRA.POLAR.0>
0

>  <SCORE.INTRA.REPUL>
0

>  <SCORE.INTRA.REPUL.0>
0

>  <SCORE.INTRA.SOLV>
0

>  <SCORE.INTRA.SOLV.lig_0>
-23.8918

>  <SCORE.INTRA.VDW>
0

>  <SCORE.INTRA.VDW.0>
0

>  <SCORE.INTRA.norm>
0

>  <SCORE.RESTR>
0

>  <SCORE.RESTR.CAVITY>
0

>  <SCORE.RESTR.norm>
0

>  <SCORE.SYSTEM>
0

>  <SCORE.SYSTEM.CONST>
0

>  <SCORE.SYSTEM.DIHEDRAL>
0

>  <SCORE.SYSTEM.SOLV>
0

>  <SCORE.SYSTEM.norm>
0

>  <SCORE.heavy>
10

>  <SCORE.norm>
-1.45234

>  <RMSD>
0.779

$$$$
ligand
 OpenBabel11021811513D
libRbt.so/2013.1/901 2013/11/27
 10 11  0  0  0  0  0  0  0  0999 V2000
    6.0753   17.4622    2.6179 N   0  0  0  0  0  0  0  0  0  0  0  0
    6.9313   18.4911    2.6148 C   0  0  0  0  0  0  0  0  0  0  0  0
    7.2672   19.3047    3.6147 N   0  0  0  0  0  0  0  0  0  0  0  0
    6.6117   18.9745    4.7383 C   0  0  0  0  0  0  0  0  0  0  0  0
    5.7026   17.9463    4.8969 C   0  0  0  0  0  0  0  0  0  0  0  0
    5.4315   17.1548    3.7633 C   0  0  0  0  0  0  0  0  0  0  0  0
    4.5762   16.1276    3.7707 N   0  0  0  0  0  0  0  0  0  0  0  0
    5.2291   17.9061    6.1978 N   0  0  0  0  0  0  0  0  0  0  0  0
    5.8515   18.8975    6.7902 C   0  0  0  0  0  0  0  0  0  0  0  0
    6.7012   19.5849    5.9684 N   0  0  0  0  0  0  0  0  0  0  0  0
  1  2  2  0  0  0  0
  1  6  1  0  0  0  0
  2  3  1  0  0  0  0
  3  4  2  0  0  0  0
  4  5  1  0  0  0  0
  4 10  1  0  0  0  0
  5  6  2  0  0  0  0
  5  8  1  0  0  0  0
  6  7  1  0  0  0  0
  8  9  1  0  0  0  0
  9 10  2  0  0  0  0
M  END
>  <CHROM.1>
6.03255210,18.17668564,4.49242739,-1.72873361,0.83956175,1.18279929

>  <Name>
ligand

>  <RI>
0

>  <Rbt.Current_Directory>
/home/itssahil/PROJECTS/Mol_Feturizer/New_Systems/rnas/4XNR

>  <Rbt.Executable>
rbdock ($Id: //depot/dev/client3/rdock/2013.1/src/exe/rbdock.cxx#4 $)

>  <Rbt.Library>
libRbt.so (2013.1, Build901 2013/11/27)

>  <Rbt.Parameter_File>
/export/apps/rDock/src/rDock_2013.1_src/data/scripts/dock_solv.prm

>  <Rbt.Receptor>
prm/pocket_docking_6.prm

>  <SCORE>
-14.5398

>  <SCORE.INTER>
-14.5398

>  <SCORE.INTER.CONST>
1

>  <SCORE.INTER.POLAR>
0

>  <SCORE.INTER.ROT>
0

>  <SCORE.INTER.SOLV>
7.82037

>  <SCORE.INTER.VDW>
-15.9

>  <SCORE.INTER.norm>
-1.45398

>  <SCORE.INTRA>
0

>  <SCORE.INTRA.DIHEDRAL>
0

>  <SCORE.INTRA.DIHEDRAL.0>
0

>  <SCORE.INTRA.POLAR>
0

>  <SCORE.INTRA.POLAR.0>
0

>  <SCORE.INTRA.REPUL>
0

>  <SCORE.INTRA.REPUL.0>
0

>  <SCORE.INTRA.SOLV>
0

>  <SCORE.INTRA.SOLV.lig_0>
-23.8918

>  <SCORE.INTRA.VDW>
0

>  <SCORE.INTRA.VDW.0>
0

>  <SCORE.INTRA.norm>
0

>  <SCORE.RESTR>
0

>  <SCORE.RESTR.CAVITY>
0

>  <SCORE.RESTR.norm>
0

>  <SCORE.SYSTEM>
0

>  <SCORE.SYSTEM.CONST>
0

>  <SCORE.SYSTEM.DIHEDRAL>
0

>  <SCORE.SYSTEM.SOLV>
0

>  <SCORE.SYSTEM.norm>
0

>  <SCORE.heavy>
10

>  <SCORE.norm>
-1.45398

>  <RMSD>
0.779

$$$$
ligand
 OpenBabel11021811513D
libRbt.so/2013.1/901 2013/11/27
 10 11  0  0  0  0  0  0  0  0999 V2000
    5.8707   17.4658    2.6289 N   0  0  0  0  0  0  0  0  0  0  0  0
    6.7738   18.4526    2.5844 C   0  0  0  0  0  0  0  0  0  0  0  0
    7.1927   19.2501    3.5659 N   0  0  0  0  0  0  0  0  0  0  0  0
    6.5732   18.9524    4.7186 C   0  0  0  0  0  0  0  0  0  0  0  0
    5.6242   17.9690    4.9209 C   0  0  0  0  0  0  0  0  0  0  0  0
    5.2651   17.1904    3.8029 C   0  0  0  0  0  0  0  0  0  0  0  0
    4.3629   16.2053    3.8516 N   0  0  0  0  0  0  0  0  0  0  0  0
    5.2081   17.9525    6.2418 N   0  0  0  0  0  0  0  0  0  0  0  0
    5.9031   18.9136    6.8027 C   0  0  0  0  0  0  0  0  0  0  0  0
    6.7468   19.5589    5.9418 N   0  0  0  0  0  0  0  0  0  0  0  0
  1  2  2  0  0  0  0
  1  6  1  0  0  0  0
  2  3  1  0  0  0  0
  3  4  2  0  0  0  0
  4  5  1  0  0  0  0
  4 10  1  0  0  0  0
  5  6  2  0  0  0  0
  5  8  1  0  0  0  0
  6  7  1  0  0  0  0
  8  9  1  0  0  0  0
  9 10  2  0  0  0  0
M  END
>  <CHROM.1>
5.94624632,18.18303669,4.50134658,-1.81530763,0.81046344,1.24454102

>  <Name>
ligand

>  <RI>
0

>  <Rbt.Current_Directory>
/home/itssahil/PROJECTS/Mol_Feturizer/New_Systems/rnas/4XNR

>  <Rbt.Executable>
rbdock ($Id: //depot/dev/client3/rdock/2013.1/src/exe/rbdock.cxx#4 $)

>  <Rbt.Library>
libRbt.so (2013.1, Build901 2013/11/27)

>  <Rbt.Parameter_File>
/export/apps/rDock/src/rDock_2013.1_src/data/scripts/dock_solv.prm

>  <Rbt.Receptor>
prm/blind_docking_80.prm

>  <SCORE>
-14.5575

>  <SCORE.INTER>
-14.5575

>  <SCORE.INTER.CONST>
1

>  <SCORE.INTER.POLAR>
0

>  <SCORE.INTER.ROT>
0

>  <SCORE.INTER.SOLV>
7.38661

>  <SCORE.INTER.VDW>
-15.7672

>  <SCORE.INTER.norm>
-1.45575

>  <SCORE.INTRA>
0

>  <SCORE.INTRA.DIHEDRAL>
0

>  <SCORE.INTRA.DIHEDRAL.0>
0

>  <SCORE.INTRA.POLAR>
0

>  <SCORE.INTRA.POLAR.0>
0

>  <SCORE.INTRA.REPUL>
0

>  <SCORE.INTRA.REPUL.0>
0

>  <SCORE.INTRA.SOLV>
0

>  <SCORE.INTRA.SOLV.lig_0>
-23.8918

>  <SCORE.INTRA.VDW>
0

>  <SCORE.INTRA.VDW.0>
0

>  <SCORE.INTRA.norm>
0

>  <SCORE.RESTR>
0

>  <SCORE.RESTR.CAVITY>
0

>  <SCORE.RESTR.norm>
0

>  <SCORE.SYSTEM>
0

>  <SCORE.SYSTEM.CONST>
0

>  <SCORE.SYSTEM.DIHEDRAL>
0

>  <SCORE.SYSTEM.SOLV>
0

>  <SCORE.SYSTEM.norm>
0

>  <SCORE.heavy>
10

>  <SCORE.norm>
-1.45575

>  <RMSD>
0.780

$$$$
ligand
 OpenBabel11021811513D
libRbt.so/2013.1/901 2013/11/27
 10 11  0  0  0  0  0  0  0  0999 V2000
    5.9963   17.5298    2.5922 N   0  0  0  0  0  0  0  0  0  0  0  0
    6.8104   18.5919    2.5700 C   0  0  0  0  0  0  0  0  0  0  0  0
    7.1527   19.4064    3.5670 N   0  0  0  0  0  0  0  0  0  0  0  0
    6.5550   19.0370    4.7104 C   0  0  0  0  0  0  0  0  0  0  0  0
    5.6940   17.9717    4.8901 C   0  0  0  0  0  0  0  0  0  0  0  0
    5.4103   17.1834    3.7574 C   0  0  0  0  0  0  0  0  0  0  0  0
    4.5970   16.1230    3.7839 N   0  0  0  0  0  0  0  0  0  0  0  0
    5.2734   17.8972    6.2077 N   0  0  0  0  0  0  0  0  0  0  0  0
    5.8790   18.9056    6.7888 C   0  0  0  0  0  0  0  0  0  0  0  0
    6.6682   19.6360    5.9443 N   0  0  0  0  0  0  0  0  0  0  0  0
  1  2  2  0  0  0  0
  1  6  1  0  0  0  0
  2  3  1  0  0  0  0
  3  4  2  0  0  0  0
  4  5  1  0  0  0  0
  4 10  1  0  0  0  0
  5  6  2  0  0  0  0
  5  8  1  0  0  0  0
  6  7  1  0  0  0  0
  8  9  1  0  0  0  0
  9 10  2  0  0  0  0
M  END
>  <CHROM.1>
5.99855297,18.21979599,4.47641021,-1.76240451,0.89048512,1.22103770

>  <Name>
ligand

>  <RI>
0

>  <Rbt.Current_Directory>
/home/itssahil/PROJECTS/Mol_Feturizer/New_Systems/rnas/4XNR

>  <Rbt.Executable>
rbdock ($Id: //depot/dev/client3/rdock/2013.1/src/exe/rbdock.cxx#4 $)

>  <Rbt.Library>
libRbt.so (2013.1, Build901 2013/11/27)

>  <Rbt.Parameter_File>
/export/apps/rDock/src/rDock_2013.1_src/data/scripts/dock_solv.prm

>  <Rbt.Receptor>
prm/pocket_docking_3.prm

>  <SCORE>
-14.5704

>  <SCORE.INTER>
-14.5704

>  <SCORE.INTER.CONST>
1

>  <SCORE.INTER.POLAR>
0

>  <SCORE.INTER.ROT>
0

>  <SCORE.INTER.SOLV>
7.92976

>  <SCORE.INTER.VDW>
-15.9569

>  <SCORE.INTER.norm>
-1.45704

>  <SCORE.INTRA>
0

>  <SCORE.INTRA.DIHEDRAL>
0

>  <SCORE.INTRA.DIHEDRAL.0>
0

>  <SCORE.INTRA.POLAR>
0

>  <SCORE.INTRA.POLAR.0>
0

>  <SCORE.INTRA.REPUL>
0

>  <SCORE.INTRA.REPUL.0>
0

>  <SCORE.INTRA.SOLV>
0

>  <SCORE.INTRA.SOLV.lig_0>
-23.8918

>  <SCORE.INTRA.VDW>
0

>  <SCORE.INTRA.VDW.0>
0

>  <SCORE.INTRA.norm>
0

>  <SCORE.RESTR>
0

>  <SCORE.RESTR.CAVITY>
0

>  <SCORE.RESTR.norm>
0

>  <SCORE.SYSTEM>
0

>  <SCORE.SYSTEM.CONST>
0

>  <SCORE.SYSTEM.DIHEDRAL>
0

>  <SCORE.SYSTEM.SOLV>
0

>  <SCORE.SYSTEM.norm>
0

>  <SCORE.heavy>
10

>  <SCORE.norm>
-1.45704

>  <RMSD>
0.780

$$$$
ligand
 OpenBabel11021811513D
libRbt.so/2013.1/901 2013/11/27
 10 11  0  0  0  0  0  0  0  0999 V2000
    6.0011   17.5251    2.5951 N   0  0  0  0  0  0  0  0  0  0  0  0
    6.8162   18.5864    2.5744 C   0  0  0  0  0  0  0  0  0  0  0  0
    7.1548   19.4026    3.5713 N   0  0  0  0  0  0  0  0  0  0  0  0
    6.5516   19.0361    4.7128 C   0  0  0  0  0  0  0  0  0  0  0  0
    5.6888   17.9718    4.8908 C   0  0  0  0  0  0  0  0  0  0  0  0
    5.4095   17.1816    3.7583 C   0  0  0  0  0  0  0  0  0  0  0  0
    4.5951   16.1219    3.7833 N   0  0  0  0  0  0  0  0  0  0  0  0
    5.2623   17.9004    6.2065 N   0  0  0  0  0  0  0  0  0  0  0  0
    5.8661   18.9094    6.7884 C   0  0  0  0  0  0  0  0  0  0  0  0
    6.6598   19.6374    5.9460 N   0  0  0  0  0  0  0  0  0  0  0  0
  1  2  2  0  0  0  0
  1  6  1  0  0  0  0
  2  3  1  0  0  0  0
  3  4  2  0  0  0  0
  4  5  1  0  0  0  0
  4 10  1  0  0  0  0
  5  6  2  0  0  0  0
  5  8  1  0  0  0  0
  6  7  1  0  0  0  0
  8  9  1  0  0  0  0
  9 10  2  0  0  0  0
M  END
>  <CHROM.1>
5.99545429,18.21885415,4.47790099,-1.75618674,0.88809631,1.21421306

>  <Name>
ligand

>  <RI>
0

>  <Rbt.Current_Directory>
/home/itssahil/PROJECTS/Mol_Feturizer/New_Systems/rnas/4XNR

>  <Rbt.Executable>
rbdock ($Id: //depot/dev/client3/rdock/2013.1/src/exe/rbdock.cxx#4 $)

>  <Rbt.Library>
libRbt.so (2013.1, Build901 2013/11/27)

>  <Rbt.Parameter_File>
/export/apps/rDock/src/rDock_2013.1_src/data/scripts/dock_solv.prm

>  <Rbt.Receptor>
prm/blind_docking_80.prm

>  <SCORE>
-14.5784

>  <SCORE.INTER>
-14.5784

>  <SCORE.INTER.CONST>
1

>  <SCORE.INTER.POLAR>
0

>  <SCORE.INTER.ROT>
0

>  <SCORE.INTER.SOLV>
7.92844

>  <SCORE.INTER.VDW>
-15.9617

>  <SCORE.INTER.norm>
-1.45784

>  <SCORE.INTRA>
0

>  <SCORE.INTRA.DIHEDRAL>
0

>  <SCORE.INTRA.DIHEDRAL.0>
0

>  <SCORE.INTRA.POLAR>
0

>  <SCORE.INTRA.POLAR.0>
0

>  <SCORE.INTRA.REPUL>
0

>  <SCORE.INTRA.REPUL.0>
0

>  <SCORE.INTRA.SOLV>
0

>  <SCORE.INTRA.SOLV.lig_0>
-23.8918

>  <SCORE.INTRA.VDW>
0

>  <SCORE.INTRA.VDW.0>
0

>  <SCORE.INTRA.norm>
0

>  <SCORE.RESTR>
0

>  <SCORE.RESTR.CAVITY>
0

>  <SCORE.RESTR.norm>
0

>  <SCORE.SYSTEM>
0

>  <SCORE.SYSTEM.CONST>
0

>  <SCORE.SYSTEM.DIHEDRAL>
0

>  <SCORE.SYSTEM.SOLV>
0

>  <SCORE.SYSTEM.norm>
0

>  <SCORE.heavy>
10

>  <SCORE.norm>
-1.45784

>  <RMSD>
0.781

$$$$
ligand
 OpenBabel11021811513D
libRbt.so/2013.1/901 2013/11/27
 10 11  0  0  0  0  0  0  0  0999 V2000
    5.9227   17.4455    2.6401 N   0  0  0  0  0  0  0  0  0  0  0  0
    6.8157   18.4416    2.6006 C   0  0  0  0  0  0  0  0  0  0  0  0
    7.2138   19.2496    3.5821 N   0  0  0  0  0  0  0  0  0  0  0  0
    6.5834   18.9523    4.7290 C   0  0  0  0  0  0  0  0  0  0  0  0
    5.6425   17.9600    4.9257 C   0  0  0  0  0  0  0  0  0  0  0  0
    5.3056   17.1707    3.8083 C   0  0  0  0  0  0  0  0  0  0  0  0
    4.4135   16.1763    3.8522 N   0  0  0  0  0  0  0  0  0  0  0  0
    5.2104   17.9471    6.2415 N   0  0  0  0  0  0  0  0  0  0  0  0
    5.8881   18.9191    6.8049 C   0  0  0  0  0  0  0  0  0  0  0  0
    6.7354   19.5681    5.9503 N   0  0  0  0  0  0  0  0  0  0  0  0
  1  2  2  0  0  0  0
  1  6  1  0  0  0  0
  2  3  1  0  0  0  0
  3  4  2  0  0  0  0
  4  5  1  0  0  0  0
  4 10  1  0  0  0  0
  5  6  2  0  0  0  0
  5  8  1  0  0  0  0
  6  7  1  0  0  0  0
  8  9  1  0  0  0  0
  9 10  2  0  0  0  0
M  END
>  <CHROM.1>
5.96745544,18.17493163,4.50885381,-1.79320274,0.81652600,1.22226480

>  <Name>
ligand

>  <RI>
0

>  <Rbt.Current_Directory>
/home/itssahil/PROJECTS/Mol_Feturizer/New_Systems/rnas/4XNR

>  <Rbt.Executable>
rbdock ($Id: //depot/dev/client3/rdock/2013.1/src/exe/rbdock.cxx#4 $)

>  <Rbt.Library>
libRbt.so (2013.1, Build901 2013/11/27)

>  <Rbt.Parameter_File>
/export/apps/rDock/src/rDock_2013.1_src/data/scripts/dock_solv.prm

>  <Rbt.Receptor>
prm/pocket_docking_5.prm

>  <SCORE>
-14.563

>  <SCORE.INTER>
-14.563

>  <SCORE.INTER.CONST>
1

>  <SCORE.INTER.POLAR>
0

>  <SCORE.INTER.ROT>
0

>  <SCORE.INTER.SOLV>
7.53191

>  <SCORE.INTER.VDW>
-15.8193

>  <SCORE.INTER.norm>
-1.4563

>  <SCORE.INTRA>
0

>  <SCORE.INTRA.DIHEDRAL>
0

>  <SCORE.INTRA.DIHEDRAL.0>
0

>  <SCORE.INTRA.POLAR>
0

>  <SCORE.INTRA.POLAR.0>
0

>  <SCORE.INTRA.REPUL>
0

>  <SCORE.INTRA.REPUL.0>
0

>  <SCORE.INTRA.SOLV>
0

>  <SCORE.INTRA.SOLV.lig_0>
-23.8918

>  <SCORE.INTRA.VDW>
0

>  <SCORE.INTRA.VDW.0>
0

>  <SCORE.INTRA.norm>
0

>  <SCORE.RESTR>
0

>  <SCORE.RESTR.CAVITY>
0

>  <SCORE.RESTR.norm>
0

>  <SCORE.SYSTEM>
0

>  <SCORE.SYSTEM.CONST>
0

>  <SCORE.SYSTEM.DIHEDRAL>
0

>  <SCORE.SYSTEM.SOLV>
0

>  <SCORE.SYSTEM.norm>
0

>  <SCORE.heavy>
10

>  <SCORE.norm>
-1.4563

>  <RMSD>
0.781

$$$$
ligand
 OpenBabel11021811513D
libRbt.so/2013.1/901 2013/11/27
 10 11  0  0  0  0  0  0  0  0999 V2000
    6.0061   17.5245    2.5978 N   0  0  0  0  0  0  0  0  0  0  0  0
    6.8302   18.5789    2.5762 C   0  0  0  0  0  0  0  0  0  0  0  0
    7.1741   19.3941    3.5721 N   0  0  0  0  0  0  0  0  0  0  0  0
    6.5660   19.0350    4.7133 C   0  0  0  0  0  0  0  0  0  0  0  0
    5.6940   17.9784    4.8921 C   0  0  0  0  0  0  0  0  0  0  0  0
    5.4098   17.1883    3.7607 C   0  0  0  0  0  0  0  0  0  0  0  0
    4.5865   16.1356    3.7866 N   0  0  0  0  0  0  0  0  0  0  0  0
    5.2649   17.9131    6.2073 N   0  0  0  0  0  0  0  0  0  0  0  0
    5.8763   18.9182    6.7881 C   0  0  0  0  0  0  0  0  0  0  0  0
    6.6774   19.6378    5.9455 N   0  0  0  0  0  0  0  0  0  0  0  0
  1  2  2  0  0  0  0
  1  6  1  0  0  0  0
  2  3  1  0  0  0  0
  3  4  2  0  0  0  0
  4  5  1  0  0  0  0
  4 10  1  0  0  0  0
  5  6  2  0  0  0  0
  5  8  1  0  0  0  0
  6  7  1  0  0  0  0
  8  9  1  0  0  0  0
  9 10  2  0  0  0  0
M  END
>  <CHROM.1>
6.00342361,18.22199021,4.47919139,-1.75855278,0.87965608,1.21406046

>  <Name>
ligand

>  <RI>
0

>  <Rbt.Current_Directory>
/home/itssahil/PROJECTS/Mol_Feturizer/New_Systems/rnas/4XNR

>  <Rbt.Executable>
rbdock ($Id: //depot/dev/client3/rdock/2013.1/src/exe/rbdock.cxx#4 $)

>  <Rbt.Library>
libRbt.so (2013.1, Build901 2013/11/27)

>  <Rbt.Parameter_File>
/export/apps/rDock/src/rDock_2013.1_src/data/scripts/dock_solv.prm

>  <Rbt.Receptor>
prm/pocket_docking_5.prm

>  <SCORE>
-14.5714

>  <SCORE.INTER>
-14.5714

>  <SCORE.INTER.CONST>
1

>  <SCORE.INTER.POLAR>
0

>  <SCORE.INTER.ROT>
0

>  <SCORE.INTER.SOLV>
7.8822

>  <SCORE.INTER.VDW>
-15.9417

>  <SCORE.INTER.norm>
-1.45714

>  <SCORE.INTRA>
0

>  <SCORE.INTRA.DIHEDRAL>
0

>  <SCORE.INTRA.DIHEDRAL.0>
0

>  <SCORE.INTRA.POLAR>
0

>  <SCORE.INTRA.POLAR.0>
0

>  <SCORE.INTRA.REPUL>
0

>  <SCORE.INTRA.REPUL.0>
0

>  <SCORE.INTRA.SOLV>
0

>  <SCORE.INTRA.SOLV.lig_0>
-23.8918

>  <SCORE.INTRA.VDW>
0

>  <SCORE.INTRA.VDW.0>
0

>  <SCORE.INTRA.norm>
0

>  <SCORE.RESTR>
0

>  <SCORE.RESTR.CAVITY>
0

>  <SCORE.RESTR.norm>
0

>  <SCORE.SYSTEM>
0

>  <SCORE.SYSTEM.CONST>
0

>  <SCORE.SYSTEM.DIHEDRAL>
0

>  <SCORE.SYSTEM.SOLV>
0

>  <SCORE.SYSTEM.norm>
0

>  <SCORE.heavy>
10

>  <SCORE.norm>
-1.45714

>  <RMSD>
0.783

$$$$
ligand
 OpenBabel11021811513D
libRbt.so/2013.1/901 2013/11/27
 10 11  0  0  0  0  0  0  0  0999 V2000
    5.8945   17.5153    2.6062 N   0  0  0  0  0  0  0  0  0  0  0  0
    6.8051   18.4958    2.5747 C   0  0  0  0  0  0  0  0  0  0  0  0
    7.2326   19.2747    3.5673 N   0  0  0  0  0  0  0  0  0  0  0  0
    6.6140   18.9638    4.7170 C   0  0  0  0  0  0  0  0  0  0  0  0
    5.6580   17.9845    4.9065 C   0  0  0  0  0  0  0  0  0  0  0  0
    5.2900   17.2262    3.7775 C   0  0  0  0  0  0  0  0  0  0  0  0
    4.3805   16.2473    3.8134 N   0  0  0  0  0  0  0  0  0  0  0  0
    5.2454   17.9505    6.2282 N   0  0  0  0  0  0  0  0  0  0  0  0
    5.9492   18.8975    6.8021 C   0  0  0  0  0  0  0  0  0  0  0  0
    6.7955   19.5497    5.9489 N   0  0  0  0  0  0  0  0  0  0  0  0
  1  2  2  0  0  0  0
  1  6  1  0  0  0  0
  2  3  1  0  0  0  0
  3  4  2  0  0  0  0
  4  5  1  0  0  0  0
  4 10  1  0  0  0  0
  5  6  2  0  0  0  0
  5  8  1  0  0  0  0
  6  7  1  0  0  0  0
  8  9  1  0  0  0  0
  9 10  2  0  0  0  0
M  END
>  <CHROM.1>
5.98058728,18.20262517,4.48946733,-1.82247076,0.80409161,1.26530896

>  <Name>
ligand

>  <RI>
0

>  <Rbt.Current_Directory>
/home/itssahil/PROJECTS/Mol_Feturizer/New_Systems/rnas/4XNR

>  <Rbt.Executable>
rbdock ($Id: //depot/dev/client3/rdock/2013.1/src/exe/rbdock.cxx#4 $)

>  <Rbt.Library>
libRbt.so (2013.1, Build901 2013/11/27)

>  <Rbt.Parameter_File>
/export/apps/rDock/src/rDock_2013.1_src/data/scripts/dock_solv.prm

>  <Rbt.Receptor>
prm/pocket_docking_3.prm

>  <SCORE>
-14.5253

>  <SCORE.INTER>
-14.5253

>  <SCORE.INTER.CONST>
1

>  <SCORE.INTER.POLAR>
0

>  <SCORE.INTER.ROT>
0

>  <SCORE.INTER.SOLV>
7.26614

>  <SCORE.INTER.VDW>
-15.7056

>  <SCORE.INTER.norm>
-1.45253

>  <SCORE.INTRA>
0

>  <SCORE.INTRA.DIHEDRAL>
0

>  <SCORE.INTRA.DIHEDRAL.0>
0

>  <SCORE.INTRA.POLAR>
0

>  <SCORE.INTRA.POLAR.0>
0

>  <SCORE.INTRA.REPUL>
0

>  <SCORE.INTRA.REPUL.0>
0

>  <SCORE.INTRA.SOLV>
0

>  <SCORE.INTRA.SOLV.lig_0>
-23.8918

>  <SCORE.INTRA.VDW>
0

>  <SCORE.INTRA.VDW.0>
0

>  <SCORE.INTRA.norm>
0

>  <SCORE.RESTR>
0

>  <SCORE.RESTR.CAVITY>
0

>  <SCORE.RESTR.norm>
0

>  <SCORE.SYSTEM>
0

>  <SCORE.SYSTEM.CONST>
0

>  <SCORE.SYSTEM.DIHEDRAL>
0

>  <SCORE.SYSTEM.SOLV>
0

>  <SCORE.SYSTEM.norm>
0

>  <SCORE.heavy>
10

>  <SCORE.norm>
-1.45253

>  <RMSD>
0.784

$$$$
ligand
 OpenBabel11021811513D
libRbt.so/2013.1/901 2013/11/27
 10 11  0  0  0  0  0  0  0  0999 V2000
    5.8736   17.4668    2.6359 N   0  0  0  0  0  0  0  0  0  0  0  0
    6.7628   18.4661    2.5921 C   0  0  0  0  0  0  0  0  0  0  0  0
    7.1711   19.2683    3.5742 N   0  0  0  0  0  0  0  0  0  0  0  0
    6.5565   18.9607    4.7270 C   0  0  0  0  0  0  0  0  0  0  0  0
    5.6214   17.9640    4.9286 C   0  0  0  0  0  0  0  0  0  0  0  0
    5.2725   17.1817    3.8100 C   0  0  0  0  0  0  0  0  0  0  0  0
    4.3842   16.1840    3.8582 N   0  0  0  0  0  0  0  0  0  0  0  0
    5.2064   17.9402    6.2498 N   0  0  0  0  0  0  0  0  0  0  0  0
    5.8882   18.9103    6.8114 C   0  0  0  0  0  0  0  0  0  0  0  0
    6.7224   19.5682    5.9507 N   0  0  0  0  0  0  0  0  0  0  0  0
  1  2  2  0  0  0  0
  1  6  1  0  0  0  0
  2  3  1  0  0  0  0
  3  4  2  0  0  0  0
  4  5  1  0  0  0  0
  4 10  1  0  0  0  0
  5  6  2  0  0  0  0
  5  8  1  0  0  0  0
  6  7  1  0  0  0  0
  8  9  1  0  0  0  0
  9 10  2  0  0  0  0
M  END
>  <CHROM.1>
5.94021041,18.18292641,4.50918829,-1.80952828,0.82385697,1.24142312

>  <Name>
ligand

>  <RI>
0

>  <Rbt.Current_Directory>
/home/itssahil/PROJECTS/Mol_Feturizer/New_Systems/rnas/4XNR

>  <Rbt.Executable>
rbdock ($Id: //depot/dev/client3/rdock/2013.1/src/exe/rbdock.cxx#4 $)

>  <Rbt.Library>
libRbt.so (2013.1, Build901 2013/11/27)

>  <Rbt.Parameter_File>
/export/apps/rDock/src/rDock_2013.1_src/data/scripts/dock_solv.prm

>  <Rbt.Receptor>
prm/pocket_docking_4.prm

>  <SCORE>
-14.5485

>  <SCORE.INTER>
-14.5485

>  <SCORE.INTER.CONST>
1

>  <SCORE.INTER.POLAR>
0

>  <SCORE.INTER.ROT>
0

>  <SCORE.INTER.SOLV>
7.47779

>  <SCORE.INTER.VDW>
-15.7916

>  <SCORE.INTER.norm>
-1.45485

>  <SCORE.INTRA>
0

>  <SCORE.INTRA.DIHEDRAL>
0

>  <SCORE.INTRA.DIHEDRAL.0>
0

>  <SCORE.INTRA.POLAR>
0

>  <SCORE.INTRA.POLAR.0>
0

>  <SCORE.INTRA.REPUL>
0

>  <SCORE.INTRA.REPUL.0>
0

>  <SCORE.INTRA.SOLV>
0

>  <SCORE.INTRA.SOLV.lig_0>
-23.8918

>  <SCORE.INTRA.VDW>
0

>  <SCORE.INTRA.VDW.0>
0

>  <SCORE.INTRA.norm>
0

>  <SCORE.RESTR>
0

>  <SCORE.RESTR.CAVITY>
0

>  <SCORE.RESTR.norm>
0

>  <SCORE.SYSTEM>
0

>  <SCORE.SYSTEM.CONST>
0

>  <SCORE.SYSTEM.DIHEDRAL>
0

>  <SCORE.SYSTEM.SOLV>
0

>  <SCORE.SYSTEM.norm>
0

>  <SCORE.heavy>
10

>  <SCORE.norm>
-1.45485

>  <RMSD>
0.785

$$$$
ligand
 OpenBabel11021811513D
libRbt.so/2013.1/901 2013/11/27
 10 11  0  0  0  0  0  0  0  0999 V2000
    6.0050   17.5227    2.6018 N   0  0  0  0  0  0  0  0  0  0  0  0
    6.8299   18.5766    2.5837 C   0  0  0  0  0  0  0  0  0  0  0  0
    7.1700   19.3917    3.5810 N   0  0  0  0  0  0  0  0  0  0  0  0
    6.5567   19.0330    4.7196 C   0  0  0  0  0  0  0  0  0  0  0  0
    5.6833   17.9770    4.8946 C   0  0  0  0  0  0  0  0  0  0  0  0
    5.4036   17.1869    3.7621 C   0  0  0  0  0  0  0  0  0  0  0  0
    4.5795   16.1348    3.7845 N   0  0  0  0  0  0  0  0  0  0  0  0
    5.2485   17.9122    6.2080 N   0  0  0  0  0  0  0  0  0  0  0  0
    5.8580   18.9169    6.7914 C   0  0  0  0  0  0  0  0  0  0  0  0
    6.6632   19.6359    5.9521 N   0  0  0  0  0  0  0  0  0  0  0  0
  1  2  2  0  0  0  0
  1  6  1  0  0  0  0
  2  3  1  0  0  0  0
  3  4  2  0  0  0  0
  4  5  1  0  0  0  0
  4 10  1  0  0  0  0
  5  6  2  0  0  0  0
  5  8  1  0  0  0  0
  6  7  1  0  0  0  0
  8  9  1  0  0  0  0
  9 10  2  0  0  0  0
M  END
>  <CHROM.1>
5.99465893,18.22039320,4.48309328,-1.75251580,0.87756004,1.20930458

>  <Name>
ligand

>  <RI>
0

>  <Rbt.Current_Directory>
/home/itssahil/PROJECTS/Mol_Feturizer/New_Systems/rnas/4XNR

>  <Rbt.Executable>
rbdock ($Id: //depot/dev/client3/rdock/2013.1/src/exe/rbdock.cxx#4 $)

>  <Rbt.Library>
libRbt.so (2013.1, Build901 2013/11/27)

>  <Rbt.Parameter_File>
/export/apps/rDock/src/rDock_2013.1_src/data/scripts/dock_solv.prm

>  <Rbt.Receptor>
prm/pocket_docking_5.prm

>  <SCORE>
-14.5788

>  <SCORE.INTER>
-14.5788

>  <SCORE.INTER.CONST>
1

>  <SCORE.INTER.POLAR>
0

>  <SCORE.INTER.ROT>
0

>  <SCORE.INTER.SOLV>
7.86926

>  <SCORE.INTER.VDW>
-15.9423

>  <SCORE.INTER.norm>
-1.45788

>  <SCORE.INTRA>
0

>  <SCORE.INTRA.DIHEDRAL>
0

>  <SCORE.INTRA.DIHEDRAL.0>
0

>  <SCORE.INTRA.POLAR>
0

>  <SCORE.INTRA.POLAR.0>
0

>  <SCORE.INTRA.REPUL>
0

>  <SCORE.INTRA.REPUL.0>
0

>  <SCORE.INTRA.SOLV>
0

>  <SCORE.INTRA.SOLV.lig_0>
-23.8918

>  <SCORE.INTRA.VDW>
0

>  <SCORE.INTRA.VDW.0>
0

>  <SCORE.INTRA.norm>
0

>  <SCORE.RESTR>
0

>  <SCORE.RESTR.CAVITY>
0

>  <SCORE.RESTR.norm>
0

>  <SCORE.SYSTEM>
0

>  <SCORE.SYSTEM.CONST>
0

>  <SCORE.SYSTEM.DIHEDRAL>
0

>  <SCORE.SYSTEM.SOLV>
0

>  <SCORE.SYSTEM.norm>
0

>  <SCORE.heavy>
10

>  <SCORE.norm>
-1.45788

>  <RMSD>
0.786

$$$$
ligand
 OpenBabel11021811513D
libRbt.so/2013.1/901 2013/11/27
 10 11  0  0  0  0  0  0  0  0999 V2000
    6.0102   17.5187    2.6041 N   0  0  0  0  0  0  0  0  0  0  0  0
    6.8384   18.5699    2.5841 C   0  0  0  0  0  0  0  0  0  0  0  0
    7.1792   19.3872    3.5793 N   0  0  0  0  0  0  0  0  0  0  0  0
    6.5628   19.0342    4.7180 C   0  0  0  0  0  0  0  0  0  0  0  0
    5.6858   17.9815    4.8949 C   0  0  0  0  0  0  0  0  0  0  0  0
    5.4056   17.1886    3.7645 C   0  0  0  0  0  0  0  0  0  0  0  0
    4.5782   16.1391    3.7889 N   0  0  0  0  0  0  0  0  0  0  0  0
    5.2484   17.9223    6.2077 N   0  0  0  0  0  0  0  0  0  0  0  0
    5.8600   18.9271    6.7889 C   0  0  0  0  0  0  0  0  0  0  0  0
    6.6689   19.6408    5.9488 N   0  0  0  0  0  0  0  0  0  0  0  0
  1  2  2  0  0  0  0
  1  6  1  0  0  0  0
  2  3  1  0  0  0  0
  3  4  2  0  0  0  0
  4  5  1  0  0  0  0
  4 10  1  0  0  0  0
  5  6  2  0  0  0  0
  5  8  1  0  0  0  0
  6  7  1  0  0  0  0
  8  9  1  0  0  0  0
  9 10  2  0  0  0  0
M  END
>  <CHROM.1>
5.99863615,18.22254617,4.48315416,-1.75162372,0.87398142,1.20535389

>  <Name>
ligand

>  <RI>
0

>  <Rbt.Current_Directory>
/home/itssahil/PROJECTS/Mol_Feturizer/New_Systems/rnas/4XNR

>  <Rbt.Executable>
rbdock ($Id: //depot/dev/client3/rdock/2013.1/src/exe/rbdock.cxx#4 $)

>  <Rbt.Library>
libRbt.so (2013.1, Build901 2013/11/27)

>  <Rbt.Parameter_File>
/export/apps/rDock/src/rDock_2013.1_src/data/scripts/dock_solv.prm

>  <Rbt.Receptor>
prm/pocket_docking_5.prm

>  <SCORE>
-14.5774

>  <SCORE.INTER>
-14.5774

>  <SCORE.INTER.CONST>
1

>  <SCORE.INTER.POLAR>
0

>  <SCORE.INTER.ROT>
0

>  <SCORE.INTER.SOLV>
7.86301

>  <SCORE.INTER.VDW>
-15.9393

>  <SCORE.INTER.norm>
-1.45774

>  <SCORE.INTRA>
0

>  <SCORE.INTRA.DIHEDRAL>
0

>  <SCORE.INTRA.DIHEDRAL.0>
0

>  <SCORE.INTRA.POLAR>
0

>  <SCORE.INTRA.POLAR.0>
0

>  <SCORE.INTRA.REPUL>
0

>  <SCORE.INTRA.REPUL.0>
0

>  <SCORE.INTRA.SOLV>
0

>  <SCORE.INTRA.SOLV.lig_0>
-23.8918

>  <SCORE.INTRA.VDW>
0

>  <SCORE.INTRA.VDW.0>
0

>  <SCORE.INTRA.norm>
0

>  <SCORE.RESTR>
0

>  <SCORE.RESTR.CAVITY>
0

>  <SCORE.RESTR.norm>
0

>  <SCORE.SYSTEM>
0

>  <SCORE.SYSTEM.CONST>
0

>  <SCORE.SYSTEM.DIHEDRAL>
0

>  <SCORE.SYSTEM.SOLV>
0

>  <SCORE.SYSTEM.norm>
0

>  <SCORE.heavy>
10

>  <SCORE.norm>
-1.45774

>  <RMSD>
0.786

$$$$
ligand
 OpenBabel11021811513D
libRbt.so/2013.1/901 2013/11/27
 10 11  0  0  0  0  0  0  0  0999 V2000
    5.9754   17.4321    2.6428 N   0  0  0  0  0  0  0  0  0  0  0  0
    6.9112   18.3886    2.6164 C   0  0  0  0  0  0  0  0  0  0  0  0
    7.3176   19.1907    3.5994 N   0  0  0  0  0  0  0  0  0  0  0  0
    6.6447   18.9346    4.7320 C   0  0  0  0  0  0  0  0  0  0  0  0
    5.6571   17.9859    4.9141 C   0  0  0  0  0  0  0  0  0  0  0  0
    5.3162   17.1983    3.7968 C   0  0  0  0  0  0  0  0  0  0  0  0
    4.3813   16.2435    3.8275 N   0  0  0  0  0  0  0  0  0  0  0  0
    5.1901   18.0076    6.2178 N   0  0  0  0  0  0  0  0  0  0  0  0
    5.8938   18.9564    6.7886 C   0  0  0  0  0  0  0  0  0  0  0  0
    6.7907   19.5582    5.9502 N   0  0  0  0  0  0  0  0  0  0  0  0
  1  2  2  0  0  0  0
  1  6  1  0  0  0  0
  2  3  1  0  0  0  0
  3  4  2  0  0  0  0
  4  5  1  0  0  0  0
  4 10  1  0  0  0  0
  5  6  2  0  0  0  0
  5  8  1  0  0  0  0
  6  7  1  0  0  0  0
  8  9  1  0  0  0  0
  9 10  2  0  0  0  0
M  END
>  <CHROM.1>
6.00190877,18.18167283,4.50387458,-1.77901261,0.76688987,1.20056583

>  <Name>
ligand

>  <RI>
0

>  <Rbt.Current_Directory>
/home/itssahil/PROJECTS/Mol_Feturizer/New_Systems/rnas/4XNR

>  <Rbt.Executable>
rbdock ($Id: //depot/dev/client3/rdock/2013.1/src/exe/rbdock.cxx#4 $)

>  <Rbt.Library>
libRbt.so (2013.1, Build901 2013/11/27)

>  <Rbt.Parameter_File>
/export/apps/rDock/src/rDock_2013.1_src/data/scripts/dock_solv.prm

>  <Rbt.Receptor>
prm/pocket_docking_7.prm

>  <SCORE>
-14.5631

>  <SCORE.INTER>
-14.5631

>  <SCORE.INTER.CONST>
1

>  <SCORE.INTER.POLAR>
0

>  <SCORE.INTER.ROT>
0

>  <SCORE.INTER.SOLV>
7.27236

>  <SCORE.INTER.VDW>
-15.7329

>  <SCORE.INTER.norm>
-1.45631

>  <SCORE.INTRA>
0

>  <SCORE.INTRA.DIHEDRAL>
0

>  <SCORE.INTRA.DIHEDRAL.0>
0

>  <SCORE.INTRA.POLAR>
0

>  <SCORE.INTRA.POLAR.0>
0

>  <SCORE.INTRA.REPUL>
0

>  <SCORE.INTRA.REPUL.0>
0

>  <SCORE.INTRA.SOLV>
0

>  <SCORE.INTRA.SOLV.lig_0>
-23.8918

>  <SCORE.INTRA.VDW>
0

>  <SCORE.INTRA.VDW.0>
0

>  <SCORE.INTRA.norm>
0

>  <SCORE.RESTR>
0

>  <SCORE.RESTR.CAVITY>
0

>  <SCORE.RESTR.norm>
0

>  <SCORE.SYSTEM>
0

>  <SCORE.SYSTEM.CONST>
0

>  <SCORE.SYSTEM.DIHEDRAL>
0

>  <SCORE.SYSTEM.SOLV>
0

>  <SCORE.SYSTEM.norm>
0

>  <SCORE.heavy>
10

>  <SCORE.norm>
-1.45631

>  <RMSD>
0.786

$$$$
ligand
 OpenBabel11021811513D
libRbt.so/2013.1/901 2013/11/27
 10 11  0  0  0  0  0  0  0  0999 V2000
    6.0010   17.5255    2.6019 N   0  0  0  0  0  0  0  0  0  0  0  0
    6.8273   18.5782    2.5827 C   0  0  0  0  0  0  0  0  0  0  0  0
    7.1702   19.3926    3.5796 N   0  0  0  0  0  0  0  0  0  0  0  0
    6.5585   19.0345    4.7192 C   0  0  0  0  0  0  0  0  0  0  0  0
    5.6838   17.9797    4.8954 C   0  0  0  0  0  0  0  0  0  0  0  0
    5.4010   17.1903    3.7632 C   0  0  0  0  0  0  0  0  0  0  0  0
    4.5755   16.1393    3.7867 N   0  0  0  0  0  0  0  0  0  0  0  0
    5.2511   17.9151    6.2095 N   0  0  0  0  0  0  0  0  0  0  0  0
    5.8631   18.9188    6.7921 C   0  0  0  0  0  0  0  0  0  0  0  0
    6.6678   19.6369    5.9517 N   0  0  0  0  0  0  0  0  0  0  0  0
  1  2  2  0  0  0  0
  1  6  1  0  0  0  0
  2  3  1  0  0  0  0
  3  4  2  0  0  0  0
  4  5  1  0  0  0  0
  4 10  1  0  0  0  0
  5  6  2  0  0  0  0
  5  8  1  0  0  0  0
  6  7  1  0  0  0  0
  8  9  1  0  0  0  0
  9 10  2  0  0  0  0
M  END
>  <CHROM.1>
5.99480356,18.22269598,4.48341865,-1.75580559,0.87681540,1.21210090

>  <Name>
ligand

>  <RI>
0

>  <Rbt.Current_Directory>
/home/itssahil/PROJECTS/Mol_Feturizer/New_Systems/rnas/4XNR

>  <Rbt.Executable>
rbdock ($Id: //depot/dev/client3/rdock/2013.1/src/exe/rbdock.cxx#4 $)

>  <Rbt.Library>
libRbt.so (2013.1, Build901 2013/11/27)

>  <Rbt.Parameter_File>
/export/apps/rDock/src/rDock_2013.1_src/data/scripts/dock_solv.prm

>  <Rbt.Receptor>
prm/blind_docking_100.prm

>  <SCORE>
-14.5797

>  <SCORE.INTER>
-14.5797

>  <SCORE.INTER.CONST>
1

>  <SCORE.INTER.POLAR>
0

>  <SCORE.INTER.ROT>
0

>  <SCORE.INTER.SOLV>
7.85483

>  <SCORE.INTER.VDW>
-15.9381

>  <SCORE.INTER.norm>
-1.45797

>  <SCORE.INTRA>
0

>  <SCORE.INTRA.DIHEDRAL>
0

>  <SCORE.INTRA.DIHEDRAL.0>
0

>  <SCORE.INTRA.POLAR>
0

>  <SCORE.INTRA.POLAR.0>
0

>  <SCORE.INTRA.REPUL>
0

>  <SCORE.INTRA.REPUL.0>
0

>  <SCORE.INTRA.SOLV>
0

>  <SCORE.INTRA.SOLV.lig_0>
-23.8918

>  <SCORE.INTRA.VDW>
0

>  <SCORE.INTRA.VDW.0>
0

>  <SCORE.INTRA.norm>
0

>  <SCORE.RESTR>
0

>  <SCORE.RESTR.CAVITY>
0

>  <SCORE.RESTR.norm>
0

>  <SCORE.SYSTEM>
0

>  <SCORE.SYSTEM.CONST>
0

>  <SCORE.SYSTEM.DIHEDRAL>
0

>  <SCORE.SYSTEM.SOLV>
0

>  <SCORE.SYSTEM.norm>
0

>  <SCORE.heavy>
10

>  <SCORE.norm>
-1.45797

>  <RMSD>
0.787

$$$$
ligand
 OpenBabel11021811513D
libRbt.so/2013.1/901 2013/11/27
 10 11  0  0  0  0  0  0  0  0999 V2000
    5.9985   17.5274    2.6001 N   0  0  0  0  0  0  0  0  0  0  0  0
    6.8244   18.5805    2.5834 C   0  0  0  0  0  0  0  0  0  0  0  0
    7.1669   19.3928    3.5822 N   0  0  0  0  0  0  0  0  0  0  0  0
    6.5551   19.0318    4.7209 C   0  0  0  0  0  0  0  0  0  0  0  0
    5.6809   17.9762    4.8946 C   0  0  0  0  0  0  0  0  0  0  0  0
    5.3986   17.1893    3.7605 C   0  0  0  0  0  0  0  0  0  0  0  0
    4.5735   16.1379    3.7815 N   0  0  0  0  0  0  0  0  0  0  0  0
    5.2480   17.9084    6.2085 N   0  0  0  0  0  0  0  0  0  0  0  0
    5.8594   18.9111    6.7934 C   0  0  0  0  0  0  0  0  0  0  0  0
    6.6640   19.6314    5.9548 N   0  0  0  0  0  0  0  0  0  0  0  0
  1  2  2  0  0  0  0
  1  6  1  0  0  0  0
  2  3  1  0  0  0  0
  3  4  2  0  0  0  0
  4  5  1  0  0  0  0
  4 10  1  0  0  0  0
  5  6  2  0  0  0  0
  5  8  1  0  0  0  0
  6  7  1  0  0  0  0
  8  9  1  0  0  0  0
  9 10  2  0  0  0  0
M  END
>  <CHROM.1>
5.99180995,18.22028867,4.48319318,-1.75535927,0.87716473,1.21405697

>  <Name>
ligand

>  <RI>
0

>  <Rbt.Current_Directory>
/home/itssahil/PROJECTS/Mol_Feturizer/New_Systems/rnas/4XNR

>  <Rbt.Executable>
rbdock ($Id: //depot/dev/client3/rdock/2013.1/src/exe/rbdock.cxx#4 $)

>  <Rbt.Library>
libRbt.so (2013.1, Build901 2013/11/27)

>  <Rbt.Parameter_File>
/export/apps/rDock/src/rDock_2013.1_src/data/scripts/dock_solv.prm

>  <Rbt.Receptor>
prm/pocket_docking_3.prm

>  <SCORE>
-14.5795

>  <SCORE.INTER>
-14.5795

>  <SCORE.INTER.CONST>
1

>  <SCORE.INTER.POLAR>
0

>  <SCORE.INTER.ROT>
0

>  <SCORE.INTER.SOLV>
7.8447

>  <SCORE.INTER.VDW>
-15.9345

>  <SCORE.INTER.norm>
-1.45795

>  <SCORE.INTRA>
0

>  <SCORE.INTRA.DIHEDRAL>
0

>  <SCORE.INTRA.DIHEDRAL.0>
0

>  <SCORE.INTRA.POLAR>
0

>  <SCORE.INTRA.POLAR.0>
0

>  <SCORE.INTRA.REPUL>
0

>  <SCORE.INTRA.REPUL.0>
0

>  <SCORE.INTRA.SOLV>
0

>  <SCORE.INTRA.SOLV.lig_0>
-23.8918

>  <SCORE.INTRA.VDW>
0

>  <SCORE.INTRA.VDW.0>
0

>  <SCORE.INTRA.norm>
0

>  <SCORE.RESTR>
0

>  <SCORE.RESTR.CAVITY>
0

>  <SCORE.RESTR.norm>
0

>  <SCORE.SYSTEM>
0

>  <SCORE.SYSTEM.CONST>
0

>  <SCORE.SYSTEM.DIHEDRAL>
0

>  <SCORE.SYSTEM.SOLV>
0

>  <SCORE.SYSTEM.norm>
0

>  <SCORE.heavy>
10

>  <SCORE.norm>
-1.45795

>  <RMSD>
0.787

$$$$
ligand
 OpenBabel11021811513D
libRbt.so/2013.1/901 2013/11/27
 10 11  0  0  0  0  0  0  0  0999 V2000
    6.0081   17.5394    2.5936 N   0  0  0  0  0  0  0  0  0  0  0  0
    6.8506   18.5793    2.5936 C   0  0  0  0  0  0  0  0  0  0  0  0
    7.1999   19.3748    3.6035 N   0  0  0  0  0  0  0  0  0  0  0  0
    6.5758   19.0108    4.7345 C   0  0  0  0  0  0  0  0  0  0  0  0
    5.6841   17.9673    4.8913 C   0  0  0  0  0  0  0  0  0  0  0  0
    5.3961   17.1978    3.7468 C   0  0  0  0  0  0  0  0  0  0  0  0
    4.5544   16.1594    3.7512 N   0  0  0  0  0  0  0  0  0  0  0  0
    5.2425   17.8917    6.2018 N   0  0  0  0  0  0  0  0  0  0  0  0
    5.8662   18.8779    6.8016 C   0  0  0  0  0  0  0  0  0  0  0  0
    6.6870   19.5947    5.9757 N   0  0  0  0  0  0  0  0  0  0  0  0
  1  2  2  0  0  0  0
  1  6  1  0  0  0  0
  2  3  1  0  0  0  0
  3  4  2  0  0  0  0
  4  5  1  0  0  0  0
  4 10  1  0  0  0  0
  5  6  2  0  0  0  0
  5  8  1  0  0  0  0
  6  7  1  0  0  0  0
  8  9  1  0  0  0  0
  9 10  2  0  0  0  0
M  END
>  <CHROM.1>
6.00124634,18.21108475,4.48442318,-1.75538372,0.86034197,1.22534305

>  <Name>
ligand

>  <RI>
0

>  <Rbt.Current_Directory>
/home/itssahil/PROJECTS/Mol_Feturizer/New_Systems/rnas/4XNR

>  <Rbt.Executable>
rbdock ($Id: //depot/dev/client3/rdock/2013.1/src/exe/rbdock.cxx#4 $)

>  <Rbt.Library>
libRbt.so (2013.1, Build901 2013/11/27)

>  <Rbt.Parameter_File>
/export/apps/rDock/src/rDock_2013.1_src/data/scripts/dock_solv.prm

>  <Rbt.Receptor>
prm/blind_docking_60.prm

>  <SCORE>
-14.5712

>  <SCORE.INTER>
-14.5712

>  <SCORE.INTER.CONST>
1

>  <SCORE.INTER.POLAR>
0

>  <SCORE.INTER.ROT>
0

>  <SCORE.INTER.SOLV>
7.71021

>  <SCORE.INTER.VDW>
-15.8842

>  <SCORE.INTER.norm>
-1.45712

>  <SCORE.INTRA>
0

>  <SCORE.INTRA.DIHEDRAL>
0

>  <SCORE.INTRA.DIHEDRAL.0>
0

>  <SCORE.INTRA.POLAR>
0

>  <SCORE.INTRA.POLAR.0>
0

>  <SCORE.INTRA.REPUL>
0

>  <SCORE.INTRA.REPUL.0>
0

>  <SCORE.INTRA.SOLV>
0

>  <SCORE.INTRA.SOLV.lig_0>
-23.8918

>  <SCORE.INTRA.VDW>
0

>  <SCORE.INTRA.VDW.0>
0

>  <SCORE.INTRA.norm>
0

>  <SCORE.RESTR>
0

>  <SCORE.RESTR.CAVITY>
0

>  <SCORE.RESTR.norm>
0

>  <SCORE.SYSTEM>
0

>  <SCORE.SYSTEM.CONST>
0

>  <SCORE.SYSTEM.DIHEDRAL>
0

>  <SCORE.SYSTEM.SOLV>
0

>  <SCORE.SYSTEM.norm>
0

>  <SCORE.heavy>
10

>  <SCORE.norm>
-1.45712

>  <RMSD>
0.790

$$$$
ligand
 OpenBabel11021811513D
libRbt.so/2013.1/901 2013/11/27
 10 11  0  0  0  0  0  0  0  0999 V2000
    5.9990   17.5275    2.6027 N   0  0  0  0  0  0  0  0  0  0  0  0
    6.8321   18.5750    2.5890 C   0  0  0  0  0  0  0  0  0  0  0  0
    7.1765   19.3849    3.5890 N   0  0  0  0  0  0  0  0  0  0  0  0
    6.5583   19.0281    4.7255 C   0  0  0  0  0  0  0  0  0  0  0  0
    5.6764   17.9785    4.8961 C   0  0  0  0  0  0  0  0  0  0  0  0
    5.3927   17.1935    3.7611 C   0  0  0  0  0  0  0  0  0  0  0  0
    4.5604   16.1478    3.7792 N   0  0  0  0  0  0  0  0  0  0  0  0
    5.2385   17.9137    6.2085 N   0  0  0  0  0  0  0  0  0  0  0  0
    5.8547   18.9122    6.7956 C   0  0  0  0  0  0  0  0  0  0  0  0
    6.6671   19.6270    5.9598 N   0  0  0  0  0  0  0  0  0  0  0  0
  1  2  2  0  0  0  0
  1  6  1  0  0  0  0
  2  3  1  0  0  0  0
  3  4  2  0  0  0  0
  4  5  1  0  0  0  0
  4 10  1  0  0  0  0
  5  6  2  0  0  0  0
  5  8  1  0  0  0  0
  6  7  1  0  0  0  0
  8  9  1  0  0  0  0
  9 10  2  0  0  0  0
M  END
>  <CHROM.1>
5.99038764,18.22048983,4.48583239,-1.75397606,0.86956583,1.21298115

>  <Name>
ligand

>  <RI>
0

>  <Rbt.Current_Directory>
/home/itssahil/PROJECTS/Mol_Feturizer/New_Systems/rnas/4XNR

>  <Rbt.Executable>
rbdock ($Id: //depot/dev/client3/rdock/2013.1/src/exe/rbdock.cxx#4 $)

>  <Rbt.Library>
libRbt.so (2013.1, Build901 2013/11/27)

>  <Rbt.Parameter_File>
/export/apps/rDock/src/rDock_2013.1_src/data/scripts/dock_solv.prm

>  <Rbt.Receptor>
prm/pocket_docking_3.prm

>  <SCORE>
-14.5785

>  <SCORE.INTER>
-14.5785

>  <SCORE.INTER.CONST>
1

>  <SCORE.INTER.POLAR>
0

>  <SCORE.INTER.ROT>
0

>  <SCORE.INTER.SOLV>
7.78963

>  <SCORE.INTER.VDW>
-15.9155

>  <SCORE.INTER.norm>
-1.45785

>  <SCORE.INTRA>
0

>  <SCORE.INTRA.DIHEDRAL>
0

>  <SCORE.INTRA.DIHEDRAL.0>
0

>  <SCORE.INTRA.POLAR>
0

>  <SCORE.INTRA.POLAR.0>
0

>  <SCORE.INTRA.REPUL>
0

>  <SCORE.INTRA.REPUL.0>
0

>  <SCORE.INTRA.SOLV>
0

>  <SCORE.INTRA.SOLV.lig_0>
-23.8918

>  <SCORE.INTRA.VDW>
0

>  <SCORE.INTRA.VDW.0>
0

>  <SCORE.INTRA.norm>
0

>  <SCORE.RESTR>
0

>  <SCORE.RESTR.CAVITY>
0

>  <SCORE.RESTR.norm>
0

>  <SCORE.SYSTEM>
0

>  <SCORE.SYSTEM.CONST>
0

>  <SCORE.SYSTEM.DIHEDRAL>
0

>  <SCORE.SYSTEM.SOLV>
0

>  <SCORE.SYSTEM.norm>
0

>  <SCORE.heavy>
10

>  <SCORE.norm>
-1.45785

>  <RMSD>
0.790

$$$$
ligand
 OpenBabel11021811513D
libRbt.so/2013.1/901 2013/11/27
 10 11  0  0  0  0  0  0  0  0999 V2000
    5.9738   17.5532    2.5936 N   0  0  0  0  0  0  0  0  0  0  0  0
    6.7708   18.6282    2.5745 C   0  0  0  0  0  0  0  0  0  0  0  0
    7.1052   19.4413    3.5754 N   0  0  0  0  0  0  0  0  0  0  0  0
    6.5193   19.0547    4.7193 C   0  0  0  0  0  0  0  0  0  0  0  0
    5.6762   17.9746    4.8960 C   0  0  0  0  0  0  0  0  0  0  0  0
    5.3993   17.1896    3.7593 C   0  0  0  0  0  0  0  0  0  0  0  0
    4.6031   16.1162    3.7826 N   0  0  0  0  0  0  0  0  0  0  0  0
    5.2637   17.8845    6.2150 N   0  0  0  0  0  0  0  0  0  0  0  0
    5.8561   18.8985    6.8001 C   0  0  0  0  0  0  0  0  0  0  0  0
    6.6293   19.6470    5.9566 N   0  0  0  0  0  0  0  0  0  0  0  0
  1  2  2  0  0  0  0
  1  6  1  0  0  0  0
  2  3  1  0  0  0  0
  3  4  2  0  0  0  0
  4  5  1  0  0  0  0
  4 10  1  0  0  0  0
  5  6  2  0  0  0  0
  5  8  1  0  0  0  0
  6  7  1  0  0  0  0
  8  9  1  0  0  0  0
  9 10  2  0  0  0  0
M  END
>  <CHROM.1>
5.97471999,18.23033240,4.48243963,-1.76135977,0.90718233,1.22703122

>  <Name>
ligand

>  <RI>
0

>  <Rbt.Current_Directory>
/home/itssahil/PROJECTS/Mol_Feturizer/New_Systems/rnas/4XNR

>  <Rbt.Executable>
rbdock ($Id: //depot/dev/client3/rdock/2013.1/src/exe/rbdock.cxx#4 $)

>  <Rbt.Library>
libRbt.so (2013.1, Build901 2013/11/27)

>  <Rbt.Parameter_File>
/export/apps/rDock/src/rDock_2013.1_src/data/scripts/dock_solv.prm

>  <Rbt.Receptor>
prm/pocket_docking_8.prm

>  <SCORE>
-14.5616

>  <SCORE.INTER>
-14.5616

>  <SCORE.INTER.CONST>
1

>  <SCORE.INTER.POLAR>
0

>  <SCORE.INTER.ROT>
0

>  <SCORE.INTER.SOLV>
7.96869

>  <SCORE.INTER.VDW>
-15.9639

>  <SCORE.INTER.norm>
-1.45616

>  <SCORE.INTRA>
0

>  <SCORE.INTRA.DIHEDRAL>
0

>  <SCORE.INTRA.DIHEDRAL.0>
0

>  <SCORE.INTRA.POLAR>
0

>  <SCORE.INTRA.POLAR.0>
0

>  <SCORE.INTRA.REPUL>
0

>  <SCORE.INTRA.REPUL.0>
0

>  <SCORE.INTRA.SOLV>
0

>  <SCORE.INTRA.SOLV.lig_0>
-23.8918

>  <SCORE.INTRA.VDW>
0

>  <SCORE.INTRA.VDW.0>
0

>  <SCORE.INTRA.norm>
0

>  <SCORE.RESTR>
0

>  <SCORE.RESTR.CAVITY>
0

>  <SCORE.RESTR.norm>
0

>  <SCORE.SYSTEM>
0

>  <SCORE.SYSTEM.CONST>
0

>  <SCORE.SYSTEM.DIHEDRAL>
0

>  <SCORE.SYSTEM.SOLV>
0

>  <SCORE.SYSTEM.norm>
0

>  <SCORE.heavy>
10

>  <SCORE.norm>
-1.45616

>  <RMSD>
0.794

$$$$
ligand
 OpenBabel11021811513D
libRbt.so/2013.1/901 2013/11/27
 10 11  0  0  0  0  0  0  0  0999 V2000
    5.9966   17.5317    2.6066 N   0  0  0  0  0  0  0  0  0  0  0  0
    6.7857   18.6124    2.5773 C   0  0  0  0  0  0  0  0  0  0  0  0
    7.1054   19.4437    3.5679 N   0  0  0  0  0  0  0  0  0  0  0  0
    6.5125   19.0707    4.7128 C   0  0  0  0  0  0  0  0  0  0  0  0
    5.6761   17.9871    4.8995 C   0  0  0  0  0  0  0  0  0  0  0  0
    5.4149   17.1822    3.7730 C   0  0  0  0  0  0  0  0  0  0  0  0
    4.6266   16.1033    3.8067 N   0  0  0  0  0  0  0  0  0  0  0  0
    5.2530   17.9148    6.2162 N   0  0  0  0  0  0  0  0  0  0  0  0
    5.8327   18.9423    6.7901 C   0  0  0  0  0  0  0  0  0  0  0  0
    6.6075   19.6833    5.9415 N   0  0  0  0  0  0  0  0  0  0  0  0
  1  2  2  0  0  0  0
  1  6  1  0  0  0  0
  2  3  1  0  0  0  0
  3  4  2  0  0  0  0
  4  5  1  0  0  0  0
  4 10  1  0  0  0  0
  5  6  2  0  0  0  0
  5  8  1  0  0  0  0
  6  7  1  0  0  0  0
  8  9  1  0  0  0  0
  9 10  2  0  0  0  0
M  END
>  <CHROM.1>
5.97623595,18.23856983,4.48445225,-1.74404518,0.91127038,1.19754802

>  <Name>
ligand

>  <RI>
0

>  <Rbt.Current_Directory>
/home/itssahil/PROJECTS/Mol_Feturizer/New_Systems/rnas/4XNR

>  <Rbt.Executable>
rbdock ($Id: //depot/dev/client3/rdock/2013.1/src/exe/rbdock.cxx#4 $)

>  <Rbt.Library>
libRbt.so (2013.1, Build901 2013/11/27)

>  <Rbt.Parameter_File>
/export/apps/rDock/src/rDock_2013.1_src/data/scripts/dock_solv.prm

>  <Rbt.Receptor>
prm/blind_docking_40.prm

>  <SCORE>
-14.5496

>  <SCORE.INTER>
-14.5496

>  <SCORE.INTER.CONST>
1

>  <SCORE.INTER.POLAR>
0

>  <SCORE.INTER.ROT>
0

>  <SCORE.INTER.SOLV>
8.09988

>  <SCORE.INTER.VDW>
-15.9997

>  <SCORE.INTER.norm>
-1.45496

>  <SCORE.INTRA>
0

>  <SCORE.INTRA.DIHEDRAL>
0

>  <SCORE.INTRA.DIHEDRAL.0>
0

>  <SCORE.INTRA.POLAR>
0

>  <SCORE.INTRA.POLAR.0>
0

>  <SCORE.INTRA.REPUL>
0

>  <SCORE.INTRA.REPUL.0>
0

>  <SCORE.INTRA.SOLV>
0

>  <SCORE.INTRA.SOLV.lig_0>
-23.8918

>  <SCORE.INTRA.VDW>
0

>  <SCORE.INTRA.VDW.0>
0

>  <SCORE.INTRA.norm>
0

>  <SCORE.RESTR>
0

>  <SCORE.RESTR.CAVITY>
0

>  <SCORE.RESTR.norm>
0

>  <SCORE.SYSTEM>
0

>  <SCORE.SYSTEM.CONST>
0

>  <SCORE.SYSTEM.DIHEDRAL>
0

>  <SCORE.SYSTEM.SOLV>
0

>  <SCORE.SYSTEM.norm>
0

>  <SCORE.heavy>
10

>  <SCORE.norm>
-1.45496

>  <RMSD>
0.795

$$$$
ligand
 OpenBabel11021811513D
libRbt.so/2013.1/901 2013/11/27
 10 11  0  0  0  0  0  0  0  0999 V2000
    5.9857   17.5387    2.6034 N   0  0  0  0  0  0  0  0  0  0  0  0
    6.7653   18.6262    2.5726 C   0  0  0  0  0  0  0  0  0  0  0  0
    7.0835   19.4574    3.5639 N   0  0  0  0  0  0  0  0  0  0  0  0
    6.5006   19.0760    4.7110 C   0  0  0  0  0  0  0  0  0  0  0  0
    5.6746   17.9847    4.8993 C   0  0  0  0  0  0  0  0  0  0  0  0
    5.4138   17.1808    3.7721 C   0  0  0  0  0  0  0  0  0  0  0  0
    4.6351   16.0950    3.8071 N   0  0  0  0  0  0  0  0  0  0  0  0
    5.2598   17.9049    6.2183 N   0  0  0  0  0  0  0  0  0  0  0  0
    5.8339   18.9358    6.7918 C   0  0  0  0  0  0  0  0  0  0  0  0
    6.5973   19.6859    5.9409 N   0  0  0  0  0  0  0  0  0  0  0  0
  1  2  2  0  0  0  0
  1  6  1  0  0  0  0
  2  3  1  0  0  0  0
  3  4  2  0  0  0  0
  4  5  1  0  0  0  0
  4 10  1  0  0  0  0
  5  6  2  0  0  0  0
  5  8  1  0  0  0  0
  6  7  1  0  0  0  0
  8  9  1  0  0  0  0
  9 10  2  0  0  0  0
M  END
>  <CHROM.1>
5.97015790,18.23992618,4.48334258,-1.74775580,0.92142765,1.20340253

>  <Name>
ligand

>  <RI>
0

>  <Rbt.Current_Directory>
/home/itssahil/PROJECTS/Mol_Feturizer/New_Systems/rnas/4XNR

>  <Rbt.Executable>
rbdock ($Id: //depot/dev/client3/rdock/2013.1/src/exe/rbdock.cxx#4 $)

>  <Rbt.Library>
libRbt.so (2013.1, Build901 2013/11/27)

>  <Rbt.Parameter_File>
/export/apps/rDock/src/rDock_2013.1_src/data/scripts/dock_solv.prm

>  <Rbt.Receptor>
prm/pocket_docking_5.prm

>  <SCORE>
-14.5388

>  <SCORE.INTER>
-14.5388

>  <SCORE.INTER.CONST>
1

>  <SCORE.INTER.POLAR>
0

>  <SCORE.INTER.ROT>
0

>  <SCORE.INTER.SOLV>
8.14438

>  <SCORE.INTER.VDW>
-16.0073

>  <SCORE.INTER.norm>
-1.45388

>  <SCORE.INTRA>
0

>  <SCORE.INTRA.DIHEDRAL>
0

>  <SCORE.INTRA.DIHEDRAL.0>
0

>  <SCORE.INTRA.POLAR>
0

>  <SCORE.INTRA.POLAR.0>
0

>  <SCORE.INTRA.REPUL>
0

>  <SCORE.INTRA.REPUL.0>
0

>  <SCORE.INTRA.SOLV>
0

>  <SCORE.INTRA.SOLV.lig_0>
-23.8918

>  <SCORE.INTRA.VDW>
0

>  <SCORE.INTRA.VDW.0>
0

>  <SCORE.INTRA.norm>
0

>  <SCORE.RESTR>
0

>  <SCORE.RESTR.CAVITY>
0

>  <SCORE.RESTR.norm>
0

>  <SCORE.SYSTEM>
0

>  <SCORE.SYSTEM.CONST>
0

>  <SCORE.SYSTEM.DIHEDRAL>
0

>  <SCORE.SYSTEM.SOLV>
0

>  <SCORE.SYSTEM.norm>
0

>  <SCORE.heavy>
10

>  <SCORE.norm>
-1.45388

>  <RMSD>
0.796

$$$$
ligand
 OpenBabel11021811513D
libRbt.so/2013.1/901 2013/11/27
 10 11  0  0  0  0  0  0  0  0999 V2000
    6.0026   17.5335    2.6064 N   0  0  0  0  0  0  0  0  0  0  0  0
    6.8421   18.5759    2.5983 C   0  0  0  0  0  0  0  0  0  0  0  0
    7.1959   19.3748    3.6039 N   0  0  0  0  0  0  0  0  0  0  0  0
    6.5804   19.0117    4.7399 C   0  0  0  0  0  0  0  0  0  0  0  0
    5.6927   17.9660    4.9051 C   0  0  0  0  0  0  0  0  0  0  0  0
    5.3993   17.1930    3.7643 C   0  0  0  0  0  0  0  0  0  0  0  0
    4.5606   16.1522    3.7768 N   0  0  0  0  0  0  0  0  0  0  0  0
    5.2600   17.8922    6.2187 N   0  0  0  0  0  0  0  0  0  0  0  0
    5.8849   18.8816    6.8120 C   0  0  0  0  0  0  0  0  0  0  0  0
    6.6981   19.5988    5.9790 N   0  0  0  0  0  0  0  0  0  0  0  0
  1  2  2  0  0  0  0
  1  6  1  0  0  0  0
  2  3  1  0  0  0  0
  3  4  2  0  0  0  0
  4  5  1  0  0  0  0
  4 10  1  0  0  0  0
  5  6  2  0  0  0  0
  5  8  1  0  0  0  0
  6  7  1  0  0  0  0
  8  9  1  0  0  0  0
  9 10  2  0  0  0  0
M  END
>  <CHROM.1>
6.00643597,18.20971222,4.49555895,-1.76352892,0.86526849,1.22917120

>  <Name>
ligand

>  <RI>
0

>  <Rbt.Current_Directory>
/home/itssahil/PROJECTS/Mol_Feturizer/New_Systems/rnas/4XNR

>  <Rbt.Executable>
rbdock ($Id: //depot/dev/client3/rdock/2013.1/src/exe/rbdock.cxx#4 $)

>  <Rbt.Library>
libRbt.so (2013.1, Build901 2013/11/27)

>  <Rbt.Parameter_File>
/export/apps/rDock/src/rDock_2013.1_src/data/scripts/dock_solv.prm

>  <Rbt.Receptor>
prm/pocket_docking_7.prm

>  <SCORE>
-14.5633

>  <SCORE.INTER>
-14.5633

>  <SCORE.INTER.CONST>
1

>  <SCORE.INTER.POLAR>
0

>  <SCORE.INTER.ROT>
0

>  <SCORE.INTER.SOLV>
7.76932

>  <SCORE.INTER.VDW>
-15.8986

>  <SCORE.INTER.norm>
-1.45633

>  <SCORE.INTRA>
0

>  <SCORE.INTRA.DIHEDRAL>
0

>  <SCORE.INTRA.DIHEDRAL.0>
0

>  <SCORE.INTRA.POLAR>
0

>  <SCORE.INTRA.POLAR.0>
0

>  <SCORE.INTRA.REPUL>
0

>  <SCORE.INTRA.REPUL.0>
0

>  <SCORE.INTRA.SOLV>
0

>  <SCORE.INTRA.SOLV.lig_0>
-23.8918

>  <SCORE.INTRA.VDW>
0

>  <SCORE.INTRA.VDW.0>
0

>  <SCORE.INTRA.norm>
0

>  <SCORE.RESTR>
0

>  <SCORE.RESTR.CAVITY>
0

>  <SCORE.RESTR.norm>
0

>  <SCORE.SYSTEM>
0

>  <SCORE.SYSTEM.CONST>
0

>  <SCORE.SYSTEM.DIHEDRAL>
0

>  <SCORE.SYSTEM.SOLV>
0

>  <SCORE.SYSTEM.norm>
0

>  <SCORE.heavy>
10

>  <SCORE.norm>
-1.45633

>  <RMSD>
0.796

$$$$
ligand
 OpenBabel11021811513D
libRbt.so/2013.1/901 2013/11/27
 10 11  0  0  0  0  0  0  0  0999 V2000
    5.9807   17.5483    2.5992 N   0  0  0  0  0  0  0  0  0  0  0  0
    6.7808   18.6211    2.5815 C   0  0  0  0  0  0  0  0  0  0  0  0
    7.1110   19.4368    3.5817 N   0  0  0  0  0  0  0  0  0  0  0  0
    6.5165   19.0559    4.7230 C   0  0  0  0  0  0  0  0  0  0  0  0
    5.6693   17.9788    4.8981 C   0  0  0  0  0  0  0  0  0  0  0  0
    5.3976   17.1905    3.7624 C   0  0  0  0  0  0  0  0  0  0  0  0
    4.5982   16.1195    3.7844 N   0  0  0  0  0  0  0  0  0  0  0  0
    5.2479   17.8946    6.2147 N   0  0  0  0  0  0  0  0  0  0  0  0
    5.8393   18.9090    6.8000 C   0  0  0  0  0  0  0  0  0  0  0  0
    6.6201   19.6523    5.9590 N   0  0  0  0  0  0  0  0  0  0  0  0
  1  2  2  0  0  0  0
  1  6  1  0  0  0  0
  2  3  1  0  0  0  0
  3  4  2  0  0  0  0
  4  5  1  0  0  0  0
  4 10  1  0  0  0  0
  5  6  2  0  0  0  0
  5  8  1  0  0  0  0
  6  7  1  0  0  0  0
  8  9  1  0  0  0  0
  9 10  2  0  0  0  0
M  END
>  <CHROM.1>
5.97116963,18.23221054,4.48560040,-1.75298135,0.90229899,1.21687378

>  <Name>
ligand

>  <RI>
0

>  <Rbt.Current_Directory>
/home/itssahil/PROJECTS/Mol_Feturizer/New_Systems/rnas/4XNR

>  <Rbt.Executable>
rbdock ($Id: //depot/dev/client3/rdock/2013.1/src/exe/rbdock.cxx#4 $)

>  <Rbt.Library>
libRbt.so (2013.1, Build901 2013/11/27)

>  <Rbt.Parameter_File>
/export/apps/rDock/src/rDock_2013.1_src/data/scripts/dock_solv.prm

>  <Rbt.Receptor>
prm/blind_docking_100.prm

>  <SCORE>
-14.5741

>  <SCORE.INTER>
-14.5741

>  <SCORE.INTER.CONST>
1

>  <SCORE.INTER.POLAR>
0

>  <SCORE.INTER.ROT>
0

>  <SCORE.INTER.SOLV>
7.95644

>  <SCORE.INTER.VDW>
-15.9682

>  <SCORE.INTER.norm>
-1.45741

>  <SCORE.INTRA>
0

>  <SCORE.INTRA.DIHEDRAL>
0

>  <SCORE.INTRA.DIHEDRAL.0>
0

>  <SCORE.INTRA.POLAR>
0

>  <SCORE.INTRA.POLAR.0>
0

>  <SCORE.INTRA.REPUL>
0

>  <SCORE.INTRA.REPUL.0>
0

>  <SCORE.INTRA.SOLV>
0

>  <SCORE.INTRA.SOLV.lig_0>
-23.8918

>  <SCORE.INTRA.VDW>
0

>  <SCORE.INTRA.VDW.0>
0

>  <SCORE.INTRA.norm>
0

>  <SCORE.RESTR>
0

>  <SCORE.RESTR.CAVITY>
0

>  <SCORE.RESTR.norm>
0

>  <SCORE.SYSTEM>
0

>  <SCORE.SYSTEM.CONST>
0

>  <SCORE.SYSTEM.DIHEDRAL>
0

>  <SCORE.SYSTEM.SOLV>
0

>  <SCORE.SYSTEM.norm>
0

>  <SCORE.heavy>
10

>  <SCORE.norm>
-1.45741

>  <RMSD>
0.797

$$$$
ligand
 OpenBabel11021811513D
libRbt.so/2013.1/901 2013/11/27
 10 11  0  0  0  0  0  0  0  0999 V2000
    5.9910   17.5435    2.6014 N   0  0  0  0  0  0  0  0  0  0  0  0
    6.7904   18.6168    2.5859 C   0  0  0  0  0  0  0  0  0  0  0  0
    7.1151   19.4343    3.5863 N   0  0  0  0  0  0  0  0  0  0  0  0
    6.5154   19.0549    4.7254 C   0  0  0  0  0  0  0  0  0  0  0  0
    5.6681   17.9774    4.8980 C   0  0  0  0  0  0  0  0  0  0  0  0
    5.4025   17.1871    3.7623 C   0  0  0  0  0  0  0  0  0  0  0  0
    4.6038   16.1155    3.7821 N   0  0  0  0  0  0  0  0  0  0  0  0
    5.2403   17.8950    6.2127 N   0  0  0  0  0  0  0  0  0  0  0  0
    5.8282   18.9108    6.7992 C   0  0  0  0  0  0  0  0  0  0  0  0
    6.6125   19.6533    5.9608 N   0  0  0  0  0  0  0  0  0  0  0  0
  1  2  2  0  0  0  0
  1  6  1  0  0  0  0
  2  3  1  0  0  0  0
  3  4  2  0  0  0  0
  4  5  1  0  0  0  0
  4 10  1  0  0  0  0
  5  6  2  0  0  0  0
  5  8  1  0  0  0  0
  6  7  1  0  0  0  0
  8  9  1  0  0  0  0
  9 10  2  0  0  0  0
M  END
>  <CHROM.1>
5.97179611,18.23038279,4.48659296,-1.74521872,0.90128249,1.20918527

>  <Name>
ligand

>  <RI>
0

>  <Rbt.Current_Directory>
/home/itssahil/PROJECTS/Mol_Feturizer/New_Systems/rnas/4XNR

>  <Rbt.Executable>
rbdock ($Id: //depot/dev/client3/rdock/2013.1/src/exe/rbdock.cxx#4 $)

>  <Rbt.Library>
libRbt.so (2013.1, Build901 2013/11/27)

>  <Rbt.Parameter_File>
/export/apps/rDock/src/rDock_2013.1_src/data/scripts/dock_solv.prm

>  <Rbt.Receptor>
prm/pocket_docking_3.prm

>  <SCORE>
-14.5746

>  <SCORE.INTER>
-14.5746

>  <SCORE.INTER.CONST>
1

>  <SCORE.INTER.POLAR>
0

>  <SCORE.INTER.ROT>
0

>  <SCORE.INTER.SOLV>
7.97215

>  <SCORE.INTER.VDW>
-15.9738

>  <SCORE.INTER.norm>
-1.45746

>  <SCORE.INTRA>
0

>  <SCORE.INTRA.DIHEDRAL>
0

>  <SCORE.INTRA.DIHEDRAL.0>
0

>  <SCORE.INTRA.POLAR>
0

>  <SCORE.INTRA.POLAR.0>
0

>  <SCORE.INTRA.REPUL>
0

>  <SCORE.INTRA.REPUL.0>
0

>  <SCORE.INTRA.SOLV>
0

>  <SCORE.INTRA.SOLV.lig_0>
-23.8918

>  <SCORE.INTRA.VDW>
0

>  <SCORE.INTRA.VDW.0>
0

>  <SCORE.INTRA.norm>
0

>  <SCORE.RESTR>
0

>  <SCORE.RESTR.CAVITY>
0

>  <SCORE.RESTR.norm>
0

>  <SCORE.SYSTEM>
0

>  <SCORE.SYSTEM.CONST>
0

>  <SCORE.SYSTEM.DIHEDRAL>
0

>  <SCORE.SYSTEM.SOLV>
0

>  <SCORE.SYSTEM.norm>
0

>  <SCORE.heavy>
10

>  <SCORE.norm>
-1.45746

>  <RMSD>
0.797

$$$$
ligand
 OpenBabel11021811513D
libRbt.so/2013.1/901 2013/11/27
 10 11  0  0  0  0  0  0  0  0999 V2000
    5.8934   17.5146    2.6205 N   0  0  0  0  0  0  0  0  0  0  0  0
    6.8058   18.4934    2.5902 C   0  0  0  0  0  0  0  0  0  0  0  0
    7.2250   19.2792    3.5808 N   0  0  0  0  0  0  0  0  0  0  0  0
    6.5948   18.9782    4.7268 C   0  0  0  0  0  0  0  0  0  0  0  0
    5.6355   18.0020    4.9147 C   0  0  0  0  0  0  0  0  0  0  0  0
    5.2771   17.2355    3.7881 C   0  0  0  0  0  0  0  0  0  0  0  0
    4.3656   16.2584    3.8228 N   0  0  0  0  0  0  0  0  0  0  0  0
    5.2100   17.9789    6.2325 N   0  0  0  0  0  0  0  0  0  0  0  0
    5.9098   18.9291    6.8059 C   0  0  0  0  0  0  0  0  0  0  0  0
    6.7654   19.5734    5.9559 N   0  0  0  0  0  0  0  0  0  0  0  0
  1  2  2  0  0  0  0
  1  6  1  0  0  0  0
  2  3  1  0  0  0  0
  3  4  2  0  0  0  0
  4  5  1  0  0  0  0
  4 10  1  0  0  0  0
  5  6  2  0  0  0  0
  5  8  1  0  0  0  0
  6  7  1  0  0  0  0
  8  9  1  0  0  0  0
  9 10  2  0  0  0  0
M  END
>  <CHROM.1>
5.96237831,18.21633590,4.49911995,-1.80999042,0.79957250,1.24860464

>  <Name>
ligand

>  <RI>
0

>  <Rbt.Current_Directory>
/home/itssahil/PROJECTS/Mol_Feturizer/New_Systems/rnas/4XNR

>  <Rbt.Executable>
rbdock ($Id: //depot/dev/client3/rdock/2013.1/src/exe/rbdock.cxx#4 $)

>  <Rbt.Library>
libRbt.so (2013.1, Build901 2013/11/27)

>  <Rbt.Parameter_File>
/export/apps/rDock/src/rDock_2013.1_src/data/scripts/dock_solv.prm

>  <Rbt.Receptor>
prm/pocket_docking_4.prm

>  <SCORE>
-14.55

>  <SCORE.INTER>
-14.55

>  <SCORE.INTER.CONST>
1

>  <SCORE.INTER.POLAR>
0

>  <SCORE.INTER.ROT>
0

>  <SCORE.INTER.SOLV>
7.24558

>  <SCORE.INTER.VDW>
-15.7152

>  <SCORE.INTER.norm>
-1.455

>  <SCORE.INTRA>
0

>  <SCORE.INTRA.DIHEDRAL>
0

>  <SCORE.INTRA.DIHEDRAL.0>
0

>  <SCORE.INTRA.POLAR>
0

>  <SCORE.INTRA.POLAR.0>
0

>  <SCORE.INTRA.REPUL>
0

>  <SCORE.INTRA.REPUL.0>
0

>  <SCORE.INTRA.SOLV>
0

>  <SCORE.INTRA.SOLV.lig_0>
-23.8918

>  <SCORE.INTRA.VDW>
0

>  <SCORE.INTRA.VDW.0>
0

>  <SCORE.INTRA.norm>
0

>  <SCORE.RESTR>
0

>  <SCORE.RESTR.CAVITY>
0

>  <SCORE.RESTR.norm>
0

>  <SCORE.SYSTEM>
0

>  <SCORE.SYSTEM.CONST>
0

>  <SCORE.SYSTEM.DIHEDRAL>
0

>  <SCORE.SYSTEM.SOLV>
0

>  <SCORE.SYSTEM.norm>
0

>  <SCORE.heavy>
10

>  <SCORE.norm>
-1.455

>  <RMSD>
0.797

$$$$
ligand
 OpenBabel11021811513D
libRbt.so/2013.1/901 2013/11/27
 10 11  0  0  0  0  0  0  0  0999 V2000
    5.9787   17.5458    2.6021 N   0  0  0  0  0  0  0  0  0  0  0  0
    6.7821   18.6161    2.5841 C   0  0  0  0  0  0  0  0  0  0  0  0
    7.1132   19.4323    3.5835 N   0  0  0  0  0  0  0  0  0  0  0  0
    6.5157   19.0550    4.7245 C   0  0  0  0  0  0  0  0  0  0  0  0
    5.6649   17.9808    4.8998 C   0  0  0  0  0  0  0  0  0  0  0  0
    5.3927   17.1916    3.7649 C   0  0  0  0  0  0  0  0  0  0  0  0
    4.5900   16.1230    3.7872 N   0  0  0  0  0  0  0  0  0  0  0  0
    5.2412   17.8999    6.2159 N   0  0  0  0  0  0  0  0  0  0  0  0
    5.8348   18.9134    6.8006 C   0  0  0  0  0  0  0  0  0  0  0  0
    6.6192   19.6530    5.9596 N   0  0  0  0  0  0  0  0  0  0  0  0
  1  2  2  0  0  0  0
  1  6  1  0  0  0  0
  2  3  1  0  0  0  0
  3  4  2  0  0  0  0
  4  5  1  0  0  0  0
  4 10  1  0  0  0  0
  5  6  2  0  0  0  0
  5  8  1  0  0  0  0
  6  7  1  0  0  0  0
  8  9  1  0  0  0  0
  9 10  2  0  0  0  0
M  END
>  <CHROM.1>
5.96828743,18.23261777,4.48741201,-1.75227576,0.89888582,1.21479118

>  <Name>
ligand

>  <RI>
0

>  <Rbt.Current_Directory>
/home/itssahil/PROJECTS/Mol_Feturizer/New_Systems/rnas/4XNR

>  <Rbt.Executable>
rbdock ($Id: //depot/dev/client3/rdock/2013.1/src/exe/rbdock.cxx#4 $)

>  <Rbt.Library>
libRbt.so (2013.1, Build901 2013/11/27)

>  <Rbt.Parameter_File>
/export/apps/rDock/src/rDock_2013.1_src/data/scripts/dock_solv.prm

>  <Rbt.Receptor>
prm/blind_docking_80.prm

>  <SCORE>
-14.5776

>  <SCORE.INTER>
-14.5776

>  <SCORE.INTER.CONST>
1

>  <SCORE.INTER.POLAR>
0

>  <SCORE.INTER.ROT>
0

>  <SCORE.INTER.SOLV>
7.93812

>  <SCORE.INTER.VDW>
-15.9644

>  <SCORE.INTER.norm>
-1.45776

>  <SCORE.INTRA>
0

>  <SCORE.INTRA.DIHEDRAL>
0

>  <SCORE.INTRA.DIHEDRAL.0>
0

>  <SCORE.INTRA.POLAR>
0

>  <SCORE.INTRA.POLAR.0>
0

>  <SCORE.INTRA.REPUL>
0

>  <SCORE.INTRA.REPUL.0>
0

>  <SCORE.INTRA.SOLV>
0

>  <SCORE.INTRA.SOLV.lig_0>
-23.8918

>  <SCORE.INTRA.VDW>
0

>  <SCORE.INTRA.VDW.0>
0

>  <SCORE.INTRA.norm>
0

>  <SCORE.RESTR>
0

>  <SCORE.RESTR.CAVITY>
0

>  <SCORE.RESTR.norm>
0

>  <SCORE.SYSTEM>
0

>  <SCORE.SYSTEM.CONST>
0

>  <SCORE.SYSTEM.DIHEDRAL>
0

>  <SCORE.SYSTEM.SOLV>
0

>  <SCORE.SYSTEM.norm>
0

>  <SCORE.heavy>
10

>  <SCORE.norm>
-1.45776

>  <RMSD>
0.798

$$$$
ligand
 OpenBabel11021811513D
libRbt.so/2013.1/901 2013/11/27
 10 11  0  0  0  0  0  0  0  0999 V2000
    5.9889   17.5372    2.6079 N   0  0  0  0  0  0  0  0  0  0  0  0
    6.7812   18.6155    2.5769 C   0  0  0  0  0  0  0  0  0  0  0  0
    7.1062   19.4453    3.5670 N   0  0  0  0  0  0  0  0  0  0  0  0
    6.5154   19.0737    4.7133 C   0  0  0  0  0  0  0  0  0  0  0  0
    5.6761   17.9926    4.9018 C   0  0  0  0  0  0  0  0  0  0  0  0
    5.4093   17.1890    3.7757 C   0  0  0  0  0  0  0  0  0  0  0  0
    4.6178   16.1125    3.8111 N   0  0  0  0  0  0  0  0  0  0  0  0
    5.2564   17.9210    6.2197 N   0  0  0  0  0  0  0  0  0  0  0  0
    5.8408   18.9465    6.7925 C   0  0  0  0  0  0  0  0  0  0  0  0
    6.6156   19.6855    5.9420 N   0  0  0  0  0  0  0  0  0  0  0  0
  1  2  2  0  0  0  0
  1  6  1  0  0  0  0
  2  3  1  0  0  0  0
  3  4  2  0  0  0  0
  4  5  1  0  0  0  0
  4 10  1  0  0  0  0
  5  6  2  0  0  0  0
  5  8  1  0  0  0  0
  6  7  1  0  0  0  0
  8  9  1  0  0  0  0
  9 10  2  0  0  0  0
M  END
>  <CHROM.1>
5.97587383,18.24332098,4.48610569,-1.75003679,0.90938438,1.20271874

>  <Name>
ligand

>  <RI>
0

>  <Rbt.Current_Directory>
/home/itssahil/PROJECTS/Mol_Feturizer/New_Systems/rnas/4XNR

>  <Rbt.Executable>
rbdock ($Id: //depot/dev/client3/rdock/2013.1/src/exe/rbdock.cxx#4 $)

>  <Rbt.Library>
libRbt.so (2013.1, Build901 2013/11/27)

>  <Rbt.Parameter_File>
/export/apps/rDock/src/rDock_2013.1_src/data/scripts/dock_solv.prm

>  <Rbt.Receptor>
prm/pocket_docking_4.prm

>  <SCORE>
-14.5507

>  <SCORE.INTER>
-14.5507

>  <SCORE.INTER.CONST>
1

>  <SCORE.INTER.POLAR>
0

>  <SCORE.INTER.ROT>
0

>  <SCORE.INTER.SOLV>
8.06754

>  <SCORE.INTER.VDW>
-15.9896

>  <SCORE.INTER.norm>
-1.45507

>  <SCORE.INTRA>
0

>  <SCORE.INTRA.DIHEDRAL>
0

>  <SCORE.INTRA.DIHEDRAL.0>
0

>  <SCORE.INTRA.POLAR>
0

>  <SCORE.INTRA.POLAR.0>
0

>  <SCORE.INTRA.REPUL>
0

>  <SCORE.INTRA.REPUL.0>
0

>  <SCORE.INTRA.SOLV>
0

>  <SCORE.INTRA.SOLV.lig_0>
-23.8918

>  <SCORE.INTRA.VDW>
0

>  <SCORE.INTRA.VDW.0>
0

>  <SCORE.INTRA.norm>
0

>  <SCORE.RESTR>
0

>  <SCORE.RESTR.CAVITY>
0

>  <SCORE.RESTR.norm>
0

>  <SCORE.SYSTEM>
0

>  <SCORE.SYSTEM.CONST>
0

>  <SCORE.SYSTEM.DIHEDRAL>
0

>  <SCORE.SYSTEM.SOLV>
0

>  <SCORE.SYSTEM.norm>
0

>  <SCORE.heavy>
10

>  <SCORE.norm>
-1.45507

>  <RMSD>
0.798

$$$$
ligand
 OpenBabel11021811513D
libRbt.so/2013.1/901 2013/11/27
 10 11  0  0  0  0  0  0  0  0999 V2000
    5.9061   17.5002    2.6281 N   0  0  0  0  0  0  0  0  0  0  0  0
    6.8265   18.4714    2.5986 C   0  0  0  0  0  0  0  0  0  0  0  0
    7.2438   19.2608    3.5873 N   0  0  0  0  0  0  0  0  0  0  0  0
    6.6018   18.9727    4.7301 C   0  0  0  0  0  0  0  0  0  0  0  0
    5.6331   18.0055    4.9166 C   0  0  0  0  0  0  0  0  0  0  0  0
    5.2780   17.2341    3.7924 C   0  0  0  0  0  0  0  0  0  0  0  0
    4.3585   16.2644    3.8262 N   0  0  0  0  0  0  0  0  0  0  0  0
    5.1967   17.9949    6.2310 N   0  0  0  0  0  0  0  0  0  0  0  0
    5.8992   18.9435    6.8036 C   0  0  0  0  0  0  0  0  0  0  0  0
    6.7669   19.5751    5.9564 N   0  0  0  0  0  0  0  0  0  0  0  0
  1  2  2  0  0  0  0
  1  6  1  0  0  0  0
  2  3  1  0  0  0  0
  3  4  2  0  0  0  0
  4  5  1  0  0  0  0
  4 10  1  0  0  0  0
  5  6  2  0  0  0  0
  5  8  1  0  0  0  0
  6  7  1  0  0  0  0
  8  9  1  0  0  0  0
  9 10  2  0  0  0  0
M  END
>  <CHROM.1>
5.96518000,18.21433604,4.50234735,-1.80243731,0.78938049,1.23631154

>  <Name>
ligand

>  <RI>
0

>  <Rbt.Current_Directory>
/home/itssahil/PROJECTS/Mol_Feturizer/New_Systems/rnas/4XNR

>  <Rbt.Executable>
rbdock ($Id: //depot/dev/client3/rdock/2013.1/src/exe/rbdock.cxx#4 $)

>  <Rbt.Library>
libRbt.so (2013.1, Build901 2013/11/27)

>  <Rbt.Parameter_File>
/export/apps/rDock/src/rDock_2013.1_src/data/scripts/dock_solv.prm

>  <Rbt.Receptor>
prm/pocket_docking_7.prm

>  <SCORE>
-14.5708

>  <SCORE.INTER>
-14.5708

>  <SCORE.INTER.CONST>
1

>  <SCORE.INTER.POLAR>
0

>  <SCORE.INTER.ROT>
0

>  <SCORE.INTER.SOLV>
7.22955

>  <SCORE.INTER.VDW>
-15.7237

>  <SCORE.INTER.norm>
-1.45708

>  <SCORE.INTRA>
0

>  <SCORE.INTRA.DIHEDRAL>
0

>  <SCORE.INTRA.DIHEDRAL.0>
0

>  <SCORE.INTRA.POLAR>
0

>  <SCORE.INTRA.POLAR.0>
0

>  <SCORE.INTRA.REPUL>
0

>  <SCORE.INTRA.REPUL.0>
0

>  <SCORE.INTRA.SOLV>
0

>  <SCORE.INTRA.SOLV.lig_0>
-23.8918

>  <SCORE.INTRA.VDW>
0

>  <SCORE.INTRA.VDW.0>
0

>  <SCORE.INTRA.norm>
0

>  <SCORE.RESTR>
0

>  <SCORE.RESTR.CAVITY>
0

>  <SCORE.RESTR.norm>
0

>  <SCORE.SYSTEM>
0

>  <SCORE.SYSTEM.CONST>
0

>  <SCORE.SYSTEM.DIHEDRAL>
0

>  <SCORE.SYSTEM.SOLV>
0

>  <SCORE.SYSTEM.norm>
0

>  <SCORE.heavy>
10

>  <SCORE.norm>
-1.45708

>  <RMSD>
0.799

$$$$
ligand
 OpenBabel11021811513D
libRbt.so/2013.1/901 2013/11/27
 10 11  0  0  0  0  0  0  0  0999 V2000
    5.9717   17.5565    2.5967 N   0  0  0  0  0  0  0  0  0  0  0  0
    6.7656   18.6339    2.5792 C   0  0  0  0  0  0  0  0  0  0  0  0
    7.0959   19.4478    3.5808 N   0  0  0  0  0  0  0  0  0  0  0  0
    6.5090   19.0594    4.7235 C   0  0  0  0  0  0  0  0  0  0  0  0
    5.6687   17.9769    4.8986 C   0  0  0  0  0  0  0  0  0  0  0  0
    5.3961   17.1912    3.7613 C   0  0  0  0  0  0  0  0  0  0  0  0
    4.6030   16.1155    3.7831 N   0  0  0  0  0  0  0  0  0  0  0  0
    5.2540   17.8855    6.2169 N   0  0  0  0  0  0  0  0  0  0  0  0
    5.8424   18.9011    6.8031 C   0  0  0  0  0  0  0  0  0  0  0  0
    6.6150   19.6519    5.9611 N   0  0  0  0  0  0  0  0  0  0  0  0
  1  2  2  0  0  0  0
  1  6  1  0  0  0  0
  2  3  1  0  0  0  0
  3  4  2  0  0  0  0
  4  5  1  0  0  0  0
  4 10  1  0  0  0  0
  5  6  2  0  0  0  0
  5  8  1  0  0  0  0
  6  7  1  0  0  0  0
  8  9  1  0  0  0  0
  9 10  2  0  0  0  0
M  END
>  <CHROM.1>
5.96720861,18.23348906,4.48560485,-1.75697555,0.90926362,1.22367148

>  <Name>
ligand

>  <RI>
0

>  <Rbt.Current_Directory>
/home/itssahil/PROJECTS/Mol_Feturizer/New_Systems/rnas/4XNR

>  <Rbt.Executable>
rbdock ($Id: //depot/dev/client3/rdock/2013.1/src/exe/rbdock.cxx#4 $)

>  <Rbt.Library>
libRbt.so (2013.1, Build901 2013/11/27)

>  <Rbt.Parameter_File>
/export/apps/rDock/src/rDock_2013.1_src/data/scripts/dock_solv.prm

>  <Rbt.Receptor>
prm/pocket_docking_8.prm

>  <SCORE>
-14.5611

>  <SCORE.INTER>
-14.5611

>  <SCORE.INTER.CONST>
1

>  <SCORE.INTER.POLAR>
0

>  <SCORE.INTER.ROT>
0

>  <SCORE.INTER.SOLV>
7.97449

>  <SCORE.INTER.VDW>
-15.9656

>  <SCORE.INTER.norm>
-1.45611

>  <SCORE.INTRA>
0

>  <SCORE.INTRA.DIHEDRAL>
0

>  <SCORE.INTRA.DIHEDRAL.0>
0

>  <SCORE.INTRA.POLAR>
0

>  <SCORE.INTRA.POLAR.0>
0

>  <SCORE.INTRA.REPUL>
0

>  <SCORE.INTRA.REPUL.0>
0

>  <SCORE.INTRA.SOLV>
0

>  <SCORE.INTRA.SOLV.lig_0>
-23.8918

>  <SCORE.INTRA.VDW>
0

>  <SCORE.INTRA.VDW.0>
0

>  <SCORE.INTRA.norm>
0

>  <SCORE.RESTR>
0

>  <SCORE.RESTR.CAVITY>
0

>  <SCORE.RESTR.norm>
0

>  <SCORE.SYSTEM>
0

>  <SCORE.SYSTEM.CONST>
0

>  <SCORE.SYSTEM.DIHEDRAL>
0

>  <SCORE.SYSTEM.SOLV>
0

>  <SCORE.SYSTEM.norm>
0

>  <SCORE.heavy>
10

>  <SCORE.norm>
-1.45611

>  <RMSD>
0.799

$$$$
ligand
 OpenBabel11021811513D
libRbt.so/2013.1/901 2013/11/27
 10 11  0  0  0  0  0  0  0  0999 V2000
    5.9918   17.5335    2.6099 N   0  0  0  0  0  0  0  0  0  0  0  0
    6.7692   18.6226    2.5773 C   0  0  0  0  0  0  0  0  0  0  0  0
    7.0821   19.4588    3.5660 N   0  0  0  0  0  0  0  0  0  0  0  0
    6.4958   19.0812    4.7126 C   0  0  0  0  0  0  0  0  0  0  0  0
    5.6714   17.9889    4.9028 C   0  0  0  0  0  0  0  0  0  0  0  0
    5.4164   17.1796    3.7781 C   0  0  0  0  0  0  0  0  0  0  0  0
    4.6398   16.0923    3.8150 N   0  0  0  0  0  0  0  0  0  0  0  0
    5.2519   17.9140    6.2206 N   0  0  0  0  0  0  0  0  0  0  0  0
    5.8218   18.9486    6.7916 C   0  0  0  0  0  0  0  0  0  0  0  0
    6.5868   19.6966    5.9402 N   0  0  0  0  0  0  0  0  0  0  0  0
  1  2  2  0  0  0  0
  1  6  1  0  0  0  0
  2  3  1  0  0  0  0
  3  4  2  0  0  0  0
  4  5  1  0  0  0  0
  4 10  1  0  0  0  0
  5  6  2  0  0  0  0
  5  8  1  0  0  0  0
  6  7  1  0  0  0  0
  8  9  1  0  0  0  0
  9 10  2  0  0  0  0
M  END
>  <CHROM.1>
5.96794220,18.24296893,4.48672527,-1.74088432,0.92205639,1.19354639

>  <Name>
ligand

>  <RI>
0

>  <Rbt.Current_Directory>
/home/itssahil/PROJECTS/Mol_Feturizer/New_Systems/rnas/4XNR

>  <Rbt.Executable>
rbdock ($Id: //depot/dev/client3/rdock/2013.1/src/exe/rbdock.cxx#4 $)

>  <Rbt.Library>
libRbt.so (2013.1, Build901 2013/11/27)

>  <Rbt.Parameter_File>
/export/apps/rDock/src/rDock_2013.1_src/data/scripts/dock_solv.prm

>  <Rbt.Receptor>
prm/pocket_docking_6.prm

>  <SCORE>
-14.5366

>  <SCORE.INTER>
-14.5366

>  <SCORE.INTER.CONST>
1

>  <SCORE.INTER.POLAR>
0

>  <SCORE.INTER.ROT>
0

>  <SCORE.INTER.SOLV>
8.18605

>  <SCORE.INTER.VDW>
-16.0198

>  <SCORE.INTER.norm>
-1.45366

>  <SCORE.INTRA>
0

>  <SCORE.INTRA.DIHEDRAL>
0

>  <SCORE.INTRA.DIHEDRAL.0>
0

>  <SCORE.INTRA.POLAR>
0

>  <SCORE.INTRA.POLAR.0>
0

>  <SCORE.INTRA.REPUL>
0

>  <SCORE.INTRA.REPUL.0>
0

>  <SCORE.INTRA.SOLV>
0

>  <SCORE.INTRA.SOLV.lig_0>
-23.8918

>  <SCORE.INTRA.VDW>
0

>  <SCORE.INTRA.VDW.0>
0

>  <SCORE.INTRA.norm>
0

>  <SCORE.RESTR>
0

>  <SCORE.RESTR.CAVITY>
0

>  <SCORE.RESTR.norm>
0

>  <SCORE.SYSTEM>
0

>  <SCORE.SYSTEM.CONST>
0

>  <SCORE.SYSTEM.DIHEDRAL>
0

>  <SCORE.SYSTEM.SOLV>
0

>  <SCORE.SYSTEM.norm>
0

>  <SCORE.heavy>
10

>  <SCORE.norm>
-1.45366

>  <RMSD>
0.800

$$$$
ligand
 OpenBabel11021811513D
libRbt.so/2013.1/901 2013/11/27
 10 11  0  0  0  0  0  0  0  0999 V2000
    5.9902   17.5551    2.5988 N   0  0  0  0  0  0  0  0  0  0  0  0
    6.7850   18.6319    2.5850 C   0  0  0  0  0  0  0  0  0  0  0  0
    7.1087   19.4474    3.5874 N   0  0  0  0  0  0  0  0  0  0  0  0
    6.5136   19.0613    4.7267 C   0  0  0  0  0  0  0  0  0  0  0  0
    5.6714   17.9796    4.8978 C   0  0  0  0  0  0  0  0  0  0  0  0
    5.4063   17.1921    3.7599 C   0  0  0  0  0  0  0  0  0  0  0  0
    4.6124   16.1169    3.7781 N   0  0  0  0  0  0  0  0  0  0  0  0
    5.2475   17.8907    6.2133 N   0  0  0  0  0  0  0  0  0  0  0  0
    5.8324   18.9070    6.8018 C   0  0  0  0  0  0  0  0  0  0  0  0
    6.6113   19.6559    5.9640 N   0  0  0  0  0  0  0  0  0  0  0  0
  1  2  2  0  0  0  0
  1  6  1  0  0  0  0
  2  3  1  0  0  0  0
  3  4  2  0  0  0  0
  4  5  1  0  0  0  0
  4 10  1  0  0  0  0
  5  6  2  0  0  0  0
  5  8  1  0  0  0  0
  6  7  1  0  0  0  0
  8  9  1  0  0  0  0
  9 10  2  0  0  0  0
M  END
>  <CHROM.1>
5.97297430,18.23530716,4.48645507,-1.74665906,0.90627022,1.21380948

>  <Name>
ligand

>  <RI>
0

>  <Rbt.Current_Directory>
/home/itssahil/PROJECTS/Mol_Feturizer/New_Systems/rnas/4XNR

>  <Rbt.Executable>
rbdock ($Id: //depot/dev/client3/rdock/2013.1/src/exe/rbdock.cxx#4 $)

>  <Rbt.Library>
libRbt.so (2013.1, Build901 2013/11/27)

>  <Rbt.Parameter_File>
/export/apps/rDock/src/rDock_2013.1_src/data/scripts/dock_solv.prm

>  <Rbt.Receptor>
prm/blind_docking_40.prm

>  <SCORE>
-14.5676

>  <SCORE.INTER>
-14.5676

>  <SCORE.INTER.CONST>
1

>  <SCORE.INTER.POLAR>
0

>  <SCORE.INTER.ROT>
0

>  <SCORE.INTER.SOLV>
7.97926

>  <SCORE.INTER.VDW>
-15.9715

>  <SCORE.INTER.norm>
-1.45676

>  <SCORE.INTRA>
0

>  <SCORE.INTRA.DIHEDRAL>
0

>  <SCORE.INTRA.DIHEDRAL.0>
0

>  <SCORE.INTRA.POLAR>
0

>  <SCORE.INTRA.POLAR.0>
0

>  <SCORE.INTRA.REPUL>
0

>  <SCORE.INTRA.REPUL.0>
0

>  <SCORE.INTRA.SOLV>
0

>  <SCORE.INTRA.SOLV.lig_0>
-23.8918

>  <SCORE.INTRA.VDW>
0

>  <SCORE.INTRA.VDW.0>
0

>  <SCORE.INTRA.norm>
0

>  <SCORE.RESTR>
0

>  <SCORE.RESTR.CAVITY>
0

>  <SCORE.RESTR.norm>
0

>  <SCORE.SYSTEM>
0

>  <SCORE.SYSTEM.CONST>
0

>  <SCORE.SYSTEM.DIHEDRAL>
0

>  <SCORE.SYSTEM.SOLV>
0

>  <SCORE.SYSTEM.norm>
0

>  <SCORE.heavy>
10

>  <SCORE.norm>
-1.45676

>  <RMSD>
0.801

$$$$
ligand
 OpenBabel11021811513D
libRbt.so/2013.1/901 2013/11/27
 10 11  0  0  0  0  0  0  0  0999 V2000
    5.9836   17.5410    2.6091 N   0  0  0  0  0  0  0  0  0  0  0  0
    6.7753   18.6197    2.5785 C   0  0  0  0  0  0  0  0  0  0  0  0
    7.1001   19.4492    3.5691 N   0  0  0  0  0  0  0  0  0  0  0  0
    6.5098   19.0765    4.7153 C   0  0  0  0  0  0  0  0  0  0  0  0
    5.6713   17.9948    4.9034 C   0  0  0  0  0  0  0  0  0  0  0  0
    5.4046   17.1918    3.7769 C   0  0  0  0  0  0  0  0  0  0  0  0
    4.6136   16.1148    3.8119 N   0  0  0  0  0  0  0  0  0  0  0  0
    5.2520   17.9221    6.2214 N   0  0  0  0  0  0  0  0  0  0  0  0
    5.8360   18.9476    6.7946 C   0  0  0  0  0  0  0  0  0  0  0  0
    6.6101   19.6875    5.9444 N   0  0  0  0  0  0  0  0  0  0  0  0
  1  2  2  0  0  0  0
  1  6  1  0  0  0  0
  2  3  1  0  0  0  0
  3  4  2  0  0  0  0
  4  5  1  0  0  0  0
  4 10  1  0  0  0  0
  5  6  2  0  0  0  0
  5  8  1  0  0  0  0
  6  7  1  0  0  0  0
  8  9  1  0  0  0  0
  9 10  2  0  0  0  0
M  END
>  <CHROM.1>
5.97073840,18.24593563,4.48777801,-1.75018627,0.91003048,1.20346425

>  <Name>
ligand

>  <RI>
0

>  <Rbt.Current_Directory>
/home/itssahil/PROJECTS/Mol_Feturizer/New_Systems/rnas/4XNR

>  <Rbt.Executable>
rbdock ($Id: //depot/dev/client3/rdock/2013.1/src/exe/rbdock.cxx#4 $)

>  <Rbt.Library>
libRbt.so (2013.1, Build901 2013/11/27)

>  <Rbt.Parameter_File>
/export/apps/rDock/src/rDock_2013.1_src/data/scripts/dock_solv.prm

>  <Rbt.Receptor>
prm/blind_docking_60.prm

>  <SCORE>
-14.55

>  <SCORE.INTER>
-14.55

>  <SCORE.INTER.CONST>
1

>  <SCORE.INTER.POLAR>
0

>  <SCORE.INTER.ROT>
0

>  <SCORE.INTER.SOLV>
8.05575

>  <SCORE.INTER.VDW>
-15.9853

>  <SCORE.INTER.norm>
-1.455

>  <SCORE.INTRA>
0

>  <SCORE.INTRA.DIHEDRAL>
0

>  <SCORE.INTRA.DIHEDRAL.0>
0

>  <SCORE.INTRA.POLAR>
0

>  <SCORE.INTRA.POLAR.0>
0

>  <SCORE.INTRA.REPUL>
0

>  <SCORE.INTRA.REPUL.0>
0

>  <SCORE.INTRA.SOLV>
0

>  <SCORE.INTRA.SOLV.lig_0>
-23.8918

>  <SCORE.INTRA.VDW>
0

>  <SCORE.INTRA.VDW.0>
0

>  <SCORE.INTRA.norm>
0

>  <SCORE.RESTR>
0

>  <SCORE.RESTR.CAVITY>
0

>  <SCORE.RESTR.norm>
0

>  <SCORE.SYSTEM>
0

>  <SCORE.SYSTEM.CONST>
0

>  <SCORE.SYSTEM.DIHEDRAL>
0

>  <SCORE.SYSTEM.SOLV>
0

>  <SCORE.SYSTEM.norm>
0

>  <SCORE.heavy>
10

>  <SCORE.norm>
-1.455

>  <RMSD>
0.801

$$$$
ligand
 OpenBabel11021811513D
libRbt.so/2013.1/901 2013/11/27
 10 11  0  0  0  0  0  0  0  0999 V2000
    5.9886   17.5364    2.6102 N   0  0  0  0  0  0  0  0  0  0  0  0
    6.7817   18.6141    2.5823 C   0  0  0  0  0  0  0  0  0  0  0  0
    7.1036   19.4435    3.5738 N   0  0  0  0  0  0  0  0  0  0  0  0
    6.5083   19.0721    4.7178 C   0  0  0  0  0  0  0  0  0  0  0  0
    5.6676   17.9916    4.9030 C   0  0  0  0  0  0  0  0  0  0  0  0
    5.4044   17.1883    3.7758 C   0  0  0  0  0  0  0  0  0  0  0  0
    4.6120   16.1123    3.8080 N   0  0  0  0  0  0  0  0  0  0  0  0
    5.2429   17.9200    6.2193 N   0  0  0  0  0  0  0  0  0  0  0  0
    5.8260   18.9450    6.7944 C   0  0  0  0  0  0  0  0  0  0  0  0
    6.6044   19.6836    5.9470 N   0  0  0  0  0  0  0  0  0  0  0  0
  1  2  2  0  0  0  0
  1  6  1  0  0  0  0
  2  3  1  0  0  0  0
  3  4  2  0  0  0  0
  4  5  1  0  0  0  0
  4 10  1  0  0  0  0
  5  6  2  0  0  0  0
  5  8  1  0  0  0  0
  6  7  1  0  0  0  0
  8  9  1  0  0  0  0
  9 10  2  0  0  0  0
M  END
>  <CHROM.1>
5.96909269,18.24212500,4.48844574,-1.74484041,0.90740549,1.19880333

>  <Name>
ligand

>  <RI>
0

>  <Rbt.Current_Directory>
/home/itssahil/PROJECTS/Mol_Feturizer/New_Systems/rnas/4XNR

>  <Rbt.Executable>
rbdock ($Id: //depot/dev/client3/rdock/2013.1/src/exe/rbdock.cxx#4 $)

>  <Rbt.Library>
libRbt.so (2013.1, Build901 2013/11/27)

>  <Rbt.Parameter_File>
/export/apps/rDock/src/rDock_2013.1_src/data/scripts/dock_solv.prm

>  <Rbt.Receptor>
prm/pocket_docking_7.prm

>  <SCORE>
-14.5511

>  <SCORE.INTER>
-14.5511

>  <SCORE.INTER.CONST>
1

>  <SCORE.INTER.POLAR>
0

>  <SCORE.INTER.ROT>
0

>  <SCORE.INTER.SOLV>
8.04839

>  <SCORE.INTER.VDW>
-15.9835

>  <SCORE.INTER.norm>
-1.45511

>  <SCORE.INTRA>
0

>  <SCORE.INTRA.DIHEDRAL>
0

>  <SCORE.INTRA.DIHEDRAL.0>
0

>  <SCORE.INTRA.POLAR>
0

>  <SCORE.INTRA.POLAR.0>
0

>  <SCORE.INTRA.REPUL>
0

>  <SCORE.INTRA.REPUL.0>
0

>  <SCORE.INTRA.SOLV>
0

>  <SCORE.INTRA.SOLV.lig_0>
-23.8918

>  <SCORE.INTRA.VDW>
0

>  <SCORE.INTRA.VDW.0>
0

>  <SCORE.INTRA.norm>
0

>  <SCORE.RESTR>
0

>  <SCORE.RESTR.CAVITY>
0

>  <SCORE.RESTR.norm>
0

>  <SCORE.SYSTEM>
0

>  <SCORE.SYSTEM.CONST>
0

>  <SCORE.SYSTEM.DIHEDRAL>
0

>  <SCORE.SYSTEM.SOLV>
0

>  <SCORE.SYSTEM.norm>
0

>  <SCORE.heavy>
10

>  <SCORE.norm>
-1.45511

>  <RMSD>
0.801

$$$$
ligand
 OpenBabel11021811513D
libRbt.so/2013.1/901 2013/11/27
 10 11  0  0  0  0  0  0  0  0999 V2000
    5.9019   17.5029    2.6294 N   0  0  0  0  0  0  0  0  0  0  0  0
    6.8217   18.4747    2.5997 C   0  0  0  0  0  0  0  0  0  0  0  0
    7.2390   19.2641    3.5884 N   0  0  0  0  0  0  0  0  0  0  0  0
    6.5977   18.9753    4.7315 C   0  0  0  0  0  0  0  0  0  0  0  0
    5.6298   18.0073    4.9182 C   0  0  0  0  0  0  0  0  0  0  0  0
    5.2746   17.2361    3.7939 C   0  0  0  0  0  0  0  0  0  0  0  0
    4.3557   16.2658    3.8279 N   0  0  0  0  0  0  0  0  0  0  0  0
    5.1940   17.9961    6.2328 N   0  0  0  0  0  0  0  0  0  0  0  0
    5.8963   18.9449    6.8054 C   0  0  0  0  0  0  0  0  0  0  0  0
    6.7631   19.5773    5.9579 N   0  0  0  0  0  0  0  0  0  0  0  0
  1  2  2  0  0  0  0
  1  6  1  0  0  0  0
  2  3  1  0  0  0  0
  3  4  2  0  0  0  0
  4  5  1  0  0  0  0
  4 10  1  0  0  0  0
  5  6  2  0  0  0  0
  5  8  1  0  0  0  0
  6  7  1  0  0  0  0
  8  9  1  0  0  0  0
  9 10  2  0  0  0  0
M  END
>  <CHROM.1>
5.96150789,18.21653727,4.50381433,-1.80283177,0.79013903,1.23689031

>  <Name>
ligand

>  <RI>
0

>  <Rbt.Current_Directory>
/home/itssahil/PROJECTS/Mol_Feturizer/New_Systems/rnas/4XNR

>  <Rbt.Executable>
rbdock ($Id: //depot/dev/client3/rdock/2013.1/src/exe/rbdock.cxx#4 $)

>  <Rbt.Library>
libRbt.so (2013.1, Build901 2013/11/27)

>  <Rbt.Parameter_File>
/export/apps/rDock/src/rDock_2013.1_src/data/scripts/dock_solv.prm

>  <Rbt.Receptor>
prm/pocket_docking_7.prm

>  <SCORE>
-14.5707

>  <SCORE.INTER>
-14.5707

>  <SCORE.INTER.CONST>
1

>  <SCORE.INTER.POLAR>
0

>  <SCORE.INTER.ROT>
0

>  <SCORE.INTER.SOLV>
7.23014

>  <SCORE.INTER.VDW>
-15.7239

>  <SCORE.INTER.norm>
-1.45707

>  <SCORE.INTRA>
0

>  <SCORE.INTRA.DIHEDRAL>
0

>  <SCORE.INTRA.DIHEDRAL.0>
0

>  <SCORE.INTRA.POLAR>
0

>  <SCORE.INTRA.POLAR.0>
0

>  <SCORE.INTRA.REPUL>
0

>  <SCORE.INTRA.REPUL.0>
0

>  <SCORE.INTRA.SOLV>
0

>  <SCORE.INTRA.SOLV.lig_0>
-23.8918

>  <SCORE.INTRA.VDW>
0

>  <SCORE.INTRA.VDW.0>
0

>  <SCORE.INTRA.norm>
0

>  <SCORE.RESTR>
0

>  <SCORE.RESTR.CAVITY>
0

>  <SCORE.RESTR.norm>
0

>  <SCORE.SYSTEM>
0

>  <SCORE.SYSTEM.CONST>
0

>  <SCORE.SYSTEM.DIHEDRAL>
0

>  <SCORE.SYSTEM.SOLV>
0

>  <SCORE.SYSTEM.norm>
0

>  <SCORE.heavy>
10

>  <SCORE.norm>
-1.45707

>  <RMSD>
0.801

$$$$
ligand
 OpenBabel11021811513D
libRbt.so/2013.1/901 2013/11/27
 10 11  0  0  0  0  0  0  0  0999 V2000
    5.9873   17.5374    2.6119 N   0  0  0  0  0  0  0  0  0  0  0  0
    6.7838   18.6126    2.5840 C   0  0  0  0  0  0  0  0  0  0  0  0
    7.1087   19.4408    3.5756 N   0  0  0  0  0  0  0  0  0  0  0  0
    6.5127   19.0709    4.7198 C   0  0  0  0  0  0  0  0  0  0  0  0
    5.6687   17.9930    4.9050 C   0  0  0  0  0  0  0  0  0  0  0  0
    5.4025   17.1909    3.7777 C   0  0  0  0  0  0  0  0  0  0  0  0
    4.6068   16.1174    3.8099 N   0  0  0  0  0  0  0  0  0  0  0  0
    5.2444   17.9223    6.2215 N   0  0  0  0  0  0  0  0  0  0  0  0
    5.8309   18.9453    6.7966 C   0  0  0  0  0  0  0  0  0  0  0  0
    6.6113   19.6817    5.9491 N   0  0  0  0  0  0  0  0  0  0  0  0
  1  2  2  0  0  0  0
  1  6  1  0  0  0  0
  2  3  1  0  0  0  0
  3  4  2  0  0  0  0
  4  5  1  0  0  0  0
  4 10  1  0  0  0  0
  5  6  2  0  0  0  0
  5  8  1  0  0  0  0
  6  7  1  0  0  0  0
  8  9  1  0  0  0  0
  9 10  2  0  0  0  0
M  END
>  <CHROM.1>
5.97080315,18.24269734,4.49038652,-1.74731752,0.90462757,1.20104965

>  <Name>
ligand

>  <RI>
0

>  <Rbt.Current_Directory>
/home/itssahil/PROJECTS/Mol_Feturizer/New_Systems/rnas/4XNR

>  <Rbt.Executable>
rbdock ($Id: //depot/dev/client3/rdock/2013.1/src/exe/rbdock.cxx#4 $)

>  <Rbt.Library>
libRbt.so (2013.1, Build901 2013/11/27)

>  <Rbt.Parameter_File>
/export/apps/rDock/src/rDock_2013.1_src/data/scripts/dock_solv.prm

>  <Rbt.Receptor>
prm/pocket_docking_3.prm

>  <SCORE>
-14.5511

>  <SCORE.INTER>
-14.5511

>  <SCORE.INTER.CONST>
1

>  <SCORE.INTER.POLAR>
0

>  <SCORE.INTER.ROT>
0

>  <SCORE.INTER.SOLV>
8.02939

>  <SCORE.INTER.VDW>
-15.9772

>  <SCORE.INTER.norm>
-1.45511

>  <SCORE.INTRA>
0

>  <SCORE.INTRA.DIHEDRAL>
0

>  <SCORE.INTRA.DIHEDRAL.0>
0

>  <SCORE.INTRA.POLAR>
0

>  <SCORE.INTRA.POLAR.0>
0

>  <SCORE.INTRA.REPUL>
0

>  <SCORE.INTRA.REPUL.0>
0

>  <SCORE.INTRA.SOLV>
0

>  <SCORE.INTRA.SOLV.lig_0>
-23.8918

>  <SCORE.INTRA.VDW>
0

>  <SCORE.INTRA.VDW.0>
0

>  <SCORE.INTRA.norm>
0

>  <SCORE.RESTR>
0

>  <SCORE.RESTR.CAVITY>
0

>  <SCORE.RESTR.norm>
0

>  <SCORE.SYSTEM>
0

>  <SCORE.SYSTEM.CONST>
0

>  <SCORE.SYSTEM.DIHEDRAL>
0

>  <SCORE.SYSTEM.SOLV>
0

>  <SCORE.SYSTEM.norm>
0

>  <SCORE.heavy>
10

>  <SCORE.norm>
-1.45511

>  <RMSD>
0.802

$$$$
ligand
 OpenBabel11021811513D
libRbt.so/2013.1/901 2013/11/27
 10 11  0  0  0  0  0  0  0  0999 V2000
    5.9761   17.5478    2.6087 N   0  0  0  0  0  0  0  0  0  0  0  0
    6.7853   18.6138    2.5926 C   0  0  0  0  0  0  0  0  0  0  0  0
    7.1180   19.4286    3.5926 N   0  0  0  0  0  0  0  0  0  0  0  0
    6.5154   19.0548    4.7321 C   0  0  0  0  0  0  0  0  0  0  0  0
    5.6584   17.9852    4.9054 C   0  0  0  0  0  0  0  0  0  0  0  0
    5.3851   17.1971    3.7700 C   0  0  0  0  0  0  0  0  0  0  0  0
    4.5767   16.1328    3.7905 N   0  0  0  0  0  0  0  0  0  0  0  0
    5.2306   17.9069    6.2204 N   0  0  0  0  0  0  0  0  0  0  0  0
    5.8280   18.9174    6.8064 C   0  0  0  0  0  0  0  0  0  0  0  0
    6.6186   19.6526    5.9674 N   0  0  0  0  0  0  0  0  0  0  0  0
  1  2  2  0  0  0  0
  1  6  1  0  0  0  0
  2  3  1  0  0  0  0
  3  4  2  0  0  0  0
  4  5  1  0  0  0  0
  4 10  1  0  0  0  0
  5  6  2  0  0  0  0
  5  8  1  0  0  0  0
  6  7  1  0  0  0  0
  8  9  1  0  0  0  0
  9 10  2  0  0  0  0
M  END
>  <CHROM.1>
5.96421496,18.23526238,4.49379459,-1.75112448,0.89294079,1.21358106

>  <Name>
ligand

>  <RI>
0

>  <Rbt.Current_Directory>
/home/itssahil/PROJECTS/Mol_Feturizer/New_Systems/rnas/4XNR

>  <Rbt.Executable>
rbdock ($Id: //depot/dev/client3/rdock/2013.1/src/exe/rbdock.cxx#4 $)

>  <Rbt.Library>
libRbt.so (2013.1, Build901 2013/11/27)

>  <Rbt.Parameter_File>
/export/apps/rDock/src/rDock_2013.1_src/data/scripts/dock_solv.prm

>  <Rbt.Receptor>
prm/pocket_docking_4.prm

>  <SCORE>
-14.5753

>  <SCORE.INTER>
-14.5753

>  <SCORE.INTER.CONST>
1

>  <SCORE.INTER.POLAR>
0

>  <SCORE.INTER.ROT>
0

>  <SCORE.INTER.SOLV>
7.89648

>  <SCORE.INTER.VDW>
-15.949

>  <SCORE.INTER.norm>
-1.45753

>  <SCORE.INTRA>
0

>  <SCORE.INTRA.DIHEDRAL>
0

>  <SCORE.INTRA.DIHEDRAL.0>
0

>  <SCORE.INTRA.POLAR>
0

>  <SCORE.INTRA.POLAR.0>
0

>  <SCORE.INTRA.REPUL>
0

>  <SCORE.INTRA.REPUL.0>
0

>  <SCORE.INTRA.SOLV>
0

>  <SCORE.INTRA.SOLV.lig_0>
-23.8918

>  <SCORE.INTRA.VDW>
0

>  <SCORE.INTRA.VDW.0>
0

>  <SCORE.INTRA.norm>
0

>  <SCORE.RESTR>
0

>  <SCORE.RESTR.CAVITY>
0

>  <SCORE.RESTR.norm>
0

>  <SCORE.SYSTEM>
0

>  <SCORE.SYSTEM.CONST>
0

>  <SCORE.SYSTEM.DIHEDRAL>
0

>  <SCORE.SYSTEM.SOLV>
0

>  <SCORE.SYSTEM.norm>
0

>  <SCORE.heavy>
10

>  <SCORE.norm>
-1.45753

>  <RMSD>
0.805

$$$$
ligand
 OpenBabel11021811513D
libRbt.so/2013.1/901 2013/11/27
 10 11  0  0  0  0  0  0  0  0999 V2000
    5.9669   17.5560    2.6057 N   0  0  0  0  0  0  0  0  0  0  0  0
    6.7776   18.6208    2.5880 C   0  0  0  0  0  0  0  0  0  0  0  0
    7.1163   19.4329    3.5882 N   0  0  0  0  0  0  0  0  0  0  0  0
    6.5188   19.0574    4.7298 C   0  0  0  0  0  0  0  0  0  0  0  0
    5.6612   17.9886    4.9050 C   0  0  0  0  0  0  0  0  0  0  0  0
    5.3811   17.2035    3.7691 C   0  0  0  0  0  0  0  0  0  0  0  0
    4.5713   16.1403    3.7912 N   0  0  0  0  0  0  0  0  0  0  0  0
    5.2398   17.9081    6.2218 N   0  0  0  0  0  0  0  0  0  0  0  0
    5.8415   18.9164    6.8071 C   0  0  0  0  0  0  0  0  0  0  0  0
    6.6291   19.6523    5.9659 N   0  0  0  0  0  0  0  0  0  0  0  0
  1  2  2  0  0  0  0
  1  6  1  0  0  0  0
  2  3  1  0  0  0  0
  3  4  2  0  0  0  0
  4  5  1  0  0  0  0
  4 10  1  0  0  0  0
  5  6  2  0  0  0  0
  5  8  1  0  0  0  0
  6  7  1  0  0  0  0
  8  9  1  0  0  0  0
  9 10  2  0  0  0  0
M  END
>  <CHROM.1>
5.96531998,18.23921111,4.49237205,-1.75931669,0.89329924,1.22219830

>  <Name>
ligand

>  <RI>
0

>  <Rbt.Current_Directory>
/home/itssahil/PROJECTS/Mol_Feturizer/New_Systems/rnas/4XNR

>  <Rbt.Executable>
rbdock ($Id: //depot/dev/client3/rdock/2013.1/src/exe/rbdock.cxx#4 $)

>  <Rbt.Library>
libRbt.so (2013.1, Build901 2013/11/27)

>  <Rbt.Parameter_File>
/export/apps/rDock/src/rDock_2013.1_src/data/scripts/dock_solv.prm

>  <Rbt.Receptor>
prm/pocket_docking_6.prm

>  <SCORE>
-14.5758

>  <SCORE.INTER>
-14.5758

>  <SCORE.INTER.CONST>
1

>  <SCORE.INTER.POLAR>
0

>  <SCORE.INTER.ROT>
0

>  <SCORE.INTER.SOLV>
7.86941

>  <SCORE.INTER.VDW>
-15.9403

>  <SCORE.INTER.norm>
-1.45758

>  <SCORE.INTRA>
0

>  <SCORE.INTRA.DIHEDRAL>
0

>  <SCORE.INTRA.DIHEDRAL.0>
0

>  <SCORE.INTRA.POLAR>
0

>  <SCORE.INTRA.POLAR.0>
0

>  <SCORE.INTRA.REPUL>
0

>  <SCORE.INTRA.REPUL.0>
0

>  <SCORE.INTRA.SOLV>
0

>  <SCORE.INTRA.SOLV.lig_0>
-23.8918

>  <SCORE.INTRA.VDW>
0

>  <SCORE.INTRA.VDW.0>
0

>  <SCORE.INTRA.norm>
0

>  <SCORE.RESTR>
0

>  <SCORE.RESTR.CAVITY>
0

>  <SCORE.RESTR.norm>
0

>  <SCORE.SYSTEM>
0

>  <SCORE.SYSTEM.CONST>
0

>  <SCORE.SYSTEM.DIHEDRAL>
0

>  <SCORE.SYSTEM.SOLV>
0

>  <SCORE.SYSTEM.norm>
0

>  <SCORE.heavy>
10

>  <SCORE.norm>
-1.45758

>  <RMSD>
0.805

$$$$
ligand
 OpenBabel11021811513D
libRbt.so/2013.1/901 2013/11/27
 10 11  0  0  0  0  0  0  0  0999 V2000
    6.0612   17.5141    2.6198 N   0  0  0  0  0  0  0  0  0  0  0  0
    6.9111   18.5480    2.6297 C   0  0  0  0  0  0  0  0  0  0  0  0
    7.2421   19.3510    3.6398 N   0  0  0  0  0  0  0  0  0  0  0  0
    6.5886   19.0027    4.7591 C   0  0  0  0  0  0  0  0  0  0  0  0
    5.6857   17.9672    4.9047 C   0  0  0  0  0  0  0  0  0  0  0  0
    5.4193   17.1884    3.7612 C   0  0  0  0  0  0  0  0  0  0  0  0
    4.5701   16.1562    3.7556 N   0  0  0  0  0  0  0  0  0  0  0  0
    5.2124   17.9078    6.2050 N   0  0  0  0  0  0  0  0  0  0  0  0
    5.8290   18.8955    6.8098 C   0  0  0  0  0  0  0  0  0  0  0  0
    6.6744   19.5981    5.9968 N   0  0  0  0  0  0  0  0  0  0  0  0
  1  2  2  0  0  0  0
  1  6  1  0  0  0  0
  2  3  1  0  0  0  0
  3  4  2  0  0  0  0
  4  5  1  0  0  0  0
  4 10  1  0  0  0  0
  5  6  2  0  0  0  0
  5  8  1  0  0  0  0
  6  7  1  0  0  0  0
  8  9  1  0  0  0  0
  9 10  2  0  0  0  0
M  END
>  <CHROM.1>
6.01423288,18.20467381,4.50317745,-1.72534769,0.84508971,1.19285927

>  <Name>
ligand

>  <RI>
0

>  <Rbt.Current_Directory>
/home/itssahil/PROJECTS/Mol_Feturizer/New_Systems/rnas/4XNR

>  <Rbt.Executable>
rbdock ($Id: //depot/dev/client3/rdock/2013.1/src/exe/rbdock.cxx#4 $)

>  <Rbt.Library>
libRbt.so (2013.1, Build901 2013/11/27)

>  <Rbt.Parameter_File>
/export/apps/rDock/src/rDock_2013.1_src/data/scripts/dock_solv.prm

>  <Rbt.Receptor>
prm/pocket_docking_6.prm

>  <SCORE>
-14.5349

>  <SCORE.INTER>
-14.5349

>  <SCORE.INTER.CONST>
1

>  <SCORE.INTER.POLAR>
0

>  <SCORE.INTER.ROT>
0

>  <SCORE.INTER.SOLV>
7.74241

>  <SCORE.INTER.VDW>
-15.8707

>  <SCORE.INTER.norm>
-1.45349

>  <SCORE.INTRA>
0

>  <SCORE.INTRA.DIHEDRAL>
0

>  <SCORE.INTRA.DIHEDRAL.0>
0

>  <SCORE.INTRA.POLAR>
0

>  <SCORE.INTRA.POLAR.0>
0

>  <SCORE.INTRA.REPUL>
0

>  <SCORE.INTRA.REPUL.0>
0

>  <SCORE.INTRA.SOLV>
0

>  <SCORE.INTRA.SOLV.lig_0>
-23.8918

>  <SCORE.INTRA.VDW>
0

>  <SCORE.INTRA.VDW.0>
0

>  <SCORE.INTRA.norm>
0

>  <SCORE.RESTR>
0

>  <SCORE.RESTR.CAVITY>
0

>  <SCORE.RESTR.norm>
0

>  <SCORE.SYSTEM>
0

>  <SCORE.SYSTEM.CONST>
0

>  <SCORE.SYSTEM.DIHEDRAL>
0

>  <SCORE.SYSTEM.SOLV>
0

>  <SCORE.SYSTEM.norm>
0

>  <SCORE.heavy>
10

>  <SCORE.norm>
-1.45349

>  <RMSD>
0.805

$$$$
ligand
 OpenBabel11021811513D
libRbt.so/2013.1/901 2013/11/27
 10 11  0  0  0  0  0  0  0  0999 V2000
    6.0464   17.5450    2.6121 N   0  0  0  0  0  0  0  0  0  0  0  0
    6.8848   18.5883    2.6194 C   0  0  0  0  0  0  0  0  0  0  0  0
    7.2205   19.3865    3.6318 N   0  0  0  0  0  0  0  0  0  0  0  0
    6.5861   19.0215    4.7567 C   0  0  0  0  0  0  0  0  0  0  0  0
    5.6968   17.9747    4.9056 C   0  0  0  0  0  0  0  0  0  0  0  0
    5.4237   17.2026    3.7592 C   0  0  0  0  0  0  0  0  0  0  0  0
    4.5861   16.1609    3.7563 N   0  0  0  0  0  0  0  0  0  0  0  0
    5.2419   17.8991    6.2116 N   0  0  0  0  0  0  0  0  0  0  0  0
    5.8555   18.8885    6.8165 C   0  0  0  0  0  0  0  0  0  0  0  0
    6.6820   19.6075    5.9982 N   0  0  0  0  0  0  0  0  0  0  0  0
  1  2  2  0  0  0  0
  1  6  1  0  0  0  0
  2  3  1  0  0  0  0
  3  4  2  0  0  0  0
  4  5  1  0  0  0  0
  4 10  1  0  0  0  0
  5  6  2  0  0  0  0
  5  8  1  0  0  0  0
  6  7  1  0  0  0  0
  8  9  1  0  0  0  0
  9 10  2  0  0  0  0
M  END
>  <CHROM.1>
6.01723487,18.21921305,4.50176381,-1.73830892,0.86042032,1.21107368

>  <Name>
ligand

>  <RI>
0

>  <Rbt.Current_Directory>
/home/itssahil/PROJECTS/Mol_Feturizer/New_Systems/rnas/4XNR

>  <Rbt.Executable>
rbdock ($Id: //depot/dev/client3/rdock/2013.1/src/exe/rbdock.cxx#4 $)

>  <Rbt.Library>
libRbt.so (2013.1, Build901 2013/11/27)

>  <Rbt.Parameter_File>
/export/apps/rDock/src/rDock_2013.1_src/data/scripts/dock_solv.prm

>  <Rbt.Receptor>
prm/pocket_docking_4.prm

>  <SCORE>
-14.5573

>  <SCORE.INTER>
-14.5573

>  <SCORE.INTER.CONST>
1

>  <SCORE.INTER.POLAR>
0

>  <SCORE.INTER.ROT>
0

>  <SCORE.INTER.SOLV>
7.7646

>  <SCORE.INTER.VDW>
-15.893

>  <SCORE.INTER.norm>
-1.45573

>  <SCORE.INTRA>
0

>  <SCORE.INTRA.DIHEDRAL>
0

>  <SCORE.INTRA.DIHEDRAL.0>
0

>  <SCORE.INTRA.POLAR>
0

>  <SCORE.INTRA.POLAR.0>
0

>  <SCORE.INTRA.REPUL>
0

>  <SCORE.INTRA.REPUL.0>
0

>  <SCORE.INTRA.SOLV>
0

>  <SCORE.INTRA.SOLV.lig_0>
-23.8918

>  <SCORE.INTRA.VDW>
0

>  <SCORE.INTRA.VDW.0>
0

>  <SCORE.INTRA.norm>
0

>  <SCORE.RESTR>
0

>  <SCORE.RESTR.CAVITY>
0

>  <SCORE.RESTR.norm>
0

>  <SCORE.SYSTEM>
0

>  <SCORE.SYSTEM.CONST>
0

>  <SCORE.SYSTEM.DIHEDRAL>
0

>  <SCORE.SYSTEM.SOLV>
0

>  <SCORE.SYSTEM.norm>
0

>  <SCORE.heavy>
10

>  <SCORE.norm>
-1.45573

>  <RMSD>
0.811

$$$$
ligand
 OpenBabel11021811513D
libRbt.so/2013.1/901 2013/11/27
 10 11  0  0  0  0  0  0  0  0999 V2000
    6.0673   17.5131    2.6294 N   0  0  0  0  0  0  0  0  0  0  0  0
    6.9221   18.5430    2.6325 C   0  0  0  0  0  0  0  0  0  0  0  0
    7.2586   19.3497    3.6377 N   0  0  0  0  0  0  0  0  0  0  0  0
    6.6053   19.0105    4.7599 C   0  0  0  0  0  0  0  0  0  0  0  0
    5.6978   17.9801    4.9125 C   0  0  0  0  0  0  0  0  0  0  0  0
    5.4258   17.1965    3.7737 C   0  0  0  0  0  0  0  0  0  0  0  0
    4.5718   16.1683    3.7750 N   0  0  0  0  0  0  0  0  0  0  0  0
    5.2264   17.9298    6.2139 N   0  0  0  0  0  0  0  0  0  0  0  0
    5.8486   18.9177    6.8124 C   0  0  0  0  0  0  0  0  0  0  0  0
    6.6961   19.6121    5.9943 N   0  0  0  0  0  0  0  0  0  0  0  0
  1  2  2  0  0  0  0
  1  6  1  0  0  0  0
  2  3  1  0  0  0  0
  3  4  2  0  0  0  0
  4  5  1  0  0  0  0
  4 10  1  0  0  0  0
  5  6  2  0  0  0  0
  5  8  1  0  0  0  0
  6  7  1  0  0  0  0
  8  9  1  0  0  0  0
  9 10  2  0  0  0  0
M  END
>  <CHROM.1>
6.02676966,18.21381964,4.50922187,-1.73031159,0.84131432,1.19124880

>  <Name>
ligand

>  <RI>
0

>  <Rbt.Current_Directory>
/home/itssahil/PROJECTS/Mol_Feturizer/New_Systems/rnas/4XNR

>  <Rbt.Executable>
rbdock ($Id: //depot/dev/client3/rdock/2013.1/src/exe/rbdock.cxx#4 $)

>  <Rbt.Library>
libRbt.so (2013.1, Build901 2013/11/27)

>  <Rbt.Parameter_File>
/export/apps/rDock/src/rDock_2013.1_src/data/scripts/dock_solv.prm

>  <Rbt.Receptor>
prm/blind_docking_100.prm

>  <SCORE>
-14.5239

>  <SCORE.INTER>
-14.5239

>  <SCORE.INTER.CONST>
1

>  <SCORE.INTER.POLAR>
0

>  <SCORE.INTER.ROT>
0

>  <SCORE.INTER.SOLV>
7.74068

>  <SCORE.INTER.VDW>
-15.8629

>  <SCORE.INTER.norm>
-1.45239

>  <SCORE.INTRA>
0

>  <SCORE.INTRA.DIHEDRAL>
0

>  <SCORE.INTRA.DIHEDRAL.0>
0

>  <SCORE.INTRA.POLAR>
0

>  <SCORE.INTRA.POLAR.0>
0

>  <SCORE.INTRA.REPUL>
0

>  <SCORE.INTRA.REPUL.0>
0

>  <SCORE.INTRA.SOLV>
0

>  <SCORE.INTRA.SOLV.lig_0>
-23.8918

>  <SCORE.INTRA.VDW>
0

>  <SCORE.INTRA.VDW.0>
0

>  <SCORE.INTRA.norm>
0

>  <SCORE.RESTR>
0

>  <SCORE.RESTR.CAVITY>
0

>  <SCORE.RESTR.norm>
0

>  <SCORE.SYSTEM>
0

>  <SCORE.SYSTEM.CONST>
0

>  <SCORE.SYSTEM.DIHEDRAL>
0

>  <SCORE.SYSTEM.SOLV>
0

>  <SCORE.SYSTEM.norm>
0

>  <SCORE.heavy>
10

>  <SCORE.norm>
-1.45239

>  <RMSD>
0.812

$$$$
ligand
 OpenBabel11021811513D
libRbt.so/2013.1/901 2013/11/27
 10 11  0  0  0  0  0  0  0  0999 V2000
    5.9737   17.5501    2.6245 N   0  0  0  0  0  0  0  0  0  0  0  0
    6.7837   18.6153    2.6013 C   0  0  0  0  0  0  0  0  0  0  0  0
    7.1194   19.4346    3.5967 N   0  0  0  0  0  0  0  0  0  0  0  0
    6.5192   19.0668    4.7393 C   0  0  0  0  0  0  0  0  0  0  0  0
    5.6618   17.9987    4.9198 C   0  0  0  0  0  0  0  0  0  0  0  0
    5.3851   17.2054    3.7888 C   0  0  0  0  0  0  0  0  0  0  0  0
    4.5759   16.1418    3.8163 N   0  0  0  0  0  0  0  0  0  0  0  0
    5.2371   17.9272    6.2361 N   0  0  0  0  0  0  0  0  0  0  0  0
    5.8366   18.9400    6.8158 C   0  0  0  0  0  0  0  0  0  0  0  0
    6.6258   19.6705    5.9715 N   0  0  0  0  0  0  0  0  0  0  0  0
  1  2  2  0  0  0  0
  1  6  1  0  0  0  0
  2  3  1  0  0  0  0
  3  4  2  0  0  0  0
  4  5  1  0  0  0  0
  4 10  1  0  0  0  0
  5  6  2  0  0  0  0
  5  8  1  0  0  0  0
  6  7  1  0  0  0  0
  8  9  1  0  0  0  0
  9 10  2  0  0  0  0
M  END
>  <CHROM.1>
5.96681729,18.24658988,4.50626167,-1.75510646,0.89302495,1.21187212

>  <Name>
ligand

>  <RI>
0

>  <Rbt.Current_Directory>
/home/itssahil/PROJECTS/Mol_Feturizer/New_Systems/rnas/4XNR

>  <Rbt.Executable>
rbdock ($Id: //depot/dev/client3/rdock/2013.1/src/exe/rbdock.cxx#4 $)

>  <Rbt.Library>
libRbt.so (2013.1, Build901 2013/11/27)

>  <Rbt.Parameter_File>
/export/apps/rDock/src/rDock_2013.1_src/data/scripts/dock_solv.prm

>  <Rbt.Receptor>
prm/blind_docking_80.prm

>  <SCORE>
-14.538

>  <SCORE.INTER>
-14.538

>  <SCORE.INTER.CONST>
1

>  <SCORE.INTER.POLAR>
0

>  <SCORE.INTER.ROT>
0

>  <SCORE.INTER.SOLV>
7.925

>  <SCORE.INTER.VDW>
-15.9337

>  <SCORE.INTER.norm>
-1.4538

>  <SCORE.INTRA>
0

>  <SCORE.INTRA.DIHEDRAL>
0

>  <SCORE.INTRA.DIHEDRAL.0>
0

>  <SCORE.INTRA.POLAR>
0

>  <SCORE.INTRA.POLAR.0>
0

>  <SCORE.INTRA.REPUL>
0

>  <SCORE.INTRA.REPUL.0>
0

>  <SCORE.INTRA.SOLV>
0

>  <SCORE.INTRA.SOLV.lig_0>
-23.8918

>  <SCORE.INTRA.VDW>
0

>  <SCORE.INTRA.VDW.0>
0

>  <SCORE.INTRA.norm>
0

>  <SCORE.RESTR>
0

>  <SCORE.RESTR.CAVITY>
0

>  <SCORE.RESTR.norm>
0

>  <SCORE.SYSTEM>
0

>  <SCORE.SYSTEM.CONST>
0

>  <SCORE.SYSTEM.DIHEDRAL>
0

>  <SCORE.SYSTEM.SOLV>
0

>  <SCORE.SYSTEM.norm>
0

>  <SCORE.heavy>
10

>  <SCORE.norm>
-1.4538

>  <RMSD>
0.818

$$$$
ligand
 OpenBabel11021811513D
libRbt.so/2013.1/901 2013/11/27
 10 11  0  0  0  0  0  0  0  0999 V2000
    6.0259   17.5795    2.6014 N   0  0  0  0  0  0  0  0  0  0  0  0
    6.8163   18.6596    2.6109 C   0  0  0  0  0  0  0  0  0  0  0  0
    7.1242   19.4636    3.6275 N   0  0  0  0  0  0  0  0  0  0  0  0
    6.5167   19.0609    4.7544 C   0  0  0  0  0  0  0  0  0  0  0  0
    5.6770   17.9737    4.9014 C   0  0  0  0  0  0  0  0  0  0  0  0
    5.4293   17.1996    3.7506 C   0  0  0  0  0  0  0  0  0  0  0  0
    4.6396   16.1211    3.7454 N   0  0  0  0  0  0  0  0  0  0  0  0
    5.2372   17.8666    6.2103 N   0  0  0  0  0  0  0  0  0  0  0  0
    5.8106   18.8777    6.8188 C   0  0  0  0  0  0  0  0  0  0  0  0
    6.5967   19.6402    6.0001 N   0  0  0  0  0  0  0  0  0  0  0  0
  1  2  2  0  0  0  0
  1  6  1  0  0  0  0
  2  3  1  0  0  0  0
  3  4  2  0  0  0  0
  4  5  1  0  0  0  0
  4 10  1  0  0  0  0
  5  6  2  0  0  0  0
  5  8  1  0  0  0  0
  6  7  1  0  0  0  0
  8  9  1  0  0  0  0
  9 10  2  0  0  0  0
M  END
>  <CHROM.1>
5.98255535,18.23580591,4.49708262,-1.72557452,0.90575604,1.20979593

>  <Name>
ligand

>  <RI>
0

>  <Rbt.Current_Directory>
/home/itssahil/PROJECTS/Mol_Feturizer/New_Systems/rnas/4XNR

>  <Rbt.Executable>
rbdock ($Id: //depot/dev/client3/rdock/2013.1/src/exe/rbdock.cxx#4 $)

>  <Rbt.Library>
libRbt.so (2013.1, Build901 2013/11/27)

>  <Rbt.Parameter_File>
/export/apps/rDock/src/rDock_2013.1_src/data/scripts/dock_solv.prm

>  <Rbt.Receptor>
prm/pocket_docking_5.prm

>  <SCORE>
-14.5516

>  <SCORE.INTER>
-14.5516

>  <SCORE.INTER.CONST>
1

>  <SCORE.INTER.POLAR>
0

>  <SCORE.INTER.ROT>
0

>  <SCORE.INTER.SOLV>
7.95759

>  <SCORE.INTER.VDW>
-15.9536

>  <SCORE.INTER.norm>
-1.45516

>  <SCORE.INTRA>
0

>  <SCORE.INTRA.DIHEDRAL>
0

>  <SCORE.INTRA.DIHEDRAL.0>
0

>  <SCORE.INTRA.POLAR>
0

>  <SCORE.INTRA.POLAR.0>
0

>  <SCORE.INTRA.REPUL>
0

>  <SCORE.INTRA.REPUL.0>
0

>  <SCORE.INTRA.SOLV>
0

>  <SCORE.INTRA.SOLV.lig_0>
-23.8918

>  <SCORE.INTRA.VDW>
0

>  <SCORE.INTRA.VDW.0>
0

>  <SCORE.INTRA.norm>
0

>  <SCORE.RESTR>
0

>  <SCORE.RESTR.CAVITY>
0

>  <SCORE.RESTR.norm>
0

>  <SCORE.SYSTEM>
0

>  <SCORE.SYSTEM.CONST>
0

>  <SCORE.SYSTEM.DIHEDRAL>
0

>  <SCORE.SYSTEM.SOLV>
0

>  <SCORE.SYSTEM.norm>
0

>  <SCORE.heavy>
10

>  <SCORE.norm>
-1.45516

>  <RMSD>
0.820

$$$$
ligand
 OpenBabel11021811513D
libRbt.so/2013.1/901 2013/11/27
 10 11  0  0  0  0  0  0  0  0999 V2000
    6.0312   17.5772    2.6038 N   0  0  0  0  0  0  0  0  0  0  0  0
    6.8275   18.6529    2.6160 C   0  0  0  0  0  0  0  0  0  0  0  0
    7.1401   19.4527    3.6345 N   0  0  0  0  0  0  0  0  0  0  0  0
    6.5305   19.0505    4.7604 C   0  0  0  0  0  0  0  0  0  0  0  0
    5.6849   17.9676    4.9049 C   0  0  0  0  0  0  0  0  0  0  0  0
    5.4326   17.1978    3.7522 C   0  0  0  0  0  0  0  0  0  0  0  0
    4.6370   16.1237    3.7444 N   0  0  0  0  0  0  0  0  0  0  0  0
    5.2447   17.8596    6.2137 N   0  0  0  0  0  0  0  0  0  0  0  0
    5.8238   18.8660    6.8245 C   0  0  0  0  0  0  0  0  0  0  0  0
    6.6139   19.6262    6.0077 N   0  0  0  0  0  0  0  0  0  0  0  0
  1  2  2  0  0  0  0
  1  6  1  0  0  0  0
  2  3  1  0  0  0  0
  3  4  2  0  0  0  0
  4  5  1  0  0  0  0
  4 10  1  0  0  0  0
  5  6  2  0  0  0  0
  5  8  1  0  0  0  0
  6  7  1  0  0  0  0
  8  9  1  0  0  0  0
  9 10  2  0  0  0  0
M  END
>  <CHROM.1>
5.99176591,18.22902739,4.50119225,-1.72896770,0.90063966,1.21496880

>  <Name>
ligand

>  <RI>
0

>  <Rbt.Current_Directory>
/home/itssahil/PROJECTS/Mol_Feturizer/New_Systems/rnas/4XNR

>  <Rbt.Executable>
rbdock ($Id: //depot/dev/client3/rdock/2013.1/src/exe/rbdock.cxx#4 $)

>  <Rbt.Library>
libRbt.so (2013.1, Build901 2013/11/27)

>  <Rbt.Parameter_File>
/export/apps/rDock/src/rDock_2013.1_src/data/scripts/dock_solv.prm

>  <Rbt.Receptor>
prm/pocket_docking_6.prm

>  <SCORE>
-14.5717

>  <SCORE.INTER>
-14.5717

>  <SCORE.INTER.CONST>
1

>  <SCORE.INTER.POLAR>
0

>  <SCORE.INTER.ROT>
0

>  <SCORE.INTER.SOLV>
7.94042

>  <SCORE.INTER.VDW>
-15.9613

>  <SCORE.INTER.norm>
-1.45717

>  <SCORE.INTRA>
0

>  <SCORE.INTRA.DIHEDRAL>
0

>  <SCORE.INTRA.DIHEDRAL.0>
0

>  <SCORE.INTRA.POLAR>
0

>  <SCORE.INTRA.POLAR.0>
0

>  <SCORE.INTRA.REPUL>
0

>  <SCORE.INTRA.REPUL.0>
0

>  <SCORE.INTRA.SOLV>
0

>  <SCORE.INTRA.SOLV.lig_0>
-23.8918

>  <SCORE.INTRA.VDW>
0

>  <SCORE.INTRA.VDW.0>
0

>  <SCORE.INTRA.norm>
0

>  <SCORE.RESTR>
0

>  <SCORE.RESTR.CAVITY>
0

>  <SCORE.RESTR.norm>
0

>  <SCORE.SYSTEM>
0

>  <SCORE.SYSTEM.CONST>
0

>  <SCORE.SYSTEM.DIHEDRAL>
0

>  <SCORE.SYSTEM.SOLV>
0

>  <SCORE.SYSTEM.norm>
0

>  <SCORE.heavy>
10

>  <SCORE.norm>
-1.45717

>  <RMSD>
0.821

$$$$
ligand
 OpenBabel11021811513D
libRbt.so/2013.1/901 2013/11/27
 10 11  0  0  0  0  0  0  0  0999 V2000
    6.0085   17.5766    2.6074 N   0  0  0  0  0  0  0  0  0  0  0  0
    6.8141   18.6454    2.6149 C   0  0  0  0  0  0  0  0  0  0  0  0
    7.1379   19.4436    3.6311 N   0  0  0  0  0  0  0  0  0  0  0  0
    6.5296   19.0480    4.7601 C   0  0  0  0  0  0  0  0  0  0  0  0
    5.6753   17.9726    4.9094 C   0  0  0  0  0  0  0  0  0  0  0  0
    5.4115   17.2036    3.7587 C   0  0  0  0  0  0  0  0  0  0  0  0
    4.6067   16.1364    3.7555 N   0  0  0  0  0  0  0  0  0  0  0  0
    5.2397   17.8699    6.2201 N   0  0  0  0  0  0  0  0  0  0  0  0
    5.8300   18.8719    6.8274 C   0  0  0  0  0  0  0  0  0  0  0  0
    6.6233   19.6244    6.0063 N   0  0  0  0  0  0  0  0  0  0  0  0
  1  2  2  0  0  0  0
  1  6  1  0  0  0  0
  2  3  1  0  0  0  0
  3  4  2  0  0  0  0
  4  5  1  0  0  0  0
  4 10  1  0  0  0  0
  5  6  2  0  0  0  0
  5  8  1  0  0  0  0
  6  7  1  0  0  0  0
  8  9  1  0  0  0  0
  9 10  2  0  0  0  0
M  END
>  <CHROM.1>
5.98270785,18.23086511,4.50409320,-1.74007875,0.89399115,1.22249410

>  <Name>
ligand

>  <RI>
0

>  <Rbt.Current_Directory>
/home/itssahil/PROJECTS/Mol_Feturizer/New_Systems/rnas/4XNR

>  <Rbt.Executable>
rbdock ($Id: //depot/dev/client3/rdock/2013.1/src/exe/rbdock.cxx#4 $)

>  <Rbt.Library>
libRbt.so (2013.1, Build901 2013/11/27)

>  <Rbt.Parameter_File>
/export/apps/rDock/src/rDock_2013.1_src/data/scripts/dock_solv.prm

>  <Rbt.Receptor>
prm/pocket_docking_7.prm

>  <SCORE>
-14.5806

>  <SCORE.INTER>
-14.5806

>  <SCORE.INTER.CONST>
1

>  <SCORE.INTER.POLAR>
0

>  <SCORE.INTER.ROT>
0

>  <SCORE.INTER.SOLV>
7.87569

>  <SCORE.INTER.VDW>
-15.9456

>  <SCORE.INTER.norm>
-1.45806

>  <SCORE.INTRA>
0

>  <SCORE.INTRA.DIHEDRAL>
0

>  <SCORE.INTRA.DIHEDRAL.0>
0

>  <SCORE.INTRA.POLAR>
0

>  <SCORE.INTRA.POLAR.0>
0

>  <SCORE.INTRA.REPUL>
0

>  <SCORE.INTRA.REPUL.0>
0

>  <SCORE.INTRA.SOLV>
0

>  <SCORE.INTRA.SOLV.lig_0>
-23.8918

>  <SCORE.INTRA.VDW>
0

>  <SCORE.INTRA.VDW.0>
0

>  <SCORE.INTRA.norm>
0

>  <SCORE.RESTR>
0

>  <SCORE.RESTR.CAVITY>
0

>  <SCORE.RESTR.norm>
0

>  <SCORE.SYSTEM>
0

>  <SCORE.SYSTEM.CONST>
0

>  <SCORE.SYSTEM.DIHEDRAL>
0

>  <SCORE.SYSTEM.SOLV>
0

>  <SCORE.SYSTEM.norm>
0

>  <SCORE.heavy>
10

>  <SCORE.norm>
-1.45806

>  <RMSD>
0.821

$$$$
ligand
 OpenBabel11021811513D
libRbt.so/2013.1/901 2013/11/27
 10 11  0  0  0  0  0  0  0  0999 V2000
    6.0083   17.5547    2.6217 N   0  0  0  0  0  0  0  0  0  0  0  0
    6.8167   18.6214    2.6249 C   0  0  0  0  0  0  0  0  0  0  0  0
    7.1380   19.4263    3.6367 N   0  0  0  0  0  0  0  0  0  0  0  0
    6.5237   19.0406    4.7658 C   0  0  0  0  0  0  0  0  0  0  0  0
    5.6659   17.9686    4.9192 C   0  0  0  0  0  0  0  0  0  0  0  0
    5.4053   17.1918    3.7731 C   0  0  0  0  0  0  0  0  0  0  0  0
    4.5976   16.1267    3.7742 N   0  0  0  0  0  0  0  0  0  0  0  0
    5.2242   17.8768    6.2287 N   0  0  0  0  0  0  0  0  0  0  0  0
    5.8144   18.8818    6.8312 C   0  0  0  0  0  0  0  0  0  0  0  0
    6.6133   19.6260    6.0081 N   0  0  0  0  0  0  0  0  0  0  0  0
  1  2  2  0  0  0  0
  1  6  1  0  0  0  0
  2  3  1  0  0  0  0
  3  4  2  0  0  0  0
  4  5  1  0  0  0  0
  4 10  1  0  0  0  0
  5  6  2  0  0  0  0
  5  8  1  0  0  0  0
  6  7  1  0  0  0  0
  8  9  1  0  0  0  0
  9 10  2  0  0  0  0
M  END
>  <CHROM.1>
5.97579236,18.22306893,4.51341324,-1.73483525,0.88999798,1.21099733

>  <Name>
ligand

>  <RI>
0

>  <Rbt.Current_Directory>
/home/itssahil/PROJECTS/Mol_Feturizer/New_Systems/rnas/4XNR

>  <Rbt.Executable>
rbdock ($Id: //depot/dev/client3/rdock/2013.1/src/exe/rbdock.cxx#4 $)

>  <Rbt.Library>
libRbt.so (2013.1, Build901 2013/11/27)

>  <Rbt.Parameter_File>
/export/apps/rDock/src/rDock_2013.1_src/data/scripts/dock_solv.prm

>  <Rbt.Receptor>
prm/pocket_docking_5.prm

>  <SCORE>
-14.5531

>  <SCORE.INTER>
-14.5531

>  <SCORE.INTER.CONST>
1

>  <SCORE.INTER.POLAR>
0

>  <SCORE.INTER.ROT>
0

>  <SCORE.INTER.SOLV>
7.91776

>  <SCORE.INTER.VDW>
-15.9413

>  <SCORE.INTER.norm>
-1.45531

>  <SCORE.INTRA>
0

>  <SCORE.INTRA.DIHEDRAL>
0

>  <SCORE.INTRA.DIHEDRAL.0>
0

>  <SCORE.INTRA.POLAR>
0

>  <SCORE.INTRA.POLAR.0>
0

>  <SCORE.INTRA.REPUL>
0

>  <SCORE.INTRA.REPUL.0>
0

>  <SCORE.INTRA.SOLV>
0

>  <SCORE.INTRA.SOLV.lig_0>
-23.8918

>  <SCORE.INTRA.VDW>
0

>  <SCORE.INTRA.VDW.0>
0

>  <SCORE.INTRA.norm>
0

>  <SCORE.RESTR>
0

>  <SCORE.RESTR.CAVITY>
0

>  <SCORE.RESTR.norm>
0

>  <SCORE.SYSTEM>
0

>  <SCORE.SYSTEM.CONST>
0

>  <SCORE.SYSTEM.DIHEDRAL>
0

>  <SCORE.SYSTEM.SOLV>
0

>  <SCORE.SYSTEM.norm>
0

>  <SCORE.heavy>
10

>  <SCORE.norm>
-1.45531

>  <RMSD>
0.823

$$$$
ligand
 OpenBabel11021811513D
libRbt.so/2013.1/901 2013/11/27
 10 11  0  0  0  0  0  0  0  0999 V2000
    6.0273   17.5832    2.6036 N   0  0  0  0  0  0  0  0  0  0  0  0
    6.8201   18.6615    2.6104 C   0  0  0  0  0  0  0  0  0  0  0  0
    7.1303   19.4671    3.6250 N   0  0  0  0  0  0  0  0  0  0  0  0
    6.5223   19.0682    4.7530 C   0  0  0  0  0  0  0  0  0  0  0  0
    5.6803   17.9832    4.9028 C   0  0  0  0  0  0  0  0  0  0  0  0
    5.4303   17.2072    3.7538 C   0  0  0  0  0  0  0  0  0  0  0  0
    4.6382   16.1305    3.7513 N   0  0  0  0  0  0  0  0  0  0  0  0
    5.2408   17.8800    6.2122 N   0  0  0  0  0  0  0  0  0  0  0  0
    5.8167   18.8912    6.8182 C   0  0  0  0  0  0  0  0  0  0  0  0
    6.6042   19.6501    5.9975 N   0  0  0  0  0  0  0  0  0  0  0  0
  1  2  2  0  0  0  0
  1  6  1  0  0  0  0
  2  3  1  0  0  0  0
  3  4  2  0  0  0  0
  4  5  1  0  0  0  0
  4 10  1  0  0  0  0
  5  6  2  0  0  0  0
  5  8  1  0  0  0  0
  6  7  1  0  0  0  0
  8  9  1  0  0  0  0
  9 10  2  0  0  0  0
M  END
>  <CHROM.1>
5.98622894,18.24376082,4.49782202,-1.72749662,0.90377436,1.20909517

>  <Name>
ligand

>  <RI>
0

>  <Rbt.Current_Directory>
/home/itssahil/PROJECTS/Mol_Feturizer/New_Systems/rnas/4XNR

>  <Rbt.Executable>
rbdock ($Id: //depot/dev/client3/rdock/2013.1/src/exe/rbdock.cxx#4 $)

>  <Rbt.Library>
libRbt.so (2013.1, Build901 2013/11/27)

>  <Rbt.Parameter_File>
/export/apps/rDock/src/rDock_2013.1_src/data/scripts/dock_solv.prm

>  <Rbt.Receptor>
prm/pocket_docking_7.prm

>  <SCORE>
-14.5573

>  <SCORE.INTER>
-14.5573

>  <SCORE.INTER.CONST>
1

>  <SCORE.INTER.POLAR>
0

>  <SCORE.INTER.ROT>
0

>  <SCORE.INTER.SOLV>
7.94493

>  <SCORE.INTER.VDW>
-15.9532

>  <SCORE.INTER.norm>
-1.45573

>  <SCORE.INTRA>
0

>  <SCORE.INTRA.DIHEDRAL>
0

>  <SCORE.INTRA.DIHEDRAL.0>
0

>  <SCORE.INTRA.POLAR>
0

>  <SCORE.INTRA.POLAR.0>
0

>  <SCORE.INTRA.REPUL>
0

>  <SCORE.INTRA.REPUL.0>
0

>  <SCORE.INTRA.SOLV>
0

>  <SCORE.INTRA.SOLV.lig_0>
-23.8918

>  <SCORE.INTRA.VDW>
0

>  <SCORE.INTRA.VDW.0>
0

>  <SCORE.INTRA.norm>
0

>  <SCORE.RESTR>
0

>  <SCORE.RESTR.CAVITY>
0

>  <SCORE.RESTR.norm>
0

>  <SCORE.SYSTEM>
0

>  <SCORE.SYSTEM.CONST>
0

>  <SCORE.SYSTEM.DIHEDRAL>
0

>  <SCORE.SYSTEM.SOLV>
0

>  <SCORE.SYSTEM.norm>
0

>  <SCORE.heavy>
10

>  <SCORE.norm>
-1.45573

>  <RMSD>
0.823

$$$$
ligand
 OpenBabel11021811513D
libRbt.so/2013.1/901 2013/11/27
 10 11  0  0  0  0  0  0  0  0999 V2000
    6.0114   17.5768    2.6168 N   0  0  0  0  0  0  0  0  0  0  0  0
    6.8132   18.6485    2.6179 C   0  0  0  0  0  0  0  0  0  0  0  0
    7.1314   19.4559    3.6286 N   0  0  0  0  0  0  0  0  0  0  0  0
    6.5215   19.0672    4.7591 C   0  0  0  0  0  0  0  0  0  0  0  0
    5.6705   17.9900    4.9147 C   0  0  0  0  0  0  0  0  0  0  0  0
    5.4126   17.2110    3.7695 C   0  0  0  0  0  0  0  0  0  0  0  0
    4.6114   16.1410    3.7727 N   0  0  0  0  0  0  0  0  0  0  0  0
    5.2317   17.8963    6.2250 N   0  0  0  0  0  0  0  0  0  0  0  0
    5.8169   18.9053    6.8258 C   0  0  0  0  0  0  0  0  0  0  0  0
    6.6097   19.6539    6.0009 N   0  0  0  0  0  0  0  0  0  0  0  0
  1  2  2  0  0  0  0
  1  6  1  0  0  0  0
  2  3  1  0  0  0  0
  3  4  2  0  0  0  0
  4  5  1  0  0  0  0
  4 10  1  0  0  0  0
  5  6  2  0  0  0  0
  5  8  1  0  0  0  0
  6  7  1  0  0  0  0
  8  9  1  0  0  0  0
  9 10  2  0  0  0  0
M  END
>  <CHROM.1>
5.97812163,18.24617380,4.50816587,-1.73407812,0.89633053,1.20980221

>  <Name>
ligand

>  <RI>
0

>  <Rbt.Current_Directory>
/home/itssahil/PROJECTS/Mol_Feturizer/New_Systems/rnas/4XNR

>  <Rbt.Executable>
rbdock ($Id: //depot/dev/client3/rdock/2013.1/src/exe/rbdock.cxx#4 $)

>  <Rbt.Library>
libRbt.so (2013.1, Build901 2013/11/27)

>  <Rbt.Parameter_File>
/export/apps/rDock/src/rDock_2013.1_src/data/scripts/dock_solv.prm

>  <Rbt.Receptor>
prm/pocket_docking_6.prm

>  <SCORE>
-14.5612

>  <SCORE.INTER>
-14.5612

>  <SCORE.INTER.CONST>
1

>  <SCORE.INTER.POLAR>
0

>  <SCORE.INTER.ROT>
0

>  <SCORE.INTER.SOLV>
7.91333

>  <SCORE.INTER.VDW>
-15.9452

>  <SCORE.INTER.norm>
-1.45612

>  <SCORE.INTRA>
0

>  <SCORE.INTRA.DIHEDRAL>
0

>  <SCORE.INTRA.DIHEDRAL.0>
0

>  <SCORE.INTRA.POLAR>
0

>  <SCORE.INTRA.POLAR.0>
0

>  <SCORE.INTRA.REPUL>
0

>  <SCORE.INTRA.REPUL.0>
0

>  <SCORE.INTRA.SOLV>
0

>  <SCORE.INTRA.SOLV.lig_0>
-23.8918

>  <SCORE.INTRA.VDW>
0

>  <SCORE.INTRA.VDW.0>
0

>  <SCORE.INTRA.norm>
0

>  <SCORE.RESTR>
0

>  <SCORE.RESTR.CAVITY>
0

>  <SCORE.RESTR.norm>
0

>  <SCORE.SYSTEM>
0

>  <SCORE.SYSTEM.CONST>
0

>  <SCORE.SYSTEM.DIHEDRAL>
0

>  <SCORE.SYSTEM.SOLV>
0

>  <SCORE.SYSTEM.norm>
0

>  <SCORE.heavy>
10

>  <SCORE.norm>
-1.45612

>  <RMSD>
0.829

$$$$
ligand
 OpenBabel11021811513D
libRbt.so/2013.1/901 2013/11/27
 10 11  0  0  0  0  0  0  0  0999 V2000
    5.9534   17.5928    2.6101 N   0  0  0  0  0  0  0  0  0  0  0  0
    6.8491   18.5872    2.6214 C   0  0  0  0  0  0  0  0  0  0  0  0
    7.2404   19.3510    3.6403 N   0  0  0  0  0  0  0  0  0  0  0  0
    6.5992   19.0064    4.7677 C   0  0  0  0  0  0  0  0  0  0  0  0
    5.6542   18.0091    4.9132 C   0  0  0  0  0  0  0  0  0  0  0  0
    5.3253   17.2696    3.7599 C   0  0  0  0  0  0  0  0  0  0  0  0
    4.4305   16.2767    3.7530 N   0  0  0  0  0  0  0  0  0  0  0  0
    5.2104   17.9407    6.2234 N   0  0  0  0  0  0  0  0  0  0  0  0
    5.8854   18.8856    6.8341 C   0  0  0  0  0  0  0  0  0  0  0  0
    6.7418   19.5685    6.0157 N   0  0  0  0  0  0  0  0  0  0  0  0
  1  2  2  0  0  0  0
  1  6  1  0  0  0  0
  2  3  1  0  0  0  0
  3  4  2  0  0  0  0
  4  5  1  0  0  0  0
  4 10  1  0  0  0  0
  5  6  2  0  0  0  0
  5  8  1  0  0  0  0
  6  7  1  0  0  0  0
  8  9  1  0  0  0  0
  9 10  2  0  0  0  0
M  END
>  <CHROM.1>
5.98332009,18.24085535,4.50885575,-1.78228559,0.81123466,1.25745527

>  <Name>
ligand

>  <RI>
0

>  <Rbt.Current_Directory>
/home/itssahil/PROJECTS/Mol_Feturizer/New_Systems/rnas/4XNR

>  <Rbt.Executable>
rbdock ($Id: //depot/dev/client3/rdock/2013.1/src/exe/rbdock.cxx#4 $)

>  <Rbt.Library>
libRbt.so (2013.1, Build901 2013/11/27)

>  <Rbt.Parameter_File>
/export/apps/rDock/src/rDock_2013.1_src/data/scripts/dock_solv.prm

>  <Rbt.Receptor>
prm/pocket_docking_6.prm

>  <SCORE>
-14.5539

>  <SCORE.INTER>
-14.5539

>  <SCORE.INTER.CONST>
1

>  <SCORE.INTER.POLAR>
0

>  <SCORE.INTER.ROT>
0

>  <SCORE.INTER.SOLV>
7.23749

>  <SCORE.INTER.VDW>
-15.7151

>  <SCORE.INTER.norm>
-1.45539

>  <SCORE.INTRA>
0

>  <SCORE.INTRA.DIHEDRAL>
0

>  <SCORE.INTRA.DIHEDRAL.0>
0

>  <SCORE.INTRA.POLAR>
0

>  <SCORE.INTRA.POLAR.0>
0

>  <SCORE.INTRA.REPUL>
0

>  <SCORE.INTRA.REPUL.0>
0

>  <SCORE.INTRA.SOLV>
0

>  <SCORE.INTRA.SOLV.lig_0>
-23.8918

>  <SCORE.INTRA.VDW>
0

>  <SCORE.INTRA.VDW.0>
0

>  <SCORE.INTRA.norm>
0

>  <SCORE.RESTR>
0

>  <SCORE.RESTR.CAVITY>
0

>  <SCORE.RESTR.norm>
0

>  <SCORE.SYSTEM>
0

>  <SCORE.SYSTEM.CONST>
0

>  <SCORE.SYSTEM.DIHEDRAL>
0

>  <SCORE.SYSTEM.SOLV>
0

>  <SCORE.SYSTEM.norm>
0

>  <SCORE.heavy>
10

>  <SCORE.norm>
-1.45539

>  <RMSD>
0.831

$$$$
ligand
 OpenBabel11021811513D
libRbt.so/2013.1/901 2013/11/27
 10 11  0  0  0  0  0  0  0  0999 V2000
    5.9215   17.5392    2.6447 N   0  0  0  0  0  0  0  0  0  0  0  0
    6.8244   18.5271    2.6266 C   0  0  0  0  0  0  0  0  0  0  0  0
    7.2206   19.3186    3.6222 N   0  0  0  0  0  0  0  0  0  0  0  0
    6.5761   19.0129    4.7590 C   0  0  0  0  0  0  0  0  0  0  0  0
    5.6239   18.0273    4.9338 C   0  0  0  0  0  0  0  0  0  0  0  0
    5.2904   17.2556    3.8032 C   0  0  0  0  0  0  0  0  0  0  0  0
    4.3885   16.2694    3.8257 N   0  0  0  0  0  0  0  0  0  0  0  0
    5.1788   18.0019    6.2451 N   0  0  0  0  0  0  0  0  0  0  0  0
    5.8601   18.9600    6.8275 C   0  0  0  0  0  0  0  0  0  0  0  0
    6.7220   19.6116    5.9895 N   0  0  0  0  0  0  0  0  0  0  0  0
  1  2  2  0  0  0  0
  1  6  1  0  0  0  0
  2  3  1  0  0  0  0
  3  4  2  0  0  0  0
  4  5  1  0  0  0  0
  4 10  1  0  0  0  0
  5  6  2  0  0  0  0
  5  8  1  0  0  0  0
  6  7  1  0  0  0  0
  8  9  1  0  0  0  0
  9 10  2  0  0  0  0
M  END
>  <CHROM.1>
5.95491120,18.24435052,4.52294261,-1.78460749,0.80416931,1.22880194

>  <Name>
ligand

>  <RI>
0

>  <Rbt.Current_Directory>
/home/itssahil/PROJECTS/Mol_Feturizer/New_Systems/rnas/4XNR

>  <Rbt.Executable>
rbdock ($Id: //depot/dev/client3/rdock/2013.1/src/exe/rbdock.cxx#4 $)

>  <Rbt.Library>
libRbt.so (2013.1, Build901 2013/11/27)

>  <Rbt.Parameter_File>
/export/apps/rDock/src/rDock_2013.1_src/data/scripts/dock_solv.prm

>  <Rbt.Receptor>
prm/blind_docking_60.prm

>  <SCORE>
-14.5312

>  <SCORE.INTER>
-14.5312

>  <SCORE.INTER.CONST>
1

>  <SCORE.INTER.POLAR>
0

>  <SCORE.INTER.ROT>
0

>  <SCORE.INTER.SOLV>
7.28644

>  <SCORE.INTER.VDW>
-15.7163

>  <SCORE.INTER.norm>
-1.45312

>  <SCORE.INTRA>
0

>  <SCORE.INTRA.DIHEDRAL>
0

>  <SCORE.INTRA.DIHEDRAL.0>
0

>  <SCORE.INTRA.POLAR>
0

>  <SCORE.INTRA.POLAR.0>
0

>  <SCORE.INTRA.REPUL>
0

>  <SCORE.INTRA.REPUL.0>
0

>  <SCORE.INTRA.SOLV>
0

>  <SCORE.INTRA.SOLV.lig_0>
-23.8918

>  <SCORE.INTRA.VDW>
0

>  <SCORE.INTRA.VDW.0>
0

>  <SCORE.INTRA.norm>
0

>  <SCORE.RESTR>
0

>  <SCORE.RESTR.CAVITY>
0

>  <SCORE.RESTR.norm>
0

>  <SCORE.SYSTEM>
0

>  <SCORE.SYSTEM.CONST>
0

>  <SCORE.SYSTEM.DIHEDRAL>
0

>  <SCORE.SYSTEM.SOLV>
0

>  <SCORE.SYSTEM.norm>
0

>  <SCORE.heavy>
10

>  <SCORE.norm>
-1.45312

>  <RMSD>
0.832

$$$$
ligand
 OpenBabel11021811513D
libRbt.so/2013.1/901 2013/11/27
 10 11  0  0  0  0  0  0  0  0999 V2000
    5.9805   17.5565    2.6443 N   0  0  0  0  0  0  0  0  0  0  0  0
    6.7972   18.6168    2.6333 C   0  0  0  0  0  0  0  0  0  0  0  0
    7.1374   19.4230    3.6379 N   0  0  0  0  0  0  0  0  0  0  0  0
    6.5342   19.0464    4.7760 C   0  0  0  0  0  0  0  0  0  0  0  0
    5.6700   17.9817    4.9443 C   0  0  0  0  0  0  0  0  0  0  0  0
    5.3890   17.2027    3.8044 C   0  0  0  0  0  0  0  0  0  0  0  0
    4.5731   16.1441    3.8197 N   0  0  0  0  0  0  0  0  0  0  0  0
    5.2439   17.8983    6.2595 N   0  0  0  0  0  0  0  0  0  0  0  0
    5.8495   18.9009    6.8507 C   0  0  0  0  0  0  0  0  0  0  0  0
    6.6438   19.6357    6.0148 N   0  0  0  0  0  0  0  0  0  0  0  0
  1  2  2  0  0  0  0
  1  6  1  0  0  0  0
  2  3  1  0  0  0  0
  3  4  2  0  0  0  0
  4  5  1  0  0  0  0
  4 10  1  0  0  0  0
  5  6  2  0  0  0  0
  5  8  1  0  0  0  0
  6  7  1  0  0  0  0
  8  9  1  0  0  0  0
  9 10  2  0  0  0  0
M  END
>  <CHROM.1>
5.97679820,18.23225023,4.53363575,-1.75766230,0.88690939,1.22489892

>  <Name>
ligand

>  <RI>
0

>  <Rbt.Current_Directory>
/home/itssahil/PROJECTS/Mol_Feturizer/New_Systems/rnas/4XNR

>  <Rbt.Executable>
rbdock ($Id: //depot/dev/client3/rdock/2013.1/src/exe/rbdock.cxx#4 $)

>  <Rbt.Library>
libRbt.so (2013.1, Build901 2013/11/27)

>  <Rbt.Parameter_File>
/export/apps/rDock/src/rDock_2013.1_src/data/scripts/dock_solv.prm

>  <Rbt.Receptor>
prm/pocket_docking_4.prm

>  <SCORE>
-14.5409

>  <SCORE.INTER>
-14.5409

>  <SCORE.INTER.CONST>
1

>  <SCORE.INTER.POLAR>
0

>  <SCORE.INTER.ROT>
0

>  <SCORE.INTER.SOLV>
7.91611

>  <SCORE.INTER.VDW>
-15.9326

>  <SCORE.INTER.norm>
-1.45409

>  <SCORE.INTRA>
0

>  <SCORE.INTRA.DIHEDRAL>
0

>  <SCORE.INTRA.DIHEDRAL.0>
0

>  <SCORE.INTRA.POLAR>
0

>  <SCORE.INTRA.POLAR.0>
0

>  <SCORE.INTRA.REPUL>
0

>  <SCORE.INTRA.REPUL.0>
0

>  <SCORE.INTRA.SOLV>
0

>  <SCORE.INTRA.SOLV.lig_0>
-23.8918

>  <SCORE.INTRA.VDW>
0

>  <SCORE.INTRA.VDW.0>
0

>  <SCORE.INTRA.norm>
0

>  <SCORE.RESTR>
0

>  <SCORE.RESTR.CAVITY>
0

>  <SCORE.RESTR.norm>
0

>  <SCORE.SYSTEM>
0

>  <SCORE.SYSTEM.CONST>
0

>  <SCORE.SYSTEM.DIHEDRAL>
0

>  <SCORE.SYSTEM.SOLV>
0

>  <SCORE.SYSTEM.norm>
0

>  <SCORE.heavy>
10

>  <SCORE.norm>
-1.45409

>  <RMSD>
0.838

$$$$
ligand
 OpenBabel11021811513D
libRbt.so/2013.1/901 2013/11/27
 10 11  0  0  0  0  0  0  0  0999 V2000
    5.9296   17.6118    2.6097 N   0  0  0  0  0  0  0  0  0  0  0  0
    6.8224   18.6088    2.6290 C   0  0  0  0  0  0  0  0  0  0  0  0
    7.2166   19.3608    3.6555 N   0  0  0  0  0  0  0  0  0  0  0  0
    6.5822   19.0000    4.7818 C   0  0  0  0  0  0  0  0  0  0  0  0
    5.6411   17.9980    4.9194 C   0  0  0  0  0  0  0  0  0  0  0  0
    5.3085   17.2722    3.7585 C   0  0  0  0  0  0  0  0  0  0  0  0
    4.4166   16.2767    3.7436 N   0  0  0  0  0  0  0  0  0  0  0  0
    5.2042   17.9117    6.2309 N   0  0  0  0  0  0  0  0  0  0  0  0
    5.8794   18.8508    6.8501 C   0  0  0  0  0  0  0  0  0  0  0  0
    6.7296   19.5467    6.0361 N   0  0  0  0  0  0  0  0  0  0  0  0
  1  2  2  0  0  0  0
  1  6  1  0  0  0  0
  2  3  1  0  0  0  0
  3  4  2  0  0  0  0
  4  5  1  0  0  0  0
  4 10  1  0  0  0  0
  5  6  2  0  0  0  0
  5  8  1  0  0  0  0
  6  7  1  0  0  0  0
  8  9  1  0  0  0  0
  9 10  2  0  0  0  0
M  END
>  <CHROM.1>
5.96737987,18.23592759,4.51637510,-1.78806626,0.81568181,1.27431876

>  <Name>
ligand

>  <RI>
0

>  <Rbt.Current_Directory>
/home/itssahil/PROJECTS/Mol_Feturizer/New_Systems/rnas/4XNR

>  <Rbt.Executable>
rbdock ($Id: //depot/dev/client3/rdock/2013.1/src/exe/rbdock.cxx#4 $)

>  <Rbt.Library>
libRbt.so (2013.1, Build901 2013/11/27)

>  <Rbt.Parameter_File>
/export/apps/rDock/src/rDock_2013.1_src/data/scripts/dock_solv.prm

>  <Rbt.Receptor>
prm/pocket_docking_7.prm

>  <SCORE>
-14.5286

>  <SCORE.INTER>
-14.5286

>  <SCORE.INTER.CONST>
1

>  <SCORE.INTER.POLAR>
0

>  <SCORE.INTER.ROT>
0

>  <SCORE.INTER.SOLV>
7.20947

>  <SCORE.INTER.VDW>
-15.6889

>  <SCORE.INTER.norm>
-1.45286

>  <SCORE.INTRA>
0

>  <SCORE.INTRA.DIHEDRAL>
0

>  <SCORE.INTRA.DIHEDRAL.0>
0

>  <SCORE.INTRA.POLAR>
0

>  <SCORE.INTRA.POLAR.0>
0

>  <SCORE.INTRA.REPUL>
0

>  <SCORE.INTRA.REPUL.0>
0

>  <SCORE.INTRA.SOLV>
0

>  <SCORE.INTRA.SOLV.lig_0>
-23.8918

>  <SCORE.INTRA.VDW>
0

>  <SCORE.INTRA.VDW.0>
0

>  <SCORE.INTRA.norm>
0

>  <SCORE.RESTR>
0

>  <SCORE.RESTR.CAVITY>
0

>  <SCORE.RESTR.norm>
0

>  <SCORE.SYSTEM>
0

>  <SCORE.SYSTEM.CONST>
0

>  <SCORE.SYSTEM.DIHEDRAL>
0

>  <SCORE.SYSTEM.SOLV>
0

>  <SCORE.SYSTEM.norm>
0

>  <SCORE.heavy>
10

>  <SCORE.norm>
-1.45286

>  <RMSD>
0.840

$$$$
ligand
 OpenBabel11021811513D
libRbt.so/2013.1/901 2013/11/27
 10 11  0  0  0  0  0  0  0  0999 V2000
    5.9977   16.6627    2.4720 N   0  0  0  0  0  0  0  0  0  0  0  0
    5.2988   16.0219    3.4166 C   0  0  0  0  0  0  0  0  0  0  0  0
    5.0262   16.4058    4.6627 N   0  0  0  0  0  0  0  0  0  0  0  0
    5.5629   17.6090    4.9187 C   0  0  0  0  0  0  0  0  0  0  0  0
    6.3055   18.3877    4.0521 C   0  0  0  0  0  0  0  0  0  0  0  0
    6.5249   17.8711    2.7598 C   0  0  0  0  0  0  0  0  0  0  0  0
    7.2231   18.5146    1.8191 N   0  0  0  0  0  0  0  0  0  0  0  0
    6.6937   19.5684    4.6632 N   0  0  0  0  0  0  0  0  0  0  0  0
    6.1865   19.4799    5.8700 C   0  0  0  0  0  0  0  0  0  0  0  0
    5.4917   18.3235    6.0927 N   0  0  0  0  0  0  0  0  0  0  0  0
  1  2  2  0  0  0  0
  1  6  1  0  0  0  0
  2  3  1  0  0  0  0
  3  4  2  0  0  0  0
  4  5  1  0  0  0  0
  4 10  1  0  0  0  0
  5  6  2  0  0  0  0
  5  8  1  0  0  0  0
  6  7  1  0  0  0  0
  8  9  1  0  0  0  0
  9 10  2  0  0  0  0
M  END
>  <CHROM.1>
6.03534694,17.88525603,4.06265525,1.41536818,-0.99374694,-2.19714020

>  <Name>
ligand

>  <RI>
0

>  <Rbt.Current_Directory>
/home/itssahil/PROJECTS/Mol_Feturizer/New_Systems/rnas/4XNR

>  <Rbt.Executable>
rbdock ($Id: //depot/dev/client3/rdock/2013.1/src/exe/rbdock.cxx#4 $)

>  <Rbt.Library>
libRbt.so (2013.1, Build901 2013/11/27)

>  <Rbt.Parameter_File>
/export/apps/rDock/src/rDock_2013.1_src/data/scripts/dock_solv.prm

>  <Rbt.Receptor>
prm/blind_docking_40.prm

>  <SCORE>
-12.7269

>  <SCORE.INTER>
-12.7269

>  <SCORE.INTER.CONST>
1

>  <SCORE.INTER.POLAR>
0

>  <SCORE.INTER.ROT>
0

>  <SCORE.INTER.SOLV>
12.4018

>  <SCORE.INTER.VDW>
-16.2185

>  <SCORE.INTER.norm>
-1.27269

>  <SCORE.INTRA>
0

>  <SCORE.INTRA.DIHEDRAL>
0

>  <SCORE.INTRA.DIHEDRAL.0>
0

>  <SCORE.INTRA.POLAR>
0

>  <SCORE.INTRA.POLAR.0>
0

>  <SCORE.INTRA.REPUL>
0

>  <SCORE.INTRA.REPUL.0>
0

>  <SCORE.INTRA.SOLV>
0

>  <SCORE.INTRA.SOLV.lig_0>
-23.8918

>  <SCORE.INTRA.VDW>
0

>  <SCORE.INTRA.VDW.0>
0

>  <SCORE.INTRA.norm>
0

>  <SCORE.RESTR>
0

>  <SCORE.RESTR.CAVITY>
0

>  <SCORE.RESTR.norm>
0

>  <SCORE.SYSTEM>
0

>  <SCORE.SYSTEM.CONST>
0

>  <SCORE.SYSTEM.DIHEDRAL>
0

>  <SCORE.SYSTEM.SOLV>
0

>  <SCORE.SYSTEM.norm>
0

>  <SCORE.heavy>
10

>  <SCORE.norm>
-1.27269

>  <RMSD>
2.407

$$$$
ligand
 OpenBabel11021811513D
libRbt.so/2013.1/901 2013/11/27
 10 11  0  0  0  0  0  0  0  0999 V2000
    6.0700   16.6524    2.4665 N   0  0  0  0  0  0  0  0  0  0  0  0
    5.3762   16.0186    3.4195 C   0  0  0  0  0  0  0  0  0  0  0  0
    5.0847   16.4248    4.6543 N   0  0  0  0  0  0  0  0  0  0  0  0
    5.5941   17.6444    4.8873 C   0  0  0  0  0  0  0  0  0  0  0  0
    6.3279   18.4187    4.0095 C   0  0  0  0  0  0  0  0  0  0  0  0
    6.5693   17.8778    2.7312 C   0  0  0  0  0  0  0  0  0  0  0  0
    7.2623   18.5145    1.7819 N   0  0  0  0  0  0  0  0  0  0  0  0
    6.6861   19.6208    4.5968 N   0  0  0  0  0  0  0  0  0  0  0  0
    6.1702   19.5489    5.8010 C   0  0  0  0  0  0  0  0  0  0  0  0
    5.4976   18.3835    6.0442 N   0  0  0  0  0  0  0  0  0  0  0  0
  1  2  2  0  0  0  0
  1  6  1  0  0  0  0
  2  3  1  0  0  0  0
  3  4  2  0  0  0  0
  4  5  1  0  0  0  0
  4 10  1  0  0  0  0
  5  6  2  0  0  0  0
  5  8  1  0  0  0  0
  6  7  1  0  0  0  0
  8  9  1  0  0  0  0
  9 10  2  0  0  0  0
M  END
>  <CHROM.1>
6.06816379,17.91110779,4.02922975,1.37930378,-1.00510608,-2.25013661

>  <Name>
ligand

>  <RI>
0

>  <Rbt.Current_Directory>
/home/itssahil/PROJECTS/Mol_Feturizer/New_Systems/rnas/4XNR

>  <Rbt.Executable>
rbdock ($Id: //depot/dev/client3/rdock/2013.1/src/exe/rbdock.cxx#4 $)

>  <Rbt.Library>
libRbt.so (2013.1, Build901 2013/11/27)

>  <Rbt.Parameter_File>
/export/apps/rDock/src/rDock_2013.1_src/data/scripts/dock_solv.prm

>  <Rbt.Receptor>
prm/blind_docking_60.prm

>  <SCORE>
-12.7657

>  <SCORE.INTER>
-12.7657

>  <SCORE.INTER.CONST>
1

>  <SCORE.INTER.POLAR>
0

>  <SCORE.INTER.ROT>
0

>  <SCORE.INTER.SOLV>
12.5941

>  <SCORE.INTER.VDW>
-16.3085

>  <SCORE.INTER.norm>
-1.27657

>  <SCORE.INTRA>
0

>  <SCORE.INTRA.DIHEDRAL>
0

>  <SCORE.INTRA.DIHEDRAL.0>
0

>  <SCORE.INTRA.POLAR>
0

>  <SCORE.INTRA.POLAR.0>
0

>  <SCORE.INTRA.REPUL>
0

>  <SCORE.INTRA.REPUL.0>
0

>  <SCORE.INTRA.SOLV>
0

>  <SCORE.INTRA.SOLV.lig_0>
-23.8918

>  <SCORE.INTRA.VDW>
0

>  <SCORE.INTRA.VDW.0>
0

>  <SCORE.INTRA.norm>
0

>  <SCORE.RESTR>
0

>  <SCORE.RESTR.CAVITY>
0

>  <SCORE.RESTR.norm>
0

>  <SCORE.SYSTEM>
0

>  <SCORE.SYSTEM.CONST>
0

>  <SCORE.SYSTEM.DIHEDRAL>
0

>  <SCORE.SYSTEM.SOLV>
0

>  <SCORE.SYSTEM.norm>
0

>  <SCORE.heavy>
10

>  <SCORE.norm>
-1.27657

>  <RMSD>
2.407

$$$$
ligand
 OpenBabel11021811513D
libRbt.so/2013.1/901 2013/11/27
 10 11  0  0  0  0  0  0  0  0999 V2000
    5.9611   16.5853    2.5859 N   0  0  0  0  0  0  0  0  0  0  0  0
    5.3210   16.0927    3.6531 C   0  0  0  0  0  0  0  0  0  0  0  0
    5.1374   16.6477    4.8501 N   0  0  0  0  0  0  0  0  0  0  0  0
    5.7030   17.8637    4.9032 C   0  0  0  0  0  0  0  0  0  0  0  0
    6.3934   18.5026    3.8914 C   0  0  0  0  0  0  0  0  0  0  0  0
    6.5193   17.8110    2.6704 C   0  0  0  0  0  0  0  0  0  0  0  0
    7.1590   18.3068    1.6066 N   0  0  0  0  0  0  0  0  0  0  0  0
    6.8346   19.7475    4.3082 N   0  0  0  0  0  0  0  0  0  0  0  0
    6.4092   19.8338    5.5464 C   0  0  0  0  0  0  0  0  0  0  0  0
    5.7189   18.7324    5.9704 N   0  0  0  0  0  0  0  0  0  0  0  0
  1  2  2  0  0  0  0
  1  6  1  0  0  0  0
  2  3  1  0  0  0  0
  3  4  2  0  0  0  0
  4  5  1  0  0  0  0
  4 10  1  0  0  0  0
  5  6  2  0  0  0  0
  5  8  1  0  0  0  0
  6  7  1  0  0  0  0
  8  9  1  0  0  0  0
  9 10  2  0  0  0  0
M  END
>  <CHROM.1>
6.11927152,18.01169201,3.98825410,1.53262160,-1.02184210,-2.23493722

>  <Name>
ligand

>  <RI>
0

>  <Rbt.Current_Directory>
/home/itssahil/PROJECTS/Mol_Feturizer/New_Systems/rnas/4XNR

>  <Rbt.Executable>
rbdock ($Id: //depot/dev/client3/rdock/2013.1/src/exe/rbdock.cxx#4 $)

>  <Rbt.Library>
libRbt.so (2013.1, Build901 2013/11/27)

>  <Rbt.Parameter_File>
/export/apps/rDock/src/rDock_2013.1_src/data/scripts/dock_solv.prm

>  <Rbt.Receptor>
prm/blind_docking_40.prm

>  <SCORE>
-12.1762

>  <SCORE.INTER>
-12.1762

>  <SCORE.INTER.CONST>
1

>  <SCORE.INTER.POLAR>
0

>  <SCORE.INTER.ROT>
0

>  <SCORE.INTER.SOLV>
12.5212

>  <SCORE.INTER.VDW>
-15.8912

>  <SCORE.INTER.norm>
-1.21762

>  <SCORE.INTRA>
0

>  <SCORE.INTRA.DIHEDRAL>
0

>  <SCORE.INTRA.DIHEDRAL.0>
0

>  <SCORE.INTRA.POLAR>
0

>  <SCORE.INTRA.POLAR.0>
0

>  <SCORE.INTRA.REPUL>
0

>  <SCORE.INTRA.REPUL.0>
0

>  <SCORE.INTRA.SOLV>
0

>  <SCORE.INTRA.SOLV.lig_0>
-23.8918

>  <SCORE.INTRA.VDW>
0

>  <SCORE.INTRA.VDW.0>
0

>  <SCORE.INTRA.norm>
0

>  <SCORE.RESTR>
0

>  <SCORE.RESTR.CAVITY>
0

>  <SCORE.RESTR.norm>
0

>  <SCORE.SYSTEM>
0

>  <SCORE.SYSTEM.CONST>
0

>  <SCORE.SYSTEM.DIHEDRAL>
0

>  <SCORE.SYSTEM.SOLV>
0

>  <SCORE.SYSTEM.norm>
0

>  <SCORE.heavy>
10

>  <SCORE.norm>
-1.21762

>  <RMSD>
2.408

$$$$
ligand
 OpenBabel11021811513D
libRbt.so/2013.1/901 2013/11/27
 10 11  0  0  0  0  0  0  0  0999 V2000
    6.0404   16.6626    2.4666 N   0  0  0  0  0  0  0  0  0  0  0  0
    5.3402   16.0048    3.3984 C   0  0  0  0  0  0  0  0  0  0  0  0
    5.0479   16.3756    4.6441 N   0  0  0  0  0  0  0  0  0  0  0  0
    5.5644   17.5844    4.9149 C   0  0  0  0  0  0  0  0  0  0  0  0
    6.3054   18.3801    4.0625 C   0  0  0  0  0  0  0  0  0  0  0  0
    6.5467   17.8763    2.7691 C   0  0  0  0  0  0  0  0  0  0  0  0
    7.2462   18.5367    1.8410 N   0  0  0  0  0  0  0  0  0  0  0  0
    6.6696   19.5617    4.6865 N   0  0  0  0  0  0  0  0  0  0  0  0
    6.1500   19.4570    5.8867 C   0  0  0  0  0  0  0  0  0  0  0  0
    5.4696   18.2892    6.0931 N   0  0  0  0  0  0  0  0  0  0  0  0
  1  2  2  0  0  0  0
  1  6  1  0  0  0  0
  2  3  1  0  0  0  0
  3  4  2  0  0  0  0
  4  5  1  0  0  0  0
  4 10  1  0  0  0  0
  5  6  2  0  0  0  0
  5  8  1  0  0  0  0
  6  7  1  0  0  0  0
  8  9  1  0  0  0  0
  9 10  2  0  0  0  0
M  END
>  <CHROM.1>
6.04237901,17.87377821,4.06632634,1.38283798,-0.99856920,-2.21714337

>  <Name>
ligand

>  <RI>
0

>  <Rbt.Current_Directory>
/home/itssahil/PROJECTS/Mol_Feturizer/New_Systems/rnas/4XNR

>  <Rbt.Executable>
rbdock ($Id: //depot/dev/client3/rdock/2013.1/src/exe/rbdock.cxx#4 $)

>  <Rbt.Library>
libRbt.so (2013.1, Build901 2013/11/27)

>  <Rbt.Parameter_File>
/export/apps/rDock/src/rDock_2013.1_src/data/scripts/dock_solv.prm

>  <Rbt.Receptor>
prm/blind_docking_40.prm

>  <SCORE>
-12.7743

>  <SCORE.INTER>
-12.7743

>  <SCORE.INTER.CONST>
1

>  <SCORE.INTER.POLAR>
0

>  <SCORE.INTER.ROT>
0

>  <SCORE.INTER.SOLV>
12.4714

>  <SCORE.INTER.VDW>
-16.2733

>  <SCORE.INTER.norm>
-1.27743

>  <SCORE.INTRA>
0

>  <SCORE.INTRA.DIHEDRAL>
0

>  <SCORE.INTRA.DIHEDRAL.0>
0

>  <SCORE.INTRA.POLAR>
0

>  <SCORE.INTRA.POLAR.0>
0

>  <SCORE.INTRA.REPUL>
0

>  <SCORE.INTRA.REPUL.0>
0

>  <SCORE.INTRA.SOLV>
0

>  <SCORE.INTRA.SOLV.lig_0>
-23.8918

>  <SCORE.INTRA.VDW>
0

>  <SCORE.INTRA.VDW.0>
0

>  <SCORE.INTRA.norm>
0

>  <SCORE.RESTR>
0

>  <SCORE.RESTR.CAVITY>
0

>  <SCORE.RESTR.norm>
0

>  <SCORE.SYSTEM>
0

>  <SCORE.SYSTEM.CONST>
0

>  <SCORE.SYSTEM.DIHEDRAL>
0

>  <SCORE.SYSTEM.SOLV>
0

>  <SCORE.SYSTEM.norm>
0

>  <SCORE.heavy>
10

>  <SCORE.norm>
-1.27743

>  <RMSD>
2.409

$$$$
ligand
 OpenBabel11021811513D
libRbt.so/2013.1/901 2013/11/27
 10 11  0  0  0  0  0  0  0  0999 V2000
    6.0504   16.6649    2.4630 N   0  0  0  0  0  0  0  0  0  0  0  0
    5.3366   16.0030    3.3816 C   0  0  0  0  0  0  0  0  0  0  0  0
    5.0349   16.3637    4.6280 N   0  0  0  0  0  0  0  0  0  0  0  0
    5.5569   17.5661    4.9155 C   0  0  0  0  0  0  0  0  0  0  0  0
    6.3115   18.3649    4.0782 C   0  0  0  0  0  0  0  0  0  0  0  0
    6.5620   17.8720    2.7823 C   0  0  0  0  0  0  0  0  0  0  0  0
    7.2750   18.5366    1.8675 N   0  0  0  0  0  0  0  0  0  0  0  0
    6.6777   19.5379    4.7172 N   0  0  0  0  0  0  0  0  0  0  0  0
    6.1458   19.4251    5.9113 C   0  0  0  0  0  0  0  0  0  0  0  0
    5.4554   18.2600    6.0997 N   0  0  0  0  0  0  0  0  0  0  0  0
  1  2  2  0  0  0  0
  1  6  1  0  0  0  0
  2  3  1  0  0  0  0
  3  4  2  0  0  0  0
  4  5  1  0  0  0  0
  4 10  1  0  0  0  0
  5  6  2  0  0  0  0
  5  8  1  0  0  0  0
  6  7  1  0  0  0  0
  8  9  1  0  0  0  0
  9 10  2  0  0  0  0
M  END
>  <CHROM.1>
6.04507867,17.86042752,4.07450253,1.37620670,-0.98725465,-2.21293024

>  <Name>
ligand

>  <RI>
0

>  <Rbt.Current_Directory>
/home/itssahil/PROJECTS/Mol_Feturizer/New_Systems/rnas/4XNR

>  <Rbt.Executable>
rbdock ($Id: //depot/dev/client3/rdock/2013.1/src/exe/rbdock.cxx#4 $)

>  <Rbt.Library>
libRbt.so (2013.1, Build901 2013/11/27)

>  <Rbt.Parameter_File>
/export/apps/rDock/src/rDock_2013.1_src/data/scripts/dock_solv.prm

>  <Rbt.Receptor>
prm/blind_docking_40.prm

>  <SCORE>
-12.7753

>  <SCORE.INTER>
-12.7753

>  <SCORE.INTER.CONST>
1

>  <SCORE.INTER.POLAR>
0

>  <SCORE.INTER.ROT>
0

>  <SCORE.INTER.SOLV>
12.4601

>  <SCORE.INTER.VDW>
-16.2702

>  <SCORE.INTER.norm>
-1.27753

>  <SCORE.INTRA>
0

>  <SCORE.INTRA.DIHEDRAL>
0

>  <SCORE.INTRA.DIHEDRAL.0>
0

>  <SCORE.INTRA.POLAR>
0

>  <SCORE.INTRA.POLAR.0>
0

>  <SCORE.INTRA.REPUL>
0

>  <SCORE.INTRA.REPUL.0>
0

>  <SCORE.INTRA.SOLV>
0

>  <SCORE.INTRA.SOLV.lig_0>
-23.8918

>  <SCORE.INTRA.VDW>
0

>  <SCORE.INTRA.VDW.0>
0

>  <SCORE.INTRA.norm>
0

>  <SCORE.RESTR>
0

>  <SCORE.RESTR.CAVITY>
0

>  <SCORE.RESTR.norm>
0

>  <SCORE.SYSTEM>
0

>  <SCORE.SYSTEM.CONST>
0

>  <SCORE.SYSTEM.DIHEDRAL>
0

>  <SCORE.SYSTEM.SOLV>
0

>  <SCORE.SYSTEM.norm>
0

>  <SCORE.heavy>
10

>  <SCORE.norm>
-1.27753

>  <RMSD>
2.410

$$$$
ligand
 OpenBabel11021811513D
libRbt.so/2013.1/901 2013/11/27
 10 11  0  0  0  0  0  0  0  0999 V2000
    5.9520   16.6858    2.4489 N   0  0  0  0  0  0  0  0  0  0  0  0
    5.2364   15.9611    3.3172 C   0  0  0  0  0  0  0  0  0  0  0  0
    4.9331   16.2328    4.5857 N   0  0  0  0  0  0  0  0  0  0  0  0
    5.4557   17.4114    4.9584 C   0  0  0  0  0  0  0  0  0  0  0  0
    6.2122   18.2668    4.1809 C   0  0  0  0  0  0  0  0  0  0  0  0
    6.4641   17.8668    2.8536 C   0  0  0  0  0  0  0  0  0  0  0  0
    7.1789   18.5939    1.9893 N   0  0  0  0  0  0  0  0  0  0  0  0
    6.5784   19.3912    4.9019 N   0  0  0  0  0  0  0  0  0  0  0  0
    6.0447   19.1945    6.0843 C   0  0  0  0  0  0  0  0  0  0  0  0
    5.3531   18.0196    6.1887 N   0  0  0  0  0  0  0  0  0  0  0  0
  1  2  2  0  0  0  0
  1  6  1  0  0  0  0
  2  3  1  0  0  0  0
  3  4  2  0  0  0  0
  4  5  1  0  0  0  0
  4 10  1  0  0  0  0
  5  6  2  0  0  0  0
  5  8  1  0  0  0  0
  6  7  1  0  0  0  0
  8  9  1  0  0  0  0
  9 10  2  0  0  0  0
M  END
>  <CHROM.1>
5.94531802,17.76409535,4.14106223,1.37500656,-0.98577245,-2.14298541

>  <Name>
ligand

>  <RI>
0

>  <Rbt.Current_Directory>
/home/itssahil/PROJECTS/Mol_Feturizer/New_Systems/rnas/4XNR

>  <Rbt.Executable>
rbdock ($Id: //depot/dev/client3/rdock/2013.1/src/exe/rbdock.cxx#4 $)

>  <Rbt.Library>
libRbt.so (2013.1, Build901 2013/11/27)

>  <Rbt.Parameter_File>
/export/apps/rDock/src/rDock_2013.1_src/data/scripts/dock_solv.prm

>  <Rbt.Receptor>
prm/pocket_docking_6.prm

>  <SCORE>
-12.8811

>  <SCORE.INTER>
-12.8811

>  <SCORE.INTER.CONST>
1

>  <SCORE.INTER.POLAR>
0

>  <SCORE.INTER.ROT>
0

>  <SCORE.INTER.SOLV>
12.1259

>  <SCORE.INTER.VDW>
-16.2293

>  <SCORE.INTER.norm>
-1.28811

>  <SCORE.INTRA>
0

>  <SCORE.INTRA.DIHEDRAL>
0

>  <SCORE.INTRA.DIHEDRAL.0>
0

>  <SCORE.INTRA.POLAR>
0

>  <SCORE.INTRA.POLAR.0>
0

>  <SCORE.INTRA.REPUL>
0

>  <SCORE.INTRA.REPUL.0>
0

>  <SCORE.INTRA.SOLV>
0

>  <SCORE.INTRA.SOLV.lig_0>
-23.8918

>  <SCORE.INTRA.VDW>
0

>  <SCORE.INTRA.VDW.0>
0

>  <SCORE.INTRA.norm>
0

>  <SCORE.RESTR>
0

>  <SCORE.RESTR.CAVITY>
0

>  <SCORE.RESTR.norm>
0

>  <SCORE.SYSTEM>
0

>  <SCORE.SYSTEM.CONST>
0

>  <SCORE.SYSTEM.DIHEDRAL>
0

>  <SCORE.SYSTEM.SOLV>
0

>  <SCORE.SYSTEM.norm>
0

>  <SCORE.heavy>
10

>  <SCORE.norm>
-1.28811

>  <RMSD>
2.419

$$$$
ligand
 OpenBabel11021811513D
libRbt.so/2013.1/901 2013/11/27
 10 11  0  0  0  0  0  0  0  0999 V2000
    5.9505   16.6861    2.4499 N   0  0  0  0  0  0  0  0  0  0  0  0
    5.2442   15.9354    3.3035 C   0  0  0  0  0  0  0  0  0  0  0  0
    4.9332   16.1803    4.5755 N   0  0  0  0  0  0  0  0  0  0  0  0
    5.4362   17.3604    4.9701 C   0  0  0  0  0  0  0  0  0  0  0  0
    6.1811   18.2409    4.2096 C   0  0  0  0  0  0  0  0  0  0  0  0
    6.4429   17.8679    2.8764 C   0  0  0  0  0  0  0  0  0  0  0  0
    7.1484   18.6210    2.0268 N   0  0  0  0  0  0  0  0  0  0  0  0
    6.5276   19.3583    4.9510 N   0  0  0  0  0  0  0  0  0  0  0  0
    5.9940   19.1328    6.1282 C   0  0  0  0  0  0  0  0  0  0  0  0
    5.3207   17.9456    6.2103 N   0  0  0  0  0  0  0  0  0  0  0  0
  1  2  2  0  0  0  0
  1  6  1  0  0  0  0
  2  3  1  0  0  0  0
  3  4  2  0  0  0  0
  4  5  1  0  0  0  0
  4 10  1  0  0  0  0
  5  6  2  0  0  0  0
  5  8  1  0  0  0  0
  6  7  1  0  0  0  0
  8  9  1  0  0  0  0
  9 10  2  0  0  0  0
M  END
>  <CHROM.1>
5.92235543,17.73482351,4.16037138,1.35512303,-0.99748682,-2.14237315

>  <Name>
ligand

>  <RI>
0

>  <Rbt.Current_Directory>
/home/itssahil/PROJECTS/Mol_Feturizer/New_Systems/rnas/4XNR

>  <Rbt.Executable>
rbdock ($Id: //depot/dev/client3/rdock/2013.1/src/exe/rbdock.cxx#4 $)

>  <Rbt.Library>
libRbt.so (2013.1, Build901 2013/11/27)

>  <Rbt.Parameter_File>
/export/apps/rDock/src/rDock_2013.1_src/data/scripts/dock_solv.prm

>  <Rbt.Receptor>
prm/blind_docking_100.prm

>  <SCORE>
-12.8707

>  <SCORE.INTER>
-12.8707

>  <SCORE.INTER.CONST>
1

>  <SCORE.INTER.POLAR>
0

>  <SCORE.INTER.ROT>
0

>  <SCORE.INTER.SOLV>
12.071

>  <SCORE.INTER.VDW>
-16.2041

>  <SCORE.INTER.norm>
-1.28707

>  <SCORE.INTRA>
0

>  <SCORE.INTRA.DIHEDRAL>
0

>  <SCORE.INTRA.DIHEDRAL.0>
0

>  <SCORE.INTRA.POLAR>
0

>  <SCORE.INTRA.POLAR.0>
0

>  <SCORE.INTRA.REPUL>
0

>  <SCORE.INTRA.REPUL.0>
0

>  <SCORE.INTRA.SOLV>
0

>  <SCORE.INTRA.SOLV.lig_0>
-23.8918

>  <SCORE.INTRA.VDW>
0

>  <SCORE.INTRA.VDW.0>
0

>  <SCORE.INTRA.norm>
0

>  <SCORE.RESTR>
0

>  <SCORE.RESTR.CAVITY>
0

>  <SCORE.RESTR.norm>
0

>  <SCORE.SYSTEM>
0

>  <SCORE.SYSTEM.CONST>
0

>  <SCORE.SYSTEM.DIHEDRAL>
0

>  <SCORE.SYSTEM.SOLV>
0

>  <SCORE.SYSTEM.norm>
0

>  <SCORE.heavy>
10

>  <SCORE.norm>
-1.28707

>  <RMSD>
2.424

$$$$
ligand
 OpenBabel11021811513D
libRbt.so/2013.1/901 2013/11/27
 10 11  0  0  0  0  0  0  0  0999 V2000
    5.9958   16.6949    2.4889 N   0  0  0  0  0  0  0  0  0  0  0  0
    5.2645   15.9703    3.3442 C   0  0  0  0  0  0  0  0  0  0  0  0
    4.9364   16.2432    4.6062 N   0  0  0  0  0  0  0  0  0  0  0  0
    5.4502   17.4229    4.9875 C   0  0  0  0  0  0  0  0  0  0  0  0
    6.2205   18.2783    4.2236 C   0  0  0  0  0  0  0  0  0  0  0  0
    6.4985   17.8770    2.9020 C   0  0  0  0  0  0  0  0  0  0  0  0
    7.2289   18.6040    2.0507 N   0  0  0  0  0  0  0  0  0  0  0  0
    6.5714   19.4040    4.9502 N   0  0  0  0  0  0  0  0  0  0  0  0
    6.0152   19.2081    6.1223 C   0  0  0  0  0  0  0  0  0  0  0  0
    5.3232   18.0325    6.2148 N   0  0  0  0  0  0  0  0  0  0  0  0
  1  2  2  0  0  0  0
  1  6  1  0  0  0  0
  2  3  1  0  0  0  0
  3  4  2  0  0  0  0
  4  5  1  0  0  0  0
  4 10  1  0  0  0  0
  5  6  2  0  0  0  0
  5  8  1  0  0  0  0
  6  7  1  0  0  0  0
  8  9  1  0  0  0  0
  9 10  2  0  0  0  0
M  END
>  <CHROM.1>
5.95512968,17.77522063,4.17930760,1.34485981,-0.97614599,-2.16927403

>  <Name>
ligand

>  <RI>
0

>  <Rbt.Current_Directory>
/home/itssahil/PROJECTS/Mol_Feturizer/New_Systems/rnas/4XNR

>  <Rbt.Executable>
rbdock ($Id: //depot/dev/client3/rdock/2013.1/src/exe/rbdock.cxx#4 $)

>  <Rbt.Library>
libRbt.so (2013.1, Build901 2013/11/27)

>  <Rbt.Parameter_File>
/export/apps/rDock/src/rDock_2013.1_src/data/scripts/dock_solv.prm

>  <Rbt.Receptor>
prm/blind_docking_40.prm

>  <SCORE>
-12.854

>  <SCORE.INTER>
-12.854

>  <SCORE.INTER.CONST>
1

>  <SCORE.INTER.POLAR>
0

>  <SCORE.INTER.ROT>
0

>  <SCORE.INTER.SOLV>
12.1195

>  <SCORE.INTER.VDW>
-16.2092

>  <SCORE.INTER.norm>
-1.2854

>  <SCORE.INTRA>
0

>  <SCORE.INTRA.DIHEDRAL>
0

>  <SCORE.INTRA.DIHEDRAL.0>
0

>  <SCORE.INTRA.POLAR>
0

>  <SCORE.INTRA.POLAR.0>
0

>  <SCORE.INTRA.REPUL>
0

>  <SCORE.INTRA.REPUL.0>
0

>  <SCORE.INTRA.SOLV>
0

>  <SCORE.INTRA.SOLV.lig_0>
-23.8918

>  <SCORE.INTRA.VDW>
0

>  <SCORE.INTRA.VDW.0>
0

>  <SCORE.INTRA.norm>
0

>  <SCORE.RESTR>
0

>  <SCORE.RESTR.CAVITY>
0

>  <SCORE.RESTR.norm>
0

>  <SCORE.SYSTEM>
0

>  <SCORE.SYSTEM.CONST>
0

>  <SCORE.SYSTEM.DIHEDRAL>
0

>  <SCORE.SYSTEM.SOLV>
0

>  <SCORE.SYSTEM.norm>
0

>  <SCORE.heavy>
10

>  <SCORE.norm>
-1.2854

>  <RMSD>
2.427

$$$$
ligand
 OpenBabel11021811513D
libRbt.so/2013.1/901 2013/11/27
 10 11  0  0  0  0  0  0  0  0999 V2000
    6.0138   16.7273    2.5316 N   0  0  0  0  0  0  0  0  0  0  0  0
    5.3051   16.0090    3.4109 C   0  0  0  0  0  0  0  0  0  0  0  0
    4.9948   16.2992    4.6735 N   0  0  0  0  0  0  0  0  0  0  0  0
    5.5011   17.4909    5.0266 C   0  0  0  0  0  0  0  0  0  0  0  0
    6.2487   18.3421    4.2359 C   0  0  0  0  0  0  0  0  0  0  0  0
    6.5095   17.9219    2.9166 C   0  0  0  0  0  0  0  0  0  0  0  0
    7.2173   18.6426    2.0413 N   0  0  0  0  0  0  0  0  0  0  0  0
    6.5984   19.4837    4.9378 N   0  0  0  0  0  0  0  0  0  0  0  0
    6.0640   19.3013    6.1220 C   0  0  0  0  0  0  0  0  0  0  0  0
    5.3872   18.1196    6.2455 N   0  0  0  0  0  0  0  0  0  0  0  0
  1  2  2  0  0  0  0
  1  6  1  0  0  0  0
  2  3  1  0  0  0  0
  3  4  2  0  0  0  0
  4  5  1  0  0  0  0
  4 10  1  0  0  0  0
  5  6  2  0  0  0  0
  5  8  1  0  0  0  0
  6  7  1  0  0  0  0
  8  9  1  0  0  0  0
  9 10  2  0  0  0  0
M  END
>  <CHROM.1>
5.98847608,17.83535149,4.20434243,1.35787386,-0.99497116,-2.17511094

>  <Name>
ligand

>  <RI>
0

>  <Rbt.Current_Directory>
/home/itssahil/PROJECTS/Mol_Feturizer/New_Systems/rnas/4XNR

>  <Rbt.Executable>
rbdock ($Id: //depot/dev/client3/rdock/2013.1/src/exe/rbdock.cxx#4 $)

>  <Rbt.Library>
libRbt.so (2013.1, Build901 2013/11/27)

>  <Rbt.Parameter_File>
/export/apps/rDock/src/rDock_2013.1_src/data/scripts/dock_solv.prm

>  <Rbt.Receptor>
prm/blind_docking_80.prm

>  <SCORE>
-12.8745

>  <SCORE.INTER>
-12.8745

>  <SCORE.INTER.CONST>
1

>  <SCORE.INTER.POLAR>
0

>  <SCORE.INTER.ROT>
0

>  <SCORE.INTER.SOLV>
12.217

>  <SCORE.INTER.VDW>
-16.2553

>  <SCORE.INTER.norm>
-1.28745

>  <SCORE.INTRA>
0

>  <SCORE.INTRA.DIHEDRAL>
0

>  <SCORE.INTRA.DIHEDRAL.0>
0

>  <SCORE.INTRA.POLAR>
0

>  <SCORE.INTRA.POLAR.0>
0

>  <SCORE.INTRA.REPUL>
0

>  <SCORE.INTRA.REPUL.0>
0

>  <SCORE.INTRA.SOLV>
0

>  <SCORE.INTRA.SOLV.lig_0>
-23.8918

>  <SCORE.INTRA.VDW>
0

>  <SCORE.INTRA.VDW.0>
0

>  <SCORE.INTRA.norm>
0

>  <SCORE.RESTR>
0

>  <SCORE.RESTR.CAVITY>
0

>  <SCORE.RESTR.norm>
0

>  <SCORE.SYSTEM>
0

>  <SCORE.SYSTEM.CONST>
0

>  <SCORE.SYSTEM.DIHEDRAL>
0

>  <SCORE.SYSTEM.SOLV>
0

>  <SCORE.SYSTEM.norm>
0

>  <SCORE.heavy>
10

>  <SCORE.norm>
-1.28745

>  <RMSD>
2.427

$$$$
ligand
 OpenBabel11021811513D
libRbt.so/2013.1/901 2013/11/27
 10 11  0  0  0  0  0  0  0  0999 V2000
    5.9827   16.6468    2.4898 N   0  0  0  0  0  0  0  0  0  0  0  0
    5.2853   15.9039    3.3575 C   0  0  0  0  0  0  0  0  0  0  0  0
    4.9669   16.1714    4.6231 N   0  0  0  0  0  0  0  0  0  0  0  0
    5.4507   17.3672    4.9935 C   0  0  0  0  0  0  0  0  0  0  0  0
    6.1845   18.2424    4.2162 C   0  0  0  0  0  0  0  0  0  0  0  0
    6.4559   17.8448    2.8921 C   0  0  0  0  0  0  0  0  0  0  0  0
    7.1524   18.5901    2.0283 N   0  0  0  0  0  0  0  0  0  0  0  0
    6.5118   19.3806    4.9343 N   0  0  0  0  0  0  0  0  0  0  0  0
    5.9781   19.1724    6.1146 C   0  0  0  0  0  0  0  0  0  0  0  0
    5.3227   17.9772    6.2205 N   0  0  0  0  0  0  0  0  0  0  0  0
  1  2  2  0  0  0  0
  1  6  1  0  0  0  0
  2  3  1  0  0  0  0
  3  4  2  0  0  0  0
  4  5  1  0  0  0  0
  4 10  1  0  0  0  0
  5  6  2  0  0  0  0
  5  8  1  0  0  0  0
  6  7  1  0  0  0  0
  8  9  1  0  0  0  0
  9 10  2  0  0  0  0
M  END
>  <CHROM.1>
5.93357563,17.73149221,4.17716978,1.33504288,-1.00853048,-2.18083599

>  <Name>
ligand

>  <RI>
0

>  <Rbt.Current_Directory>
/home/itssahil/PROJECTS/Mol_Feturizer/New_Systems/rnas/4XNR

>  <Rbt.Executable>
rbdock ($Id: //depot/dev/client3/rdock/2013.1/src/exe/rbdock.cxx#4 $)

>  <Rbt.Library>
libRbt.so (2013.1, Build901 2013/11/27)

>  <Rbt.Parameter_File>
/export/apps/rDock/src/rDock_2013.1_src/data/scripts/dock_solv.prm

>  <Rbt.Receptor>
prm/blind_docking_80.prm

>  <SCORE>
-12.9114

>  <SCORE.INTER>
-12.9114

>  <SCORE.INTER.CONST>
1

>  <SCORE.INTER.POLAR>
0

>  <SCORE.INTER.ROT>
0

>  <SCORE.INTER.SOLV>
12.0436

>  <SCORE.INTER.VDW>
-16.2222

>  <SCORE.INTER.norm>
-1.29114

>  <SCORE.INTRA>
0

>  <SCORE.INTRA.DIHEDRAL>
0

>  <SCORE.INTRA.DIHEDRAL.0>
0

>  <SCORE.INTRA.POLAR>
0

>  <SCORE.INTRA.POLAR.0>
0

>  <SCORE.INTRA.REPUL>
0

>  <SCORE.INTRA.REPUL.0>
0

>  <SCORE.INTRA.SOLV>
0

>  <SCORE.INTRA.SOLV.lig_0>
-23.8918

>  <SCORE.INTRA.VDW>
0

>  <SCORE.INTRA.VDW.0>
0

>  <SCORE.INTRA.norm>
0

>  <SCORE.RESTR>
0

>  <SCORE.RESTR.CAVITY>
0

>  <SCORE.RESTR.norm>
0

>  <SCORE.SYSTEM>
0

>  <SCORE.SYSTEM.CONST>
0

>  <SCORE.SYSTEM.DIHEDRAL>
0

>  <SCORE.SYSTEM.SOLV>
0

>  <SCORE.SYSTEM.norm>
0

>  <SCORE.heavy>
10

>  <SCORE.norm>
-1.29114

>  <RMSD>
2.427

$$$$
ligand
 OpenBabel11021811513D
libRbt.so/2013.1/901 2013/11/27
 10 11  0  0  0  0  0  0  0  0999 V2000
    5.9940   16.6438    2.4916 N   0  0  0  0  0  0  0  0  0  0  0  0
    5.2950   15.9009    3.3581 C   0  0  0  0  0  0  0  0  0  0  0  0
    4.9733   16.1689    4.6228 N   0  0  0  0  0  0  0  0  0  0  0  0
    5.4554   17.3653    4.9936 C   0  0  0  0  0  0  0  0  0  0  0  0
    6.1904   18.2405    4.2175 C   0  0  0  0  0  0  0  0  0  0  0  0
    6.4653   17.8424    2.8943 C   0  0  0  0  0  0  0  0  0  0  0  0
    7.1633   18.5876    2.0317 N   0  0  0  0  0  0  0  0  0  0  0  0
    6.5152   19.3794    4.9357 N   0  0  0  0  0  0  0  0  0  0  0  0
    5.9788   19.1716    6.1149 C   0  0  0  0  0  0  0  0  0  0  0  0
    5.3240   17.9759    6.2199 N   0  0  0  0  0  0  0  0  0  0  0  0
  1  2  2  0  0  0  0
  1  6  1  0  0  0  0
  2  3  1  0  0  0  0
  3  4  2  0  0  0  0
  4  5  1  0  0  0  0
  4 10  1  0  0  0  0
  5  6  2  0  0  0  0
  5  8  1  0  0  0  0
  6  7  1  0  0  0  0
  8  9  1  0  0  0  0
  9 10  2  0  0  0  0
M  END
>  <CHROM.1>
5.93994126,17.72941393,4.17820054,1.33055653,-1.00774130,-2.18523677

>  <Name>
ligand

>  <RI>
0

>  <Rbt.Current_Directory>
/home/itssahil/PROJECTS/Mol_Feturizer/New_Systems/rnas/4XNR

>  <Rbt.Executable>
rbdock ($Id: //depot/dev/client3/rdock/2013.1/src/exe/rbdock.cxx#4 $)

>  <Rbt.Library>
libRbt.so (2013.1, Build901 2013/11/27)

>  <Rbt.Parameter_File>
/export/apps/rDock/src/rDock_2013.1_src/data/scripts/dock_solv.prm

>  <Rbt.Receptor>
prm/pocket_docking_3.prm

>  <SCORE>
-12.9091

>  <SCORE.INTER>
-12.9091

>  <SCORE.INTER.CONST>
1

>  <SCORE.INTER.POLAR>
0

>  <SCORE.INTER.ROT>
0

>  <SCORE.INTER.SOLV>
12.0592

>  <SCORE.INTER.VDW>
-16.2258

>  <SCORE.INTER.norm>
-1.29091

>  <SCORE.INTRA>
0

>  <SCORE.INTRA.DIHEDRAL>
0

>  <SCORE.INTRA.DIHEDRAL.0>
0

>  <SCORE.INTRA.POLAR>
0

>  <SCORE.INTRA.POLAR.0>
0

>  <SCORE.INTRA.REPUL>
0

>  <SCORE.INTRA.REPUL.0>
0

>  <SCORE.INTRA.SOLV>
0

>  <SCORE.INTRA.SOLV.lig_0>
-23.8918

>  <SCORE.INTRA.VDW>
0

>  <SCORE.INTRA.VDW.0>
0

>  <SCORE.INTRA.norm>
0

>  <SCORE.RESTR>
0

>  <SCORE.RESTR.CAVITY>
0

>  <SCORE.RESTR.norm>
0

>  <SCORE.SYSTEM>
0

>  <SCORE.SYSTEM.CONST>
0

>  <SCORE.SYSTEM.DIHEDRAL>
0

>  <SCORE.SYSTEM.SOLV>
0

>  <SCORE.SYSTEM.norm>
0

>  <SCORE.heavy>
10

>  <SCORE.norm>
-1.29091

>  <RMSD>
2.427

$$$$
ligand
 OpenBabel11021811513D
libRbt.so/2013.1/901 2013/11/27
 10 11  0  0  0  0  0  0  0  0999 V2000
    6.0329   16.7796    2.5305 N   0  0  0  0  0  0  0  0  0  0  0  0
    5.3475   16.0348    3.4062 C   0  0  0  0  0  0  0  0  0  0  0  0
    5.0373   16.3044    4.6734 N   0  0  0  0  0  0  0  0  0  0  0  0
    5.5158   17.5047    5.0359 C   0  0  0  0  0  0  0  0  0  0  0  0
    6.2374   18.3823    4.2499 C   0  0  0  0  0  0  0  0  0  0  0  0
    6.5010   17.9822    2.9250 C   0  0  0  0  0  0  0  0  0  0  0  0
    7.1855   18.7293    2.0533 N   0  0  0  0  0  0  0  0  0  0  0  0
    6.5626   19.5251    4.9616 N   0  0  0  0  0  0  0  0  0  0  0  0
    6.0397   19.3173    6.1468 C   0  0  0  0  0  0  0  0  0  0  0  0
    5.3934   18.1179    6.2619 N   0  0  0  0  0  0  0  0  0  0  0  0
  1  2  2  0  0  0  0
  1  6  1  0  0  0  0
  2  3  1  0  0  0  0
  3  4  2  0  0  0  0
  4  5  1  0  0  0  0
  4 10  1  0  0  0  0
  5  6  2  0  0  0  0
  5  8  1  0  0  0  0
  6  7  1  0  0  0  0
  8  9  1  0  0  0  0
  9 10  2  0  0  0  0
M  END
>  <CHROM.1>
5.98967850,17.86956170,4.21461151,1.33994861,-1.01870631,-2.18000747

>  <Name>
ligand

>  <RI>
0

>  <Rbt.Current_Directory>
/home/itssahil/PROJECTS/Mol_Feturizer/New_Systems/rnas/4XNR

>  <Rbt.Executable>
rbdock ($Id: //depot/dev/client3/rdock/2013.1/src/exe/rbdock.cxx#4 $)

>  <Rbt.Library>
libRbt.so (2013.1, Build901 2013/11/27)

>  <Rbt.Parameter_File>
/export/apps/rDock/src/rDock_2013.1_src/data/scripts/dock_solv.prm

>  <Rbt.Receptor>
prm/blind_docking_100.prm

>  <SCORE>
-12.8863

>  <SCORE.INTER>
-12.8863

>  <SCORE.INTER.CONST>
1

>  <SCORE.INTER.POLAR>
0

>  <SCORE.INTER.ROT>
0

>  <SCORE.INTER.SOLV>
12.377

>  <SCORE.INTER.VDW>
-16.3166

>  <SCORE.INTER.norm>
-1.28863

>  <SCORE.INTRA>
0

>  <SCORE.INTRA.DIHEDRAL>
0

>  <SCORE.INTRA.DIHEDRAL.0>
0

>  <SCORE.INTRA.POLAR>
0

>  <SCORE.INTRA.POLAR.0>
0

>  <SCORE.INTRA.REPUL>
0

>  <SCORE.INTRA.REPUL.0>
0

>  <SCORE.INTRA.SOLV>
0

>  <SCORE.INTRA.SOLV.lig_0>
-23.8918

>  <SCORE.INTRA.VDW>
0

>  <SCORE.INTRA.VDW.0>
0

>  <SCORE.INTRA.norm>
0

>  <SCORE.RESTR>
0

>  <SCORE.RESTR.CAVITY>
0

>  <SCORE.RESTR.norm>
0

>  <SCORE.SYSTEM>
0

>  <SCORE.SYSTEM.CONST>
0

>  <SCORE.SYSTEM.DIHEDRAL>
0

>  <SCORE.SYSTEM.SOLV>
0

>  <SCORE.SYSTEM.norm>
0

>  <SCORE.heavy>
10

>  <SCORE.norm>
-1.28863

>  <RMSD>
2.428

$$$$
ligand
 OpenBabel11021811513D
libRbt.so/2013.1/901 2013/11/27
 10 11  0  0  0  0  0  0  0  0999 V2000
    5.9760   16.6666    2.4973 N   0  0  0  0  0  0  0  0  0  0  0  0
    5.2831   15.9189    3.3646 C   0  0  0  0  0  0  0  0  0  0  0  0
    4.9743   16.1780    4.6344 N   0  0  0  0  0  0  0  0  0  0  0  0
    5.4633   17.3700    5.0099 C   0  0  0  0  0  0  0  0  0  0  0  0
    6.1934   18.2493    4.2337 C   0  0  0  0  0  0  0  0  0  0  0  0
    6.4546   17.8607    2.9049 C   0  0  0  0  0  0  0  0  0  0  0  0
    7.1466   18.6107    2.0415 N   0  0  0  0  0  0  0  0  0  0  0  0
    6.5283   19.3816    4.9576 N   0  0  0  0  0  0  0  0  0  0  0  0
    6.0025   19.1661    6.1401 C   0  0  0  0  0  0  0  0  0  0  0  0
    5.3452   17.9714    6.2421 N   0  0  0  0  0  0  0  0  0  0  0  0
  1  2  2  0  0  0  0
  1  6  1  0  0  0  0
  2  3  1  0  0  0  0
  3  4  2  0  0  0  0
  4  5  1  0  0  0  0
  4 10  1  0  0  0  0
  5  6  2  0  0  0  0
  5  8  1  0  0  0  0
  6  7  1  0  0  0  0
  8  9  1  0  0  0  0
  9 10  2  0  0  0  0
M  END
>  <CHROM.1>
5.94112912,17.73919354,4.19278577,1.34826963,-1.01078539,-2.16245174

>  <Name>
ligand

>  <RI>
0

>  <Rbt.Current_Directory>
/home/itssahil/PROJECTS/Mol_Feturizer/New_Systems/rnas/4XNR

>  <Rbt.Executable>
rbdock ($Id: //depot/dev/client3/rdock/2013.1/src/exe/rbdock.cxx#4 $)

>  <Rbt.Library>
libRbt.so (2013.1, Build901 2013/11/27)

>  <Rbt.Parameter_File>
/export/apps/rDock/src/rDock_2013.1_src/data/scripts/dock_solv.prm

>  <Rbt.Receptor>
prm/blind_docking_80.prm

>  <SCORE>
-12.8845

>  <SCORE.INTER>
-12.8845

>  <SCORE.INTER.CONST>
1

>  <SCORE.INTER.POLAR>
0

>  <SCORE.INTER.ROT>
0

>  <SCORE.INTER.SOLV>
12.0402

>  <SCORE.INTER.VDW>
-16.2031

>  <SCORE.INTER.norm>
-1.28845

>  <SCORE.INTRA>
0

>  <SCORE.INTRA.DIHEDRAL>
0

>  <SCORE.INTRA.DIHEDRAL.0>
0

>  <SCORE.INTRA.POLAR>
0

>  <SCORE.INTRA.POLAR.0>
0

>  <SCORE.INTRA.REPUL>
0

>  <SCORE.INTRA.REPUL.0>
0

>  <SCORE.INTRA.SOLV>
0

>  <SCORE.INTRA.SOLV.lig_0>
-23.8918

>  <SCORE.INTRA.VDW>
0

>  <SCORE.INTRA.VDW.0>
0

>  <SCORE.INTRA.norm>
0

>  <SCORE.RESTR>
0

>  <SCORE.RESTR.CAVITY>
0

>  <SCORE.RESTR.norm>
0

>  <SCORE.SYSTEM>
0

>  <SCORE.SYSTEM.CONST>
0

>  <SCORE.SYSTEM.DIHEDRAL>
0

>  <SCORE.SYSTEM.SOLV>
0

>  <SCORE.SYSTEM.norm>
0

>  <SCORE.heavy>
10

>  <SCORE.norm>
-1.28845

>  <RMSD>
2.428

$$$$
ligand
 OpenBabel11021811513D
libRbt.so/2013.1/901 2013/11/27
 10 11  0  0  0  0  0  0  0  0999 V2000
    5.9686   16.6918    2.4990 N   0  0  0  0  0  0  0  0  0  0  0  0
    5.2733   15.9389    3.3599 C   0  0  0  0  0  0  0  0  0  0  0  0
    4.9701   16.1855    4.6335 N   0  0  0  0  0  0  0  0  0  0  0  0
    5.4682   17.3699    5.0210 C   0  0  0  0  0  0  0  0  0  0  0  0
    6.2020   18.2530    4.2527 C   0  0  0  0  0  0  0  0  0  0  0  0
    6.4565   17.8779    2.9187 C   0  0  0  0  0  0  0  0  0  0  0  0
    7.1509   18.6331    2.0618 N   0  0  0  0  0  0  0  0  0  0  0  0
    6.5467   19.3747    4.9884 N   0  0  0  0  0  0  0  0  0  0  0  0
    6.0231   19.1492    6.1701 C   0  0  0  0  0  0  0  0  0  0  0  0
    5.3581   17.9579    6.2604 N   0  0  0  0  0  0  0  0  0  0  0  0
  1  2  2  0  0  0  0
  1  6  1  0  0  0  0
  2  3  1  0  0  0  0
  3  4  2  0  0  0  0
  4  5  1  0  0  0  0
  4 10  1  0  0  0  0
  5  6  2  0  0  0  0
  5  8  1  0  0  0  0
  6  7  1  0  0  0  0
  8  9  1  0  0  0  0
  9 10  2  0  0  0  0
M  END
>  <CHROM.1>
5.94613180,17.74513229,4.20674370,1.36004812,-1.00682538,-2.14104889

>  <Name>
ligand

>  <RI>
0

>  <Rbt.Current_Directory>
/home/itssahil/PROJECTS/Mol_Feturizer/New_Systems/rnas/4XNR

>  <Rbt.Executable>
rbdock ($Id: //depot/dev/client3/rdock/2013.1/src/exe/rbdock.cxx#4 $)

>  <Rbt.Library>
libRbt.so (2013.1, Build901 2013/11/27)

>  <Rbt.Parameter_File>
/export/apps/rDock/src/rDock_2013.1_src/data/scripts/dock_solv.prm

>  <Rbt.Receptor>
prm/blind_docking_80.prm

>  <SCORE>
-12.879

>  <SCORE.INTER>
-12.879

>  <SCORE.INTER.CONST>
1

>  <SCORE.INTER.POLAR>
0

>  <SCORE.INTER.ROT>
0

>  <SCORE.INTER.SOLV>
12.0367

>  <SCORE.INTER.VDW>
-16.1982

>  <SCORE.INTER.norm>
-1.2879

>  <SCORE.INTRA>
0

>  <SCORE.INTRA.DIHEDRAL>
0

>  <SCORE.INTRA.DIHEDRAL.0>
0

>  <SCORE.INTRA.POLAR>
0

>  <SCORE.INTRA.POLAR.0>
0

>  <SCORE.INTRA.REPUL>
0

>  <SCORE.INTRA.REPUL.0>
0

>  <SCORE.INTRA.SOLV>
0

>  <SCORE.INTRA.SOLV.lig_0>
-23.8918

>  <SCORE.INTRA.VDW>
0

>  <SCORE.INTRA.VDW.0>
0

>  <SCORE.INTRA.norm>
0

>  <SCORE.RESTR>
0

>  <SCORE.RESTR.CAVITY>
0

>  <SCORE.RESTR.norm>
0

>  <SCORE.SYSTEM>
0

>  <SCORE.SYSTEM.CONST>
0

>  <SCORE.SYSTEM.DIHEDRAL>
0

>  <SCORE.SYSTEM.SOLV>
0

>  <SCORE.SYSTEM.norm>
0

>  <SCORE.heavy>
10

>  <SCORE.norm>
-1.2879

>  <RMSD>
2.429

$$$$
ligand
 OpenBabel11021811513D
libRbt.so/2013.1/901 2013/11/27
 10 11  0  0  0  0  0  0  0  0999 V2000
    6.0152   16.6544    2.5106 N   0  0  0  0  0  0  0  0  0  0  0  0
    5.3194   15.9057    3.3748 C   0  0  0  0  0  0  0  0  0  0  0  0
    4.9924   16.1705    4.6388 N   0  0  0  0  0  0  0  0  0  0  0  0
    5.4646   17.3702    5.0116 C   0  0  0  0  0  0  0  0  0  0  0  0
    6.1952   18.2514    4.2381 C   0  0  0  0  0  0  0  0  0  0  0  0
    6.4765   17.8562    2.9153 C   0  0  0  0  0  0  0  0  0  0  0  0
    7.1713   18.6072    2.0551 N   0  0  0  0  0  0  0  0  0  0  0  0
    6.5096   19.3922    4.9578 N   0  0  0  0  0  0  0  0  0  0  0  0
    5.9716   19.1796    6.1355 C   0  0  0  0  0  0  0  0  0  0  0  0
    5.3254   17.9790    6.2380 N   0  0  0  0  0  0  0  0  0  0  0  0
  1  2  2  0  0  0  0
  1  6  1  0  0  0  0
  2  3  1  0  0  0  0
  3  4  2  0  0  0  0
  4  5  1  0  0  0  0
  4 10  1  0  0  0  0
  5  6  2  0  0  0  0
  5  8  1  0  0  0  0
  6  7  1  0  0  0  0
  8  9  1  0  0  0  0
  9 10  2  0  0  0  0
M  END
>  <CHROM.1>
5.94861576,17.73847583,4.19777269,1.31838677,-1.01224287,-2.19488810

>  <Name>
ligand

>  <RI>
0

>  <Rbt.Current_Directory>
/home/itssahil/PROJECTS/Mol_Feturizer/New_Systems/rnas/4XNR

>  <Rbt.Executable>
rbdock ($Id: //depot/dev/client3/rdock/2013.1/src/exe/rbdock.cxx#4 $)

>  <Rbt.Library>
libRbt.so (2013.1, Build901 2013/11/27)

>  <Rbt.Parameter_File>
/export/apps/rDock/src/rDock_2013.1_src/data/scripts/dock_solv.prm

>  <Rbt.Receptor>
prm/blind_docking_40.prm

>  <SCORE>
-12.8557

>  <SCORE.INTER>
-12.8557

>  <SCORE.INTER.CONST>
1

>  <SCORE.INTER.POLAR>
0

>  <SCORE.INTER.ROT>
0

>  <SCORE.INTER.SOLV>
12.0836

>  <SCORE.INTER.VDW>
-16.1983

>  <SCORE.INTER.norm>
-1.28557

>  <SCORE.INTRA>
0

>  <SCORE.INTRA.DIHEDRAL>
0

>  <SCORE.INTRA.DIHEDRAL.0>
0

>  <SCORE.INTRA.POLAR>
0

>  <SCORE.INTRA.POLAR.0>
0

>  <SCORE.INTRA.REPUL>
0

>  <SCORE.INTRA.REPUL.0>
0

>  <SCORE.INTRA.SOLV>
0

>  <SCORE.INTRA.SOLV.lig_0>
-23.8918

>  <SCORE.INTRA.VDW>
0

>  <SCORE.INTRA.VDW.0>
0

>  <SCORE.INTRA.norm>
0

>  <SCORE.RESTR>
0

>  <SCORE.RESTR.CAVITY>
0

>  <SCORE.RESTR.norm>
0

>  <SCORE.SYSTEM>
0

>  <SCORE.SYSTEM.CONST>
0

>  <SCORE.SYSTEM.DIHEDRAL>
0

>  <SCORE.SYSTEM.SOLV>
0

>  <SCORE.SYSTEM.norm>
0

>  <SCORE.heavy>
10

>  <SCORE.norm>
-1.28557

>  <RMSD>
2.430

$$$$
ligand
 OpenBabel11021811513D
libRbt.so/2013.1/901 2013/11/27
 10 11  0  0  0  0  0  0  0  0999 V2000
    6.0528   16.7110    2.5591 N   0  0  0  0  0  0  0  0  0  0  0  0
    5.3353   16.0023    3.4390 C   0  0  0  0  0  0  0  0  0  0  0  0
    5.0111   16.3069    4.6947 N   0  0  0  0  0  0  0  0  0  0  0  0
    5.5126   17.5031    5.0394 C   0  0  0  0  0  0  0  0  0  0  0  0
    6.2681   18.3457    4.2469 C   0  0  0  0  0  0  0  0  0  0  0  0
    6.5434   17.9104    2.9355 C   0  0  0  0  0  0  0  0  0  0  0  0
    7.2600   18.6217    2.0596 N   0  0  0  0  0  0  0  0  0  0  0  0
    6.6092   19.4957    4.9392 N   0  0  0  0  0  0  0  0  0  0  0  0
    6.0622   19.3265    6.1197 C   0  0  0  0  0  0  0  0  0  0  0  0
    5.3851   18.1458    6.2496 N   0  0  0  0  0  0  0  0  0  0  0  0
  1  2  2  0  0  0  0
  1  6  1  0  0  0  0
  2  3  1  0  0  0  0
  3  4  2  0  0  0  0
  4  5  1  0  0  0  0
  4 10  1  0  0  0  0
  5  6  2  0  0  0  0
  5  8  1  0  0  0  0
  6  7  1  0  0  0  0
  8  9  1  0  0  0  0
  9 10  2  0  0  0  0
M  END
>  <CHROM.1>
6.00857569,17.83838880,4.21847014,1.34085738,-0.98944797,-2.20097104

>  <Name>
ligand

>  <RI>
0

>  <Rbt.Current_Directory>
/home/itssahil/PROJECTS/Mol_Feturizer/New_Systems/rnas/4XNR

>  <Rbt.Executable>
rbdock ($Id: //depot/dev/client3/rdock/2013.1/src/exe/rbdock.cxx#4 $)

>  <Rbt.Library>
libRbt.so (2013.1, Build901 2013/11/27)

>  <Rbt.Parameter_File>
/export/apps/rDock/src/rDock_2013.1_src/data/scripts/dock_solv.prm

>  <Rbt.Receptor>
prm/blind_docking_100.prm

>  <SCORE>
-12.8834

>  <SCORE.INTER>
-12.8834

>  <SCORE.INTER.CONST>
1

>  <SCORE.INTER.POLAR>
0

>  <SCORE.INTER.ROT>
0

>  <SCORE.INTER.SOLV>
12.2386

>  <SCORE.INTER.VDW>
-16.2685

>  <SCORE.INTER.norm>
-1.28834

>  <SCORE.INTRA>
0

>  <SCORE.INTRA.DIHEDRAL>
0

>  <SCORE.INTRA.DIHEDRAL.0>
0

>  <SCORE.INTRA.POLAR>
0

>  <SCORE.INTRA.POLAR.0>
0

>  <SCORE.INTRA.REPUL>
0

>  <SCORE.INTRA.REPUL.0>
0

>  <SCORE.INTRA.SOLV>
0

>  <SCORE.INTRA.SOLV.lig_0>
-23.8918

>  <SCORE.INTRA.VDW>
0

>  <SCORE.INTRA.VDW.0>
0

>  <SCORE.INTRA.norm>
0

>  <SCORE.RESTR>
0

>  <SCORE.RESTR.CAVITY>
0

>  <SCORE.RESTR.norm>
0

>  <SCORE.SYSTEM>
0

>  <SCORE.SYSTEM.CONST>
0

>  <SCORE.SYSTEM.DIHEDRAL>
0

>  <SCORE.SYSTEM.SOLV>
0

>  <SCORE.SYSTEM.norm>
0

>  <SCORE.heavy>
10

>  <SCORE.norm>
-1.28834

>  <RMSD>
2.431

$$$$
ligand
 OpenBabel11021811513D
libRbt.so/2013.1/901 2013/11/27
 10 11  0  0  0  0  0  0  0  0999 V2000
    6.0071   16.6426    2.4929 N   0  0  0  0  0  0  0  0  0  0  0  0
    5.2842   15.9067    3.3457 C   0  0  0  0  0  0  0  0  0  0  0  0
    4.9520   16.1720    4.6082 N   0  0  0  0  0  0  0  0  0  0  0  0
    5.4509   17.3569    4.9931 C   0  0  0  0  0  0  0  0  0  0  0  0
    6.2111   18.2239    4.2321 C   0  0  0  0  0  0  0  0  0  0  0  0
    6.4950   17.8297    2.9096 C   0  0  0  0  0  0  0  0  0  0  0  0
    7.2170   18.5680    2.0608 N   0  0  0  0  0  0  0  0  0  0  0  0
    6.5475   19.3519    4.9621 N   0  0  0  0  0  0  0  0  0  0  0  0
    5.9930   19.1459    6.1332 C   0  0  0  0  0  0  0  0  0  0  0  0
    5.3154   17.9616    6.2219 N   0  0  0  0  0  0  0  0  0  0  0  0
  1  2  2  0  0  0  0
  1  6  1  0  0  0  0
  2  3  1  0  0  0  0
  3  4  2  0  0  0  0
  4  5  1  0  0  0  0
  4 10  1  0  0  0  0
  5  6  2  0  0  0  0
  5  8  1  0  0  0  0
  6  7  1  0  0  0  0
  8  9  1  0  0  0  0
  9 10  2  0  0  0  0
M  END
>  <CHROM.1>
5.95195746,17.71769047,4.18624044,1.33118361,-0.98590461,-2.17789044

>  <Name>
ligand

>  <RI>
0

>  <Rbt.Current_Directory>
/home/itssahil/PROJECTS/Mol_Feturizer/New_Systems/rnas/4XNR

>  <Rbt.Executable>
rbdock ($Id: //depot/dev/client3/rdock/2013.1/src/exe/rbdock.cxx#4 $)

>  <Rbt.Library>
libRbt.so (2013.1, Build901 2013/11/27)

>  <Rbt.Parameter_File>
/export/apps/rDock/src/rDock_2013.1_src/data/scripts/dock_solv.prm

>  <Rbt.Receptor>
prm/blind_docking_40.prm

>  <SCORE>
-12.8822

>  <SCORE.INTER>
-12.8822

>  <SCORE.INTER.CONST>
1

>  <SCORE.INTER.POLAR>
0

>  <SCORE.INTER.ROT>
0

>  <SCORE.INTER.SOLV>
12.048

>  <SCORE.INTER.VDW>
-16.2042

>  <SCORE.INTER.norm>
-1.28822

>  <SCORE.INTRA>
0

>  <SCORE.INTRA.DIHEDRAL>
0

>  <SCORE.INTRA.DIHEDRAL.0>
0

>  <SCORE.INTRA.POLAR>
0

>  <SCORE.INTRA.POLAR.0>
0

>  <SCORE.INTRA.REPUL>
0

>  <SCORE.INTRA.REPUL.0>
0

>  <SCORE.INTRA.SOLV>
0

>  <SCORE.INTRA.SOLV.lig_0>
-23.8918

>  <SCORE.INTRA.VDW>
0

>  <SCORE.INTRA.VDW.0>
0

>  <SCORE.INTRA.norm>
0

>  <SCORE.RESTR>
0

>  <SCORE.RESTR.CAVITY>
0

>  <SCORE.RESTR.norm>
0

>  <SCORE.SYSTEM>
0

>  <SCORE.SYSTEM.CONST>
0

>  <SCORE.SYSTEM.DIHEDRAL>
0

>  <SCORE.SYSTEM.SOLV>
0

>  <SCORE.SYSTEM.norm>
0

>  <SCORE.heavy>
10

>  <SCORE.norm>
-1.28822

>  <RMSD>
2.431

$$$$
ligand
 OpenBabel11021811513D
libRbt.so/2013.1/901 2013/11/27
 10 11  0  0  0  0  0  0  0  0999 V2000
    6.0312   16.7717    2.5484 N   0  0  0  0  0  0  0  0  0  0  0  0
    5.3340   16.0362    3.4227 C   0  0  0  0  0  0  0  0  0  0  0  0
    5.0240   16.3105    4.6889 N   0  0  0  0  0  0  0  0  0  0  0  0
    5.5167   17.5048    5.0521 C   0  0  0  0  0  0  0  0  0  0  0  0
    6.2515   18.3727    4.2675 C   0  0  0  0  0  0  0  0  0  0  0  0
    6.5135   17.9684    2.9435 C   0  0  0  0  0  0  0  0  0  0  0  0
    7.2098   18.7062    2.0732 N   0  0  0  0  0  0  0  0  0  0  0  0
    6.5894   19.5116    4.9794 N   0  0  0  0  0  0  0  0  0  0  0  0
    6.0608   19.3112    6.1634 C   0  0  0  0  0  0  0  0  0  0  0  0
    5.3989   18.1202    6.2774 N   0  0  0  0  0  0  0  0  0  0  0  0
  1  2  2  0  0  0  0
  1  6  1  0  0  0  0
  2  3  1  0  0  0  0
  3  4  2  0  0  0  0
  4  5  1  0  0  0  0
  4 10  1  0  0  0  0
  5  6  2  0  0  0  0
  5  8  1  0  0  0  0
  6  7  1  0  0  0  0
  8  9  1  0  0  0  0
  9 10  2  0  0  0  0
M  END
>  <CHROM.1>
5.99740122,17.86309284,4.23182258,1.34953054,-1.00671668,-2.17243719

>  <Name>
ligand

>  <RI>
0

>  <Rbt.Current_Directory>
/home/itssahil/PROJECTS/Mol_Feturizer/New_Systems/rnas/4XNR

>  <Rbt.Executable>
rbdock ($Id: //depot/dev/client3/rdock/2013.1/src/exe/rbdock.cxx#4 $)

>  <Rbt.Library>
libRbt.so (2013.1, Build901 2013/11/27)

>  <Rbt.Parameter_File>
/export/apps/rDock/src/rDock_2013.1_src/data/scripts/dock_solv.prm

>  <Rbt.Receptor>
prm/blind_docking_80.prm

>  <SCORE>
-12.8502

>  <SCORE.INTER>
-12.8502

>  <SCORE.INTER.CONST>
1

>  <SCORE.INTER.POLAR>
0

>  <SCORE.INTER.ROT>
0

>  <SCORE.INTER.SOLV>
12.3127

>  <SCORE.INTER.VDW>
-16.271

>  <SCORE.INTER.norm>
-1.28502

>  <SCORE.INTRA>
0

>  <SCORE.INTRA.DIHEDRAL>
0

>  <SCORE.INTRA.DIHEDRAL.0>
0

>  <SCORE.INTRA.POLAR>
0

>  <SCORE.INTRA.POLAR.0>
0

>  <SCORE.INTRA.REPUL>
0

>  <SCORE.INTRA.REPUL.0>
0

>  <SCORE.INTRA.SOLV>
0

>  <SCORE.INTRA.SOLV.lig_0>
-23.8918

>  <SCORE.INTRA.VDW>
0

>  <SCORE.INTRA.VDW.0>
0

>  <SCORE.INTRA.norm>
0

>  <SCORE.RESTR>
0

>  <SCORE.RESTR.CAVITY>
0

>  <SCORE.RESTR.norm>
0

>  <SCORE.SYSTEM>
0

>  <SCORE.SYSTEM.CONST>
0

>  <SCORE.SYSTEM.DIHEDRAL>
0

>  <SCORE.SYSTEM.SOLV>
0

>  <SCORE.SYSTEM.norm>
0

>  <SCORE.heavy>
10

>  <SCORE.norm>
-1.28502

>  <RMSD>
2.431

$$$$
ligand
 OpenBabel11021811513D
libRbt.so/2013.1/901 2013/11/27
 10 11  0  0  0  0  0  0  0  0999 V2000
    6.0399   16.7687    2.5410 N   0  0  0  0  0  0  0  0  0  0  0  0
    5.3287   16.0363    3.4065 C   0  0  0  0  0  0  0  0  0  0  0  0
    5.0063   16.3106    4.6696 N   0  0  0  0  0  0  0  0  0  0  0  0
    5.5022   17.5015    5.0399 C   0  0  0  0  0  0  0  0  0  0  0  0
    6.2508   18.3660    4.2648 C   0  0  0  0  0  0  0  0  0  0  0  0
    6.5250   17.9620    2.9432 C   0  0  0  0  0  0  0  0  0  0  0  0
    7.2354   18.6968    2.0818 N   0  0  0  0  0  0  0  0  0  0  0  0
    6.5876   19.5019    4.9821 N   0  0  0  0  0  0  0  0  0  0  0  0
    6.0447   19.3030    6.1598 C   0  0  0  0  0  0  0  0  0  0  0  0
    5.3744   18.1159    6.2648 N   0  0  0  0  0  0  0  0  0  0  0  0
  1  2  2  0  0  0  0
  1  6  1  0  0  0  0
  2  3  1  0  0  0  0
  3  4  2  0  0  0  0
  4  5  1  0  0  0  0
  4 10  1  0  0  0  0
  5  6  2  0  0  0  0
  5  8  1  0  0  0  0
  6  7  1  0  0  0  0
  8  9  1  0  0  0  0
  9 10  2  0  0  0  0
M  END
>  <CHROM.1>
5.99403459,17.85799564,4.22557846,1.33895814,-0.99545118,-2.17991891

>  <Name>
ligand

>  <RI>
0

>  <Rbt.Current_Directory>
/home/itssahil/PROJECTS/Mol_Feturizer/New_Systems/rnas/4XNR

>  <Rbt.Executable>
rbdock ($Id: //depot/dev/client3/rdock/2013.1/src/exe/rbdock.cxx#4 $)

>  <Rbt.Library>
libRbt.so (2013.1, Build901 2013/11/27)

>  <Rbt.Parameter_File>
/export/apps/rDock/src/rDock_2013.1_src/data/scripts/dock_solv.prm

>  <Rbt.Receptor>
prm/blind_docking_80.prm

>  <SCORE>
-12.858

>  <SCORE.INTER>
-12.858

>  <SCORE.INTER.CONST>
1

>  <SCORE.INTER.POLAR>
0

>  <SCORE.INTER.ROT>
0

>  <SCORE.INTER.SOLV>
12.3103

>  <SCORE.INTER.VDW>
-16.2755

>  <SCORE.INTER.norm>
-1.2858

>  <SCORE.INTRA>
0

>  <SCORE.INTRA.DIHEDRAL>
0

>  <SCORE.INTRA.DIHEDRAL.0>
0

>  <SCORE.INTRA.POLAR>
0

>  <SCORE.INTRA.POLAR.0>
0

>  <SCORE.INTRA.REPUL>
0

>  <SCORE.INTRA.REPUL.0>
0

>  <SCORE.INTRA.SOLV>
0

>  <SCORE.INTRA.SOLV.lig_0>
-23.8918

>  <SCORE.INTRA.VDW>
0

>  <SCORE.INTRA.VDW.0>
0

>  <SCORE.INTRA.norm>
0

>  <SCORE.RESTR>
0

>  <SCORE.RESTR.CAVITY>
0

>  <SCORE.RESTR.norm>
0

>  <SCORE.SYSTEM>
0

>  <SCORE.SYSTEM.CONST>
0

>  <SCORE.SYSTEM.DIHEDRAL>
0

>  <SCORE.SYSTEM.SOLV>
0

>  <SCORE.SYSTEM.norm>
0

>  <SCORE.heavy>
10

>  <SCORE.norm>
-1.2858

>  <RMSD>
2.431

$$$$
ligand
 OpenBabel11021811513D
libRbt.so/2013.1/901 2013/11/27
 10 11  0  0  0  0  0  0  0  0999 V2000
    6.0541   16.7895    2.5710 N   0  0  0  0  0  0  0  0  0  0  0  0
    5.3416   16.0953    3.4665 C   0  0  0  0  0  0  0  0  0  0  0  0
    5.0428   16.4107    4.7258 N   0  0  0  0  0  0  0  0  0  0  0  0
    5.5665   17.6015    5.0557 C   0  0  0  0  0  0  0  0  0  0  0  0
    6.3202   18.4295    4.2463 C   0  0  0  0  0  0  0  0  0  0  0  0
    6.5675   17.9838    2.9329 C   0  0  0  0  0  0  0  0  0  0  0  0
    7.2792   18.6805    2.0413 N   0  0  0  0  0  0  0  0  0  0  0  0
    6.6888   19.5782    4.9267 N   0  0  0  0  0  0  0  0  0  0  0  0
    6.1593   19.4226    6.1170 C   0  0  0  0  0  0  0  0  0  0  0  0
    5.4682   18.2520    6.2644 N   0  0  0  0  0  0  0  0  0  0  0  0
  1  2  2  0  0  0  0
  1  6  1  0  0  0  0
  2  3  1  0  0  0  0
  3  4  2  0  0  0  0
  4  5  1  0  0  0  0
  4 10  1  0  0  0  0
  5  6  2  0  0  0  0
  5  8  1  0  0  0  0
  6  7  1  0  0  0  0
  8  9  1  0  0  0  0
  9 10  2  0  0  0  0
M  END
>  <CHROM.1>
6.05324803,17.92573324,4.22486524,1.38024397,-0.98775310,-2.17325299

>  <Name>
ligand

>  <RI>
0

>  <Rbt.Current_Directory>
/home/itssahil/PROJECTS/Mol_Feturizer/New_Systems/rnas/4XNR

>  <Rbt.Executable>
rbdock ($Id: //depot/dev/client3/rdock/2013.1/src/exe/rbdock.cxx#4 $)

>  <Rbt.Library>
libRbt.so (2013.1, Build901 2013/11/27)

>  <Rbt.Parameter_File>
/export/apps/rDock/src/rDock_2013.1_src/data/scripts/dock_solv.prm

>  <Rbt.Receptor>
prm/pocket_docking_4.prm

>  <SCORE>
-12.7714

>  <SCORE.INTER>
-12.7714

>  <SCORE.INTER.CONST>
1

>  <SCORE.INTER.POLAR>
0

>  <SCORE.INTER.ROT>
0

>  <SCORE.INTER.SOLV>
12.4246

>  <SCORE.INTER.VDW>
-16.2558

>  <SCORE.INTER.norm>
-1.27714

>  <SCORE.INTRA>
0

>  <SCORE.INTRA.DIHEDRAL>
0

>  <SCORE.INTRA.DIHEDRAL.0>
0

>  <SCORE.INTRA.POLAR>
0

>  <SCORE.INTRA.POLAR.0>
0

>  <SCORE.INTRA.REPUL>
0

>  <SCORE.INTRA.REPUL.0>
0

>  <SCORE.INTRA.SOLV>
0

>  <SCORE.INTRA.SOLV.lig_0>
-23.8918

>  <SCORE.INTRA.VDW>
0

>  <SCORE.INTRA.VDW.0>
0

>  <SCORE.INTRA.norm>
0

>  <SCORE.RESTR>
0

>  <SCORE.RESTR.CAVITY>
0

>  <SCORE.RESTR.norm>
0

>  <SCORE.SYSTEM>
0

>  <SCORE.SYSTEM.CONST>
0

>  <SCORE.SYSTEM.DIHEDRAL>
0

>  <SCORE.SYSTEM.SOLV>
0

>  <SCORE.SYSTEM.norm>
0

>  <SCORE.heavy>
10

>  <SCORE.norm>
-1.27714

>  <RMSD>
2.431

$$$$
ligand
 OpenBabel11021811513D
libRbt.so/2013.1/901 2013/11/27
 10 11  0  0  0  0  0  0  0  0999 V2000
    6.0428   16.7008    2.5602 N   0  0  0  0  0  0  0  0  0  0  0  0
    5.3184   15.9947    3.4365 C   0  0  0  0  0  0  0  0  0  0  0  0
    4.9908   16.2996    4.6912 N   0  0  0  0  0  0  0  0  0  0  0  0
    5.4967   17.4931    5.0391 C   0  0  0  0  0  0  0  0  0  0  0  0
    6.2593   18.3328    4.2504 C   0  0  0  0  0  0  0  0  0  0  0  0
    6.5377   17.8975    2.9397 C   0  0  0  0  0  0  0  0  0  0  0  0
    7.2612   18.6061    2.0673 N   0  0  0  0  0  0  0  0  0  0  0  0
    6.6033   19.4805    4.9452 N   0  0  0  0  0  0  0  0  0  0  0  0
    6.0509   19.3128    6.1233 C   0  0  0  0  0  0  0  0  0  0  0  0
    5.3676   18.1351    6.2494 N   0  0  0  0  0  0  0  0  0  0  0  0
  1  2  2  0  0  0  0
  1  6  1  0  0  0  0
  2  3  1  0  0  0  0
  3  4  2  0  0  0  0
  4  5  1  0  0  0  0
  4 10  1  0  0  0  0
  5  6  2  0  0  0  0
  5  8  1  0  0  0  0
  6  7  1  0  0  0  0
  8  9  1  0  0  0  0
  9 10  2  0  0  0  0
M  END
>  <CHROM.1>
5.99750934,17.82677721,4.22044372,1.34026685,-0.98323629,-2.20047019

>  <Name>
ligand

>  <RI>
0

>  <Rbt.Current_Directory>
/home/itssahil/PROJECTS/Mol_Feturizer/New_Systems/rnas/4XNR

>  <Rbt.Executable>
rbdock ($Id: //depot/dev/client3/rdock/2013.1/src/exe/rbdock.cxx#4 $)

>  <Rbt.Library>
libRbt.so (2013.1, Build901 2013/11/27)

>  <Rbt.Parameter_File>
/export/apps/rDock/src/rDock_2013.1_src/data/scripts/dock_solv.prm

>  <Rbt.Receptor>
prm/blind_docking_60.prm

>  <SCORE>
-12.8816

>  <SCORE.INTER>
-12.8816

>  <SCORE.INTER.CONST>
1

>  <SCORE.INTER.POLAR>
0

>  <SCORE.INTER.ROT>
0

>  <SCORE.INTER.SOLV>
12.1856

>  <SCORE.INTER.VDW>
-16.2496

>  <SCORE.INTER.norm>
-1.28816

>  <SCORE.INTRA>
0

>  <SCORE.INTRA.DIHEDRAL>
0

>  <SCORE.INTRA.DIHEDRAL.0>
0

>  <SCORE.INTRA.POLAR>
0

>  <SCORE.INTRA.POLAR.0>
0

>  <SCORE.INTRA.REPUL>
0

>  <SCORE.INTRA.REPUL.0>
0

>  <SCORE.INTRA.SOLV>
0

>  <SCORE.INTRA.SOLV.lig_0>
-23.8918

>  <SCORE.INTRA.VDW>
0

>  <SCORE.INTRA.VDW.0>
0

>  <SCORE.INTRA.norm>
0

>  <SCORE.RESTR>
0

>  <SCORE.RESTR.CAVITY>
0

>  <SCORE.RESTR.norm>
0

>  <SCORE.SYSTEM>
0

>  <SCORE.SYSTEM.CONST>
0

>  <SCORE.SYSTEM.DIHEDRAL>
0

>  <SCORE.SYSTEM.SOLV>
0

>  <SCORE.SYSTEM.norm>
0

>  <SCORE.heavy>
10

>  <SCORE.norm>
-1.28816

>  <RMSD>
2.432

$$$$
ligand
 OpenBabel11021811513D
libRbt.so/2013.1/901 2013/11/27
 10 11  0  0  0  0  0  0  0  0999 V2000
    6.0444   16.7094    2.5611 N   0  0  0  0  0  0  0  0  0  0  0  0
    5.3120   16.0042    3.4315 C   0  0  0  0  0  0  0  0  0  0  0  0
    4.9830   16.3050    4.6869 N   0  0  0  0  0  0  0  0  0  0  0  0
    5.4970   17.4926    5.0426 C   0  0  0  0  0  0  0  0  0  0  0  0
    6.2684   18.3306    4.2607 C   0  0  0  0  0  0  0  0  0  0  0  0
    6.5474   17.9002    2.9485 C   0  0  0  0  0  0  0  0  0  0  0  0
    7.2789   18.6078    2.0820 N   0  0  0  0  0  0  0  0  0  0  0  0
    6.6191   19.4719    4.9626 N   0  0  0  0  0  0  0  0  0  0  0  0
    6.0618   19.3022    6.1382 C   0  0  0  0  0  0  0  0  0  0  0  0
    5.3692   18.1292    6.2560 N   0  0  0  0  0  0  0  0  0  0  0  0
  1  2  2  0  0  0  0
  1  6  1  0  0  0  0
  2  3  1  0  0  0  0
  3  4  2  0  0  0  0
  4  5  1  0  0  0  0
  4 10  1  0  0  0  0
  5  6  2  0  0  0  0
  5  8  1  0  0  0  0
  6  7  1  0  0  0  0
  8  9  1  0  0  0  0
  9 10  2  0  0  0  0
M  END
>  <CHROM.1>
6.00277285,17.82679599,4.22724103,1.34402606,-0.97526518,-2.19202509

>  <Name>
ligand

>  <RI>
0

>  <Rbt.Current_Directory>
/home/itssahil/PROJECTS/Mol_Feturizer/New_Systems/rnas/4XNR

>  <Rbt.Executable>
rbdock ($Id: //depot/dev/client3/rdock/2013.1/src/exe/rbdock.cxx#4 $)

>  <Rbt.Library>
libRbt.so (2013.1, Build901 2013/11/27)

>  <Rbt.Parameter_File>
/export/apps/rDock/src/rDock_2013.1_src/data/scripts/dock_solv.prm

>  <Rbt.Receptor>
prm/blind_docking_40.prm

>  <SCORE>
-12.8746

>  <SCORE.INTER>
-12.8746

>  <SCORE.INTER.CONST>
1

>  <SCORE.INTER.POLAR>
0

>  <SCORE.INTER.ROT>
0

>  <SCORE.INTER.SOLV>
12.1877

>  <SCORE.INTER.VDW>
-16.2456

>  <SCORE.INTER.norm>
-1.28746

>  <SCORE.INTRA>
0

>  <SCORE.INTRA.DIHEDRAL>
0

>  <SCORE.INTRA.DIHEDRAL.0>
0

>  <SCORE.INTRA.POLAR>
0

>  <SCORE.INTRA.POLAR.0>
0

>  <SCORE.INTRA.REPUL>
0

>  <SCORE.INTRA.REPUL.0>
0

>  <SCORE.INTRA.SOLV>
0

>  <SCORE.INTRA.SOLV.lig_0>
-23.8918

>  <SCORE.INTRA.VDW>
0

>  <SCORE.INTRA.VDW.0>
0

>  <SCORE.INTRA.norm>
0

>  <SCORE.RESTR>
0

>  <SCORE.RESTR.CAVITY>
0

>  <SCORE.RESTR.norm>
0

>  <SCORE.SYSTEM>
0

>  <SCORE.SYSTEM.CONST>
0

>  <SCORE.SYSTEM.DIHEDRAL>
0

>  <SCORE.SYSTEM.SOLV>
0

>  <SCORE.SYSTEM.norm>
0

>  <SCORE.heavy>
10

>  <SCORE.norm>
-1.28746

>  <RMSD>
2.433

$$$$
ligand
 OpenBabel11021811513D
libRbt.so/2013.1/901 2013/11/27
 10 11  0  0  0  0  0  0  0  0999 V2000
    6.0774   16.7601    2.5567 N   0  0  0  0  0  0  0  0  0  0  0  0
    5.3751   16.0267    3.4286 C   0  0  0  0  0  0  0  0  0  0  0  0
    5.0491   16.3083    4.6892 N   0  0  0  0  0  0  0  0  0  0  0  0
    5.5301   17.5085    5.0489 C   0  0  0  0  0  0  0  0  0  0  0  0
    6.2681   18.3752    4.2661 C   0  0  0  0  0  0  0  0  0  0  0  0
    6.5476   17.9628    2.9482 C   0  0  0  0  0  0  0  0  0  0  0  0
    7.2490   18.6987    2.0802 N   0  0  0  0  0  0  0  0  0  0  0  0
    6.5906   19.5216    4.9732 N   0  0  0  0  0  0  0  0  0  0  0  0
    6.0500   19.3266    6.1526 C   0  0  0  0  0  0  0  0  0  0  0  0
    5.3945   18.1322    6.2681 N   0  0  0  0  0  0  0  0  0  0  0  0
  1  2  2  0  0  0  0
  1  6  1  0  0  0  0
  2  3  1  0  0  0  0
  3  4  2  0  0  0  0
  4  5  1  0  0  0  0
  4 10  1  0  0  0  0
  5  6  2  0  0  0  0
  5  8  1  0  0  0  0
  6  7  1  0  0  0  0
  8  9  1  0  0  0  0
  9 10  2  0  0  0  0
M  END
>  <CHROM.1>
6.01767886,17.86375867,4.23137428,1.32539357,-1.00546598,-2.20030293

>  <Name>
ligand

>  <RI>
0

>  <Rbt.Current_Directory>
/home/itssahil/PROJECTS/Mol_Feturizer/New_Systems/rnas/4XNR

>  <Rbt.Executable>
rbdock ($Id: //depot/dev/client3/rdock/2013.1/src/exe/rbdock.cxx#4 $)

>  <Rbt.Library>
libRbt.so (2013.1, Build901 2013/11/27)

>  <Rbt.Parameter_File>
/export/apps/rDock/src/rDock_2013.1_src/data/scripts/dock_solv.prm

>  <Rbt.Receptor>
prm/blind_docking_80.prm

>  <SCORE>
-12.8978

>  <SCORE.INTER>
-12.8978

>  <SCORE.INTER.CONST>
1

>  <SCORE.INTER.POLAR>
0

>  <SCORE.INTER.ROT>
0

>  <SCORE.INTER.SOLV>
12.3724

>  <SCORE.INTER.VDW>
-16.3227

>  <SCORE.INTER.norm>
-1.28978

>  <SCORE.INTRA>
0

>  <SCORE.INTRA.DIHEDRAL>
0

>  <SCORE.INTRA.DIHEDRAL.0>
0

>  <SCORE.INTRA.POLAR>
0

>  <SCORE.INTRA.POLAR.0>
0

>  <SCORE.INTRA.REPUL>
0

>  <SCORE.INTRA.REPUL.0>
0

>  <SCORE.INTRA.SOLV>
0

>  <SCORE.INTRA.SOLV.lig_0>
-23.8918

>  <SCORE.INTRA.VDW>
0

>  <SCORE.INTRA.VDW.0>
0

>  <SCORE.INTRA.norm>
0

>  <SCORE.RESTR>
0

>  <SCORE.RESTR.CAVITY>
0

>  <SCORE.RESTR.norm>
0

>  <SCORE.SYSTEM>
0

>  <SCORE.SYSTEM.CONST>
0

>  <SCORE.SYSTEM.DIHEDRAL>
0

>  <SCORE.SYSTEM.SOLV>
0

>  <SCORE.SYSTEM.norm>
0

>  <SCORE.heavy>
10

>  <SCORE.norm>
-1.28978

>  <RMSD>
2.433

$$$$
ligand
 OpenBabel11021811513D
libRbt.so/2013.1/901 2013/11/27
 10 11  0  0  0  0  0  0  0  0999 V2000
    6.0492   16.7613    2.5678 N   0  0  0  0  0  0  0  0  0  0  0  0
    5.3436   16.0313    3.4399 C   0  0  0  0  0  0  0  0  0  0  0  0
    5.0237   16.3123    4.7022 N   0  0  0  0  0  0  0  0  0  0  0  0
    5.5156   17.5075    5.0636 C   0  0  0  0  0  0  0  0  0  0  0  0
    6.2583   18.3702    4.2809 C   0  0  0  0  0  0  0  0  0  0  0  0
    6.5304   17.9591    2.9611 C   0  0  0  0  0  0  0  0  0  0  0  0
    7.2352   18.6915    2.0929 N   0  0  0  0  0  0  0  0  0  0  0  0
    6.5923   19.5121    4.9900 N   0  0  0  0  0  0  0  0  0  0  0  0
    6.0537   19.3183    6.1705 C   0  0  0  0  0  0  0  0  0  0  0  0
    5.3887   18.1291    6.2849 N   0  0  0  0  0  0  0  0  0  0  0  0
  1  2  2  0  0  0  0
  1  6  1  0  0  0  0
  2  3  1  0  0  0  0
  3  4  2  0  0  0  0
  4  5  1  0  0  0  0
  4 10  1  0  0  0  0
  5  6  2  0  0  0  0
  5  8  1  0  0  0  0
  6  7  1  0  0  0  0
  8  9  1  0  0  0  0
  9 10  2  0  0  0  0
M  END
>  <CHROM.1>
6.00358114,17.86095598,4.24556173,1.33884233,-1.00058339,-2.18632918

>  <Name>
ligand

>  <RI>
0

>  <Rbt.Current_Directory>
/home/itssahil/PROJECTS/Mol_Feturizer/New_Systems/rnas/4XNR

>  <Rbt.Executable>
rbdock ($Id: //depot/dev/client3/rdock/2013.1/src/exe/rbdock.cxx#4 $)

>  <Rbt.Library>
libRbt.so (2013.1, Build901 2013/11/27)

>  <Rbt.Parameter_File>
/export/apps/rDock/src/rDock_2013.1_src/data/scripts/dock_solv.prm

>  <Rbt.Receptor>
prm/blind_docking_80.prm

>  <SCORE>
-12.8747

>  <SCORE.INTER>
-12.8747

>  <SCORE.INTER.CONST>
1

>  <SCORE.INTER.POLAR>
0

>  <SCORE.INTER.ROT>
0

>  <SCORE.INTER.SOLV>
12.2955

>  <SCORE.INTER.VDW>
-16.2816

>  <SCORE.INTER.norm>
-1.28747

>  <SCORE.INTRA>
0

>  <SCORE.INTRA.DIHEDRAL>
0

>  <SCORE.INTRA.DIHEDRAL.0>
0

>  <SCORE.INTRA.POLAR>
0

>  <SCORE.INTRA.POLAR.0>
0

>  <SCORE.INTRA.REPUL>
0

>  <SCORE.INTRA.REPUL.0>
0

>  <SCORE.INTRA.SOLV>
0

>  <SCORE.INTRA.SOLV.lig_0>
-23.8918

>  <SCORE.INTRA.VDW>
0

>  <SCORE.INTRA.VDW.0>
0

>  <SCORE.INTRA.norm>
0

>  <SCORE.RESTR>
0

>  <SCORE.RESTR.CAVITY>
0

>  <SCORE.RESTR.norm>
0

>  <SCORE.SYSTEM>
0

>  <SCORE.SYSTEM.CONST>
0

>  <SCORE.SYSTEM.DIHEDRAL>
0

>  <SCORE.SYSTEM.SOLV>
0

>  <SCORE.SYSTEM.norm>
0

>  <SCORE.heavy>
10

>  <SCORE.norm>
-1.28747

>  <RMSD>
2.434

$$$$
ligand
 OpenBabel11021811513D
libRbt.so/2013.1/901 2013/11/27
 10 11  0  0  0  0  0  0  0  0999 V2000
    6.0546   16.7531    2.5643 N   0  0  0  0  0  0  0  0  0  0  0  0
    5.3415   16.0259    3.4327 C   0  0  0  0  0  0  0  0  0  0  0  0
    5.0126   16.3099    4.6919 N   0  0  0  0  0  0  0  0  0  0  0  0
    5.5033   17.5053    5.0544 C   0  0  0  0  0  0  0  0  0  0  0  0
    6.2529   18.3655    4.2754 C   0  0  0  0  0  0  0  0  0  0  0  0
    6.5343   17.9511    2.9585 C   0  0  0  0  0  0  0  0  0  0  0  0
    7.2464   18.6807    2.0940 N   0  0  0  0  0  0  0  0  0  0  0  0
    6.5830   19.5085    4.9845 N   0  0  0  0  0  0  0  0  0  0  0  0
    6.0354   19.3179    6.1614 C   0  0  0  0  0  0  0  0  0  0  0  0
    5.3681   18.1297    6.2733 N   0  0  0  0  0  0  0  0  0  0  0  0
  1  2  2  0  0  0  0
  1  6  1  0  0  0  0
  2  3  1  0  0  0  0
  3  4  2  0  0  0  0
  4  5  1  0  0  0  0
  4 10  1  0  0  0  0
  5  6  2  0  0  0  0
  5  8  1  0  0  0  0
  6  7  1  0  0  0  0
  8  9  1  0  0  0  0
  9 10  2  0  0  0  0
M  END
>  <CHROM.1>
5.99778996,17.85643006,4.23926099,1.32900378,-0.99524529,-2.19676655

>  <Name>
ligand

>  <RI>
0

>  <Rbt.Current_Directory>
/home/itssahil/PROJECTS/Mol_Feturizer/New_Systems/rnas/4XNR

>  <Rbt.Executable>
rbdock ($Id: //depot/dev/client3/rdock/2013.1/src/exe/rbdock.cxx#4 $)

>  <Rbt.Library>
libRbt.so (2013.1, Build901 2013/11/27)

>  <Rbt.Parameter_File>
/export/apps/rDock/src/rDock_2013.1_src/data/scripts/dock_solv.prm

>  <Rbt.Receptor>
prm/blind_docking_80.prm

>  <SCORE>
-12.876

>  <SCORE.INTER>
-12.876

>  <SCORE.INTER.CONST>
1

>  <SCORE.INTER.POLAR>
0

>  <SCORE.INTER.ROT>
0

>  <SCORE.INTER.SOLV>
12.2898

>  <SCORE.INTER.VDW>
-16.2806

>  <SCORE.INTER.norm>
-1.2876

>  <SCORE.INTRA>
0

>  <SCORE.INTRA.DIHEDRAL>
0

>  <SCORE.INTRA.DIHEDRAL.0>
0

>  <SCORE.INTRA.POLAR>
0

>  <SCORE.INTRA.POLAR.0>
0

>  <SCORE.INTRA.REPUL>
0

>  <SCORE.INTRA.REPUL.0>
0

>  <SCORE.INTRA.SOLV>
0

>  <SCORE.INTRA.SOLV.lig_0>
-23.8918

>  <SCORE.INTRA.VDW>
0

>  <SCORE.INTRA.VDW.0>
0

>  <SCORE.INTRA.norm>
0

>  <SCORE.RESTR>
0

>  <SCORE.RESTR.CAVITY>
0

>  <SCORE.RESTR.norm>
0

>  <SCORE.SYSTEM>
0

>  <SCORE.SYSTEM.CONST>
0

>  <SCORE.SYSTEM.DIHEDRAL>
0

>  <SCORE.SYSTEM.SOLV>
0

>  <SCORE.SYSTEM.norm>
0

>  <SCORE.heavy>
10

>  <SCORE.norm>
-1.2876

>  <RMSD>
2.434

$$$$
ligand
 OpenBabel11021811513D
libRbt.so/2013.1/901 2013/11/27
 10 11  0  0  0  0  0  0  0  0999 V2000
    6.0494   16.7512    2.5665 N   0  0  0  0  0  0  0  0  0  0  0  0
    5.3409   16.0225    3.4373 C   0  0  0  0  0  0  0  0  0  0  0  0
    5.0161   16.3056    4.6979 N   0  0  0  0  0  0  0  0  0  0  0  0
    5.5060   17.5017    5.0589 C   0  0  0  0  0  0  0  0  0  0  0  0
    6.2513   18.3634    4.2774 C   0  0  0  0  0  0  0  0  0  0  0  0
    6.5286   17.9500    2.9594 C   0  0  0  0  0  0  0  0  0  0  0  0
    7.2362   18.6811    2.0925 N   0  0  0  0  0  0  0  0  0  0  0  0
    6.5821   19.5067    4.9857 N   0  0  0  0  0  0  0  0  0  0  0  0
    6.0391   19.3149    6.1645 C   0  0  0  0  0  0  0  0  0  0  0  0
    5.3743   18.1255    6.2785 N   0  0  0  0  0  0  0  0  0  0  0  0
  1  2  2  0  0  0  0
  1  6  1  0  0  0  0
  2  3  1  0  0  0  0
  3  4  2  0  0  0  0
  4  5  1  0  0  0  0
  4 10  1  0  0  0  0
  5  6  2  0  0  0  0
  5  8  1  0  0  0  0
  6  7  1  0  0  0  0
  8  9  1  0  0  0  0
  9 10  2  0  0  0  0
M  END
>  <CHROM.1>
5.99694627,17.85391888,4.24206451,1.33266313,-0.99879851,-2.19336446

>  <Name>
ligand

>  <RI>
0

>  <Rbt.Current_Directory>
/home/itssahil/PROJECTS/Mol_Feturizer/New_Systems/rnas/4XNR

>  <Rbt.Executable>
rbdock ($Id: //depot/dev/client3/rdock/2013.1/src/exe/rbdock.cxx#4 $)

>  <Rbt.Library>
libRbt.so (2013.1, Build901 2013/11/27)

>  <Rbt.Parameter_File>
/export/apps/rDock/src/rDock_2013.1_src/data/scripts/dock_solv.prm

>  <Rbt.Receptor>
prm/pocket_docking_3.prm

>  <SCORE>
-12.8778

>  <SCORE.INTER>
-12.8778

>  <SCORE.INTER.CONST>
1

>  <SCORE.INTER.POLAR>
0

>  <SCORE.INTER.ROT>
0

>  <SCORE.INTER.SOLV>
12.2748

>  <SCORE.INTER.VDW>
-16.2768

>  <SCORE.INTER.norm>
-1.28778

>  <SCORE.INTRA>
0

>  <SCORE.INTRA.DIHEDRAL>
0

>  <SCORE.INTRA.DIHEDRAL.0>
0

>  <SCORE.INTRA.POLAR>
0

>  <SCORE.INTRA.POLAR.0>
0

>  <SCORE.INTRA.REPUL>
0

>  <SCORE.INTRA.REPUL.0>
0

>  <SCORE.INTRA.SOLV>
0

>  <SCORE.INTRA.SOLV.lig_0>
-23.8918

>  <SCORE.INTRA.VDW>
0

>  <SCORE.INTRA.VDW.0>
0

>  <SCORE.INTRA.norm>
0

>  <SCORE.RESTR>
0

>  <SCORE.RESTR.CAVITY>
0

>  <SCORE.RESTR.norm>
0

>  <SCORE.SYSTEM>
0

>  <SCORE.SYSTEM.CONST>
0

>  <SCORE.SYSTEM.DIHEDRAL>
0

>  <SCORE.SYSTEM.SOLV>
0

>  <SCORE.SYSTEM.norm>
0

>  <SCORE.heavy>
10

>  <SCORE.norm>
-1.28778

>  <RMSD>
2.434

$$$$
ligand
 OpenBabel11021811513D
libRbt.so/2013.1/901 2013/11/27
 10 11  0  0  0  0  0  0  0  0999 V2000
    6.0541   16.7578    2.5653 N   0  0  0  0  0  0  0  0  0  0  0  0
    5.3459   16.0277    3.4352 C   0  0  0  0  0  0  0  0  0  0  0  0
    5.0218   16.3088    4.6965 N   0  0  0  0  0  0  0  0  0  0  0  0
    5.5121   17.5042    5.0592 C   0  0  0  0  0  0  0  0  0  0  0  0
    6.2570   18.3671    4.2787 C   0  0  0  0  0  0  0  0  0  0  0  0
    6.5335   17.9559    2.9599 C   0  0  0  0  0  0  0  0  0  0  0  0
    7.2408   18.6883    2.0938 N   0  0  0  0  0  0  0  0  0  0  0  0
    6.5883   19.5093    4.9887 N   0  0  0  0  0  0  0  0  0  0  0  0
    6.0459   19.3155    6.1675 C   0  0  0  0  0  0  0  0  0  0  0  0
    5.3811   18.1260    6.2799 N   0  0  0  0  0  0  0  0  0  0  0  0
  1  2  2  0  0  0  0
  1  6  1  0  0  0  0
  2  3  1  0  0  0  0
  3  4  2  0  0  0  0
  4  5  1  0  0  0  0
  4 10  1  0  0  0  0
  5  6  2  0  0  0  0
  5  8  1  0  0  0  0
  6  7  1  0  0  0  0
  8  9  1  0  0  0  0
  9 10  2  0  0  0  0
M  END
>  <CHROM.1>
6.00259596,17.85774563,4.24267796,1.33357020,-0.99902693,-2.19095214

>  <Name>
ligand

>  <RI>
0

>  <Rbt.Current_Directory>
/home/itssahil/PROJECTS/Mol_Feturizer/New_Systems/rnas/4XNR

>  <Rbt.Executable>
rbdock ($Id: //depot/dev/client3/rdock/2013.1/src/exe/rbdock.cxx#4 $)

>  <Rbt.Library>
libRbt.so (2013.1, Build901 2013/11/27)

>  <Rbt.Parameter_File>
/export/apps/rDock/src/rDock_2013.1_src/data/scripts/dock_solv.prm

>  <Rbt.Receptor>
prm/pocket_docking_7.prm

>  <SCORE>
-12.8761

>  <SCORE.INTER>
-12.8761

>  <SCORE.INTER.CONST>
1

>  <SCORE.INTER.POLAR>
0

>  <SCORE.INTER.ROT>
0

>  <SCORE.INTER.SOLV>
12.299

>  <SCORE.INTER.VDW>
-16.2837

>  <SCORE.INTER.norm>
-1.28761

>  <SCORE.INTRA>
0

>  <SCORE.INTRA.DIHEDRAL>
0

>  <SCORE.INTRA.DIHEDRAL.0>
0

>  <SCORE.INTRA.POLAR>
0

>  <SCORE.INTRA.POLAR.0>
0

>  <SCORE.INTRA.REPUL>
0

>  <SCORE.INTRA.REPUL.0>
0

>  <SCORE.INTRA.SOLV>
0

>  <SCORE.INTRA.SOLV.lig_0>
-23.8918

>  <SCORE.INTRA.VDW>
0

>  <SCORE.INTRA.VDW.0>
0

>  <SCORE.INTRA.norm>
0

>  <SCORE.RESTR>
0

>  <SCORE.RESTR.CAVITY>
0

>  <SCORE.RESTR.norm>
0

>  <SCORE.SYSTEM>
0

>  <SCORE.SYSTEM.CONST>
0

>  <SCORE.SYSTEM.DIHEDRAL>
0

>  <SCORE.SYSTEM.SOLV>
0

>  <SCORE.SYSTEM.norm>
0

>  <SCORE.heavy>
10

>  <SCORE.norm>
-1.28761

>  <RMSD>
2.434

$$$$
ligand
 OpenBabel11021811513D
libRbt.so/2013.1/901 2013/11/27
 10 11  0  0  0  0  0  0  0  0999 V2000
    6.0283   16.6682    2.5612 N   0  0  0  0  0  0  0  0  0  0  0  0
    5.3107   15.9485    3.4321 C   0  0  0  0  0  0  0  0  0  0  0  0
    4.9868   16.2371    4.6916 N   0  0  0  0  0  0  0  0  0  0  0  0
    5.4886   17.4287    5.0514 C   0  0  0  0  0  0  0  0  0  0  0  0
    6.2442   18.2812    4.2696 C   0  0  0  0  0  0  0  0  0  0  0  0
    6.5193   17.8626    2.9528 C   0  0  0  0  0  0  0  0  0  0  0  0
    7.2359   18.5848    2.0858 N   0  0  0  0  0  0  0  0  0  0  0  0
    6.5857   19.4223    4.9765 N   0  0  0  0  0  0  0  0  0  0  0  0
    6.0388   19.2381    6.1547 C   0  0  0  0  0  0  0  0  0  0  0  0
    5.3614   18.0560    6.2697 N   0  0  0  0  0  0  0  0  0  0  0  0
  1  2  2  0  0  0  0
  1  6  1  0  0  0  0
  2  3  1  0  0  0  0
  3  4  2  0  0  0  0
  4  5  1  0  0  0  0
  4 10  1  0  0  0  0
  5  6  2  0  0  0  0
  5  8  1  0  0  0  0
  6  7  1  0  0  0  0
  8  9  1  0  0  0  0
  9 10  2  0  0  0  0
M  END
>  <CHROM.1>
5.98454999,17.77435561,4.23475745,1.34130242,-0.98933059,-2.18786395

>  <Name>
ligand

>  <RI>
0

>  <Rbt.Current_Directory>
/home/itssahil/PROJECTS/Mol_Feturizer/New_Systems/rnas/4XNR

>  <Rbt.Executable>
rbdock ($Id: //depot/dev/client3/rdock/2013.1/src/exe/rbdock.cxx#4 $)

>  <Rbt.Library>
libRbt.so (2013.1, Build901 2013/11/27)

>  <Rbt.Parameter_File>
/export/apps/rDock/src/rDock_2013.1_src/data/scripts/dock_solv.prm

>  <Rbt.Receptor>
prm/blind_docking_60.prm

>  <SCORE>
-12.8684

>  <SCORE.INTER>
-12.8684

>  <SCORE.INTER.CONST>
1

>  <SCORE.INTER.POLAR>
0

>  <SCORE.INTER.ROT>
0

>  <SCORE.INTER.SOLV>
12.0707

>  <SCORE.INTER.VDW>
-16.2025

>  <SCORE.INTER.norm>
-1.28684

>  <SCORE.INTRA>
0

>  <SCORE.INTRA.DIHEDRAL>
0

>  <SCORE.INTRA.DIHEDRAL.0>
0

>  <SCORE.INTRA.POLAR>
0

>  <SCORE.INTRA.POLAR.0>
0

>  <SCORE.INTRA.REPUL>
0

>  <SCORE.INTRA.REPUL.0>
0

>  <SCORE.INTRA.SOLV>
0

>  <SCORE.INTRA.SOLV.lig_0>
-23.8918

>  <SCORE.INTRA.VDW>
0

>  <SCORE.INTRA.VDW.0>
0

>  <SCORE.INTRA.norm>
0

>  <SCORE.RESTR>
0

>  <SCORE.RESTR.CAVITY>
0

>  <SCORE.RESTR.norm>
0

>  <SCORE.SYSTEM>
0

>  <SCORE.SYSTEM.CONST>
0

>  <SCORE.SYSTEM.DIHEDRAL>
0

>  <SCORE.SYSTEM.SOLV>
0

>  <SCORE.SYSTEM.norm>
0

>  <SCORE.heavy>
10

>  <SCORE.norm>
-1.28684

>  <RMSD>
2.435

$$$$
ligand
 OpenBabel11021811513D
libRbt.so/2013.1/901 2013/11/27
 10 11  0  0  0  0  0  0  0  0999 V2000
    6.0751   16.7920    2.5645 N   0  0  0  0  0  0  0  0  0  0  0  0
    5.3802   16.0487    3.4339 C   0  0  0  0  0  0  0  0  0  0  0  0
    5.0585   16.3192    4.6980 N   0  0  0  0  0  0  0  0  0  0  0  0
    5.5355   17.5188    5.0647 C   0  0  0  0  0  0  0  0  0  0  0  0
    6.2660   18.3949    4.2854 C   0  0  0  0  0  0  0  0  0  0  0  0
    6.5414   17.9940    2.9631 C   0  0  0  0  0  0  0  0  0  0  0  0
    7.2354   18.7396    2.0977 N   0  0  0  0  0  0  0  0  0  0  0  0
    6.5863   19.5375    4.9997 N   0  0  0  0  0  0  0  0  0  0  0  0
    6.0519   19.3309    6.1800 C   0  0  0  0  0  0  0  0  0  0  0  0
    5.4025   18.1326    6.2893 N   0  0  0  0  0  0  0  0  0  0  0  0
  1  2  2  0  0  0  0
  1  6  1  0  0  0  0
  2  3  1  0  0  0  0
  3  4  2  0  0  0  0
  4  5  1  0  0  0  0
  4 10  1  0  0  0  0
  5  6  2  0  0  0  0
  5  8  1  0  0  0  0
  6  7  1  0  0  0  0
  8  9  1  0  0  0  0
  9 10  2  0  0  0  0
M  END
>  <CHROM.1>
6.01775220,17.88260616,4.24783343,1.32705231,-1.01188773,-2.19127865

>  <Name>
ligand

>  <RI>
0

>  <Rbt.Current_Directory>
/home/itssahil/PROJECTS/Mol_Feturizer/New_Systems/rnas/4XNR

>  <Rbt.Executable>
rbdock ($Id: //depot/dev/client3/rdock/2013.1/src/exe/rbdock.cxx#4 $)

>  <Rbt.Library>
libRbt.so (2013.1, Build901 2013/11/27)

>  <Rbt.Parameter_File>
/export/apps/rDock/src/rDock_2013.1_src/data/scripts/dock_solv.prm

>  <Rbt.Receptor>
prm/blind_docking_80.prm

>  <SCORE>
-12.8833

>  <SCORE.INTER>
-12.8833

>  <SCORE.INTER.CONST>
1

>  <SCORE.INTER.POLAR>
0

>  <SCORE.INTER.ROT>
0

>  <SCORE.INTER.SOLV>
12.4348

>  <SCORE.INTER.VDW>
-16.3338

>  <SCORE.INTER.norm>
-1.28833

>  <SCORE.INTRA>
0

>  <SCORE.INTRA.DIHEDRAL>
0

>  <SCORE.INTRA.DIHEDRAL.0>
0

>  <SCORE.INTRA.POLAR>
0

>  <SCORE.INTRA.POLAR.0>
0

>  <SCORE.INTRA.REPUL>
0

>  <SCORE.INTRA.REPUL.0>
0

>  <SCORE.INTRA.SOLV>
0

>  <SCORE.INTRA.SOLV.lig_0>
-23.8918

>  <SCORE.INTRA.VDW>
0

>  <SCORE.INTRA.VDW.0>
0

>  <SCORE.INTRA.norm>
0

>  <SCORE.RESTR>
0

>  <SCORE.RESTR.CAVITY>
0

>  <SCORE.RESTR.norm>
0

>  <SCORE.SYSTEM>
0

>  <SCORE.SYSTEM.CONST>
0

>  <SCORE.SYSTEM.DIHEDRAL>
0

>  <SCORE.SYSTEM.SOLV>
0

>  <SCORE.SYSTEM.norm>
0

>  <SCORE.heavy>
10

>  <SCORE.norm>
-1.28833

>  <RMSD>
2.435

$$$$
ligand
 OpenBabel11021811513D
libRbt.so/2013.1/901 2013/11/27
 10 11  0  0  0  0  0  0  0  0999 V2000
    6.0270   16.7933    2.5851 N   0  0  0  0  0  0  0  0  0  0  0  0
    5.3229   16.0747    3.4678 C   0  0  0  0  0  0  0  0  0  0  0  0
    5.0196   16.3643    4.7322 N   0  0  0  0  0  0  0  0  0  0  0  0
    5.5283   17.5556    5.0832 C   0  0  0  0  0  0  0  0  0  0  0  0
    6.2719   18.4070    4.2890 C   0  0  0  0  0  0  0  0  0  0  0  0
    6.5254   17.9874    2.9681 C   0  0  0  0  0  0  0  0  0  0  0  0
    7.2287   18.7085    2.0893 N   0  0  0  0  0  0  0  0  0  0  0  0
    6.6259   19.5481    4.9896 N   0  0  0  0  0  0  0  0  0  0  0  0
    6.0979   19.3651    6.1766 C   0  0  0  0  0  0  0  0  0  0  0  0
    5.4214   18.1836    6.3031 N   0  0  0  0  0  0  0  0  0  0  0  0
  1  2  2  0  0  0  0
  1  6  1  0  0  0  0
  2  3  1  0  0  0  0
  3  4  2  0  0  0  0
  4  5  1  0  0  0  0
  4 10  1  0  0  0  0
  5  6  2  0  0  0  0
  5  8  1  0  0  0  0
  6  7  1  0  0  0  0
  8  9  1  0  0  0  0
  9 10  2  0  0  0  0
M  END
>  <CHROM.1>
6.01132212,17.90035646,4.25852978,1.36657138,-0.99774381,-2.16720733

>  <Name>
ligand

>  <RI>
0

>  <Rbt.Current_Directory>
/home/itssahil/PROJECTS/Mol_Feturizer/New_Systems/rnas/4XNR

>  <Rbt.Executable>
rbdock ($Id: //depot/dev/client3/rdock/2013.1/src/exe/rbdock.cxx#4 $)

>  <Rbt.Library>
libRbt.so (2013.1, Build901 2013/11/27)

>  <Rbt.Parameter_File>
/export/apps/rDock/src/rDock_2013.1_src/data/scripts/dock_solv.prm

>  <Rbt.Receptor>
prm/pocket_docking_4.prm

>  <SCORE>
-12.8445

>  <SCORE.INTER>
-12.8445

>  <SCORE.INTER.CONST>
1

>  <SCORE.INTER.POLAR>
0

>  <SCORE.INTER.ROT>
0

>  <SCORE.INTER.SOLV>
12.3153

>  <SCORE.INTER.VDW>
-16.2681

>  <SCORE.INTER.norm>
-1.28445

>  <SCORE.INTRA>
0

>  <SCORE.INTRA.DIHEDRAL>
0

>  <SCORE.INTRA.DIHEDRAL.0>
0

>  <SCORE.INTRA.POLAR>
0

>  <SCORE.INTRA.POLAR.0>
0

>  <SCORE.INTRA.REPUL>
0

>  <SCORE.INTRA.REPUL.0>
0

>  <SCORE.INTRA.SOLV>
0

>  <SCORE.INTRA.SOLV.lig_0>
-23.8918

>  <SCORE.INTRA.VDW>
0

>  <SCORE.INTRA.VDW.0>
0

>  <SCORE.INTRA.norm>
0

>  <SCORE.RESTR>
0

>  <SCORE.RESTR.CAVITY>
0

>  <SCORE.RESTR.norm>
0

>  <SCORE.SYSTEM>
0

>  <SCORE.SYSTEM.CONST>
0

>  <SCORE.SYSTEM.DIHEDRAL>
0

>  <SCORE.SYSTEM.SOLV>
0

>  <SCORE.SYSTEM.norm>
0

>  <SCORE.heavy>
10

>  <SCORE.norm>
-1.28445

>  <RMSD>
2.436

$$$$
ligand
 OpenBabel11021811513D
libRbt.so/2013.1/901 2013/11/27
 10 11  0  0  0  0  0  0  0  0999 V2000
    5.0905   17.6377    5.3789 N   0  0  0  0  0  0  0  0  0  0  0  0
    5.9375   18.6542    5.5803 C   0  0  0  0  0  0  0  0  0  0  0  0
    6.7741   19.2311    4.7189 N   0  0  0  0  0  0  0  0  0  0  0  0
    6.6887   18.6519    3.5113 C   0  0  0  0  0  0  0  0  0  0  0  0
    5.8683   17.6002    3.1516 C   0  0  0  0  0  0  0  0  0  0  0  0
    5.0274   17.0763    4.1534 C   0  0  0  0  0  0  0  0  0  0  0  0
    4.1823   16.0613    3.9479 N   0  0  0  0  0  0  0  0  0  0  0  0
    6.0510   17.2684    1.8194 N   0  0  0  0  0  0  0  0  0  0  0  0
    6.9663   18.1133    1.4073 C   0  0  0  0  0  0  0  0  0  0  0  0
    7.3961   18.9768    2.3764 N   0  0  0  0  0  0  0  0  0  0  0  0
  1  2  2  0  0  0  0
  1  6  1  0  0  0  0
  2  3  1  0  0  0  0
  3  4  2  0  0  0  0
  4  5  1  0  0  0  0
  4 10  1  0  0  0  0
  5  6  2  0  0  0  0
  5  8  1  0  0  0  0
  6  7  1  0  0  0  0
  8  9  1  0  0  0  0
  9 10  2  0  0  0  0
M  END
>  <CHROM.1>
5.99061045,17.92004571,3.60789672,-2.45808735,-0.79733225,-1.95277164

>  <Name>
ligand

>  <RI>
0

>  <Rbt.Current_Directory>
/home/itssahil/PROJECTS/Mol_Feturizer/New_Systems/rnas/4XNR

>  <Rbt.Executable>
rbdock ($Id: //depot/dev/client3/rdock/2013.1/src/exe/rbdock.cxx#4 $)

>  <Rbt.Library>
libRbt.so (2013.1, Build901 2013/11/27)

>  <Rbt.Parameter_File>
/export/apps/rDock/src/rDock_2013.1_src/data/scripts/dock_solv.prm

>  <Rbt.Receptor>
prm/pocket_docking_5.prm

>  <SCORE>
-13.3262

>  <SCORE.INTER>
-13.3262

>  <SCORE.INTER.CONST>
1

>  <SCORE.INTER.POLAR>
0

>  <SCORE.INTER.ROT>
0

>  <SCORE.INTER.SOLV>
7.6728

>  <SCORE.INTER.VDW>
-15.0417

>  <SCORE.INTER.norm>
-1.33262

>  <SCORE.INTRA>
0

>  <SCORE.INTRA.DIHEDRAL>
0

>  <SCORE.INTRA.DIHEDRAL.0>
0

>  <SCORE.INTRA.POLAR>
0

>  <SCORE.INTRA.POLAR.0>
0

>  <SCORE.INTRA.REPUL>
0

>  <SCORE.INTRA.REPUL.0>
0

>  <SCORE.INTRA.SOLV>
0

>  <SCORE.INTRA.SOLV.lig_0>
-23.8918

>  <SCORE.INTRA.VDW>
0

>  <SCORE.INTRA.VDW.0>
0

>  <SCORE.INTRA.norm>
0

>  <SCORE.RESTR>
0

>  <SCORE.RESTR.CAVITY>
0

>  <SCORE.RESTR.norm>
0

>  <SCORE.SYSTEM>
0

>  <SCORE.SYSTEM.CONST>
0

>  <SCORE.SYSTEM.DIHEDRAL>
0

>  <SCORE.SYSTEM.SOLV>
0

>  <SCORE.SYSTEM.norm>
0

>  <SCORE.heavy>
10

>  <SCORE.norm>
-1.33262

>  <RMSD>
2.839

$$$$
ligand
 OpenBabel11021811513D
libRbt.so/2013.1/901 2013/11/27
 10 11  0  0  0  0  0  0  0  0999 V2000
    5.0888   17.6892    5.3993 N   0  0  0  0  0  0  0  0  0  0  0  0
    5.9810   18.6654    5.6052 C   0  0  0  0  0  0  0  0  0  0  0  0
    6.8419   19.2088    4.7460 N   0  0  0  0  0  0  0  0  0  0  0  0
    6.7294   18.6405    3.5354 C   0  0  0  0  0  0  0  0  0  0  0  0
    5.8620   17.6288    3.1709 C   0  0  0  0  0  0  0  0  0  0  0  0
    4.9994   17.1379    4.1709 C   0  0  0  0  0  0  0  0  0  0  0  0
    4.1093   16.1631    3.9609 N   0  0  0  0  0  0  0  0  0  0  0  0
    6.0284   17.2965    1.8367 N   0  0  0  0  0  0  0  0  0  0  0  0
    6.9805   18.1015    1.4281 C   0  0  0  0  0  0  0  0  0  0  0  0
    7.4496   18.9395    2.4014 N   0  0  0  0  0  0  0  0  0  0  0  0
  1  2  2  0  0  0  0
  1  6  1  0  0  0  0
  2  3  1  0  0  0  0
  3  4  2  0  0  0  0
  4  5  1  0  0  0  0
  4 10  1  0  0  0  0
  5  6  2  0  0  0  0
  5  8  1  0  0  0  0
  6  7  1  0  0  0  0
  8  9  1  0  0  0  0
  9 10  2  0  0  0  0
M  END
>  <CHROM.1>
5.99909029,17.94039295,3.62881483,-2.43382123,-0.75573156,-1.93033373

>  <Name>
ligand

>  <RI>
0

>  <Rbt.Current_Directory>
/home/itssahil/PROJECTS/Mol_Feturizer/New_Systems/rnas/4XNR

>  <Rbt.Executable>
rbdock ($Id: //depot/dev/client3/rdock/2013.1/src/exe/rbdock.cxx#4 $)

>  <Rbt.Library>
libRbt.so (2013.1, Build901 2013/11/27)

>  <Rbt.Parameter_File>
/export/apps/rDock/src/rDock_2013.1_src/data/scripts/dock_solv.prm

>  <Rbt.Receptor>
prm/pocket_docking_3.prm

>  <SCORE>
-13.3214

>  <SCORE.INTER>
-13.3214

>  <SCORE.INTER.CONST>
1

>  <SCORE.INTER.POLAR>
0

>  <SCORE.INTER.ROT>
0

>  <SCORE.INTER.SOLV>
7.51334

>  <SCORE.INTER.VDW>
-14.9854

>  <SCORE.INTER.norm>
-1.33214

>  <SCORE.INTRA>
0

>  <SCORE.INTRA.DIHEDRAL>
0

>  <SCORE.INTRA.DIHEDRAL.0>
0

>  <SCORE.INTRA.POLAR>
0

>  <SCORE.INTRA.POLAR.0>
0

>  <SCORE.INTRA.REPUL>
0

>  <SCORE.INTRA.REPUL.0>
0

>  <SCORE.INTRA.SOLV>
0

>  <SCORE.INTRA.SOLV.lig_0>
-23.8918

>  <SCORE.INTRA.VDW>
0

>  <SCORE.INTRA.VDW.0>
0

>  <SCORE.INTRA.norm>
0

>  <SCORE.RESTR>
0

>  <SCORE.RESTR.CAVITY>
0

>  <SCORE.RESTR.norm>
0

>  <SCORE.SYSTEM>
0

>  <SCORE.SYSTEM.CONST>
0

>  <SCORE.SYSTEM.DIHEDRAL>
0

>  <SCORE.SYSTEM.SOLV>
0

>  <SCORE.SYSTEM.norm>
0

>  <SCORE.heavy>
10

>  <SCORE.norm>
-1.33214

>  <RMSD>
2.843

$$$$
ligand
 OpenBabel11021811513D
libRbt.so/2013.1/901 2013/11/27
 10 11  0  0  0  0  0  0  0  0999 V2000
    5.0822   17.7603    5.4166 N   0  0  0  0  0  0  0  0  0  0  0  0
    5.9573   18.7588    5.5855 C   0  0  0  0  0  0  0  0  0  0  0  0
    6.8018   19.2912    4.7033 N   0  0  0  0  0  0  0  0  0  0  0  0
    6.6913   18.6838    3.5117 C   0  0  0  0  0  0  0  0  0  0  0  0
    5.8405   17.6454    3.1852 C   0  0  0  0  0  0  0  0  0  0  0  0
    4.9944   17.1697    4.2064 C   0  0  0  0  0  0  0  0  0  0  0  0
    4.1212   16.1725    4.0335 N   0  0  0  0  0  0  0  0  0  0  0  0
    6.0036   17.2751    1.8607 N   0  0  0  0  0  0  0  0  0  0  0  0
    6.9375   18.0845    1.4202 C   0  0  0  0  0  0  0  0  0  0  0  0
    7.3977   18.9608    2.3635 N   0  0  0  0  0  0  0  0  0  0  0  0
  1  2  2  0  0  0  0
  1  6  1  0  0  0  0
  2  3  1  0  0  0  0
  3  4  2  0  0  0  0
  4  5  1  0  0  0  0
  4 10  1  0  0  0  0
  5  6  2  0  0  0  0
  5  8  1  0  0  0  0
  6  7  1  0  0  0  0
  8  9  1  0  0  0  0
  9 10  2  0  0  0  0
M  END
>  <CHROM.1>
5.97496366,17.97344757,3.63226120,-2.43373955,-0.77579404,-1.96114299

>  <Name>
ligand

>  <RI>
0

>  <Rbt.Current_Directory>
/home/itssahil/PROJECTS/Mol_Feturizer/New_Systems/rnas/4XNR

>  <Rbt.Executable>
rbdock ($Id: //depot/dev/client3/rdock/2013.1/src/exe/rbdock.cxx#4 $)

>  <Rbt.Library>
libRbt.so (2013.1, Build901 2013/11/27)

>  <Rbt.Parameter_File>
/export/apps/rDock/src/rDock_2013.1_src/data/scripts/dock_solv.prm

>  <Rbt.Receptor>
prm/pocket_docking_5.prm

>  <SCORE>
-13.3508

>  <SCORE.INTER>
-13.3509

>  <SCORE.INTER.CONST>
1

>  <SCORE.INTER.POLAR>
0

>  <SCORE.INTER.ROT>
0

>  <SCORE.INTER.SOLV>
7.76522

>  <SCORE.INTER.VDW>
-15.089

>  <SCORE.INTER.norm>
-1.33509

>  <SCORE.INTRA>
0

>  <SCORE.INTRA.DIHEDRAL>
0

>  <SCORE.INTRA.DIHEDRAL.0>
0

>  <SCORE.INTRA.POLAR>
0

>  <SCORE.INTRA.POLAR.0>
0

>  <SCORE.INTRA.REPUL>
0

>  <SCORE.INTRA.REPUL.0>
0

>  <SCORE.INTRA.SOLV>
0

>  <SCORE.INTRA.SOLV.lig_0>
-23.8918

>  <SCORE.INTRA.VDW>
0

>  <SCORE.INTRA.VDW.0>
0

>  <SCORE.INTRA.norm>
0

>  <SCORE.RESTR>
2.51827e-05

>  <SCORE.RESTR.CAVITY>
2.51827e-05

>  <SCORE.RESTR.norm>
2.51827e-06

>  <SCORE.SYSTEM>
0

>  <SCORE.SYSTEM.CONST>
0

>  <SCORE.SYSTEM.DIHEDRAL>
0

>  <SCORE.SYSTEM.SOLV>
0

>  <SCORE.SYSTEM.norm>
0

>  <SCORE.heavy>
10

>  <SCORE.norm>
-1.33508

>  <RMSD>
2.848

$$$$
ligand
 OpenBabel11021811513D
libRbt.so/2013.1/901 2013/11/27
 10 11  0  0  0  0  0  0  0  0999 V2000
    5.0918   17.7970    5.4299 N   0  0  0  0  0  0  0  0  0  0  0  0
    5.9773   18.7874    5.5917 C   0  0  0  0  0  0  0  0  0  0  0  0
    6.8272   19.3047    4.7058 N   0  0  0  0  0  0  0  0  0  0  0  0
    6.7101   18.6903    3.5184 C   0  0  0  0  0  0  0  0  0  0  0  0
    5.8485   17.6586    3.1993 C   0  0  0  0  0  0  0  0  0  0  0  0
    4.9976   17.1989    4.2238 C   0  0  0  0  0  0  0  0  0  0  0  0
    4.1140   16.2098    4.0579 N   0  0  0  0  0  0  0  0  0  0  0  0
    6.0074   17.2774    1.8773 N   0  0  0  0  0  0  0  0  0  0  0  0
    6.9496   18.0740    1.4311 C   0  0  0  0  0  0  0  0  0  0  0  0
    7.4192   18.9519    2.3683 N   0  0  0  0  0  0  0  0  0  0  0  0
  1  2  2  0  0  0  0
  1  6  1  0  0  0  0
  2  3  1  0  0  0  0
  3  4  2  0  0  0  0
  4  5  1  0  0  0  0
  4 10  1  0  0  0  0
  5  6  2  0  0  0  0
  5  8  1  0  0  0  0
  6  7  1  0  0  0  0
  8  9  1  0  0  0  0
  9 10  2  0  0  0  0
M  END
>  <CHROM.1>
5.98642132,17.98835057,3.64400500,-2.42798120,-0.76617300,-1.96405751

>  <Name>
ligand

>  <RI>
0

>  <Rbt.Current_Directory>
/home/itssahil/PROJECTS/Mol_Feturizer/New_Systems/rnas/4XNR

>  <Rbt.Executable>
rbdock ($Id: //depot/dev/client3/rdock/2013.1/src/exe/rbdock.cxx#4 $)

>  <Rbt.Library>
libRbt.so (2013.1, Build901 2013/11/27)

>  <Rbt.Parameter_File>
/export/apps/rDock/src/rDock_2013.1_src/data/scripts/dock_solv.prm

>  <Rbt.Receptor>
prm/pocket_docking_5.prm

>  <SCORE>
-13.3762

>  <SCORE.INTER>
-13.3762

>  <SCORE.INTER.CONST>
1

>  <SCORE.INTER.POLAR>
0

>  <SCORE.INTER.ROT>
0

>  <SCORE.INTER.SOLV>
7.79706

>  <SCORE.INTER.VDW>
-15.1165

>  <SCORE.INTER.norm>
-1.33762

>  <SCORE.INTRA>
0

>  <SCORE.INTRA.DIHEDRAL>
0

>  <SCORE.INTRA.DIHEDRAL.0>
0

>  <SCORE.INTRA.POLAR>
0

>  <SCORE.INTRA.POLAR.0>
0

>  <SCORE.INTRA.REPUL>
0

>  <SCORE.INTRA.REPUL.0>
0

>  <SCORE.INTRA.SOLV>
0

>  <SCORE.INTRA.SOLV.lig_0>
-23.8918

>  <SCORE.INTRA.VDW>
0

>  <SCORE.INTRA.VDW.0>
0

>  <SCORE.INTRA.norm>
0

>  <SCORE.RESTR>
0

>  <SCORE.RESTR.CAVITY>
0

>  <SCORE.RESTR.norm>
0

>  <SCORE.SYSTEM>
0

>  <SCORE.SYSTEM.CONST>
0

>  <SCORE.SYSTEM.DIHEDRAL>
0

>  <SCORE.SYSTEM.SOLV>
0

>  <SCORE.SYSTEM.norm>
0

>  <SCORE.heavy>
10

>  <SCORE.norm>
-1.33762

>  <RMSD>
2.850

$$$$
ligand
 OpenBabel11021811513D
libRbt.so/2013.1/901 2013/11/27
 10 11  0  0  0  0  0  0  0  0999 V2000
    5.1758   17.6475    5.2818 N   0  0  0  0  0  0  0  0  0  0  0  0
    6.0545   18.6395    5.4691 C   0  0  0  0  0  0  0  0  0  0  0  0
    6.8665   19.2177    4.5854 N   0  0  0  0  0  0  0  0  0  0  0  0
    6.7155   18.6694    3.3698 C   0  0  0  0  0  0  0  0  0  0  0  0
    5.8557   17.6453    3.0224 C   0  0  0  0  0  0  0  0  0  0  0  0
    5.0468   17.1169    4.0478 C   0  0  0  0  0  0  0  0  0  0  0  0
    4.1699   16.1263    3.8564 N   0  0  0  0  0  0  0  0  0  0  0  0
    5.9730   17.3412    1.6763 N   0  0  0  0  0  0  0  0  0  0  0  0
    6.8893   18.1747    1.2440 C   0  0  0  0  0  0  0  0  0  0  0  0
    7.3807   19.0051    2.2128 N   0  0  0  0  0  0  0  0  0  0  0  0
  1  2  2  0  0  0  0
  1  6  1  0  0  0  0
  2  3  1  0  0  0  0
  3  4  2  0  0  0  0
  4  5  1  0  0  0  0
  4 10  1  0  0  0  0
  5  6  2  0  0  0  0
  5  8  1  0  0  0  0
  6  7  1  0  0  0  0
  8  9  1  0  0  0  0
  9 10  2  0  0  0  0
M  END
>  <CHROM.1>
6.00512462,17.95138230,3.48010772,-2.38867884,-0.79034071,-1.88002015

>  <Name>
ligand

>  <RI>
0

>  <Rbt.Current_Directory>
/home/itssahil/PROJECTS/Mol_Feturizer/New_Systems/rnas/4XNR

>  <Rbt.Executable>
rbdock ($Id: //depot/dev/client3/rdock/2013.1/src/exe/rbdock.cxx#4 $)

>  <Rbt.Library>
libRbt.so (2013.1, Build901 2013/11/27)

>  <Rbt.Parameter_File>
/export/apps/rDock/src/rDock_2013.1_src/data/scripts/dock_solv.prm

>  <Rbt.Receptor>
prm/pocket_docking_7.prm

>  <SCORE>
-13.4821

>  <SCORE.INTER>
-13.4821

>  <SCORE.INTER.CONST>
1

>  <SCORE.INTER.POLAR>
0

>  <SCORE.INTER.ROT>
0

>  <SCORE.INTER.SOLV>
7.27935

>  <SCORE.INTER.VDW>
-15.0145

>  <SCORE.INTER.norm>
-1.34821

>  <SCORE.INTRA>
0

>  <SCORE.INTRA.DIHEDRAL>
0

>  <SCORE.INTRA.DIHEDRAL.0>
0

>  <SCORE.INTRA.POLAR>
0

>  <SCORE.INTRA.POLAR.0>
0

>  <SCORE.INTRA.REPUL>
0

>  <SCORE.INTRA.REPUL.0>
0

>  <SCORE.INTRA.SOLV>
0

>  <SCORE.INTRA.SOLV.lig_0>
-23.8918

>  <SCORE.INTRA.VDW>
0

>  <SCORE.INTRA.VDW.0>
0

>  <SCORE.INTRA.norm>
0

>  <SCORE.RESTR>
0

>  <SCORE.RESTR.CAVITY>
0

>  <SCORE.RESTR.norm>
0

>  <SCORE.SYSTEM>
0

>  <SCORE.SYSTEM.CONST>
0

>  <SCORE.SYSTEM.DIHEDRAL>
0

>  <SCORE.SYSTEM.SOLV>
0

>  <SCORE.SYSTEM.norm>
0

>  <SCORE.heavy>
10

>  <SCORE.norm>
-1.34821

>  <RMSD>
2.858

$$$$
ligand
 OpenBabel11021811513D
libRbt.so/2013.1/901 2013/11/27
 10 11  0  0  0  0  0  0  0  0999 V2000
    5.1493   17.7182    5.3084 N   0  0  0  0  0  0  0  0  0  0  0  0
    6.0377   18.7045    5.4796 C   0  0  0  0  0  0  0  0  0  0  0  0
    6.8700   19.2461    4.5916 N   0  0  0  0  0  0  0  0  0  0  0  0
    6.7300   18.6638    3.3906 C   0  0  0  0  0  0  0  0  0  0  0  0
    5.8624   17.6405    3.0606 C   0  0  0  0  0  0  0  0  0  0  0  0
    5.0317   17.1528    4.0888 C   0  0  0  0  0  0  0  0  0  0  0  0
    4.1452   16.1679    3.9135 N   0  0  0  0  0  0  0  0  0  0  0  0
    5.9957   17.2951    1.7260 N   0  0  0  0  0  0  0  0  0  0  0  0
    6.9289   18.1040    1.2832 C   0  0  0  0  0  0  0  0  0  0  0  0
    7.4165   18.9567    2.2344 N   0  0  0  0  0  0  0  0  0  0  0  0
  1  2  2  0  0  0  0
  1  6  1  0  0  0  0
  2  3  1  0  0  0  0
  3  4  2  0  0  0  0
  4  5  1  0  0  0  0
  4 10  1  0  0  0  0
  5  6  2  0  0  0  0
  5  8  1  0  0  0  0
  6  7  1  0  0  0  0
  8  9  1  0  0  0  0
  9 10  2  0  0  0  0
M  END
>  <CHROM.1>
6.00894229,17.95819893,3.51129712,-2.40291471,-0.77361538,-1.91969532

>  <Name>
ligand

>  <RI>
0

>  <Rbt.Current_Directory>
/home/itssahil/PROJECTS/Mol_Feturizer/New_Systems/rnas/4XNR

>  <Rbt.Executable>
rbdock ($Id: //depot/dev/client3/rdock/2013.1/src/exe/rbdock.cxx#4 $)

>  <Rbt.Library>
libRbt.so (2013.1, Build901 2013/11/27)

>  <Rbt.Parameter_File>
/export/apps/rDock/src/rDock_2013.1_src/data/scripts/dock_solv.prm

>  <Rbt.Receptor>
prm/pocket_docking_8.prm

>  <SCORE>
-13.4836

>  <SCORE.INTER>
-13.4836

>  <SCORE.INTER.CONST>
1

>  <SCORE.INTER.POLAR>
0

>  <SCORE.INTER.ROT>
0

>  <SCORE.INTER.SOLV>
7.402

>  <SCORE.INTER.VDW>
-15.0564

>  <SCORE.INTER.norm>
-1.34836

>  <SCORE.INTRA>
0

>  <SCORE.INTRA.DIHEDRAL>
0

>  <SCORE.INTRA.DIHEDRAL.0>
0

>  <SCORE.INTRA.POLAR>
0

>  <SCORE.INTRA.POLAR.0>
0

>  <SCORE.INTRA.REPUL>
0

>  <SCORE.INTRA.REPUL.0>
0

>  <SCORE.INTRA.SOLV>
0

>  <SCORE.INTRA.SOLV.lig_0>
-23.8918

>  <SCORE.INTRA.VDW>
0

>  <SCORE.INTRA.VDW.0>
0

>  <SCORE.INTRA.norm>
0

>  <SCORE.RESTR>
0

>  <SCORE.RESTR.CAVITY>
0

>  <SCORE.RESTR.norm>
0

>  <SCORE.SYSTEM>
0

>  <SCORE.SYSTEM.CONST>
0

>  <SCORE.SYSTEM.DIHEDRAL>
0

>  <SCORE.SYSTEM.SOLV>
0

>  <SCORE.SYSTEM.norm>
0

>  <SCORE.heavy>
10

>  <SCORE.norm>
-1.34836

>  <RMSD>
2.859

$$$$
ligand
 OpenBabel11021811513D
libRbt.so/2013.1/901 2013/11/27
 10 11  0  0  0  0  0  0  0  0999 V2000
    5.1312   17.6661    5.2662 N   0  0  0  0  0  0  0  0  0  0  0  0
    6.0210   18.6469    5.4601 C   0  0  0  0  0  0  0  0  0  0  0  0
    6.8553   19.2064    4.5851 N   0  0  0  0  0  0  0  0  0  0  0  0
    6.7157   18.6508    3.3714 C   0  0  0  0  0  0  0  0  0  0  0  0
    5.8468   17.6364    3.0181 C   0  0  0  0  0  0  0  0  0  0  0  0
    5.0141   17.1277    4.0344 C   0  0  0  0  0  0  0  0  0  0  0  0
    4.1262   16.1484    3.8365 N   0  0  0  0  0  0  0  0  0  0  0  0
    5.9811   17.3202    1.6764 N   0  0  0  0  0  0  0  0  0  0  0  0
    6.9161   18.1371    1.2525 C   0  0  0  0  0  0  0  0  0  0  0  0
    7.4040   18.9679    2.2227 N   0  0  0  0  0  0  0  0  0  0  0  0
  1  2  2  0  0  0  0
  1  6  1  0  0  0  0
  2  3  1  0  0  0  0
  3  4  2  0  0  0  0
  4  5  1  0  0  0  0
  4 10  1  0  0  0  0
  5  6  2  0  0  0  0
  5  8  1  0  0  0  0
  6  7  1  0  0  0  0
  8  9  1  0  0  0  0
  9 10  2  0  0  0  0
M  END
>  <CHROM.1>
5.99335836,17.94395032,3.47579108,-2.40366568,-0.77166773,-1.89828050

>  <Name>
ligand

>  <RI>
0

>  <Rbt.Current_Directory>
/home/itssahil/PROJECTS/Mol_Feturizer/New_Systems/rnas/4XNR

>  <Rbt.Executable>
rbdock ($Id: //depot/dev/client3/rdock/2013.1/src/exe/rbdock.cxx#4 $)

>  <Rbt.Library>
libRbt.so (2013.1, Build901 2013/11/27)

>  <Rbt.Parameter_File>
/export/apps/rDock/src/rDock_2013.1_src/data/scripts/dock_solv.prm

>  <Rbt.Receptor>
prm/pocket_docking_8.prm

>  <SCORE>
-13.4836

>  <SCORE.INTER>
-13.4836

>  <SCORE.INTER.CONST>
1

>  <SCORE.INTER.POLAR>
0

>  <SCORE.INTER.ROT>
0

>  <SCORE.INTER.SOLV>
7.13139

>  <SCORE.INTER.VDW>
-14.9662

>  <SCORE.INTER.norm>
-1.34836

>  <SCORE.INTRA>
0

>  <SCORE.INTRA.DIHEDRAL>
0

>  <SCORE.INTRA.DIHEDRAL.0>
0

>  <SCORE.INTRA.POLAR>
0

>  <SCORE.INTRA.POLAR.0>
0

>  <SCORE.INTRA.REPUL>
0

>  <SCORE.INTRA.REPUL.0>
0

>  <SCORE.INTRA.SOLV>
0

>  <SCORE.INTRA.SOLV.lig_0>
-23.8918

>  <SCORE.INTRA.VDW>
0

>  <SCORE.INTRA.VDW.0>
0

>  <SCORE.INTRA.norm>
0

>  <SCORE.RESTR>
0

>  <SCORE.RESTR.CAVITY>
0

>  <SCORE.RESTR.norm>
0

>  <SCORE.SYSTEM>
0

>  <SCORE.SYSTEM.CONST>
0

>  <SCORE.SYSTEM.DIHEDRAL>
0

>  <SCORE.SYSTEM.SOLV>
0

>  <SCORE.SYSTEM.norm>
0

>  <SCORE.heavy>
10

>  <SCORE.norm>
-1.34836

>  <RMSD>
2.859

$$$$
ligand
 OpenBabel11021811513D
libRbt.so/2013.1/901 2013/11/27
 10 11  0  0  0  0  0  0  0  0999 V2000
    5.1254   17.6640    5.2576 N   0  0  0  0  0  0  0  0  0  0  0  0
    6.0161   18.6437    5.4535 C   0  0  0  0  0  0  0  0  0  0  0  0
    6.8534   19.2018    4.5805 N   0  0  0  0  0  0  0  0  0  0  0  0
    6.7161   18.6460    3.3666 C   0  0  0  0  0  0  0  0  0  0  0  0
    5.8468   17.6328    3.0114 C   0  0  0  0  0  0  0  0  0  0  0  0
    5.0108   17.1255    4.0256 C   0  0  0  0  0  0  0  0  0  0  0  0
    4.1220   16.1473    3.8257 N   0  0  0  0  0  0  0  0  0  0  0  0
    5.9841   17.3160    1.6701 N   0  0  0  0  0  0  0  0  0  0  0  0
    6.9213   18.1315    1.2484 C   0  0  0  0  0  0  0  0  0  0  0  0
    7.4079   18.9619    2.2196 N   0  0  0  0  0  0  0  0  0  0  0  0
  1  2  2  0  0  0  0
  1  6  1  0  0  0  0
  2  3  1  0  0  0  0
  3  4  2  0  0  0  0
  4  5  1  0  0  0  0
  4 10  1  0  0  0  0
  5  6  2  0  0  0  0
  5  8  1  0  0  0  0
  6  7  1  0  0  0  0
  8  9  1  0  0  0  0
  9 10  2  0  0  0  0
M  END
>  <CHROM.1>
5.99256519,17.94024363,3.46933498,-2.40645423,-0.76952670,-1.90049888

>  <Name>
ligand

>  <RI>
0

>  <Rbt.Current_Directory>
/home/itssahil/PROJECTS/Mol_Feturizer/New_Systems/rnas/4XNR

>  <Rbt.Executable>
rbdock ($Id: //depot/dev/client3/rdock/2013.1/src/exe/rbdock.cxx#4 $)

>  <Rbt.Library>
libRbt.so (2013.1, Build901 2013/11/27)

>  <Rbt.Parameter_File>
/export/apps/rDock/src/rDock_2013.1_src/data/scripts/dock_solv.prm

>  <Rbt.Receptor>
prm/pocket_docking_4.prm

>  <SCORE>
-13.4782

>  <SCORE.INTER>
-13.4782

>  <SCORE.INTER.CONST>
1

>  <SCORE.INTER.POLAR>
0

>  <SCORE.INTER.ROT>
0

>  <SCORE.INTER.SOLV>
7.09244

>  <SCORE.INTER.VDW>
-14.9496

>  <SCORE.INTER.norm>
-1.34782

>  <SCORE.INTRA>
0

>  <SCORE.INTRA.DIHEDRAL>
0

>  <SCORE.INTRA.DIHEDRAL.0>
0

>  <SCORE.INTRA.POLAR>
0

>  <SCORE.INTRA.POLAR.0>
0

>  <SCORE.INTRA.REPUL>
0

>  <SCORE.INTRA.REPUL.0>
0

>  <SCORE.INTRA.SOLV>
0

>  <SCORE.INTRA.SOLV.lig_0>
-23.8918

>  <SCORE.INTRA.VDW>
0

>  <SCORE.INTRA.VDW.0>
0

>  <SCORE.INTRA.norm>
0

>  <SCORE.RESTR>
0

>  <SCORE.RESTR.CAVITY>
0

>  <SCORE.RESTR.norm>
0

>  <SCORE.SYSTEM>
0

>  <SCORE.SYSTEM.CONST>
0

>  <SCORE.SYSTEM.DIHEDRAL>
0

>  <SCORE.SYSTEM.SOLV>
0

>  <SCORE.SYSTEM.norm>
0

>  <SCORE.heavy>
10

>  <SCORE.norm>
-1.34782

>  <RMSD>
2.860

$$$$
ligand
 OpenBabel11021811513D
libRbt.so/2013.1/901 2013/11/27
 10 11  0  0  0  0  0  0  0  0999 V2000
    5.1507   17.6479    5.2559 N   0  0  0  0  0  0  0  0  0  0  0  0
    6.0406   18.6270    5.4579 C   0  0  0  0  0  0  0  0  0  0  0  0
    6.8656   19.2029    4.5847 N   0  0  0  0  0  0  0  0  0  0  0  0
    6.7155   18.6675    3.3632 C   0  0  0  0  0  0  0  0  0  0  0  0
    5.8452   17.6576    3.0009 C   0  0  0  0  0  0  0  0  0  0  0  0
    5.0230   17.1302    4.0163 C   0  0  0  0  0  0  0  0  0  0  0  0
    4.1350   16.1526    3.8102 N   0  0  0  0  0  0  0  0  0  0  0  0
    5.9673   17.3643    1.6529 N   0  0  0  0  0  0  0  0  0  0  0  0
    6.8969   18.1901    1.2340 C   0  0  0  0  0  0  0  0  0  0  0  0
    7.3924   19.0053    2.2135 N   0  0  0  0  0  0  0  0  0  0  0  0
  1  2  2  0  0  0  0
  1  6  1  0  0  0  0
  2  3  1  0  0  0  0
  3  4  2  0  0  0  0
  4  5  1  0  0  0  0
  4 10  1  0  0  0  0
  5  6  2  0  0  0  0
  5  8  1  0  0  0  0
  6  7  1  0  0  0  0
  8  9  1  0  0  0  0
  9 10  2  0  0  0  0
M  END
>  <CHROM.1>
5.99547644,17.95765490,3.46235607,-2.39194888,-0.77636233,-1.87320818

>  <Name>
ligand

>  <RI>
0

>  <Rbt.Current_Directory>
/home/itssahil/PROJECTS/Mol_Feturizer/New_Systems/rnas/4XNR

>  <Rbt.Executable>
rbdock ($Id: //depot/dev/client3/rdock/2013.1/src/exe/rbdock.cxx#4 $)

>  <Rbt.Library>
libRbt.so (2013.1, Build901 2013/11/27)

>  <Rbt.Parameter_File>
/export/apps/rDock/src/rDock_2013.1_src/data/scripts/dock_solv.prm

>  <Rbt.Receptor>
prm/pocket_docking_7.prm

>  <SCORE>
-13.4668

>  <SCORE.INTER>
-13.4668

>  <SCORE.INTER.CONST>
1

>  <SCORE.INTER.POLAR>
0

>  <SCORE.INTER.ROT>
0

>  <SCORE.INTER.SOLV>
7.05945

>  <SCORE.INTER.VDW>
-14.931

>  <SCORE.INTER.norm>
-1.34668

>  <SCORE.INTRA>
0

>  <SCORE.INTRA.DIHEDRAL>
0

>  <SCORE.INTRA.DIHEDRAL.0>
0

>  <SCORE.INTRA.POLAR>
0

>  <SCORE.INTRA.POLAR.0>
0

>  <SCORE.INTRA.REPUL>
0

>  <SCORE.INTRA.REPUL.0>
0

>  <SCORE.INTRA.SOLV>
0

>  <SCORE.INTRA.SOLV.lig_0>
-23.8918

>  <SCORE.INTRA.VDW>
0

>  <SCORE.INTRA.VDW.0>
0

>  <SCORE.INTRA.norm>
0

>  <SCORE.RESTR>
0

>  <SCORE.RESTR.CAVITY>
0

>  <SCORE.RESTR.norm>
0

>  <SCORE.SYSTEM>
0

>  <SCORE.SYSTEM.CONST>
0

>  <SCORE.SYSTEM.DIHEDRAL>
0

>  <SCORE.SYSTEM.SOLV>
0

>  <SCORE.SYSTEM.norm>
0

>  <SCORE.heavy>
10

>  <SCORE.norm>
-1.34668

>  <RMSD>
2.860

$$$$
ligand
 OpenBabel11021811513D
libRbt.so/2013.1/901 2013/11/27
 10 11  0  0  0  0  0  0  0  0999 V2000
    5.1801   17.7190    5.3264 N   0  0  0  0  0  0  0  0  0  0  0  0
    6.0777   18.6983    5.4897 C   0  0  0  0  0  0  0  0  0  0  0  0
    6.8978   19.2417    4.5914 N   0  0  0  0  0  0  0  0  0  0  0  0
    6.7329   18.6699    3.3885 C   0  0  0  0  0  0  0  0  0  0  0  0
    5.8530   17.6548    3.0658 C   0  0  0  0  0  0  0  0  0  0  0  0
    5.0374   17.1642    4.1046 C   0  0  0  0  0  0  0  0  0  0  0  0
    4.1416   16.1863    3.9372 N   0  0  0  0  0  0  0  0  0  0  0  0
    5.9605   17.3193    1.7263 N   0  0  0  0  0  0  0  0  0  0  0  0
    6.8910   18.1259    1.2735 C   0  0  0  0  0  0  0  0  0  0  0  0
    7.4007   18.9678    2.2227 N   0  0  0  0  0  0  0  0  0  0  0  0
  1  2  2  0  0  0  0
  1  6  1  0  0  0  0
  2  3  1  0  0  0  0
  3  4  2  0  0  0  0
  4  5  1  0  0  0  0
  4 10  1  0  0  0  0
  5  6  2  0  0  0  0
  5  8  1  0  0  0  0
  6  7  1  0  0  0  0
  8  9  1  0  0  0  0
  9 10  2  0  0  0  0
M  END
>  <CHROM.1>
6.00951987,17.96798303,3.51630602,-2.37671637,-0.77340018,-1.89341265

>  <Name>
ligand

>  <RI>
0

>  <Rbt.Current_Directory>
/home/itssahil/PROJECTS/Mol_Feturizer/New_Systems/rnas/4XNR

>  <Rbt.Executable>
rbdock ($Id: //depot/dev/client3/rdock/2013.1/src/exe/rbdock.cxx#4 $)

>  <Rbt.Library>
libRbt.so (2013.1, Build901 2013/11/27)

>  <Rbt.Parameter_File>
/export/apps/rDock/src/rDock_2013.1_src/data/scripts/dock_solv.prm

>  <Rbt.Receptor>
prm/pocket_docking_6.prm

>  <SCORE>
-13.4759

>  <SCORE.INTER>
-13.4759

>  <SCORE.INTER.CONST>
1

>  <SCORE.INTER.POLAR>
0

>  <SCORE.INTER.ROT>
0

>  <SCORE.INTER.SOLV>
7.44031

>  <SCORE.INTER.VDW>
-15.064

>  <SCORE.INTER.norm>
-1.34759

>  <SCORE.INTRA>
0

>  <SCORE.INTRA.DIHEDRAL>
0

>  <SCORE.INTRA.DIHEDRAL.0>
0

>  <SCORE.INTRA.POLAR>
0

>  <SCORE.INTRA.POLAR.0>
0

>  <SCORE.INTRA.REPUL>
0

>  <SCORE.INTRA.REPUL.0>
0

>  <SCORE.INTRA.SOLV>
0

>  <SCORE.INTRA.SOLV.lig_0>
-23.8918

>  <SCORE.INTRA.VDW>
0

>  <SCORE.INTRA.VDW.0>
0

>  <SCORE.INTRA.norm>
0

>  <SCORE.RESTR>
0

>  <SCORE.RESTR.CAVITY>
0

>  <SCORE.RESTR.norm>
0

>  <SCORE.SYSTEM>
0

>  <SCORE.SYSTEM.CONST>
0

>  <SCORE.SYSTEM.DIHEDRAL>
0

>  <SCORE.SYSTEM.SOLV>
0

>  <SCORE.SYSTEM.norm>
0

>  <SCORE.heavy>
10

>  <SCORE.norm>
-1.34759

>  <RMSD>
2.861

$$$$
ligand
 OpenBabel11021811513D
libRbt.so/2013.1/901 2013/11/27
 10 11  0  0  0  0  0  0  0  0999 V2000
    5.1777   17.7326    5.3260 N   0  0  0  0  0  0  0  0  0  0  0  0
    6.0745   18.7130    5.4870 C   0  0  0  0  0  0  0  0  0  0  0  0
    6.8970   19.2523    4.5884 N   0  0  0  0  0  0  0  0  0  0  0  0
    6.7357   18.6744    3.3879 C   0  0  0  0  0  0  0  0  0  0  0  0
    5.8572   17.6574    3.0677 C   0  0  0  0  0  0  0  0  0  0  0  0
    5.0388   17.1716    4.1066 C   0  0  0  0  0  0  0  0  0  0  0  0
    4.1438   16.1926    3.9415 N   0  0  0  0  0  0  0  0  0  0  0  0
    5.9686   17.3153    1.7303 N   0  0  0  0  0  0  0  0  0  0  0  0
    6.9001   18.1200    1.2761 C   0  0  0  0  0  0  0  0  0  0  0  0
    7.4068   18.9668    2.2225 N   0  0  0  0  0  0  0  0  0  0  0  0
  1  2  2  0  0  0  0
  1  6  1  0  0  0  0
  2  3  1  0  0  0  0
  3  4  2  0  0  0  0
  4  5  1  0  0  0  0
  4 10  1  0  0  0  0
  5  6  2  0  0  0  0
  5  8  1  0  0  0  0
  6  7  1  0  0  0  0
  8  9  1  0  0  0  0
  9 10  2  0  0  0  0
M  END
>  <CHROM.1>
6.01226220,17.97288564,3.51712854,-2.38066609,-0.77281696,-1.90113660

>  <Name>
ligand

>  <RI>
0

>  <Rbt.Current_Directory>
/home/itssahil/PROJECTS/Mol_Feturizer/New_Systems/rnas/4XNR

>  <Rbt.Executable>
rbdock ($Id: //depot/dev/client3/rdock/2013.1/src/exe/rbdock.cxx#4 $)

>  <Rbt.Library>
libRbt.so (2013.1, Build901 2013/11/27)

>  <Rbt.Parameter_File>
/export/apps/rDock/src/rDock_2013.1_src/data/scripts/dock_solv.prm

>  <Rbt.Receptor>
prm/pocket_docking_6.prm

>  <SCORE>
-13.5155

>  <SCORE.INTER>
-13.5155

>  <SCORE.INTER.CONST>
1

>  <SCORE.INTER.POLAR>
0

>  <SCORE.INTER.ROT>
0

>  <SCORE.INTER.SOLV>
7.45634

>  <SCORE.INTER.VDW>
-15.0958

>  <SCORE.INTER.norm>
-1.35155

>  <SCORE.INTRA>
0

>  <SCORE.INTRA.DIHEDRAL>
0

>  <SCORE.INTRA.DIHEDRAL.0>
0

>  <SCORE.INTRA.POLAR>
0

>  <SCORE.INTRA.POLAR.0>
0

>  <SCORE.INTRA.REPUL>
0

>  <SCORE.INTRA.REPUL.0>
0

>  <SCORE.INTRA.SOLV>
0

>  <SCORE.INTRA.SOLV.lig_0>
-23.8918

>  <SCORE.INTRA.VDW>
0

>  <SCORE.INTRA.VDW.0>
0

>  <SCORE.INTRA.norm>
0

>  <SCORE.RESTR>
0

>  <SCORE.RESTR.CAVITY>
0

>  <SCORE.RESTR.norm>
0

>  <SCORE.SYSTEM>
0

>  <SCORE.SYSTEM.CONST>
0

>  <SCORE.SYSTEM.DIHEDRAL>
0

>  <SCORE.SYSTEM.SOLV>
0

>  <SCORE.SYSTEM.norm>
0

>  <SCORE.heavy>
10

>  <SCORE.norm>
-1.35155

>  <RMSD>
2.861

$$$$
ligand
 OpenBabel11021811513D
libRbt.so/2013.1/901 2013/11/27
 10 11  0  0  0  0  0  0  0  0999 V2000
    5.1314   17.6834    5.2529 N   0  0  0  0  0  0  0  0  0  0  0  0
    6.0222   18.6623    5.4521 C   0  0  0  0  0  0  0  0  0  0  0  0
    6.8547   19.2281    4.5795 N   0  0  0  0  0  0  0  0  0  0  0  0
    6.7120   18.6819    3.3620 C   0  0  0  0  0  0  0  0  0  0  0  0
    5.8418   17.6707    3.0029 C   0  0  0  0  0  0  0  0  0  0  0  0
    5.0112   17.1546    4.0173 C   0  0  0  0  0  0  0  0  0  0  0  0
    4.1224   16.1771    3.8140 N   0  0  0  0  0  0  0  0  0  0  0  0
    5.9727   17.3646    1.6585 N   0  0  0  0  0  0  0  0  0  0  0  0
    6.9072   18.1843    1.2387 C   0  0  0  0  0  0  0  0  0  0  0  0
    7.3977   19.0074    2.2141 N   0  0  0  0  0  0  0  0  0  0  0  0
  1  2  2  0  0  0  0
  1  6  1  0  0  0  0
  2  3  1  0  0  0  0
  3  4  2  0  0  0  0
  4  5  1  0  0  0  0
  4 10  1  0  0  0  0
  5  6  2  0  0  0  0
  5  8  1  0  0  0  0
  6  7  1  0  0  0  0
  8  9  1  0  0  0  0
  9 10  2  0  0  0  0
M  END
>  <CHROM.1>
5.98954924,17.97458130,3.46263069,-2.40035178,-0.77196987,-1.88831741

>  <Name>
ligand

>  <RI>
0

>  <Rbt.Current_Directory>
/home/itssahil/PROJECTS/Mol_Feturizer/New_Systems/rnas/4XNR

>  <Rbt.Executable>
rbdock ($Id: //depot/dev/client3/rdock/2013.1/src/exe/rbdock.cxx#4 $)

>  <Rbt.Library>
libRbt.so (2013.1, Build901 2013/11/27)

>  <Rbt.Parameter_File>
/export/apps/rDock/src/rDock_2013.1_src/data/scripts/dock_solv.prm

>  <Rbt.Receptor>
prm/pocket_docking_7.prm

>  <SCORE>
-13.5196

>  <SCORE.INTER>
-13.5196

>  <SCORE.INTER.CONST>
1

>  <SCORE.INTER.POLAR>
0

>  <SCORE.INTER.ROT>
0

>  <SCORE.INTER.SOLV>
7.06834

>  <SCORE.INTER.VDW>
-14.9692

>  <SCORE.INTER.norm>
-1.35196

>  <SCORE.INTRA>
0

>  <SCORE.INTRA.DIHEDRAL>
0

>  <SCORE.INTRA.DIHEDRAL.0>
0

>  <SCORE.INTRA.POLAR>
0

>  <SCORE.INTRA.POLAR.0>
0

>  <SCORE.INTRA.REPUL>
0

>  <SCORE.INTRA.REPUL.0>
0

>  <SCORE.INTRA.SOLV>
0

>  <SCORE.INTRA.SOLV.lig_0>
-23.8918

>  <SCORE.INTRA.VDW>
0

>  <SCORE.INTRA.VDW.0>
0

>  <SCORE.INTRA.norm>
0

>  <SCORE.RESTR>
0

>  <SCORE.RESTR.CAVITY>
0

>  <SCORE.RESTR.norm>
0

>  <SCORE.SYSTEM>
0

>  <SCORE.SYSTEM.CONST>
0

>  <SCORE.SYSTEM.DIHEDRAL>
0

>  <SCORE.SYSTEM.SOLV>
0

>  <SCORE.SYSTEM.norm>
0

>  <SCORE.heavy>
10

>  <SCORE.norm>
-1.35196

>  <RMSD>
2.861

$$$$
ligand
 OpenBabel11021811513D
libRbt.so/2013.1/901 2013/11/27
 10 11  0  0  0  0  0  0  0  0999 V2000
    5.1745   17.7338    5.3260 N   0  0  0  0  0  0  0  0  0  0  0  0
    6.0736   18.7117    5.4891 C   0  0  0  0  0  0  0  0  0  0  0  0
    6.9011   19.2473    4.5930 N   0  0  0  0  0  0  0  0  0  0  0  0
    6.7428   18.6683    3.3926 C   0  0  0  0  0  0  0  0  0  0  0  0
    5.8625   17.6534    3.0705 C   0  0  0  0  0  0  0  0  0  0  0  0
    5.0386   17.1715    4.1068 C   0  0  0  0  0  0  0  0  0  0  0  0
    4.1414   16.1949    3.9396 N   0  0  0  0  0  0  0  0  0  0  0  0
    5.9781   17.3092    1.7339 N   0  0  0  0  0  0  0  0  0  0  0  0
    6.9137   18.1104    1.2823 C   0  0  0  0  0  0  0  0  0  0  0  0
    7.4193   18.9570    2.2295 N   0  0  0  0  0  0  0  0  0  0  0  0
  1  2  2  0  0  0  0
  1  6  1  0  0  0  0
  2  3  1  0  0  0  0
  3  4  2  0  0  0  0
  4  5  1  0  0  0  0
  4 10  1  0  0  0  0
  5  6  2  0  0  0  0
  5  8  1  0  0  0  0
  6  7  1  0  0  0  0
  8  9  1  0  0  0  0
  9 10  2  0  0  0  0
M  END
>  <CHROM.1>
6.01675450,17.96905295,3.52001826,-2.38442336,-0.76874065,-1.90514554

>  <Name>
ligand

>  <RI>
0

>  <Rbt.Current_Directory>
/home/itssahil/PROJECTS/Mol_Feturizer/New_Systems/rnas/4XNR

>  <Rbt.Executable>
rbdock ($Id: //depot/dev/client3/rdock/2013.1/src/exe/rbdock.cxx#4 $)

>  <Rbt.Library>
libRbt.so (2013.1, Build901 2013/11/27)

>  <Rbt.Parameter_File>
/export/apps/rDock/src/rDock_2013.1_src/data/scripts/dock_solv.prm

>  <Rbt.Receptor>
prm/pocket_docking_8.prm

>  <SCORE>
-13.5139

>  <SCORE.INTER>
-13.5139

>  <SCORE.INTER.CONST>
1

>  <SCORE.INTER.POLAR>
0

>  <SCORE.INTER.ROT>
0

>  <SCORE.INTER.SOLV>
7.44887

>  <SCORE.INTER.VDW>
-15.0923

>  <SCORE.INTER.norm>
-1.35139

>  <SCORE.INTRA>
0

>  <SCORE.INTRA.DIHEDRAL>
0

>  <SCORE.INTRA.DIHEDRAL.0>
0

>  <SCORE.INTRA.POLAR>
0

>  <SCORE.INTRA.POLAR.0>
0

>  <SCORE.INTRA.REPUL>
0

>  <SCORE.INTRA.REPUL.0>
0

>  <SCORE.INTRA.SOLV>
0

>  <SCORE.INTRA.SOLV.lig_0>
-23.8918

>  <SCORE.INTRA.VDW>
0

>  <SCORE.INTRA.VDW.0>
0

>  <SCORE.INTRA.norm>
0

>  <SCORE.RESTR>
0

>  <SCORE.RESTR.CAVITY>
0

>  <SCORE.RESTR.norm>
0

>  <SCORE.SYSTEM>
0

>  <SCORE.SYSTEM.CONST>
0

>  <SCORE.SYSTEM.DIHEDRAL>
0

>  <SCORE.SYSTEM.SOLV>
0

>  <SCORE.SYSTEM.norm>
0

>  <SCORE.heavy>
10

>  <SCORE.norm>
-1.35139

>  <RMSD>
2.861

$$$$
ligand
 OpenBabel11021811513D
libRbt.so/2013.1/901 2013/11/27
 10 11  0  0  0  0  0  0  0  0999 V2000
    5.1650   17.7356    5.3169 N   0  0  0  0  0  0  0  0  0  0  0  0
    6.0659   18.7108    5.4860 C   0  0  0  0  0  0  0  0  0  0  0  0
    6.9043   19.2406    4.5965 N   0  0  0  0  0  0  0  0  0  0  0  0
    6.7560   18.6583    3.3965 C   0  0  0  0  0  0  0  0  0  0  0  0
    5.8753   17.6456    3.0687 C   0  0  0  0  0  0  0  0  0  0  0  0
    5.0394   17.1699    4.0982 C   0  0  0  0  0  0  0  0  0  0  0  0
    4.1404   16.1960    3.9250 N   0  0  0  0  0  0  0  0  0  0  0  0
    6.0032   17.2966    1.7345 N   0  0  0  0  0  0  0  0  0  0  0  0
    6.9461   18.0931    1.2897 C   0  0  0  0  0  0  0  0  0  0  0  0
    7.4452   18.9409    2.2393 N   0  0  0  0  0  0  0  0  0  0  0  0
  1  2  2  0  0  0  0
  1  6  1  0  0  0  0
  2  3  1  0  0  0  0
  3  4  2  0  0  0  0
  4  5  1  0  0  0  0
  4 10  1  0  0  0  0
  5  6  2  0  0  0  0
  5  8  1  0  0  0  0
  6  7  1  0  0  0  0
  8  9  1  0  0  0  0
  9 10  2  0  0  0  0
M  END
>  <CHROM.1>
6.02621862,17.96208839,3.51875646,-2.39592652,-0.76201964,-1.91628776

>  <Name>
ligand

>  <RI>
0

>  <Rbt.Current_Directory>
/home/itssahil/PROJECTS/Mol_Feturizer/New_Systems/rnas/4XNR

>  <Rbt.Executable>
rbdock ($Id: //depot/dev/client3/rdock/2013.1/src/exe/rbdock.cxx#4 $)

>  <Rbt.Library>
libRbt.so (2013.1, Build901 2013/11/27)

>  <Rbt.Parameter_File>
/export/apps/rDock/src/rDock_2013.1_src/data/scripts/dock_solv.prm

>  <Rbt.Receptor>
prm/pocket_docking_8.prm

>  <SCORE>
-13.5053

>  <SCORE.INTER>
-13.5053

>  <SCORE.INTER.CONST>
1

>  <SCORE.INTER.POLAR>
0

>  <SCORE.INTER.ROT>
0

>  <SCORE.INTER.SOLV>
7.40954

>  <SCORE.INTER.VDW>
-15.0734

>  <SCORE.INTER.norm>
-1.35053

>  <SCORE.INTRA>
0

>  <SCORE.INTRA.DIHEDRAL>
0

>  <SCORE.INTRA.DIHEDRAL.0>
0

>  <SCORE.INTRA.POLAR>
0

>  <SCORE.INTRA.POLAR.0>
0

>  <SCORE.INTRA.REPUL>
0

>  <SCORE.INTRA.REPUL.0>
0

>  <SCORE.INTRA.SOLV>
0

>  <SCORE.INTRA.SOLV.lig_0>
-23.8918

>  <SCORE.INTRA.VDW>
0

>  <SCORE.INTRA.VDW.0>
0

>  <SCORE.INTRA.norm>
0

>  <SCORE.RESTR>
0

>  <SCORE.RESTR.CAVITY>
0

>  <SCORE.RESTR.norm>
0

>  <SCORE.SYSTEM>
0

>  <SCORE.SYSTEM.CONST>
0

>  <SCORE.SYSTEM.DIHEDRAL>
0

>  <SCORE.SYSTEM.SOLV>
0

>  <SCORE.SYSTEM.norm>
0

>  <SCORE.heavy>
10

>  <SCORE.norm>
-1.35053

>  <RMSD>
2.861

$$$$
ligand
 OpenBabel11021811513D
libRbt.so/2013.1/901 2013/11/27
 10 11  0  0  0  0  0  0  0  0999 V2000
    5.1745   17.7304    5.3207 N   0  0  0  0  0  0  0  0  0  0  0  0
    6.0710   18.7109    5.4825 C   0  0  0  0  0  0  0  0  0  0  0  0
    6.8944   19.2500    4.5847 N   0  0  0  0  0  0  0  0  0  0  0  0
    6.7347   18.6717    3.3842 C   0  0  0  0  0  0  0  0  0  0  0  0
    5.8566   17.6545    3.0633 C   0  0  0  0  0  0  0  0  0  0  0  0
    5.0370   17.1690    4.1014 C   0  0  0  0  0  0  0  0  0  0  0  0
    4.1424   16.1898    3.9355 N   0  0  0  0  0  0  0  0  0  0  0  0
    5.9697   17.3119    1.7261 N   0  0  0  0  0  0  0  0  0  0  0  0
    6.9017   18.1165    1.2728 C   0  0  0  0  0  0  0  0  0  0  0  0
    7.4072   18.9637    2.2195 N   0  0  0  0  0  0  0  0  0  0  0  0
  1  2  2  0  0  0  0
  1  6  1  0  0  0  0
  2  3  1  0  0  0  0
  3  4  2  0  0  0  0
  4  5  1  0  0  0  0
  4 10  1  0  0  0  0
  5  6  2  0  0  0  0
  5  8  1  0  0  0  0
  6  7  1  0  0  0  0
  8  9  1  0  0  0  0
  9 10  2  0  0  0  0
M  END
>  <CHROM.1>
6.01113721,17.97010665,3.51275916,-2.38229504,-0.77253230,-1.90263884

>  <Name>
ligand

>  <RI>
0

>  <Rbt.Current_Directory>
/home/itssahil/PROJECTS/Mol_Feturizer/New_Systems/rnas/4XNR

>  <Rbt.Executable>
rbdock ($Id: //depot/dev/client3/rdock/2013.1/src/exe/rbdock.cxx#4 $)

>  <Rbt.Library>
libRbt.so (2013.1, Build901 2013/11/27)

>  <Rbt.Parameter_File>
/export/apps/rDock/src/rDock_2013.1_src/data/scripts/dock_solv.prm

>  <Rbt.Receptor>
prm/pocket_docking_6.prm

>  <SCORE>
-13.5138

>  <SCORE.INTER>
-13.5138

>  <SCORE.INTER.CONST>
1

>  <SCORE.INTER.POLAR>
0

>  <SCORE.INTER.ROT>
0

>  <SCORE.INTER.SOLV>
7.43804

>  <SCORE.INTER.VDW>
-15.0886

>  <SCORE.INTER.norm>
-1.35138

>  <SCORE.INTRA>
0

>  <SCORE.INTRA.DIHEDRAL>
0

>  <SCORE.INTRA.DIHEDRAL.0>
0

>  <SCORE.INTRA.POLAR>
0

>  <SCORE.INTRA.POLAR.0>
0

>  <SCORE.INTRA.REPUL>
0

>  <SCORE.INTRA.REPUL.0>
0

>  <SCORE.INTRA.SOLV>
0

>  <SCORE.INTRA.SOLV.lig_0>
-23.8918

>  <SCORE.INTRA.VDW>
0

>  <SCORE.INTRA.VDW.0>
0

>  <SCORE.INTRA.norm>
0

>  <SCORE.RESTR>
0

>  <SCORE.RESTR.CAVITY>
0

>  <SCORE.RESTR.norm>
0

>  <SCORE.SYSTEM>
0

>  <SCORE.SYSTEM.CONST>
0

>  <SCORE.SYSTEM.DIHEDRAL>
0

>  <SCORE.SYSTEM.SOLV>
0

>  <SCORE.SYSTEM.norm>
0

>  <SCORE.heavy>
10

>  <SCORE.norm>
-1.35138

>  <RMSD>
2.862

$$$$
ligand
 OpenBabel11021811513D
libRbt.so/2013.1/901 2013/11/27
 10 11  0  0  0  0  0  0  0  0999 V2000
    5.1258   17.7040    5.2476 N   0  0  0  0  0  0  0  0  0  0  0  0
    6.0091   18.6906    5.4425 C   0  0  0  0  0  0  0  0  0  0  0  0
    6.8442   19.2521    4.5697 N   0  0  0  0  0  0  0  0  0  0  0  0
    6.7136   18.6919    3.3572 C   0  0  0  0  0  0  0  0  0  0  0  0
    5.8522   17.6715    3.0030 C   0  0  0  0  0  0  0  0  0  0  0  0
    5.0177   17.1612    4.0170 C   0  0  0  0  0  0  0  0  0  0  0  0
    4.1363   16.1761    3.8180 N   0  0  0  0  0  0  0  0  0  0  0  0
    5.9946   17.3518    1.6629 N   0  0  0  0  0  0  0  0  0  0  0  0
    6.9270   18.1727    1.2408 C   0  0  0  0  0  0  0  0  0  0  0  0
    7.4055   19.0093    2.2107 N   0  0  0  0  0  0  0  0  0  0  0  0
  1  2  2  0  0  0  0
  1  6  1  0  0  0  0
  2  3  1  0  0  0  0
  3  4  2  0  0  0  0
  4  5  1  0  0  0  0
  4 10  1  0  0  0  0
  5  6  2  0  0  0  0
  5  8  1  0  0  0  0
  6  7  1  0  0  0  0
  8  9  1  0  0  0  0
  9 10  2  0  0  0  0
M  END
>  <CHROM.1>
5.99483204,17.98124418,3.46038264,-2.41250888,-0.77557058,-1.90762438

>  <Name>
ligand

>  <RI>
0

>  <Rbt.Current_Directory>
/home/itssahil/PROJECTS/Mol_Feturizer/New_Systems/rnas/4XNR

>  <Rbt.Executable>
rbdock ($Id: //depot/dev/client3/rdock/2013.1/src/exe/rbdock.cxx#4 $)

>  <Rbt.Library>
libRbt.so (2013.1, Build901 2013/11/27)

>  <Rbt.Parameter_File>
/export/apps/rDock/src/rDock_2013.1_src/data/scripts/dock_solv.prm

>  <Rbt.Receptor>
prm/pocket_docking_7.prm

>  <SCORE>
-13.5159

>  <SCORE.INTER>
-13.5159

>  <SCORE.INTER.CONST>
1

>  <SCORE.INTER.POLAR>
0

>  <SCORE.INTER.ROT>
0

>  <SCORE.INTER.SOLV>
7.10571

>  <SCORE.INTER.VDW>
-14.9792

>  <SCORE.INTER.norm>
-1.35159

>  <SCORE.INTRA>
0

>  <SCORE.INTRA.DIHEDRAL>
0

>  <SCORE.INTRA.DIHEDRAL.0>
0

>  <SCORE.INTRA.POLAR>
0

>  <SCORE.INTRA.POLAR.0>
0

>  <SCORE.INTRA.REPUL>
0

>  <SCORE.INTRA.REPUL.0>
0

>  <SCORE.INTRA.SOLV>
0

>  <SCORE.INTRA.SOLV.lig_0>
-23.8918

>  <SCORE.INTRA.VDW>
0

>  <SCORE.INTRA.VDW.0>
0

>  <SCORE.INTRA.norm>
0

>  <SCORE.RESTR>
0

>  <SCORE.RESTR.CAVITY>
0

>  <SCORE.RESTR.norm>
0

>  <SCORE.SYSTEM>
0

>  <SCORE.SYSTEM.CONST>
0

>  <SCORE.SYSTEM.DIHEDRAL>
0

>  <SCORE.SYSTEM.SOLV>
0

>  <SCORE.SYSTEM.norm>
0

>  <SCORE.heavy>
10

>  <SCORE.norm>
-1.35159

>  <RMSD>
2.862

$$$$
ligand
 OpenBabel11021811513D
libRbt.so/2013.1/901 2013/11/27
 10 11  0  0  0  0  0  0  0  0999 V2000
    5.1255   17.6928    5.2480 N   0  0  0  0  0  0  0  0  0  0  0  0
    6.0105   18.6779    5.4423 C   0  0  0  0  0  0  0  0  0  0  0  0
    6.8410   19.2430    4.5673 N   0  0  0  0  0  0  0  0  0  0  0  0
    6.7032   18.6883    3.3530 C   0  0  0  0  0  0  0  0  0  0  0  0
    5.8392   17.6699    2.9991 C   0  0  0  0  0  0  0  0  0  0  0  0
    5.0101   17.1556    4.0155 C   0  0  0  0  0  0  0  0  0  0  0  0
    4.1270   16.1719    3.8172 N   0  0  0  0  0  0  0  0  0  0  0  0
    5.9738   17.3562    1.6569 N   0  0  0  0  0  0  0  0  0  0  0  0
    6.9042   18.1785    1.2332 C   0  0  0  0  0  0  0  0  0  0  0  0
    7.3887   19.0105    2.2040 N   0  0  0  0  0  0  0  0  0  0  0  0
  1  2  2  0  0  0  0
  1  6  1  0  0  0  0
  2  3  1  0  0  0  0
  3  4  2  0  0  0  0
  4  5  1  0  0  0  0
  4 10  1  0  0  0  0
  5  6  2  0  0  0  0
  5  8  1  0  0  0  0
  6  7  1  0  0  0  0
  8  9  1  0  0  0  0
  9 10  2  0  0  0  0
M  END
>  <CHROM.1>
5.98456995,17.97758713,3.45709999,-2.40471602,-0.77684473,-1.89765841

>  <Name>
ligand

>  <RI>
0

>  <Rbt.Current_Directory>
/home/itssahil/PROJECTS/Mol_Feturizer/New_Systems/rnas/4XNR

>  <Rbt.Executable>
rbdock ($Id: //depot/dev/client3/rdock/2013.1/src/exe/rbdock.cxx#4 $)

>  <Rbt.Library>
libRbt.so (2013.1, Build901 2013/11/27)

>  <Rbt.Parameter_File>
/export/apps/rDock/src/rDock_2013.1_src/data/scripts/dock_solv.prm

>  <Rbt.Receptor>
prm/pocket_docking_8.prm

>  <SCORE>
-13.5199

>  <SCORE.INTER>
-13.5199

>  <SCORE.INTER.CONST>
1

>  <SCORE.INTER.POLAR>
0

>  <SCORE.INTER.ROT>
0

>  <SCORE.INTER.SOLV>
7.09209

>  <SCORE.INTER.VDW>
-14.9773

>  <SCORE.INTER.norm>
-1.35199

>  <SCORE.INTRA>
0

>  <SCORE.INTRA.DIHEDRAL>
0

>  <SCORE.INTRA.DIHEDRAL.0>
0

>  <SCORE.INTRA.POLAR>
0

>  <SCORE.INTRA.POLAR.0>
0

>  <SCORE.INTRA.REPUL>
0

>  <SCORE.INTRA.REPUL.0>
0

>  <SCORE.INTRA.SOLV>
0

>  <SCORE.INTRA.SOLV.lig_0>
-23.8918

>  <SCORE.INTRA.VDW>
0

>  <SCORE.INTRA.VDW.0>
0

>  <SCORE.INTRA.norm>
0

>  <SCORE.RESTR>
0

>  <SCORE.RESTR.CAVITY>
0

>  <SCORE.RESTR.norm>
0

>  <SCORE.SYSTEM>
0

>  <SCORE.SYSTEM.CONST>
0

>  <SCORE.SYSTEM.DIHEDRAL>
0

>  <SCORE.SYSTEM.SOLV>
0

>  <SCORE.SYSTEM.norm>
0

>  <SCORE.heavy>
10

>  <SCORE.norm>
-1.35199

>  <RMSD>
2.862

$$$$
ligand
 OpenBabel11021811513D
libRbt.so/2013.1/901 2013/11/27
 10 11  0  0  0  0  0  0  0  0999 V2000
    5.1774   17.7392    5.3007 N   0  0  0  0  0  0  0  0  0  0  0  0
    6.0797   18.7131    5.4696 C   0  0  0  0  0  0  0  0  0  0  0  0
    6.9045   19.2557    4.5751 N   0  0  0  0  0  0  0  0  0  0  0  0
    6.7391   18.6894    3.3697 C   0  0  0  0  0  0  0  0  0  0  0  0
    5.8546   17.6802    3.0413 C   0  0  0  0  0  0  0  0  0  0  0  0
    5.0344   17.1898    4.0765 C   0  0  0  0  0  0  0  0  0  0  0  0
    4.1338   16.2173    3.9035 N   0  0  0  0  0  0  0  0  0  0  0  0
    5.9632   17.3493    1.7008 N   0  0  0  0  0  0  0  0  0  0  0  0
    6.8987   18.1528    1.2530 C   0  0  0  0  0  0  0  0  0  0  0  0
    7.4109   18.9883    2.2064 N   0  0  0  0  0  0  0  0  0  0  0  0
  1  2  2  0  0  0  0
  1  6  1  0  0  0  0
  2  3  1  0  0  0  0
  3  4  2  0  0  0  0
  4  5  1  0  0  0  0
  4 10  1  0  0  0  0
  5  6  2  0  0  0  0
  5  8  1  0  0  0  0
  6  7  1  0  0  0  0
  8  9  1  0  0  0  0
  9 10  2  0  0  0  0
M  END
>  <CHROM.1>
6.01183008,17.99079589,3.49330596,-2.37713414,-0.76780159,-1.88984282

>  <Name>
ligand

>  <RI>
0

>  <Rbt.Current_Directory>
/home/itssahil/PROJECTS/Mol_Feturizer/New_Systems/rnas/4XNR

>  <Rbt.Executable>
rbdock ($Id: //depot/dev/client3/rdock/2013.1/src/exe/rbdock.cxx#4 $)

>  <Rbt.Library>
libRbt.so (2013.1, Build901 2013/11/27)

>  <Rbt.Parameter_File>
/export/apps/rDock/src/rDock_2013.1_src/data/scripts/dock_solv.prm

>  <Rbt.Receptor>
prm/pocket_docking_6.prm

>  <SCORE>
-13.4989

>  <SCORE.INTER>
-13.4989

>  <SCORE.INTER.CONST>
1

>  <SCORE.INTER.POLAR>
0

>  <SCORE.INTER.ROT>
0

>  <SCORE.INTER.SOLV>
7.33955

>  <SCORE.INTER.VDW>
-15.0458

>  <SCORE.INTER.norm>
-1.34989

>  <SCORE.INTRA>
0

>  <SCORE.INTRA.DIHEDRAL>
0

>  <SCORE.INTRA.DIHEDRAL.0>
0

>  <SCORE.INTRA.POLAR>
0

>  <SCORE.INTRA.POLAR.0>
0

>  <SCORE.INTRA.REPUL>
0

>  <SCORE.INTRA.REPUL.0>
0

>  <SCORE.INTRA.SOLV>
0

>  <SCORE.INTRA.SOLV.lig_0>
-23.8918

>  <SCORE.INTRA.VDW>
0

>  <SCORE.INTRA.VDW.0>
0

>  <SCORE.INTRA.norm>
0

>  <SCORE.RESTR>
0

>  <SCORE.RESTR.CAVITY>
0

>  <SCORE.RESTR.norm>
0

>  <SCORE.SYSTEM>
0

>  <SCORE.SYSTEM.CONST>
0

>  <SCORE.SYSTEM.DIHEDRAL>
0

>  <SCORE.SYSTEM.SOLV>
0

>  <SCORE.SYSTEM.norm>
0

>  <SCORE.heavy>
10

>  <SCORE.norm>
-1.34989

>  <RMSD>
2.864

$$$$
ligand
 OpenBabel11021811513D
libRbt.so/2013.1/901 2013/11/27
 10 11  0  0  0  0  0  0  0  0999 V2000
    5.2474   17.6463    5.2837 N   0  0  0  0  0  0  0  0  0  0  0  0
    6.1624   18.6066    5.4621 C   0  0  0  0  0  0  0  0  0  0  0  0
    6.9746   19.1669    4.5671 N   0  0  0  0  0  0  0  0  0  0  0  0
    6.7800   18.6368    3.3496 C   0  0  0  0  0  0  0  0  0  0  0  0
    5.8794   17.6455    3.0105 C   0  0  0  0  0  0  0  0  0  0  0  0
    5.0749   17.1334    4.0475 C   0  0  0  0  0  0  0  0  0  0  0  0
    4.1617   16.1746    3.8650 N   0  0  0  0  0  0  0  0  0  0  0  0
    5.9583   17.3521    1.6592 N   0  0  0  0  0  0  0  0  0  0  0  0
    6.8927   18.1593    1.2158 C   0  0  0  0  0  0  0  0  0  0  0  0
    7.4317   18.9626    2.1821 N   0  0  0  0  0  0  0  0  0  0  0  0
  1  2  2  0  0  0  0
  1  6  1  0  0  0  0
  2  3  1  0  0  0  0
  3  4  2  0  0  0  0
  4  5  1  0  0  0  0
  4 10  1  0  0  0  0
  5  6  2  0  0  0  0
  5  8  1  0  0  0  0
  6  7  1  0  0  0  0
  8  9  1  0  0  0  0
  9 10  2  0  0  0  0
M  END
>  <CHROM.1>
6.04850204,17.94165758,3.46789209,-2.34698022,-0.76444858,-1.84049466

>  <Name>
ligand

>  <RI>
0

>  <Rbt.Current_Directory>
/home/itssahil/PROJECTS/Mol_Feturizer/New_Systems/rnas/4XNR

>  <Rbt.Executable>
rbdock ($Id: //depot/dev/client3/rdock/2013.1/src/exe/rbdock.cxx#4 $)

>  <Rbt.Library>
libRbt.so (2013.1, Build901 2013/11/27)

>  <Rbt.Parameter_File>
/export/apps/rDock/src/rDock_2013.1_src/data/scripts/dock_solv.prm

>  <Rbt.Receptor>
prm/pocket_docking_6.prm

>  <SCORE>
-13.4512

>  <SCORE.INTER>
-13.4512

>  <SCORE.INTER.CONST>
1

>  <SCORE.INTER.POLAR>
0

>  <SCORE.INTER.ROT>
0

>  <SCORE.INTER.SOLV>
7.22969

>  <SCORE.INTER.VDW>
-14.9774

>  <SCORE.INTER.norm>
-1.34512

>  <SCORE.INTRA>
0

>  <SCORE.INTRA.DIHEDRAL>
0

>  <SCORE.INTRA.DIHEDRAL.0>
0

>  <SCORE.INTRA.POLAR>
0

>  <SCORE.INTRA.POLAR.0>
0

>  <SCORE.INTRA.REPUL>
0

>  <SCORE.INTRA.REPUL.0>
0

>  <SCORE.INTRA.SOLV>
0

>  <SCORE.INTRA.SOLV.lig_0>
-23.8918

>  <SCORE.INTRA.VDW>
0

>  <SCORE.INTRA.VDW.0>
0

>  <SCORE.INTRA.norm>
0

>  <SCORE.RESTR>
0

>  <SCORE.RESTR.CAVITY>
0

>  <SCORE.RESTR.norm>
0

>  <SCORE.SYSTEM>
0

>  <SCORE.SYSTEM.CONST>
0

>  <SCORE.SYSTEM.DIHEDRAL>
0

>  <SCORE.SYSTEM.SOLV>
0

>  <SCORE.SYSTEM.norm>
0

>  <SCORE.heavy>
10

>  <SCORE.norm>
-1.34512

>  <RMSD>
2.865

$$$$
ligand
 OpenBabel11021811513D
libRbt.so/2013.1/901 2013/11/27
 10 11  0  0  0  0  0  0  0  0999 V2000
    5.1563   17.6916    5.2531 N   0  0  0  0  0  0  0  0  0  0  0  0
    6.0179   18.7032    5.4130 C   0  0  0  0  0  0  0  0  0  0  0  0
    6.8209   19.2701    4.5138 N   0  0  0  0  0  0  0  0  0  0  0  0
    6.6802   18.6856    3.3139 C   0  0  0  0  0  0  0  0  0  0  0  0
    5.8381   17.6378    2.9949 C   0  0  0  0  0  0  0  0  0  0  0  0
    5.0372   17.1247    4.0343 C   0  0  0  0  0  0  0  0  0  0  0  0
    4.1774   16.1145    3.8703 N   0  0  0  0  0  0  0  0  0  0  0  0
    5.9616   17.2984    1.6578 N   0  0  0  0  0  0  0  0  0  0  0  0
    6.8642   18.1348    1.2028 C   0  0  0  0  0  0  0  0  0  0  0  0
    7.3407   19.0001    2.1482 N   0  0  0  0  0  0  0  0  0  0  0  0
  1  2  2  0  0  0  0
  1  6  1  0  0  0  0
  2  3  1  0  0  0  0
  3  4  2  0  0  0  0
  4  5  1  0  0  0  0
  4 10  1  0  0  0  0
  5  6  2  0  0  0  0
  5  8  1  0  0  0  0
  6  7  1  0  0  0  0
  8  9  1  0  0  0  0
  9 10  2  0  0  0  0
M  END
>  <CHROM.1>
5.98191929,17.95907109,3.44393058,-2.39726320,-0.80609079,-1.91406405

>  <Name>
ligand

>  <RI>
0

>  <Rbt.Current_Directory>
/home/itssahil/PROJECTS/Mol_Feturizer/New_Systems/rnas/4XNR

>  <Rbt.Executable>
rbdock ($Id: //depot/dev/client3/rdock/2013.1/src/exe/rbdock.cxx#4 $)

>  <Rbt.Library>
libRbt.so (2013.1, Build901 2013/11/27)

>  <Rbt.Parameter_File>
/export/apps/rDock/src/rDock_2013.1_src/data/scripts/dock_solv.prm

>  <Rbt.Receptor>
prm/blind_docking_100.prm

>  <SCORE>
-13.4166

>  <SCORE.INTER>
-13.4176

>  <SCORE.INTER.CONST>
1

>  <SCORE.INTER.POLAR>
0

>  <SCORE.INTER.ROT>
0

>  <SCORE.INTER.SOLV>
7.37572

>  <SCORE.INTER.VDW>
-15.0037

>  <SCORE.INTER.norm>
-1.34176

>  <SCORE.INTRA>
0

>  <SCORE.INTRA.DIHEDRAL>
0

>  <SCORE.INTRA.DIHEDRAL.0>
0

>  <SCORE.INTRA.POLAR>
0

>  <SCORE.INTRA.POLAR.0>
0

>  <SCORE.INTRA.REPUL>
0

>  <SCORE.INTRA.REPUL.0>
0

>  <SCORE.INTRA.SOLV>
0

>  <SCORE.INTRA.SOLV.lig_0>
-23.8918

>  <SCORE.INTRA.VDW>
0

>  <SCORE.INTRA.VDW.0>
0

>  <SCORE.INTRA.norm>
0

>  <SCORE.RESTR>
0.0010491

>  <SCORE.RESTR.CAVITY>
0.0010491

>  <SCORE.RESTR.norm>
0.00010491

>  <SCORE.SYSTEM>
0

>  <SCORE.SYSTEM.CONST>
0

>  <SCORE.SYSTEM.DIHEDRAL>
0

>  <SCORE.SYSTEM.SOLV>
0

>  <SCORE.SYSTEM.norm>
0

>  <SCORE.heavy>
10

>  <SCORE.norm>
-1.34166

>  <RMSD>
2.866

$$$$
ligand
 OpenBabel11021811513D
libRbt.so/2013.1/901 2013/11/27
 10 11  0  0  0  0  0  0  0  0999 V2000
    5.1532   17.6923    5.2635 N   0  0  0  0  0  0  0  0  0  0  0  0
    6.0227   18.6972    5.4229 C   0  0  0  0  0  0  0  0  0  0  0  0
    6.8243   19.2626    4.5216 N   0  0  0  0  0  0  0  0  0  0  0  0
    6.6725   18.6846    3.3199 C   0  0  0  0  0  0  0  0  0  0  0  0
    5.8213   17.6442    3.0011 C   0  0  0  0  0  0  0  0  0  0  0  0
    5.0231   17.1318    4.0429 C   0  0  0  0  0  0  0  0  0  0  0  0
    4.1553   16.1283    3.8794 N   0  0  0  0  0  0  0  0  0  0  0  0
    5.9346   17.3100    1.6618 N   0  0  0  0  0  0  0  0  0  0  0  0
    6.8402   18.1423    1.2053 C   0  0  0  0  0  0  0  0  0  0  0  0
    7.3282   18.9999    2.1518 N   0  0  0  0  0  0  0  0  0  0  0  0
  1  2  2  0  0  0  0
  1  6  1  0  0  0  0
  2  3  1  0  0  0  0
  3  4  2  0  0  0  0
  4  5  1  0  0  0  0
  4 10  1  0  0  0  0
  5  6  2  0  0  0  0
  5  8  1  0  0  0  0
  6  7  1  0  0  0  0
  8  9  1  0  0  0  0
  9 10  2  0  0  0  0
M  END
>  <CHROM.1>
5.96999009,17.96235986,3.45074282,-2.38598161,-0.80154509,-1.90138681

>  <Name>
ligand

>  <RI>
0

>  <Rbt.Current_Directory>
/home/itssahil/PROJECTS/Mol_Feturizer/New_Systems/rnas/4XNR

>  <Rbt.Executable>
rbdock ($Id: //depot/dev/client3/rdock/2013.1/src/exe/rbdock.cxx#4 $)

>  <Rbt.Library>
libRbt.so (2013.1, Build901 2013/11/27)

>  <Rbt.Parameter_File>
/export/apps/rDock/src/rDock_2013.1_src/data/scripts/dock_solv.prm

>  <Rbt.Receptor>
prm/blind_docking_100.prm

>  <SCORE>
-13.4304

>  <SCORE.INTER>
-13.4304

>  <SCORE.INTER.CONST>
1

>  <SCORE.INTER.POLAR>
0

>  <SCORE.INTER.ROT>
0

>  <SCORE.INTER.SOLV>
7.35837

>  <SCORE.INTER.VDW>
-15.0064

>  <SCORE.INTER.norm>
-1.34304

>  <SCORE.INTRA>
0

>  <SCORE.INTRA.DIHEDRAL>
0

>  <SCORE.INTRA.DIHEDRAL.0>
0

>  <SCORE.INTRA.POLAR>
0

>  <SCORE.INTRA.POLAR.0>
0

>  <SCORE.INTRA.REPUL>
0

>  <SCORE.INTRA.REPUL.0>
0

>  <SCORE.INTRA.SOLV>
0

>  <SCORE.INTRA.SOLV.lig_0>
-23.8918

>  <SCORE.INTRA.VDW>
0

>  <SCORE.INTRA.VDW.0>
0

>  <SCORE.INTRA.norm>
0

>  <SCORE.RESTR>
0

>  <SCORE.RESTR.CAVITY>
0

>  <SCORE.RESTR.norm>
0

>  <SCORE.SYSTEM>
0

>  <SCORE.SYSTEM.CONST>
0

>  <SCORE.SYSTEM.DIHEDRAL>
0

>  <SCORE.SYSTEM.SOLV>
0

>  <SCORE.SYSTEM.norm>
0

>  <SCORE.heavy>
10

>  <SCORE.norm>
-1.34304

>  <RMSD>
2.866

$$$$
ligand
 OpenBabel11021811513D
libRbt.so/2013.1/901 2013/11/27
 10 11  0  0  0  0  0  0  0  0999 V2000
    5.1777   17.6758    5.2674 N   0  0  0  0  0  0  0  0  0  0  0  0
    6.0591   18.6699    5.4293 C   0  0  0  0  0  0  0  0  0  0  0  0
    6.8585   19.2364    4.5267 N   0  0  0  0  0  0  0  0  0  0  0  0
    6.6900   18.6724    3.3205 C   0  0  0  0  0  0  0  0  0  0  0  0
    5.8252   17.6443    2.9987 C   0  0  0  0  0  0  0  0  0  0  0  0
    5.0309   17.1294    4.0423 C   0  0  0  0  0  0  0  0  0  0  0  0
    4.1512   16.1368    3.8762 N   0  0  0  0  0  0  0  0  0  0  0  0
    5.9231   17.3229    1.6551 N   0  0  0  0  0  0  0  0  0  0  0  0
    6.8333   18.1504    1.1990 C   0  0  0  0  0  0  0  0  0  0  0  0
    7.3387   18.9930    2.1499 N   0  0  0  0  0  0  0  0  0  0  0  0
  1  2  2  0  0  0  0
  1  6  1  0  0  0  0
  2  3  1  0  0  0  0
  3  4  2  0  0  0  0
  4  5  1  0  0  0  0
  4 10  1  0  0  0  0
  5  6  2  0  0  0  0
  5  8  1  0  0  0  0
  6  7  1  0  0  0  0
  8  9  1  0  0  0  0
  9 10  2  0  0  0  0
M  END
>  <CHROM.1>
5.98118380,17.95622358,3.45022910,-2.36914758,-0.79441441,-1.87899783

>  <Name>
ligand

>  <RI>
0

>  <Rbt.Current_Directory>
/home/itssahil/PROJECTS/Mol_Feturizer/New_Systems/rnas/4XNR

>  <Rbt.Executable>
rbdock ($Id: //depot/dev/client3/rdock/2013.1/src/exe/rbdock.cxx#4 $)

>  <Rbt.Library>
libRbt.so (2013.1, Build901 2013/11/27)

>  <Rbt.Parameter_File>
/export/apps/rDock/src/rDock_2013.1_src/data/scripts/dock_solv.prm

>  <Rbt.Receptor>
prm/blind_docking_100.prm

>  <SCORE>
-13.418

>  <SCORE.INTER>
-13.4181

>  <SCORE.INTER.CONST>
1

>  <SCORE.INTER.POLAR>
0

>  <SCORE.INTER.ROT>
0

>  <SCORE.INTER.SOLV>
7.31904

>  <SCORE.INTER.VDW>
-14.9851

>  <SCORE.INTER.norm>
-1.34181

>  <SCORE.INTRA>
0

>  <SCORE.INTRA.DIHEDRAL>
0

>  <SCORE.INTRA.DIHEDRAL.0>
0

>  <SCORE.INTRA.POLAR>
0

>  <SCORE.INTRA.POLAR.0>
0

>  <SCORE.INTRA.REPUL>
0

>  <SCORE.INTRA.REPUL.0>
0

>  <SCORE.INTRA.SOLV>
0

>  <SCORE.INTRA.SOLV.lig_0>
-23.8918

>  <SCORE.INTRA.VDW>
0

>  <SCORE.INTRA.VDW.0>
0

>  <SCORE.INTRA.norm>
0

>  <SCORE.RESTR>
0.000108011

>  <SCORE.RESTR.CAVITY>
0.000108011

>  <SCORE.RESTR.norm>
1.08011e-05

>  <SCORE.SYSTEM>
0

>  <SCORE.SYSTEM.CONST>
0

>  <SCORE.SYSTEM.DIHEDRAL>
0

>  <SCORE.SYSTEM.SOLV>
0

>  <SCORE.SYSTEM.norm>
0

>  <SCORE.heavy>
10

>  <SCORE.norm>
-1.3418

>  <RMSD>
2.866

$$$$
ligand
 OpenBabel11021811513D
libRbt.so/2013.1/901 2013/11/27
 10 11  0  0  0  0  0  0  0  0999 V2000
    5.2037   17.6586    5.2619 N   0  0  0  0  0  0  0  0  0  0  0  0
    6.1392   18.5952    5.4596 C   0  0  0  0  0  0  0  0  0  0  0  0
    6.9730   19.1459    4.5786 N   0  0  0  0  0  0  0  0  0  0  0  0
    6.7778   18.6339    3.3535 C   0  0  0  0  0  0  0  0  0  0  0  0
    5.8576   17.6678    2.9948 C   0  0  0  0  0  0  0  0  0  0  0  0
    5.0313   17.1635    4.0185 C   0  0  0  0  0  0  0  0  0  0  0  0
    4.0977   16.2284    3.8167 N   0  0  0  0  0  0  0  0  0  0  0  0
    5.9427   17.3873    1.6412 N   0  0  0  0  0  0  0  0  0  0  0  0
    6.9000   18.1771    1.2156 C   0  0  0  0  0  0  0  0  0  0  0  0
    7.4483   18.9569    2.1959 N   0  0  0  0  0  0  0  0  0  0  0  0
  1  2  2  0  0  0  0
  1  6  1  0  0  0  0
  2  3  1  0  0  0  0
  3  4  2  0  0  0  0
  4  5  1  0  0  0  0
  4 10  1  0  0  0  0
  5  6  2  0  0  0  0
  5  8  1  0  0  0  0
  6  7  1  0  0  0  0
  8  9  1  0  0  0  0
  9 10  2  0  0  0  0
M  END
>  <CHROM.1>
6.02915789,17.95486311,3.45710052,-2.35119575,-0.73928955,-1.83235282

>  <Name>
ligand

>  <RI>
0

>  <Rbt.Current_Directory>
/home/itssahil/PROJECTS/Mol_Feturizer/New_Systems/rnas/4XNR

>  <Rbt.Executable>
rbdock ($Id: //depot/dev/client3/rdock/2013.1/src/exe/rbdock.cxx#4 $)

>  <Rbt.Library>
libRbt.so (2013.1, Build901 2013/11/27)

>  <Rbt.Parameter_File>
/export/apps/rDock/src/rDock_2013.1_src/data/scripts/dock_solv.prm

>  <Rbt.Receptor>
prm/pocket_docking_6.prm

>  <SCORE>
-13.4891

>  <SCORE.INTER>
-13.4891

>  <SCORE.INTER.CONST>
1

>  <SCORE.INTER.POLAR>
0

>  <SCORE.INTER.ROT>
0

>  <SCORE.INTER.SOLV>
7.01707

>  <SCORE.INTER.VDW>
-14.9317

>  <SCORE.INTER.norm>
-1.34891

>  <SCORE.INTRA>
0

>  <SCORE.INTRA.DIHEDRAL>
0

>  <SCORE.INTRA.DIHEDRAL.0>
0

>  <SCORE.INTRA.POLAR>
0

>  <SCORE.INTRA.POLAR.0>
0

>  <SCORE.INTRA.REPUL>
0

>  <SCORE.INTRA.REPUL.0>
0

>  <SCORE.INTRA.SOLV>
0

>  <SCORE.INTRA.SOLV.lig_0>
-23.8918

>  <SCORE.INTRA.VDW>
0

>  <SCORE.INTRA.VDW.0>
0

>  <SCORE.INTRA.norm>
0

>  <SCORE.RESTR>
0

>  <SCORE.RESTR.CAVITY>
0

>  <SCORE.RESTR.norm>
0

>  <SCORE.SYSTEM>
0

>  <SCORE.SYSTEM.CONST>
0

>  <SCORE.SYSTEM.DIHEDRAL>
0

>  <SCORE.SYSTEM.SOLV>
0

>  <SCORE.SYSTEM.norm>
0

>  <SCORE.heavy>
10

>  <SCORE.norm>
-1.34891

>  <RMSD>
2.866

$$$$
ligand
 OpenBabel11021811513D
libRbt.so/2013.1/901 2013/11/27
 10 11  0  0  0  0  0  0  0  0999 V2000
    5.1613   17.6916    5.2627 N   0  0  0  0  0  0  0  0  0  0  0  0
    6.0356   18.6922    5.4227 C   0  0  0  0  0  0  0  0  0  0  0  0
    6.8358   19.2581    4.5205 N   0  0  0  0  0  0  0  0  0  0  0  0
    6.6767   18.6858    3.3170 C   0  0  0  0  0  0  0  0  0  0  0  0
    5.8199   17.6502    2.9974 C   0  0  0  0  0  0  0  0  0  0  0  0
    5.0239   17.1367    4.0403 C   0  0  0  0  0  0  0  0  0  0  0  0
    4.1513   16.1376    3.8762 N   0  0  0  0  0  0  0  0  0  0  0  0
    5.9263   17.3212    1.6563 N   0  0  0  0  0  0  0  0  0  0  0  0
    6.8335   18.1517    1.1994 C   0  0  0  0  0  0  0  0  0  0  0  0
    7.3289   19.0033    2.1475 N   0  0  0  0  0  0  0  0  0  0  0  0
  1  2  2  0  0  0  0
  1  6  1  0  0  0  0
  2  3  1  0  0  0  0
  3  4  2  0  0  0  0
  4  5  1  0  0  0  0
  4 10  1  0  0  0  0
  5  6  2  0  0  0  0
  5  8  1  0  0  0  0
  6  7  1  0  0  0  0
  8  9  1  0  0  0  0
  9 10  2  0  0  0  0
M  END
>  <CHROM.1>
5.97174791,17.96589083,3.44774858,-2.37845235,-0.79895487,-1.89179166

>  <Name>
ligand

>  <RI>
0

>  <Rbt.Current_Directory>
/home/itssahil/PROJECTS/Mol_Feturizer/New_Systems/rnas/4XNR

>  <Rbt.Executable>
rbdock ($Id: //depot/dev/client3/rdock/2013.1/src/exe/rbdock.cxx#4 $)

>  <Rbt.Library>
libRbt.so (2013.1, Build901 2013/11/27)

>  <Rbt.Parameter_File>
/export/apps/rDock/src/rDock_2013.1_src/data/scripts/dock_solv.prm

>  <Rbt.Receptor>
prm/blind_docking_100.prm

>  <SCORE>
-13.4285

>  <SCORE.INTER>
-13.4285

>  <SCORE.INTER.CONST>
1

>  <SCORE.INTER.POLAR>
0

>  <SCORE.INTER.ROT>
0

>  <SCORE.INTER.SOLV>
7.33098

>  <SCORE.INTER.VDW>
-14.996

>  <SCORE.INTER.norm>
-1.34285

>  <SCORE.INTRA>
0

>  <SCORE.INTRA.DIHEDRAL>
0

>  <SCORE.INTRA.DIHEDRAL.0>
0

>  <SCORE.INTRA.POLAR>
0

>  <SCORE.INTRA.POLAR.0>
0

>  <SCORE.INTRA.REPUL>
0

>  <SCORE.INTRA.REPUL.0>
0

>  <SCORE.INTRA.SOLV>
0

>  <SCORE.INTRA.SOLV.lig_0>
-23.8918

>  <SCORE.INTRA.VDW>
0

>  <SCORE.INTRA.VDW.0>
0

>  <SCORE.INTRA.norm>
0

>  <SCORE.RESTR>
0

>  <SCORE.RESTR.CAVITY>
0

>  <SCORE.RESTR.norm>
0

>  <SCORE.SYSTEM>
0

>  <SCORE.SYSTEM.CONST>
0

>  <SCORE.SYSTEM.DIHEDRAL>
0

>  <SCORE.SYSTEM.SOLV>
0

>  <SCORE.SYSTEM.norm>
0

>  <SCORE.heavy>
10

>  <SCORE.norm>
-1.34285

>  <RMSD>
2.867

$$$$
ligand
 OpenBabel11021811513D
libRbt.so/2013.1/901 2013/11/27
 10 11  0  0  0  0  0  0  0  0999 V2000
    5.2043   17.6768    5.2549 N   0  0  0  0  0  0  0  0  0  0  0  0
    6.1345   18.6192    5.4495 C   0  0  0  0  0  0  0  0  0  0  0  0
    6.9718   19.1648    4.5686 N   0  0  0  0  0  0  0  0  0  0  0  0
    6.7869   18.6399    3.3474 C   0  0  0  0  0  0  0  0  0  0  0  0
    5.8731   17.6665    2.9922 C   0  0  0  0  0  0  0  0  0  0  0  0
    5.0422   17.1687    4.0153 C   0  0  0  0  0  0  0  0  0  0  0  0
    4.1138   16.2278    3.8166 N   0  0  0  0  0  0  0  0  0  0  0  0
    5.9683   17.3731    1.6420 N   0  0  0  0  0  0  0  0  0  0  0  0
    6.9251   18.1627    1.2149 C   0  0  0  0  0  0  0  0  0  0  0  0
    7.4636   18.9544    2.1910 N   0  0  0  0  0  0  0  0  0  0  0  0
  1  2  2  0  0  0  0
  1  6  1  0  0  0  0
  2  3  1  0  0  0  0
  3  4  2  0  0  0  0
  4  5  1  0  0  0  0
  4 10  1  0  0  0  0
  5  6  2  0  0  0  0
  5  8  1  0  0  0  0
  6  7  1  0  0  0  0
  8  9  1  0  0  0  0
  9 10  2  0  0  0  0
M  END
>  <CHROM.1>
6.04038674,17.95879959,3.45271444,-2.36130597,-0.74157241,-1.84900548

>  <Name>
ligand

>  <RI>
0

>  <Rbt.Current_Directory>
/home/itssahil/PROJECTS/Mol_Feturizer/New_Systems/rnas/4XNR

>  <Rbt.Executable>
rbdock ($Id: //depot/dev/client3/rdock/2013.1/src/exe/rbdock.cxx#4 $)

>  <Rbt.Library>
libRbt.so (2013.1, Build901 2013/11/27)

>  <Rbt.Parameter_File>
/export/apps/rDock/src/rDock_2013.1_src/data/scripts/dock_solv.prm

>  <Rbt.Receptor>
prm/pocket_docking_7.prm

>  <SCORE>
-13.4838

>  <SCORE.INTER>
-13.4838

>  <SCORE.INTER.CONST>
1

>  <SCORE.INTER.POLAR>
0

>  <SCORE.INTER.ROT>
0

>  <SCORE.INTER.SOLV>
7.0299

>  <SCORE.INTER.VDW>
-14.9325

>  <SCORE.INTER.norm>
-1.34838

>  <SCORE.INTRA>
0

>  <SCORE.INTRA.DIHEDRAL>
0

>  <SCORE.INTRA.DIHEDRAL.0>
0

>  <SCORE.INTRA.POLAR>
0

>  <SCORE.INTRA.POLAR.0>
0

>  <SCORE.INTRA.REPUL>
0

>  <SCORE.INTRA.REPUL.0>
0

>  <SCORE.INTRA.SOLV>
0

>  <SCORE.INTRA.SOLV.lig_0>
-23.8918

>  <SCORE.INTRA.VDW>
0

>  <SCORE.INTRA.VDW.0>
0

>  <SCORE.INTRA.norm>
0

>  <SCORE.RESTR>
0

>  <SCORE.RESTR.CAVITY>
0

>  <SCORE.RESTR.norm>
0

>  <SCORE.SYSTEM>
0

>  <SCORE.SYSTEM.CONST>
0

>  <SCORE.SYSTEM.DIHEDRAL>
0

>  <SCORE.SYSTEM.SOLV>
0

>  <SCORE.SYSTEM.norm>
0

>  <SCORE.heavy>
10

>  <SCORE.norm>
-1.34838

>  <RMSD>
2.868

$$$$
ligand
 OpenBabel11021811513D
libRbt.so/2013.1/901 2013/11/27
 10 11  0  0  0  0  0  0  0  0999 V2000
    5.2273   17.7403    5.2988 N   0  0  0  0  0  0  0  0  0  0  0  0
    6.1406   18.7061    5.4553 C   0  0  0  0  0  0  0  0  0  0  0  0
    6.9566   19.2427    4.5493 N   0  0  0  0  0  0  0  0  0  0  0  0
    6.7683   18.6794    3.3458 C   0  0  0  0  0  0  0  0  0  0  0  0
    5.8702   17.6784    3.0294 C   0  0  0  0  0  0  0  0  0  0  0  0
    5.0612   17.1938    4.0762 C   0  0  0  0  0  0  0  0  0  0  0  0
    4.1498   16.2294    3.9155 N   0  0  0  0  0  0  0  0  0  0  0  0
    5.9558   17.3483    1.6871 N   0  0  0  0  0  0  0  0  0  0  0  0
    6.8916   18.1441    1.2263 C   0  0  0  0  0  0  0  0  0  0  0  0
    7.4252   18.9740    2.1729 N   0  0  0  0  0  0  0  0  0  0  0  0
  1  2  2  0  0  0  0
  1  6  1  0  0  0  0
  2  3  1  0  0  0  0
  3  4  2  0  0  0  0
  4  5  1  0  0  0  0
  4 10  1  0  0  0  0
  5  6  2  0  0  0  0
  5  8  1  0  0  0  0
  6  7  1  0  0  0  0
  8  9  1  0  0  0  0
  9 10  2  0  0  0  0
M  END
>  <CHROM.1>
6.03686425,17.98699673,3.47942218,-2.35370411,-0.76404849,-1.87237749

>  <Name>
ligand

>  <RI>
0

>  <Rbt.Current_Directory>
/home/itssahil/PROJECTS/Mol_Feturizer/New_Systems/rnas/4XNR

>  <Rbt.Executable>
rbdock ($Id: //depot/dev/client3/rdock/2013.1/src/exe/rbdock.cxx#4 $)

>  <Rbt.Library>
libRbt.so (2013.1, Build901 2013/11/27)

>  <Rbt.Parameter_File>
/export/apps/rDock/src/rDock_2013.1_src/data/scripts/dock_solv.prm

>  <Rbt.Receptor>
prm/pocket_docking_6.prm

>  <SCORE>
-13.5122

>  <SCORE.INTER>
-13.5122

>  <SCORE.INTER.CONST>
1

>  <SCORE.INTER.POLAR>
0

>  <SCORE.INTER.ROT>
0

>  <SCORE.INTER.SOLV>
7.37522

>  <SCORE.INTER.VDW>
-15.0665

>  <SCORE.INTER.norm>
-1.35122

>  <SCORE.INTRA>
0

>  <SCORE.INTRA.DIHEDRAL>
0

>  <SCORE.INTRA.DIHEDRAL.0>
0

>  <SCORE.INTRA.POLAR>
0

>  <SCORE.INTRA.POLAR.0>
0

>  <SCORE.INTRA.REPUL>
0

>  <SCORE.INTRA.REPUL.0>
0

>  <SCORE.INTRA.SOLV>
0

>  <SCORE.INTRA.SOLV.lig_0>
-23.8918

>  <SCORE.INTRA.VDW>
0

>  <SCORE.INTRA.VDW.0>
0

>  <SCORE.INTRA.norm>
0

>  <SCORE.RESTR>
0

>  <SCORE.RESTR.CAVITY>
0

>  <SCORE.RESTR.norm>
0

>  <SCORE.SYSTEM>
0

>  <SCORE.SYSTEM.CONST>
0

>  <SCORE.SYSTEM.DIHEDRAL>
0

>  <SCORE.SYSTEM.SOLV>
0

>  <SCORE.SYSTEM.norm>
0

>  <SCORE.heavy>
10

>  <SCORE.norm>
-1.35122

>  <RMSD>
2.869

$$$$
ligand
 OpenBabel11021811513D
libRbt.so/2013.1/901 2013/11/27
 10 11  0  0  0  0  0  0  0  0999 V2000
    5.2483   17.7365    5.3044 N   0  0  0  0  0  0  0  0  0  0  0  0
    6.1565   18.7080    5.4546 C   0  0  0  0  0  0  0  0  0  0  0  0
    6.9633   19.2492    4.5431 N   0  0  0  0  0  0  0  0  0  0  0  0
    6.7708   18.6842    3.3411 C   0  0  0  0  0  0  0  0  0  0  0  0
    5.8770   17.6774    3.0309 C   0  0  0  0  0  0  0  0  0  0  0  0
    5.0778   17.1883    4.0831 C   0  0  0  0  0  0  0  0  0  0  0  0
    4.1713   16.2181    3.9287 N   0  0  0  0  0  0  0  0  0  0  0  0
    5.9561   17.3472    1.6882 N   0  0  0  0  0  0  0  0  0  0  0  0
    6.8839   18.1486    1.2211 C   0  0  0  0  0  0  0  0  0  0  0  0
    7.4184   18.9822    2.1639 N   0  0  0  0  0  0  0  0  0  0  0  0
  1  2  2  0  0  0  0
  1  6  1  0  0  0  0
  2  3  1  0  0  0  0
  3  4  2  0  0  0  0
  4  5  1  0  0  0  0
  4 10  1  0  0  0  0
  5  6  2  0  0  0  0
  5  8  1  0  0  0  0
  6  7  1  0  0  0  0
  8  9  1  0  0  0  0
  9 10  2  0  0  0  0
M  END
>  <CHROM.1>
6.04460386,17.98725868,3.47971551,-2.34773193,-0.77189288,-1.86870030

>  <Name>
ligand

>  <RI>
0

>  <Rbt.Current_Directory>
/home/itssahil/PROJECTS/Mol_Feturizer/New_Systems/rnas/4XNR

>  <Rbt.Executable>
rbdock ($Id: //depot/dev/client3/rdock/2013.1/src/exe/rbdock.cxx#4 $)

>  <Rbt.Library>
libRbt.so (2013.1, Build901 2013/11/27)

>  <Rbt.Parameter_File>
/export/apps/rDock/src/rDock_2013.1_src/data/scripts/dock_solv.prm

>  <Rbt.Receptor>
prm/pocket_docking_7.prm

>  <SCORE>
-13.5208

>  <SCORE.INTER>
-13.5208

>  <SCORE.INTER.CONST>
1

>  <SCORE.INTER.POLAR>
0

>  <SCORE.INTER.ROT>
0

>  <SCORE.INTER.SOLV>
7.43483

>  <SCORE.INTER.VDW>
-15.0922

>  <SCORE.INTER.norm>
-1.35208

>  <SCORE.INTRA>
0

>  <SCORE.INTRA.DIHEDRAL>
0

>  <SCORE.INTRA.DIHEDRAL.0>
0

>  <SCORE.INTRA.POLAR>
0

>  <SCORE.INTRA.POLAR.0>
0

>  <SCORE.INTRA.REPUL>
0

>  <SCORE.INTRA.REPUL.0>
0

>  <SCORE.INTRA.SOLV>
0

>  <SCORE.INTRA.SOLV.lig_0>
-23.8918

>  <SCORE.INTRA.VDW>
0

>  <SCORE.INTRA.VDW.0>
0

>  <SCORE.INTRA.norm>
0

>  <SCORE.RESTR>
0

>  <SCORE.RESTR.CAVITY>
0

>  <SCORE.RESTR.norm>
0

>  <SCORE.SYSTEM>
0

>  <SCORE.SYSTEM.CONST>
0

>  <SCORE.SYSTEM.DIHEDRAL>
0

>  <SCORE.SYSTEM.SOLV>
0

>  <SCORE.SYSTEM.norm>
0

>  <SCORE.heavy>
10

>  <SCORE.norm>
-1.35208

>  <RMSD>
2.869

$$$$
ligand
 OpenBabel11021811513D
libRbt.so/2013.1/901 2013/11/27
 10 11  0  0  0  0  0  0  0  0999 V2000
    5.1339   17.7122    5.2265 N   0  0  0  0  0  0  0  0  0  0  0  0
    6.0177   18.7024    5.3985 C   0  0  0  0  0  0  0  0  0  0  0  0
    6.8361   19.2594    4.5070 N   0  0  0  0  0  0  0  0  0  0  0  0
    6.6858   18.6896    3.3012 C   0  0  0  0  0  0  0  0  0  0  0  0
    5.8212   17.6642    2.9699 C   0  0  0  0  0  0  0  0  0  0  0  0
    5.0058   17.1596    4.0021 C   0  0  0  0  0  0  0  0  0  0  0  0
    4.1238   16.1707    3.8261 N   0  0  0  0  0  0  0  0  0  0  0  0
    5.9412   17.3346    1.6300 N   0  0  0  0  0  0  0  0  0  0  0  0
    6.8638   18.1547    1.1855 C   0  0  0  0  0  0  0  0  0  0  0  0
    7.3568   19.0000    2.1405 N   0  0  0  0  0  0  0  0  0  0  0  0
  1  2  2  0  0  0  0
  1  6  1  0  0  0  0
  2  3  1  0  0  0  0
  3  4  2  0  0  0  0
  4  5  1  0  0  0  0
  4 10  1  0  0  0  0
  5  6  2  0  0  0  0
  5  8  1  0  0  0  0
  6  7  1  0  0  0  0
  8  9  1  0  0  0  0
  9 10  2  0  0  0  0
M  END
>  <CHROM.1>
5.97092482,17.97787803,3.42235893,-2.39060913,-0.78374421,-1.89988009

>  <Name>
ligand

>  <RI>
0

>  <Rbt.Current_Directory>
/home/itssahil/PROJECTS/Mol_Feturizer/New_Systems/rnas/4XNR

>  <Rbt.Executable>
rbdock ($Id: //depot/dev/client3/rdock/2013.1/src/exe/rbdock.cxx#4 $)

>  <Rbt.Library>
libRbt.so (2013.1, Build901 2013/11/27)

>  <Rbt.Parameter_File>
/export/apps/rDock/src/rDock_2013.1_src/data/scripts/dock_solv.prm

>  <Rbt.Receptor>
prm/blind_docking_100.prm

>  <SCORE>
-13.4424

>  <SCORE.INTER>
-13.4426

>  <SCORE.INTER.CONST>
1

>  <SCORE.INTER.POLAR>
0

>  <SCORE.INTER.ROT>
0

>  <SCORE.INTER.SOLV>
7.12701

>  <SCORE.INTER.VDW>
-14.9374

>  <SCORE.INTER.norm>
-1.34426

>  <SCORE.INTRA>
0

>  <SCORE.INTRA.DIHEDRAL>
0

>  <SCORE.INTRA.DIHEDRAL.0>
0

>  <SCORE.INTRA.POLAR>
0

>  <SCORE.INTRA.POLAR.0>
0

>  <SCORE.INTRA.REPUL>
0

>  <SCORE.INTRA.REPUL.0>
0

>  <SCORE.INTRA.SOLV>
0

>  <SCORE.INTRA.SOLV.lig_0>
-23.8918

>  <SCORE.INTRA.VDW>
0

>  <SCORE.INTRA.VDW.0>
0

>  <SCORE.INTRA.norm>
0

>  <SCORE.RESTR>
0.000249242

>  <SCORE.RESTR.CAVITY>
0.000249242

>  <SCORE.RESTR.norm>
2.49242e-05

>  <SCORE.SYSTEM>
0

>  <SCORE.SYSTEM.CONST>
0

>  <SCORE.SYSTEM.DIHEDRAL>
0

>  <SCORE.SYSTEM.SOLV>
0

>  <SCORE.SYSTEM.norm>
0

>  <SCORE.heavy>
10

>  <SCORE.norm>
-1.34424

>  <RMSD>
2.870

$$$$
ligand
 OpenBabel11021811513D
libRbt.so/2013.1/901 2013/11/27
 10 11  0  0  0  0  0  0  0  0999 V2000
    5.1160   17.7322    5.4191 N   0  0  0  0  0  0  0  0  0  0  0  0
    6.1136   18.6131    5.5606 C   0  0  0  0  0  0  0  0  0  0  0  0
    7.0005   19.0272    4.6569 N   0  0  0  0  0  0  0  0  0  0  0  0
    6.7899   18.4291    3.4741 C   0  0  0  0  0  0  0  0  0  0  0  0
    5.8082   17.5042    3.1749 C   0  0  0  0  0  0  0  0  0  0  0  0
    4.9296   17.1478    4.2171 C   0  0  0  0  0  0  0  0  0  0  0  0
    3.9341   16.2678    4.0714 N   0  0  0  0  0  0  0  0  0  0  0  0
    5.8962   17.1056    1.8515 N   0  0  0  0  0  0  0  0  0  0  0  0
    6.9157   17.7867    1.3847 C   0  0  0  0  0  0  0  0  0  0  0  0
    7.5022   18.6052    2.3097 N   0  0  0  0  0  0  0  0  0  0  0  0
  1  2  2  0  0  0  0
  1  6  1  0  0  0  0
  2  3  1  0  0  0  0
  3  4  2  0  0  0  0
  4  5  1  0  0  0  0
  4 10  1  0  0  0  0
  5  6  2  0  0  0  0
  5  8  1  0  0  0  0
  6  7  1  0  0  0  0
  8  9  1  0  0  0  0
  9 10  2  0  0  0  0
M  END
>  <CHROM.1>
5.99208711,17.81617763,3.61582438,-2.34863485,-0.66436644,-1.91425224

>  <Name>
ligand

>  <RI>
0

>  <Rbt.Current_Directory>
/home/itssahil/PROJECTS/Mol_Feturizer/New_Systems/rnas/4XNR

>  <Rbt.Executable>
rbdock ($Id: //depot/dev/client3/rdock/2013.1/src/exe/rbdock.cxx#4 $)

>  <Rbt.Library>
libRbt.so (2013.1, Build901 2013/11/27)

>  <Rbt.Parameter_File>
/export/apps/rDock/src/rDock_2013.1_src/data/scripts/dock_solv.prm

>  <Rbt.Receptor>
prm/blind_docking_40.prm

>  <SCORE>
-12.7197

>  <SCORE.INTER>
-12.7266

>  <SCORE.INTER.CONST>
1

>  <SCORE.INTER.POLAR>
0

>  <SCORE.INTER.ROT>
0

>  <SCORE.INTER.SOLV>
7.55321

>  <SCORE.INTER.VDW>
-14.6021

>  <SCORE.INTER.norm>
-1.27266

>  <SCORE.INTRA>
0

>  <SCORE.INTRA.DIHEDRAL>
0

>  <SCORE.INTRA.DIHEDRAL.0>
0

>  <SCORE.INTRA.POLAR>
0

>  <SCORE.INTRA.POLAR.0>
0

>  <SCORE.INTRA.REPUL>
0

>  <SCORE.INTRA.REPUL.0>
0

>  <SCORE.INTRA.SOLV>
0

>  <SCORE.INTRA.SOLV.lig_0>
-23.8918

>  <SCORE.INTRA.VDW>
0

>  <SCORE.INTRA.VDW.0>
0

>  <SCORE.INTRA.norm>
0

>  <SCORE.RESTR>
0.00693738

>  <SCORE.RESTR.CAVITY>
0.00693738

>  <SCORE.RESTR.norm>
0.000693738

>  <SCORE.SYSTEM>
0

>  <SCORE.SYSTEM.CONST>
0

>  <SCORE.SYSTEM.DIHEDRAL>
0

>  <SCORE.SYSTEM.SOLV>
0

>  <SCORE.SYSTEM.norm>
0

>  <SCORE.heavy>
10

>  <SCORE.norm>
-1.27197

>  <RMSD>
2.870

$$$$
ligand
 OpenBabel11021811513D
libRbt.so/2013.1/901 2013/11/27
 10 11  0  0  0  0  0  0  0  0999 V2000
    5.1262   17.7277    5.4263 N   0  0  0  0  0  0  0  0  0  0  0  0
    6.1205   18.6132    5.5629 C   0  0  0  0  0  0  0  0  0  0  0  0
    7.0034   19.0283    4.6559 N   0  0  0  0  0  0  0  0  0  0  0  0
    6.7925   18.4260    3.4753 C   0  0  0  0  0  0  0  0  0  0  0  0
    5.8139   17.4962    3.1811 C   0  0  0  0  0  0  0  0  0  0  0  0
    4.9394   17.1390    4.2265 C   0  0  0  0  0  0  0  0  0  0  0  0
    3.9472   16.2545    4.0857 N   0  0  0  0  0  0  0  0  0  0  0  0
    5.9003   17.0942    1.8586 N   0  0  0  0  0  0  0  0  0  0  0  0
    6.9159   17.7783    1.3874 C   0  0  0  0  0  0  0  0  0  0  0  0
    7.5011   18.6018    2.3087 N   0  0  0  0  0  0  0  0  0  0  0  0
  1  2  2  0  0  0  0
  1  6  1  0  0  0  0
  2  3  1  0  0  0  0
  3  4  2  0  0  0  0
  4  5  1  0  0  0  0
  4 10  1  0  0  0  0
  5  6  2  0  0  0  0
  5  8  1  0  0  0  0
  6  7  1  0  0  0  0
  8  9  1  0  0  0  0
  9 10  2  0  0  0  0
M  END
>  <CHROM.1>
5.99756981,17.81020338,3.62068810,-2.34751699,-0.66913099,-1.91638726

>  <Name>
ligand

>  <RI>
0

>  <Rbt.Current_Directory>
/home/itssahil/PROJECTS/Mol_Feturizer/New_Systems/rnas/4XNR

>  <Rbt.Executable>
rbdock ($Id: //depot/dev/client3/rdock/2013.1/src/exe/rbdock.cxx#4 $)

>  <Rbt.Library>
libRbt.so (2013.1, Build901 2013/11/27)

>  <Rbt.Parameter_File>
/export/apps/rDock/src/rDock_2013.1_src/data/scripts/dock_solv.prm

>  <Rbt.Receptor>
prm/blind_docking_40.prm

>  <SCORE>
-12.6888

>  <SCORE.INTER>
-12.6915

>  <SCORE.INTER.CONST>
1

>  <SCORE.INTER.POLAR>
0

>  <SCORE.INTER.ROT>
0

>  <SCORE.INTER.SOLV>
7.60749

>  <SCORE.INTER.VDW>
-14.5968

>  <SCORE.INTER.norm>
-1.26915

>  <SCORE.INTRA>
0

>  <SCORE.INTRA.DIHEDRAL>
0

>  <SCORE.INTRA.DIHEDRAL.0>
0

>  <SCORE.INTRA.POLAR>
0

>  <SCORE.INTRA.POLAR.0>
0

>  <SCORE.INTRA.REPUL>
0

>  <SCORE.INTRA.REPUL.0>
0

>  <SCORE.INTRA.SOLV>
0

>  <SCORE.INTRA.SOLV.lig_0>
-23.8918

>  <SCORE.INTRA.VDW>
0

>  <SCORE.INTRA.VDW.0>
0

>  <SCORE.INTRA.norm>
0

>  <SCORE.RESTR>
0.00274453

>  <SCORE.RESTR.CAVITY>
0.00274453

>  <SCORE.RESTR.norm>
0.000274453

>  <SCORE.SYSTEM>
0

>  <SCORE.SYSTEM.CONST>
0

>  <SCORE.SYSTEM.DIHEDRAL>
0

>  <SCORE.SYSTEM.SOLV>
0

>  <SCORE.SYSTEM.norm>
0

>  <SCORE.heavy>
10

>  <SCORE.norm>
-1.26888

>  <RMSD>
2.870

$$$$
ligand
 OpenBabel11021811513D
libRbt.so/2013.1/901 2013/11/27
 10 11  0  0  0  0  0  0  0  0999 V2000
    5.1585   17.7033    5.2341 N   0  0  0  0  0  0  0  0  0  0  0  0
    6.0476   18.6890    5.4046 C   0  0  0  0  0  0  0  0  0  0  0  0
    6.8614   19.2475    4.5100 N   0  0  0  0  0  0  0  0  0  0  0  0
    6.6997   18.6849    3.3023 C   0  0  0  0  0  0  0  0  0  0  0  0
    5.8284   17.6649    2.9720 C   0  0  0  0  0  0  0  0  0  0  0  0
    5.0188   17.1579    4.0077 C   0  0  0  0  0  0  0  0  0  0  0  0
    4.1315   16.1736    3.8330 N   0  0  0  0  0  0  0  0  0  0  0  0
    5.9368   17.3421    1.6295 N   0  0  0  0  0  0  0  0  0  0  0  0
    6.8594   18.1608    1.1824 C   0  0  0  0  0  0  0  0  0  0  0  0
    7.3631   18.9989    2.1382 N   0  0  0  0  0  0  0  0  0  0  0  0
  1  2  2  0  0  0  0
  1  6  1  0  0  0  0
  2  3  1  0  0  0  0
  3  4  2  0  0  0  0
  4  5  1  0  0  0  0
  4 10  1  0  0  0  0
  5  6  2  0  0  0  0
  5  8  1  0  0  0  0
  6  7  1  0  0  0  0
  8  9  1  0  0  0  0
  9 10  2  0  0  0  0
M  END
>  <CHROM.1>
5.98284961,17.97543088,3.42503014,-2.37860001,-0.78229835,-1.88596881

>  <Name>
ligand

>  <RI>
0

>  <Rbt.Current_Directory>
/home/itssahil/PROJECTS/Mol_Feturizer/New_Systems/rnas/4XNR

>  <Rbt.Executable>
rbdock ($Id: //depot/dev/client3/rdock/2013.1/src/exe/rbdock.cxx#4 $)

>  <Rbt.Library>
libRbt.so (2013.1, Build901 2013/11/27)

>  <Rbt.Parameter_File>
/export/apps/rDock/src/rDock_2013.1_src/data/scripts/dock_solv.prm

>  <Rbt.Receptor>
prm/blind_docking_80.prm

>  <SCORE>
-13.4331

>  <SCORE.INTER>
-13.4332

>  <SCORE.INTER.CONST>
1

>  <SCORE.INTER.POLAR>
0

>  <SCORE.INTER.ROT>
0

>  <SCORE.INTER.SOLV>
7.14325

>  <SCORE.INTER.VDW>
-14.9366

>  <SCORE.INTER.norm>
-1.34332

>  <SCORE.INTRA>
0

>  <SCORE.INTRA.DIHEDRAL>
0

>  <SCORE.INTRA.DIHEDRAL.0>
0

>  <SCORE.INTRA.POLAR>
0

>  <SCORE.INTRA.POLAR.0>
0

>  <SCORE.INTRA.REPUL>
0

>  <SCORE.INTRA.REPUL.0>
0

>  <SCORE.INTRA.SOLV>
0

>  <SCORE.INTRA.SOLV.lig_0>
-23.8918

>  <SCORE.INTRA.VDW>
0

>  <SCORE.INTRA.VDW.0>
0

>  <SCORE.INTRA.norm>
0

>  <SCORE.RESTR>
0.00013174

>  <SCORE.RESTR.CAVITY>
0.00013174

>  <SCORE.RESTR.norm>
1.3174e-05

>  <SCORE.SYSTEM>
0

>  <SCORE.SYSTEM.CONST>
0

>  <SCORE.SYSTEM.DIHEDRAL>
0

>  <SCORE.SYSTEM.SOLV>
0

>  <SCORE.SYSTEM.norm>
0

>  <SCORE.heavy>
10

>  <SCORE.norm>
-1.34331

>  <RMSD>
2.870

$$$$
ligand
 OpenBabel11021811513D
libRbt.so/2013.1/901 2013/11/27
 10 11  0  0  0  0  0  0  0  0999 V2000
    5.2382   17.7428    5.3035 N   0  0  0  0  0  0  0  0  0  0  0  0
    6.1551   18.7061    5.4543 C   0  0  0  0  0  0  0  0  0  0  0  0
    6.9675   19.2397    4.5433 N   0  0  0  0  0  0  0  0  0  0  0  0
    6.7709   18.6761    3.3412 C   0  0  0  0  0  0  0  0  0  0  0  0
    5.8683   17.6774    3.0307 C   0  0  0  0  0  0  0  0  0  0  0  0
    5.0638   17.1958    4.0823 C   0  0  0  0  0  0  0  0  0  0  0  0
    4.1487   16.2339    3.9274 N   0  0  0  0  0  0  0  0  0  0  0  0
    5.9454   17.3461    1.6881 N   0  0  0  0  0  0  0  0  0  0  0  0
    6.8809   18.1390    1.2215 C   0  0  0  0  0  0  0  0  0  0  0  0
    7.4221   18.9680    2.1645 N   0  0  0  0  0  0  0  0  0  0  0  0
  1  2  2  0  0  0  0
  1  6  1  0  0  0  0
  2  3  1  0  0  0  0
  3  4  2  0  0  0  0
  4  5  1  0  0  0  0
  4 10  1  0  0  0  0
  5  6  2  0  0  0  0
  5  8  1  0  0  0  0
  6  7  1  0  0  0  0
  8  9  1  0  0  0  0
  9 10  2  0  0  0  0
M  END
>  <CHROM.1>
6.03828046,17.98586085,3.47948557,-2.34516580,-0.76300753,-1.86719622

>  <Name>
ligand

>  <RI>
0

>  <Rbt.Current_Directory>
/home/itssahil/PROJECTS/Mol_Feturizer/New_Systems/rnas/4XNR

>  <Rbt.Executable>
rbdock ($Id: //depot/dev/client3/rdock/2013.1/src/exe/rbdock.cxx#4 $)

>  <Rbt.Library>
libRbt.so (2013.1, Build901 2013/11/27)

>  <Rbt.Parameter_File>
/export/apps/rDock/src/rDock_2013.1_src/data/scripts/dock_solv.prm

>  <Rbt.Receptor>
prm/pocket_docking_6.prm

>  <SCORE>
-13.49

>  <SCORE.INTER>
-13.49

>  <SCORE.INTER.CONST>
1

>  <SCORE.INTER.POLAR>
0

>  <SCORE.INTER.ROT>
0

>  <SCORE.INTER.SOLV>
7.40519

>  <SCORE.INTER.VDW>
-15.0617

>  <SCORE.INTER.norm>
-1.349

>  <SCORE.INTRA>
0

>  <SCORE.INTRA.DIHEDRAL>
0

>  <SCORE.INTRA.DIHEDRAL.0>
0

>  <SCORE.INTRA.POLAR>
0

>  <SCORE.INTRA.POLAR.0>
0

>  <SCORE.INTRA.REPUL>
0

>  <SCORE.INTRA.REPUL.0>
0

>  <SCORE.INTRA.SOLV>
0

>  <SCORE.INTRA.SOLV.lig_0>
-23.8918

>  <SCORE.INTRA.VDW>
0

>  <SCORE.INTRA.VDW.0>
0

>  <SCORE.INTRA.norm>
0

>  <SCORE.RESTR>
0

>  <SCORE.RESTR.CAVITY>
0

>  <SCORE.RESTR.norm>
0

>  <SCORE.SYSTEM>
0

>  <SCORE.SYSTEM.CONST>
0

>  <SCORE.SYSTEM.DIHEDRAL>
0

>  <SCORE.SYSTEM.SOLV>
0

>  <SCORE.SYSTEM.norm>
0

>  <SCORE.heavy>
10

>  <SCORE.norm>
-1.349

>  <RMSD>
2.870

$$$$
ligand
 OpenBabel11021811513D
libRbt.so/2013.1/901 2013/11/27
 10 11  0  0  0  0  0  0  0  0999 V2000
    5.0818   17.7475    5.4231 N   0  0  0  0  0  0  0  0  0  0  0  0
    6.0918   18.6130    5.5717 C   0  0  0  0  0  0  0  0  0  0  0  0
    6.9870   19.0187    4.6724 N   0  0  0  0  0  0  0  0  0  0  0  0
    6.7707   18.4300    3.4859 C   0  0  0  0  0  0  0  0  0  0  0  0
    5.7762   17.5212    3.1795 C   0  0  0  0  0  0  0  0  0  0  0  0
    4.8899   17.1722    4.2176 C   0  0  0  0  0  0  0  0  0  0  0  0
    3.8819   16.3078    4.0648 N   0  0  0  0  0  0  0  0  0  0  0  0
    5.8617   17.1283    1.8541 N   0  0  0  0  0  0  0  0  0  0  0  0
    6.8924   17.7968    1.3935 C   0  0  0  0  0  0  0  0  0  0  0  0
    7.4884   18.6017    2.3243 N   0  0  0  0  0  0  0  0  0  0  0  0
  1  2  2  0  0  0  0
  1  6  1  0  0  0  0
  2  3  1  0  0  0  0
  3  4  2  0  0  0  0
  4  5  1  0  0  0  0
  4 10  1  0  0  0  0
  5  6  2  0  0  0  0
  5  8  1  0  0  0  0
  6  7  1  0  0  0  0
  8  9  1  0  0  0  0
  9 10  2  0  0  0  0
M  END
>  <CHROM.1>
5.96357696,17.82813332,3.62245840,-2.34543624,-0.64967931,-1.90701771

>  <Name>
ligand

>  <RI>
0

>  <Rbt.Current_Directory>
/home/itssahil/PROJECTS/Mol_Feturizer/New_Systems/rnas/4XNR

>  <Rbt.Executable>
rbdock ($Id: //depot/dev/client3/rdock/2013.1/src/exe/rbdock.cxx#4 $)

>  <Rbt.Library>
libRbt.so (2013.1, Build901 2013/11/27)

>  <Rbt.Parameter_File>
/export/apps/rDock/src/rDock_2013.1_src/data/scripts/dock_solv.prm

>  <Rbt.Receptor>
prm/blind_docking_40.prm

>  <SCORE>
-12.6614

>  <SCORE.INTER>
-12.6616

>  <SCORE.INTER.CONST>
1

>  <SCORE.INTER.POLAR>
0

>  <SCORE.INTER.ROT>
0

>  <SCORE.INTER.SOLV>
7.46669

>  <SCORE.INTER.VDW>
-14.53

>  <SCORE.INTER.norm>
-1.26616

>  <SCORE.INTRA>
0

>  <SCORE.INTRA.DIHEDRAL>
0

>  <SCORE.INTRA.DIHEDRAL.0>
0

>  <SCORE.INTRA.POLAR>
0

>  <SCORE.INTRA.POLAR.0>
0

>  <SCORE.INTRA.REPUL>
0

>  <SCORE.INTRA.REPUL.0>
0

>  <SCORE.INTRA.SOLV>
0

>  <SCORE.INTRA.SOLV.lig_0>
-23.8918

>  <SCORE.INTRA.VDW>
0

>  <SCORE.INTRA.VDW.0>
0

>  <SCORE.INTRA.norm>
0

>  <SCORE.RESTR>
0.000170186

>  <SCORE.RESTR.CAVITY>
0.000170186

>  <SCORE.RESTR.norm>
1.70186e-05

>  <SCORE.SYSTEM>
0

>  <SCORE.SYSTEM.CONST>
0

>  <SCORE.SYSTEM.DIHEDRAL>
0

>  <SCORE.SYSTEM.SOLV>
0

>  <SCORE.SYSTEM.norm>
0

>  <SCORE.heavy>
10

>  <SCORE.norm>
-1.26614

>  <RMSD>
2.871

$$$$
ligand
 OpenBabel11021811513D
libRbt.so/2013.1/901 2013/11/27
 10 11  0  0  0  0  0  0  0  0999 V2000
    5.0798   17.7499    5.4009 N   0  0  0  0  0  0  0  0  0  0  0  0
    6.0767   18.6314    5.5446 C   0  0  0  0  0  0  0  0  0  0  0  0
    6.9698   19.0403    4.6447 N   0  0  0  0  0  0  0  0  0  0  0  0
    6.7671   18.4359    3.4637 C   0  0  0  0  0  0  0  0  0  0  0  0
    5.7872   17.5097    3.1628 C   0  0  0  0  0  0  0  0  0  0  0  0
    4.9015   17.1590    4.2009 C   0  0  0  0  0  0  0  0  0  0  0  0
    3.9067   16.2785    4.0532 N   0  0  0  0  0  0  0  0  0  0  0  0
    5.8841   17.1039    1.8422 N   0  0  0  0  0  0  0  0  0  0  0  0
    6.9070   17.7823    1.3787 C   0  0  0  0  0  0  0  0  0  0  0  0
    7.4873   18.6056    2.3033 N   0  0  0  0  0  0  0  0  0  0  0  0
  1  2  2  0  0  0  0
  1  6  1  0  0  0  0
  2  3  1  0  0  0  0
  3  4  2  0  0  0  0
  4  5  1  0  0  0  0
  4 10  1  0  0  0  0
  5  6  2  0  0  0  0
  5  8  1  0  0  0  0
  6  7  1  0  0  0  0
  8  9  1  0  0  0  0
  9 10  2  0  0  0  0
M  END
>  <CHROM.1>
5.96822145,17.82396930,3.60327949,-2.35665811,-0.66182081,-1.92456706

>  <Name>
ligand

>  <RI>
0

>  <Rbt.Current_Directory>
/home/itssahil/PROJECTS/Mol_Feturizer/New_Systems/rnas/4XNR

>  <Rbt.Executable>
rbdock ($Id: //depot/dev/client3/rdock/2013.1/src/exe/rbdock.cxx#4 $)

>  <Rbt.Library>
libRbt.so (2013.1, Build901 2013/11/27)

>  <Rbt.Parameter_File>
/export/apps/rDock/src/rDock_2013.1_src/data/scripts/dock_solv.prm

>  <Rbt.Receptor>
prm/blind_docking_60.prm

>  <SCORE>
-12.6605

>  <SCORE.INTER>
-12.6645

>  <SCORE.INTER.CONST>
1

>  <SCORE.INTER.POLAR>
0

>  <SCORE.INTER.ROT>
0

>  <SCORE.INTER.SOLV>
7.47475

>  <SCORE.INTER.VDW>
-14.5346

>  <SCORE.INTER.norm>
-1.26645

>  <SCORE.INTRA>
0

>  <SCORE.INTRA.DIHEDRAL>
0

>  <SCORE.INTRA.DIHEDRAL.0>
0

>  <SCORE.INTRA.POLAR>
0

>  <SCORE.INTRA.POLAR.0>
0

>  <SCORE.INTRA.REPUL>
0

>  <SCORE.INTRA.REPUL.0>
0

>  <SCORE.INTRA.SOLV>
0

>  <SCORE.INTRA.SOLV.lig_0>
-23.8918

>  <SCORE.INTRA.VDW>
0

>  <SCORE.INTRA.VDW.0>
0

>  <SCORE.INTRA.norm>
0

>  <SCORE.RESTR>
0.00397731

>  <SCORE.RESTR.CAVITY>
0.00397731

>  <SCORE.RESTR.norm>
0.000397731

>  <SCORE.SYSTEM>
0

>  <SCORE.SYSTEM.CONST>
0

>  <SCORE.SYSTEM.DIHEDRAL>
0

>  <SCORE.SYSTEM.SOLV>
0

>  <SCORE.SYSTEM.norm>
0

>  <SCORE.heavy>
10

>  <SCORE.norm>
-1.26605

>  <RMSD>
2.871

$$$$
ligand
 OpenBabel11021811513D
libRbt.so/2013.1/901 2013/11/27
 10 11  0  0  0  0  0  0  0  0999 V2000
    5.1770   17.6857    5.2273 N   0  0  0  0  0  0  0  0  0  0  0  0
    6.0376   18.6986    5.3849 C   0  0  0  0  0  0  0  0  0  0  0  0
    6.8225   19.2800    4.4790 N   0  0  0  0  0  0  0  0  0  0  0  0
    6.6628   18.7102    3.2745 C   0  0  0  0  0  0  0  0  0  0  0  0
    5.8191   17.6633    2.9570 C   0  0  0  0  0  0  0  0  0  0  0  0
    5.0386   17.1338    4.0037 C   0  0  0  0  0  0  0  0  0  0  0  0
    4.1797   16.1225    3.8420 N   0  0  0  0  0  0  0  0  0  0  0  0
    5.9203   17.3412    1.6138 N   0  0  0  0  0  0  0  0  0  0  0  0
    6.8116   18.1869    1.1536 C   0  0  0  0  0  0  0  0  0  0  0  0
    7.3015   19.0420    2.1015 N   0  0  0  0  0  0  0  0  0  0  0  0
  1  2  2  0  0  0  0
  1  6  1  0  0  0  0
  2  3  1  0  0  0  0
  3  4  2  0  0  0  0
  4  5  1  0  0  0  0
  4 10  1  0  0  0  0
  5  6  2  0  0  0  0
  5  8  1  0  0  0  0
  6  7  1  0  0  0  0
  8  9  1  0  0  0  0
  9 10  2  0  0  0  0
M  END
>  <CHROM.1>
5.96963654,17.97934551,3.40748209,-2.37488273,-0.81539079,-1.88514472

>  <Name>
ligand

>  <RI>
0

>  <Rbt.Current_Directory>
/home/itssahil/PROJECTS/Mol_Feturizer/New_Systems/rnas/4XNR

>  <Rbt.Executable>
rbdock ($Id: //depot/dev/client3/rdock/2013.1/src/exe/rbdock.cxx#4 $)

>  <Rbt.Library>
libRbt.so (2013.1, Build901 2013/11/27)

>  <Rbt.Parameter_File>
/export/apps/rDock/src/rDock_2013.1_src/data/scripts/dock_solv.prm

>  <Rbt.Receptor>
prm/blind_docking_80.prm

>  <SCORE>
-13.4205

>  <SCORE.INTER>
-13.4206

>  <SCORE.INTER.CONST>
1

>  <SCORE.INTER.POLAR>
0

>  <SCORE.INTER.ROT>
0

>  <SCORE.INTER.SOLV>
7.28955

>  <SCORE.INTER.VDW>
-14.9769

>  <SCORE.INTER.norm>
-1.34206

>  <SCORE.INTRA>
0

>  <SCORE.INTRA.DIHEDRAL>
0

>  <SCORE.INTRA.DIHEDRAL.0>
0

>  <SCORE.INTRA.POLAR>
0

>  <SCORE.INTRA.POLAR.0>
0

>  <SCORE.INTRA.REPUL>
0

>  <SCORE.INTRA.REPUL.0>
0

>  <SCORE.INTRA.SOLV>
0

>  <SCORE.INTRA.SOLV.lig_0>
-23.8918

>  <SCORE.INTRA.VDW>
0

>  <SCORE.INTRA.VDW.0>
0

>  <SCORE.INTRA.norm>
0

>  <SCORE.RESTR>
0.000163597

>  <SCORE.RESTR.CAVITY>
0.000163597

>  <SCORE.RESTR.norm>
1.63597e-05

>  <SCORE.SYSTEM>
0

>  <SCORE.SYSTEM.CONST>
0

>  <SCORE.SYSTEM.DIHEDRAL>
0

>  <SCORE.SYSTEM.SOLV>
0

>  <SCORE.SYSTEM.norm>
0

>  <SCORE.heavy>
10

>  <SCORE.norm>
-1.34205

>  <RMSD>
2.871

$$$$
ligand
 OpenBabel11021811513D
libRbt.so/2013.1/901 2013/11/27
 10 11  0  0  0  0  0  0  0  0999 V2000
    5.0840   17.7298    5.3997 N   0  0  0  0  0  0  0  0  0  0  0  0
    6.0946   18.5934    5.5559 C   0  0  0  0  0  0  0  0  0  0  0  0
    6.9920   19.0038    4.6609 N   0  0  0  0  0  0  0  0  0  0  0  0
    6.7776   18.4227    3.4704 C   0  0  0  0  0  0  0  0  0  0  0  0
    5.7830   17.5167    3.1562 C   0  0  0  0  0  0  0  0  0  0  0  0
    4.8942   17.1621    4.1903 C   0  0  0  0  0  0  0  0  0  0  0  0
    3.8857   16.2995    4.0300 N   0  0  0  0  0  0  0  0  0  0  0  0
    5.8709   17.1320    1.8286 N   0  0  0  0  0  0  0  0  0  0  0  0
    6.9031   17.8024    1.3743 C   0  0  0  0  0  0  0  0  0  0  0  0
    7.4979   18.6010    2.3113 N   0  0  0  0  0  0  0  0  0  0  0  0
  1  2  2  0  0  0  0
  1  6  1  0  0  0  0
  2  3  1  0  0  0  0
  3  4  2  0  0  0  0
  4  5  1  0  0  0  0
  4 10  1  0  0  0  0
  5  6  2  0  0  0  0
  5  8  1  0  0  0  0
  6  7  1  0  0  0  0
  8  9  1  0  0  0  0
  9 10  2  0  0  0  0
M  END
>  <CHROM.1>
5.96969759,17.82072732,3.60146711,-2.34755826,-0.64816144,-1.90209433

>  <Name>
ligand

>  <RI>
0

>  <Rbt.Current_Directory>
/home/itssahil/PROJECTS/Mol_Feturizer/New_Systems/rnas/4XNR

>  <Rbt.Executable>
rbdock ($Id: //depot/dev/client3/rdock/2013.1/src/exe/rbdock.cxx#4 $)

>  <Rbt.Library>
libRbt.so (2013.1, Build901 2013/11/27)

>  <Rbt.Parameter_File>
/export/apps/rDock/src/rDock_2013.1_src/data/scripts/dock_solv.prm

>  <Rbt.Receptor>
prm/blind_docking_40.prm

>  <SCORE>
-12.6485

>  <SCORE.INTER>
-12.6492

>  <SCORE.INTER.CONST>
1

>  <SCORE.INTER.POLAR>
0

>  <SCORE.INTER.ROT>
0

>  <SCORE.INTER.SOLV>
7.3889

>  <SCORE.INTER.VDW>
-14.4957

>  <SCORE.INTER.norm>
-1.26492

>  <SCORE.INTRA>
0

>  <SCORE.INTRA.DIHEDRAL>
0

>  <SCORE.INTRA.DIHEDRAL.0>
0

>  <SCORE.INTRA.POLAR>
0

>  <SCORE.INTRA.POLAR.0>
0

>  <SCORE.INTRA.REPUL>
0

>  <SCORE.INTRA.REPUL.0>
0

>  <SCORE.INTRA.SOLV>
0

>  <SCORE.INTRA.SOLV.lig_0>
-23.8918

>  <SCORE.INTRA.VDW>
0

>  <SCORE.INTRA.VDW.0>
0

>  <SCORE.INTRA.norm>
0

>  <SCORE.RESTR>
0.000719939

>  <SCORE.RESTR.CAVITY>
0.000719939

>  <SCORE.RESTR.norm>
7.19939e-05

>  <SCORE.SYSTEM>
0

>  <SCORE.SYSTEM.CONST>
0

>  <SCORE.SYSTEM.DIHEDRAL>
0

>  <SCORE.SYSTEM.SOLV>
0

>  <SCORE.SYSTEM.norm>
0

>  <SCORE.heavy>
10

>  <SCORE.norm>
-1.26485

>  <RMSD>
2.872

$$$$
ligand
 OpenBabel11021811513D
libRbt.so/2013.1/901 2013/11/27
 10 11  0  0  0  0  0  0  0  0999 V2000
    5.1014   17.7530    5.4287 N   0  0  0  0  0  0  0  0  0  0  0  0
    6.1131   18.6176    5.5711 C   0  0  0  0  0  0  0  0  0  0  0  0
    7.0039   19.0214    4.6666 N   0  0  0  0  0  0  0  0  0  0  0  0
    6.7808   18.4316    3.4819 C   0  0  0  0  0  0  0  0  0  0  0  0
    5.7838   17.5235    3.1817 C   0  0  0  0  0  0  0  0  0  0  0  0
    4.9026   17.1766    4.2249 C   0  0  0  0  0  0  0  0  0  0  0  0
    3.8929   16.3130    4.0784 N   0  0  0  0  0  0  0  0  0  0  0  0
    5.8619   17.1290    1.8564 N   0  0  0  0  0  0  0  0  0  0  0  0
    6.8908   17.7959    1.3895 C   0  0  0  0  0  0  0  0  0  0  0  0
    7.4925   18.6013    2.3163 N   0  0  0  0  0  0  0  0  0  0  0  0
  1  2  2  0  0  0  0
  1  6  1  0  0  0  0
  2  3  1  0  0  0  0
  3  4  2  0  0  0  0
  4  5  1  0  0  0  0
  4 10  1  0  0  0  0
  5  6  2  0  0  0  0
  5  8  1  0  0  0  0
  6  7  1  0  0  0  0
  8  9  1  0  0  0  0
  9 10  2  0  0  0  0
M  END
>  <CHROM.1>
5.97380995,17.83069527,3.62335072,-2.33876819,-0.65046324,-1.90410403

>  <Name>
ligand

>  <RI>
0

>  <Rbt.Current_Directory>
/home/itssahil/PROJECTS/Mol_Feturizer/New_Systems/rnas/4XNR

>  <Rbt.Executable>
rbdock ($Id: //depot/dev/client3/rdock/2013.1/src/exe/rbdock.cxx#4 $)

>  <Rbt.Library>
libRbt.so (2013.1, Build901 2013/11/27)

>  <Rbt.Parameter_File>
/export/apps/rDock/src/rDock_2013.1_src/data/scripts/dock_solv.prm

>  <Rbt.Receptor>
prm/blind_docking_60.prm

>  <SCORE>
-12.6896

>  <SCORE.INTER>
-12.6899

>  <SCORE.INTER.CONST>
1

>  <SCORE.INTER.POLAR>
0

>  <SCORE.INTER.ROT>
0

>  <SCORE.INTER.SOLV>
7.51234

>  <SCORE.INTER.VDW>
-14.564

>  <SCORE.INTER.norm>
-1.26899

>  <SCORE.INTRA>
0

>  <SCORE.INTRA.DIHEDRAL>
0

>  <SCORE.INTRA.DIHEDRAL.0>
0

>  <SCORE.INTRA.POLAR>
0

>  <SCORE.INTRA.POLAR.0>
0

>  <SCORE.INTRA.REPUL>
0

>  <SCORE.INTRA.REPUL.0>
0

>  <SCORE.INTRA.SOLV>
0

>  <SCORE.INTRA.SOLV.lig_0>
-23.8918

>  <SCORE.INTRA.VDW>
0

>  <SCORE.INTRA.VDW.0>
0

>  <SCORE.INTRA.norm>
0

>  <SCORE.RESTR>
0.000318082

>  <SCORE.RESTR.CAVITY>
0.000318082

>  <SCORE.RESTR.norm>
3.18082e-05

>  <SCORE.SYSTEM>
0

>  <SCORE.SYSTEM.CONST>
0

>  <SCORE.SYSTEM.DIHEDRAL>
0

>  <SCORE.SYSTEM.SOLV>
0

>  <SCORE.SYSTEM.norm>
0

>  <SCORE.heavy>
10

>  <SCORE.norm>
-1.26896

>  <RMSD>
2.872

$$$$
ligand
 OpenBabel11021811513D
libRbt.so/2013.1/901 2013/11/27
 10 11  0  0  0  0  0  0  0  0999 V2000
    5.1984   17.7512    5.2814 N   0  0  0  0  0  0  0  0  0  0  0  0
    6.1470   18.6793    5.4549 C   0  0  0  0  0  0  0  0  0  0  0  0
    6.9946   19.1883    4.5620 N   0  0  0  0  0  0  0  0  0  0  0  0
    6.7990   18.6397    3.3529 C   0  0  0  0  0  0  0  0  0  0  0  0
    5.8662   17.6766    3.0196 C   0  0  0  0  0  0  0  0  0  0  0  0
    5.0260   17.2185    4.0536 C   0  0  0  0  0  0  0  0  0  0  0  0
    4.0793   16.2917    3.8760 N   0  0  0  0  0  0  0  0  0  0  0  0
    5.9553   17.3510    1.6764 N   0  0  0  0  0  0  0  0  0  0  0  0
    6.9273   18.1119    1.2318 C   0  0  0  0  0  0  0  0  0  0  0  0
    7.4815   18.9147    2.1899 N   0  0  0  0  0  0  0  0  0  0  0  0
  1  2  2  0  0  0  0
  1  6  1  0  0  0  0
  2  3  1  0  0  0  0
  3  4  2  0  0  0  0
  4  5  1  0  0  0  0
  4 10  1  0  0  0  0
  5  6  2  0  0  0  0
  5  8  1  0  0  0  0
  6  7  1  0  0  0  0
  8  9  1  0  0  0  0
  9 10  2  0  0  0  0
M  END
>  <CHROM.1>
6.03933286,17.97592259,3.47349486,-2.35377085,-0.72277863,-1.86654931

>  <Name>
ligand

>  <RI>
0

>  <Rbt.Current_Directory>
/home/itssahil/PROJECTS/Mol_Feturizer/New_Systems/rnas/4XNR

>  <Rbt.Executable>
rbdock ($Id: //depot/dev/client3/rdock/2013.1/src/exe/rbdock.cxx#4 $)

>  <Rbt.Library>
libRbt.so (2013.1, Build901 2013/11/27)

>  <Rbt.Parameter_File>
/export/apps/rDock/src/rDock_2013.1_src/data/scripts/dock_solv.prm

>  <Rbt.Receptor>
prm/pocket_docking_4.prm

>  <SCORE>
-13.4608

>  <SCORE.INTER>
-13.4608

>  <SCORE.INTER.CONST>
1

>  <SCORE.INTER.POLAR>
0

>  <SCORE.INTER.ROT>
0

>  <SCORE.INTER.SOLV>
7.17564

>  <SCORE.INTER.VDW>
-14.9657

>  <SCORE.INTER.norm>
-1.34608

>  <SCORE.INTRA>
0

>  <SCORE.INTRA.DIHEDRAL>
0

>  <SCORE.INTRA.DIHEDRAL.0>
0

>  <SCORE.INTRA.POLAR>
0

>  <SCORE.INTRA.POLAR.0>
0

>  <SCORE.INTRA.REPUL>
0

>  <SCORE.INTRA.REPUL.0>
0

>  <SCORE.INTRA.SOLV>
0

>  <SCORE.INTRA.SOLV.lig_0>
-23.8918

>  <SCORE.INTRA.VDW>
0

>  <SCORE.INTRA.VDW.0>
0

>  <SCORE.INTRA.norm>
0

>  <SCORE.RESTR>
0

>  <SCORE.RESTR.CAVITY>
0

>  <SCORE.RESTR.norm>
0

>  <SCORE.SYSTEM>
0

>  <SCORE.SYSTEM.CONST>
0

>  <SCORE.SYSTEM.DIHEDRAL>
0

>  <SCORE.SYSTEM.SOLV>
0

>  <SCORE.SYSTEM.norm>
0

>  <SCORE.heavy>
10

>  <SCORE.norm>
-1.34608

>  <RMSD>
2.872

$$$$
ligand
 OpenBabel11021811513D
libRbt.so/2013.1/901 2013/11/27
 10 11  0  0  0  0  0  0  0  0999 V2000
    5.2485   17.7463    5.2897 N   0  0  0  0  0  0  0  0  0  0  0  0
    6.1540   18.7218    5.4310 C   0  0  0  0  0  0  0  0  0  0  0  0
    6.9515   19.2644    4.5121 N   0  0  0  0  0  0  0  0  0  0  0  0
    6.7518   18.6963    3.3127 C   0  0  0  0  0  0  0  0  0  0  0  0
    5.8596   17.6854    3.0116 C   0  0  0  0  0  0  0  0  0  0  0  0
    5.0706   17.1951    4.0709 C   0  0  0  0  0  0  0  0  0  0  0  0
    4.1668   16.2211    3.9255 N   0  0  0  0  0  0  0  0  0  0  0  0
    5.9294   17.3529    1.6689 N   0  0  0  0  0  0  0  0  0  0  0  0
    6.8503   18.1571    1.1929 C   0  0  0  0  0  0  0  0  0  0  0  0
    7.3889   18.9946    2.1300 N   0  0  0  0  0  0  0  0  0  0  0  0
  1  2  2  0  0  0  0
  1  6  1  0  0  0  0
  2  3  1  0  0  0  0
  3  4  2  0  0  0  0
  4  5  1  0  0  0  0
  4 10  1  0  0  0  0
  5  6  2  0  0  0  0
  5  8  1  0  0  0  0
  6  7  1  0  0  0  0
  8  9  1  0  0  0  0
  9 10  2  0  0  0  0
M  END
>  <CHROM.1>
6.02945506,17.99677732,3.45842551,-2.33884719,-0.77799240,-1.86439393

>  <Name>
ligand

>  <RI>
0

>  <Rbt.Current_Directory>
/home/itssahil/PROJECTS/Mol_Feturizer/New_Systems/rnas/4XNR

>  <Rbt.Executable>
rbdock ($Id: //depot/dev/client3/rdock/2013.1/src/exe/rbdock.cxx#4 $)

>  <Rbt.Library>
libRbt.so (2013.1, Build901 2013/11/27)

>  <Rbt.Parameter_File>
/export/apps/rDock/src/rDock_2013.1_src/data/scripts/dock_solv.prm

>  <Rbt.Receptor>
prm/blind_docking_100.prm

>  <SCORE>
-13.4239

>  <SCORE.INTER>
-13.4239

>  <SCORE.INTER.CONST>
1

>  <SCORE.INTER.POLAR>
0

>  <SCORE.INTER.ROT>
0

>  <SCORE.INTER.SOLV>
7.43099

>  <SCORE.INTER.VDW>
-15.0263

>  <SCORE.INTER.norm>
-1.34239

>  <SCORE.INTRA>
0

>  <SCORE.INTRA.DIHEDRAL>
0

>  <SCORE.INTRA.DIHEDRAL.0>
0

>  <SCORE.INTRA.POLAR>
0

>  <SCORE.INTRA.POLAR.0>
0

>  <SCORE.INTRA.REPUL>
0

>  <SCORE.INTRA.REPUL.0>
0

>  <SCORE.INTRA.SOLV>
0

>  <SCORE.INTRA.SOLV.lig_0>
-23.8918

>  <SCORE.INTRA.VDW>
0

>  <SCORE.INTRA.VDW.0>
0

>  <SCORE.INTRA.norm>
0

>  <SCORE.RESTR>
0

>  <SCORE.RESTR.CAVITY>
0

>  <SCORE.RESTR.norm>
0

>  <SCORE.SYSTEM>
0

>  <SCORE.SYSTEM.CONST>
0

>  <SCORE.SYSTEM.DIHEDRAL>
0

>  <SCORE.SYSTEM.SOLV>
0

>  <SCORE.SYSTEM.norm>
0

>  <SCORE.heavy>
10

>  <SCORE.norm>
-1.34239

>  <RMSD>
2.873

$$$$
ligand
 OpenBabel11021811513D
libRbt.so/2013.1/901 2013/11/27
 10 11  0  0  0  0  0  0  0  0999 V2000
    5.0754   17.7801    5.4112 N   0  0  0  0  0  0  0  0  0  0  0  0
    6.0999   18.6278    5.5632 C   0  0  0  0  0  0  0  0  0  0  0  0
    7.0030   19.0203    4.6660 N   0  0  0  0  0  0  0  0  0  0  0  0
    6.7781   18.4383    3.4778 C   0  0  0  0  0  0  0  0  0  0  0  0
    5.7687   17.5474    3.1679 C   0  0  0  0  0  0  0  0  0  0  0  0
    4.8752   17.2111    4.2041 C   0  0  0  0  0  0  0  0  0  0  0  0
    3.8528   16.3643    4.0479 N   0  0  0  0  0  0  0  0  0  0  0  0
    5.8491   17.1563    1.8417 N   0  0  0  0  0  0  0  0  0  0  0  0
    6.8915   17.8083    1.3839 C   0  0  0  0  0  0  0  0  0  0  0  0
    7.5001   18.6006    2.3174 N   0  0  0  0  0  0  0  0  0  0  0  0
  1  2  2  0  0  0  0
  1  6  1  0  0  0  0
  2  3  1  0  0  0  0
  3  4  2  0  0  0  0
  4  5  1  0  0  0  0
  4 10  1  0  0  0  0
  5  6  2  0  0  0  0
  5  8  1  0  0  0  0
  6  7  1  0  0  0  0
  8  9  1  0  0  0  0
  9 10  2  0  0  0  0
M  END
>  <CHROM.1>
5.96067972,17.85000053,3.61186104,-2.33990410,-0.63315382,-1.90125471

>  <Name>
ligand

>  <RI>
0

>  <Rbt.Current_Directory>
/home/itssahil/PROJECTS/Mol_Feturizer/New_Systems/rnas/4XNR

>  <Rbt.Executable>
rbdock ($Id: //depot/dev/client3/rdock/2013.1/src/exe/rbdock.cxx#4 $)

>  <Rbt.Library>
libRbt.so (2013.1, Build901 2013/11/27)

>  <Rbt.Parameter_File>
/export/apps/rDock/src/rDock_2013.1_src/data/scripts/dock_solv.prm

>  <Rbt.Receptor>
prm/blind_docking_60.prm

>  <SCORE>
-12.6978

>  <SCORE.INTER>
-12.6984

>  <SCORE.INTER.CONST>
1

>  <SCORE.INTER.POLAR>
0

>  <SCORE.INTER.ROT>
0

>  <SCORE.INTER.SOLV>
7.4177

>  <SCORE.INTER.VDW>
-14.5382

>  <SCORE.INTER.norm>
-1.26984

>  <SCORE.INTRA>
0

>  <SCORE.INTRA.DIHEDRAL>
0

>  <SCORE.INTRA.DIHEDRAL.0>
0

>  <SCORE.INTRA.POLAR>
0

>  <SCORE.INTRA.POLAR.0>
0

>  <SCORE.INTRA.REPUL>
0

>  <SCORE.INTRA.REPUL.0>
0

>  <SCORE.INTRA.SOLV>
0

>  <SCORE.INTRA.SOLV.lig_0>
-23.8918

>  <SCORE.INTRA.VDW>
0

>  <SCORE.INTRA.VDW.0>
0

>  <SCORE.INTRA.norm>
0

>  <SCORE.RESTR>
0.000665455

>  <SCORE.RESTR.CAVITY>
0.000665455

>  <SCORE.RESTR.norm>
6.65455e-05

>  <SCORE.SYSTEM>
0

>  <SCORE.SYSTEM.CONST>
0

>  <SCORE.SYSTEM.DIHEDRAL>
0

>  <SCORE.SYSTEM.SOLV>
0

>  <SCORE.SYSTEM.norm>
0

>  <SCORE.heavy>
10

>  <SCORE.norm>
-1.26978

>  <RMSD>
2.875

$$$$
ligand
 OpenBabel11021811513D
libRbt.so/2013.1/901 2013/11/27
 10 11  0  0  0  0  0  0  0  0999 V2000
    5.1388   17.7008    5.3792 N   0  0  0  0  0  0  0  0  0  0  0  0
    6.1573   18.5542    5.5389 C   0  0  0  0  0  0  0  0  0  0  0  0
    7.0370   18.9874    4.6371 N   0  0  0  0  0  0  0  0  0  0  0  0
    6.7930   18.4439    3.4345 C   0  0  0  0  0  0  0  0  0  0  0  0
    5.7867   17.5529    3.1152 C   0  0  0  0  0  0  0  0  0  0  0  0
    4.9190   17.1712    4.1576 C   0  0  0  0  0  0  0  0  0  0  0  0
    3.9024   16.3189    3.9937 N   0  0  0  0  0  0  0  0  0  0  0  0
    5.8430   17.2084    1.7749 N   0  0  0  0  0  0  0  0  0  0  0  0
    6.8686   17.8873    1.3182 C   0  0  0  0  0  0  0  0  0  0  0  0
    7.4885   18.6540    2.2656 N   0  0  0  0  0  0  0  0  0  0  0  0
  1  2  2  0  0  0  0
  1  6  1  0  0  0  0
  2  3  1  0  0  0  0
  3  4  2  0  0  0  0
  4  5  1  0  0  0  0
  4 10  1  0  0  0  0
  5  6  2  0  0  0  0
  5  8  1  0  0  0  0
  6  7  1  0  0  0  0
  8  9  1  0  0  0  0
  9 10  2  0  0  0  0
M  END
>  <CHROM.1>
5.98487283,17.84221663,3.56520998,-2.31894443,-0.64987287,-1.85432543

>  <Name>
ligand

>  <RI>
0

>  <Rbt.Current_Directory>
/home/itssahil/PROJECTS/Mol_Feturizer/New_Systems/rnas/4XNR

>  <Rbt.Executable>
rbdock ($Id: //depot/dev/client3/rdock/2013.1/src/exe/rbdock.cxx#4 $)

>  <Rbt.Library>
libRbt.so (2013.1, Build901 2013/11/27)

>  <Rbt.Parameter_File>
/export/apps/rDock/src/rDock_2013.1_src/data/scripts/dock_solv.prm

>  <Rbt.Receptor>
prm/blind_docking_60.prm

>  <SCORE>
-12.8506

>  <SCORE.INTER>
-12.9027

>  <SCORE.INTER.CONST>
1

>  <SCORE.INTER.POLAR>
0

>  <SCORE.INTER.ROT>
0

>  <SCORE.INTER.SOLV>
7.30992

>  <SCORE.INTER.VDW>
-14.6384

>  <SCORE.INTER.norm>
-1.29027

>  <SCORE.INTRA>
0

>  <SCORE.INTRA.DIHEDRAL>
0

>  <SCORE.INTRA.DIHEDRAL.0>
0

>  <SCORE.INTRA.POLAR>
0

>  <SCORE.INTRA.POLAR.0>
0

>  <SCORE.INTRA.REPUL>
0

>  <SCORE.INTRA.REPUL.0>
0

>  <SCORE.INTRA.SOLV>
0

>  <SCORE.INTRA.SOLV.lig_0>
-23.8918

>  <SCORE.INTRA.VDW>
0

>  <SCORE.INTRA.VDW.0>
0

>  <SCORE.INTRA.norm>
0

>  <SCORE.RESTR>
0.0520634

>  <SCORE.RESTR.CAVITY>
0.0520634

>  <SCORE.RESTR.norm>
0.00520634

>  <SCORE.SYSTEM>
0

>  <SCORE.SYSTEM.CONST>
0

>  <SCORE.SYSTEM.DIHEDRAL>
0

>  <SCORE.SYSTEM.SOLV>
0

>  <SCORE.SYSTEM.norm>
0

>  <SCORE.heavy>
10

>  <SCORE.norm>
-1.28506

>  <RMSD>
2.875

$$$$
ligand
 OpenBabel11021811513D
libRbt.so/2013.1/901 2013/11/27
 10 11  0  0  0  0  0  0  0  0999 V2000
    5.2906   17.7774    5.3065 N   0  0  0  0  0  0  0  0  0  0  0  0
    6.1691   18.7807    5.4208 C   0  0  0  0  0  0  0  0  0  0  0  0
    6.9416   19.3289    4.4841 N   0  0  0  0  0  0  0  0  0  0  0  0
    6.7465   18.7335    3.2973 C   0  0  0  0  0  0  0  0  0  0  0  0
    5.8807   17.6922    3.0236 C   0  0  0  0  0  0  0  0  0  0  0  0
    5.1166   17.1992    4.0997 C   0  0  0  0  0  0  0  0  0  0  0  0
    4.2397   16.1973    3.9812 N   0  0  0  0  0  0  0  0  0  0  0  0
    5.9468   17.3374    1.6865 N   0  0  0  0  0  0  0  0  0  0  0  0
    6.8396   18.1586    1.1866 C   0  0  0  0  0  0  0  0  0  0  0  0
    7.3631   19.0282    2.1027 N   0  0  0  0  0  0  0  0  0  0  0  0
  1  2  2  0  0  0  0
  1  6  1  0  0  0  0
  2  3  1  0  0  0  0
  3  4  2  0  0  0  0
  4  5  1  0  0  0  0
  4 10  1  0  0  0  0
  5  6  2  0  0  0  0
  5  8  1  0  0  0  0
  6  7  1  0  0  0  0
  8  9  1  0  0  0  0
  9 10  2  0  0  0  0
M  END
>  <CHROM.1>
6.04600818,18.01648179,3.46298653,-2.33720321,-0.80827877,-1.88137405

>  <Name>
ligand

>  <RI>
0

>  <Rbt.Current_Directory>
/home/itssahil/PROJECTS/Mol_Feturizer/New_Systems/rnas/4XNR

>  <Rbt.Executable>
rbdock ($Id: //depot/dev/client3/rdock/2013.1/src/exe/rbdock.cxx#4 $)

>  <Rbt.Library>
libRbt.so (2013.1, Build901 2013/11/27)

>  <Rbt.Parameter_File>
/export/apps/rDock/src/rDock_2013.1_src/data/scripts/dock_solv.prm

>  <Rbt.Receptor>
prm/blind_docking_80.prm

>  <SCORE>
-13.4067

>  <SCORE.INTER>
-13.4071

>  <SCORE.INTER.CONST>
1

>  <SCORE.INTER.POLAR>
0

>  <SCORE.INTER.ROT>
0

>  <SCORE.INTER.SOLV>
7.71843

>  <SCORE.INTER.VDW>
-15.1109

>  <SCORE.INTER.norm>
-1.34071

>  <SCORE.INTRA>
0

>  <SCORE.INTRA.DIHEDRAL>
0

>  <SCORE.INTRA.DIHEDRAL.0>
0

>  <SCORE.INTRA.POLAR>
0

>  <SCORE.INTRA.POLAR.0>
0

>  <SCORE.INTRA.REPUL>
0

>  <SCORE.INTRA.REPUL.0>
0

>  <SCORE.INTRA.SOLV>
0

>  <SCORE.INTRA.SOLV.lig_0>
-23.8918

>  <SCORE.INTRA.VDW>
0

>  <SCORE.INTRA.VDW.0>
0

>  <SCORE.INTRA.norm>
0

>  <SCORE.RESTR>
0.000339793

>  <SCORE.RESTR.CAVITY>
0.000339793

>  <SCORE.RESTR.norm>
3.39793e-05

>  <SCORE.SYSTEM>
0

>  <SCORE.SYSTEM.CONST>
0

>  <SCORE.SYSTEM.DIHEDRAL>
0

>  <SCORE.SYSTEM.SOLV>
0

>  <SCORE.SYSTEM.norm>
0

>  <SCORE.heavy>
10

>  <SCORE.norm>
-1.34067

>  <RMSD>
2.875

$$$$
ligand
 OpenBabel11021811513D
libRbt.so/2013.1/901 2013/11/27
 10 11  0  0  0  0  0  0  0  0999 V2000
    5.0685   17.7945    5.4081 N   0  0  0  0  0  0  0  0  0  0  0  0
    6.0982   18.6362    5.5584 C   0  0  0  0  0  0  0  0  0  0  0  0
    7.0015   19.0242    4.6594 N   0  0  0  0  0  0  0  0  0  0  0  0
    6.7707   18.4442    3.4713 C   0  0  0  0  0  0  0  0  0  0  0  0
    5.7556   17.5593    3.1631 C   0  0  0  0  0  0  0  0  0  0  0  0
    4.8625   17.2274    4.2010 C   0  0  0  0  0  0  0  0  0  0  0  0
    3.8349   16.3866    4.0466 N   0  0  0  0  0  0  0  0  0  0  0  0
    5.8308   17.1685    1.8365 N   0  0  0  0  0  0  0  0  0  0  0  0
    6.8760   17.8148    1.3768 C   0  0  0  0  0  0  0  0  0  0  0  0
    7.4911   18.6031    2.3095 N   0  0  0  0  0  0  0  0  0  0  0  0
  1  2  2  0  0  0  0
  1  6  1  0  0  0  0
  2  3  1  0  0  0  0
  3  4  2  0  0  0  0
  4  5  1  0  0  0  0
  4 10  1  0  0  0  0
  5  6  2  0  0  0  0
  5  8  1  0  0  0  0
  6  7  1  0  0  0  0
  8  9  1  0  0  0  0
  9 10  2  0  0  0  0
M  END
>  <CHROM.1>
5.95027290,17.86045122,3.60683109,-2.33504700,-0.62846344,-1.89776847

>  <Name>
ligand

>  <RI>
0

>  <Rbt.Current_Directory>
/home/itssahil/PROJECTS/Mol_Feturizer/New_Systems/rnas/4XNR

>  <Rbt.Executable>
rbdock ($Id: //depot/dev/client3/rdock/2013.1/src/exe/rbdock.cxx#4 $)

>  <Rbt.Library>
libRbt.so (2013.1, Build901 2013/11/27)

>  <Rbt.Parameter_File>
/export/apps/rDock/src/rDock_2013.1_src/data/scripts/dock_solv.prm

>  <Rbt.Receptor>
prm/blind_docking_60.prm

>  <SCORE>
-12.7074

>  <SCORE.INTER>
-12.7094

>  <SCORE.INTER.CONST>
1

>  <SCORE.INTER.POLAR>
0

>  <SCORE.INTER.ROT>
0

>  <SCORE.INTER.SOLV>
7.40927

>  <SCORE.INTER.VDW>
-14.5427

>  <SCORE.INTER.norm>
-1.27094

>  <SCORE.INTRA>
0

>  <SCORE.INTRA.DIHEDRAL>
0

>  <SCORE.INTRA.DIHEDRAL.0>
0

>  <SCORE.INTRA.POLAR>
0

>  <SCORE.INTRA.POLAR.0>
0

>  <SCORE.INTRA.REPUL>
0

>  <SCORE.INTRA.REPUL.0>
0

>  <SCORE.INTRA.SOLV>
0

>  <SCORE.INTRA.SOLV.lig_0>
-23.8918

>  <SCORE.INTRA.VDW>
0

>  <SCORE.INTRA.VDW.0>
0

>  <SCORE.INTRA.norm>
0

>  <SCORE.RESTR>
0.00193209

>  <SCORE.RESTR.CAVITY>
0.00193209

>  <SCORE.RESTR.norm>
0.000193209

>  <SCORE.SYSTEM>
0

>  <SCORE.SYSTEM.CONST>
0

>  <SCORE.SYSTEM.DIHEDRAL>
0

>  <SCORE.SYSTEM.SOLV>
0

>  <SCORE.SYSTEM.norm>
0

>  <SCORE.heavy>
10

>  <SCORE.norm>
-1.27074

>  <RMSD>
2.877

$$$$
ligand
 OpenBabel11021811513D
libRbt.so/2013.1/901 2013/11/27
 10 11  0  0  0  0  0  0  0  0999 V2000
    5.2582   17.8096    5.2977 N   0  0  0  0  0  0  0  0  0  0  0  0
    6.1551   18.7959    5.4164 C   0  0  0  0  0  0  0  0  0  0  0  0
    6.9496   19.3225    4.4858 N   0  0  0  0  0  0  0  0  0  0  0  0
    6.7571   18.7233    3.3005 C   0  0  0  0  0  0  0  0  0  0  0  0
    5.8741   17.6977    3.0228 C   0  0  0  0  0  0  0  0  0  0  0  0
    5.0873   17.2270    4.0926 C   0  0  0  0  0  0  0  0  0  0  0  0
    4.1921   16.2420    3.9697 N   0  0  0  0  0  0  0  0  0  0  0  0
    5.9493   17.3328    1.6889 N   0  0  0  0  0  0  0  0  0  0  0  0
    6.8643   18.1329    1.1948 C   0  0  0  0  0  0  0  0  0  0  0  0
    7.3939   18.9979    2.1118 N   0  0  0  0  0  0  0  0  0  0  0  0
  1  2  2  0  0  0  0
  1  6  1  0  0  0  0
  2  3  1  0  0  0  0
  3  4  2  0  0  0  0
  4  5  1  0  0  0  0
  4 10  1  0  0  0  0
  5  6  2  0  0  0  0
  5  8  1  0  0  0  0
  6  7  1  0  0  0  0
  8  9  1  0  0  0  0
  9 10  2  0  0  0  0
M  END
>  <CHROM.1>
6.04046621,18.02147845,3.46214545,-2.34491545,-0.78557456,-1.89333979

>  <Name>
ligand

>  <RI>
0

>  <Rbt.Current_Directory>
/home/itssahil/PROJECTS/Mol_Feturizer/New_Systems/rnas/4XNR

>  <Rbt.Executable>
rbdock ($Id: //depot/dev/client3/rdock/2013.1/src/exe/rbdock.cxx#4 $)

>  <Rbt.Library>
libRbt.so (2013.1, Build901 2013/11/27)

>  <Rbt.Parameter_File>
/export/apps/rDock/src/rDock_2013.1_src/data/scripts/dock_solv.prm

>  <Rbt.Receptor>
prm/blind_docking_80.prm

>  <SCORE>
-13.3823

>  <SCORE.INTER>
-13.3823

>  <SCORE.INTER.CONST>
1

>  <SCORE.INTER.POLAR>
0

>  <SCORE.INTER.ROT>
0

>  <SCORE.INTER.SOLV>
7.59164

>  <SCORE.INTER.VDW>
-15.0521

>  <SCORE.INTER.norm>
-1.33823

>  <SCORE.INTRA>
0

>  <SCORE.INTRA.DIHEDRAL>
0

>  <SCORE.INTRA.DIHEDRAL.0>
0

>  <SCORE.INTRA.POLAR>
0

>  <SCORE.INTRA.POLAR.0>
0

>  <SCORE.INTRA.REPUL>
0

>  <SCORE.INTRA.REPUL.0>
0

>  <SCORE.INTRA.SOLV>
0

>  <SCORE.INTRA.SOLV.lig_0>
-23.8918

>  <SCORE.INTRA.VDW>
0

>  <SCORE.INTRA.VDW.0>
0

>  <SCORE.INTRA.norm>
0

>  <SCORE.RESTR>
0

>  <SCORE.RESTR.CAVITY>
0

>  <SCORE.RESTR.norm>
0

>  <SCORE.SYSTEM>
0

>  <SCORE.SYSTEM.CONST>
0

>  <SCORE.SYSTEM.DIHEDRAL>
0

>  <SCORE.SYSTEM.SOLV>
0

>  <SCORE.SYSTEM.norm>
0

>  <SCORE.heavy>
10

>  <SCORE.norm>
-1.33823

>  <RMSD>
2.877

$$$$
ligand
 OpenBabel11021811513D
libRbt.so/2013.1/901 2013/11/27
 10 11  0  0  0  0  0  0  0  0999 V2000
    5.1667   17.8406    5.2594 N   0  0  0  0  0  0  0  0  0  0  0  0
    6.0418   18.8454    5.3853 C   0  0  0  0  0  0  0  0  0  0  0  0
    6.8492   19.3736    4.4667 N   0  0  0  0  0  0  0  0  0  0  0  0
    6.6972   18.7539    3.2860 C   0  0  0  0  0  0  0  0  0  0  0  0
    5.8407   17.7078    3.0021 C   0  0  0  0  0  0  0  0  0  0  0  0
    5.0366   17.2377    4.0591 C   0  0  0  0  0  0  0  0  0  0  0  0
    4.1632   16.2341    3.9290 N   0  0  0  0  0  0  0  0  0  0  0  0
    5.9557   17.3253    1.6759 N   0  0  0  0  0  0  0  0  0  0  0  0
    6.8675   18.1354    1.1926 C   0  0  0  0  0  0  0  0  0  0  0  0
    7.3581   19.0234    2.1093 N   0  0  0  0  0  0  0  0  0  0  0  0
  1  2  2  0  0  0  0
  1  6  1  0  0  0  0
  2  3  1  0  0  0  0
  3  4  2  0  0  0  0
  4  5  1  0  0  0  0
  4 10  1  0  0  0  0
  5  6  2  0  0  0  0
  5  8  1  0  0  0  0
  6  7  1  0  0  0  0
  8  9  1  0  0  0  0
  9 10  2  0  0  0  0
M  END
>  <CHROM.1>
5.99007438,18.04094279,3.44050556,-2.38686606,-0.79497599,-1.93773016

>  <Name>
ligand

>  <RI>
0

>  <Rbt.Current_Directory>
/home/itssahil/PROJECTS/Mol_Feturizer/New_Systems/rnas/4XNR

>  <Rbt.Executable>
rbdock ($Id: //depot/dev/client3/rdock/2013.1/src/exe/rbdock.cxx#4 $)

>  <Rbt.Library>
libRbt.so (2013.1, Build901 2013/11/27)

>  <Rbt.Parameter_File>
/export/apps/rDock/src/rDock_2013.1_src/data/scripts/dock_solv.prm

>  <Rbt.Receptor>
prm/blind_docking_80.prm

>  <SCORE>
-13.3878

>  <SCORE.INTER>
-13.3878

>  <SCORE.INTER.CONST>
1

>  <SCORE.INTER.POLAR>
0

>  <SCORE.INTER.ROT>
0

>  <SCORE.INTER.SOLV>
7.49479

>  <SCORE.INTER.VDW>
-15.0234

>  <SCORE.INTER.norm>
-1.33878

>  <SCORE.INTRA>
0

>  <SCORE.INTRA.DIHEDRAL>
0

>  <SCORE.INTRA.DIHEDRAL.0>
0

>  <SCORE.INTRA.POLAR>
0

>  <SCORE.INTRA.POLAR.0>
0

>  <SCORE.INTRA.REPUL>
0

>  <SCORE.INTRA.REPUL.0>
0

>  <SCORE.INTRA.SOLV>
0

>  <SCORE.INTRA.SOLV.lig_0>
-23.8918

>  <SCORE.INTRA.VDW>
0

>  <SCORE.INTRA.VDW.0>
0

>  <SCORE.INTRA.norm>
0

>  <SCORE.RESTR>
0

>  <SCORE.RESTR.CAVITY>
0

>  <SCORE.RESTR.norm>
0

>  <SCORE.SYSTEM>
0

>  <SCORE.SYSTEM.CONST>
0

>  <SCORE.SYSTEM.DIHEDRAL>
0

>  <SCORE.SYSTEM.SOLV>
0

>  <SCORE.SYSTEM.norm>
0

>  <SCORE.heavy>
10

>  <SCORE.norm>
-1.33878

>  <RMSD>
2.878

$$$$
ligand
 OpenBabel11021811513D
libRbt.so/2013.1/901 2013/11/27
 10 11  0  0  0  0  0  0  0  0999 V2000
    5.1740   17.9492    5.3127 N   0  0  0  0  0  0  0  0  0  0  0  0
    6.0285   18.9767    5.3870 C   0  0  0  0  0  0  0  0  0  0  0  0
    6.8276   19.4719    4.4432 N   0  0  0  0  0  0  0  0  0  0  0  0
    6.6913   18.7879    3.2965 C   0  0  0  0  0  0  0  0  0  0  0  0
    5.8567   17.7113    3.0667 C   0  0  0  0  0  0  0  0  0  0  0  0
    5.0593   17.2814    4.1458 C   0  0  0  0  0  0  0  0  0  0  0  0
    4.2066   16.2550    4.0673 N   0  0  0  0  0  0  0  0  0  0  0  0
    5.9829   17.2618    1.7628 N   0  0  0  0  0  0  0  0  0  0  0  0
    6.8796   18.0636    1.2389 C   0  0  0  0  0  0  0  0  0  0  0  0
    7.3498   19.0083    2.1084 N   0  0  0  0  0  0  0  0  0  0  0  0
  1  2  2  0  0  0  0
  1  6  1  0  0  0  0
  2  3  1  0  0  0  0
  3  4  2  0  0  0  0
  4  5  1  0  0  0  0
  4 10  1  0  0  0  0
  5  6  2  0  0  0  0
  5  8  1  0  0  0  0
  6  7  1  0  0  0  0
  8  9  1  0  0  0  0
  9 10  2  0  0  0  0
M  END
>  <CHROM.1>
5.99815492,18.06999700,3.48722082,-2.40104039,-0.81266864,-2.00069053

>  <Name>
ligand

>  <RI>
0

>  <Rbt.Current_Directory>
/home/itssahil/PROJECTS/Mol_Feturizer/New_Systems/rnas/4XNR

>  <Rbt.Executable>
rbdock ($Id: //depot/dev/client3/rdock/2013.1/src/exe/rbdock.cxx#4 $)

>  <Rbt.Library>
libRbt.so (2013.1, Build901 2013/11/27)

>  <Rbt.Parameter_File>
/export/apps/rDock/src/rDock_2013.1_src/data/scripts/dock_solv.prm

>  <Rbt.Receptor>
prm/blind_docking_100.prm

>  <SCORE>
-13.3961

>  <SCORE.INTER>
-13.3961

>  <SCORE.INTER.CONST>
1

>  <SCORE.INTER.POLAR>
0

>  <SCORE.INTER.ROT>
0

>  <SCORE.INTER.SOLV>
7.94371

>  <SCORE.INTER.VDW>
-15.1787

>  <SCORE.INTER.norm>
-1.33961

>  <SCORE.INTRA>
0

>  <SCORE.INTRA.DIHEDRAL>
0

>  <SCORE.INTRA.DIHEDRAL.0>
0

>  <SCORE.INTRA.POLAR>
0

>  <SCORE.INTRA.POLAR.0>
0

>  <SCORE.INTRA.REPUL>
0

>  <SCORE.INTRA.REPUL.0>
0

>  <SCORE.INTRA.SOLV>
0

>  <SCORE.INTRA.SOLV.lig_0>
-23.8918

>  <SCORE.INTRA.VDW>
0

>  <SCORE.INTRA.VDW.0>
0

>  <SCORE.INTRA.norm>
0

>  <SCORE.RESTR>
0

>  <SCORE.RESTR.CAVITY>
0

>  <SCORE.RESTR.norm>
0

>  <SCORE.SYSTEM>
0

>  <SCORE.SYSTEM.CONST>
0

>  <SCORE.SYSTEM.DIHEDRAL>
0

>  <SCORE.SYSTEM.SOLV>
0

>  <SCORE.SYSTEM.norm>
0

>  <SCORE.heavy>
10

>  <SCORE.norm>
-1.33961

>  <RMSD>
2.879

$$$$
ligand
 OpenBabel11021811513D
libRbt.so/2013.1/901 2013/11/27
 10 11  0  0  0  0  0  0  0  0999 V2000
    5.2982   17.8066    5.2991 N   0  0  0  0  0  0  0  0  0  0  0  0
    6.1715   18.8156    5.4020 C   0  0  0  0  0  0  0  0  0  0  0  0
    6.9399   19.3583    4.4587 N   0  0  0  0  0  0  0  0  0  0  0  0
    6.7464   18.7499    3.2783 C   0  0  0  0  0  0  0  0  0  0  0  0
    5.8859   17.7013    3.0164 C   0  0  0  0  0  0  0  0  0  0  0  0
    5.1257   17.2152    4.0985 C   0  0  0  0  0  0  0  0  0  0  0  0
    4.2540   16.2075    3.9913 N   0  0  0  0  0  0  0  0  0  0  0  0
    5.9521   17.3332    1.6828 N   0  0  0  0  0  0  0  0  0  0  0  0
    6.8399   18.1540    1.1734 C   0  0  0  0  0  0  0  0  0  0  0  0
    7.3600   19.0356    2.0800 N   0  0  0  0  0  0  0  0  0  0  0  0
  1  2  2  0  0  0  0
  1  6  1  0  0  0  0
  2  3  1  0  0  0  0
  3  4  2  0  0  0  0
  4  5  1  0  0  0  0
  4 10  1  0  0  0  0
  5  6  2  0  0  0  0
  5  8  1  0  0  0  0
  6  7  1  0  0  0  0
  8  9  1  0  0  0  0
  9 10  2  0  0  0  0
M  END
>  <CHROM.1>
6.04995587,18.03084922,3.45220752,-2.33781954,-0.81373267,-1.89200977

>  <Name>
ligand

>  <RI>
0

>  <Rbt.Current_Directory>
/home/itssahil/PROJECTS/Mol_Feturizer/New_Systems/rnas/4XNR

>  <Rbt.Executable>
rbdock ($Id: //depot/dev/client3/rdock/2013.1/src/exe/rbdock.cxx#4 $)

>  <Rbt.Library>
libRbt.so (2013.1, Build901 2013/11/27)

>  <Rbt.Parameter_File>
/export/apps/rDock/src/rDock_2013.1_src/data/scripts/dock_solv.prm

>  <Rbt.Receptor>
prm/blind_docking_100.prm

>  <SCORE>
-13.3801

>  <SCORE.INTER>
-13.3801

>  <SCORE.INTER.CONST>
1

>  <SCORE.INTER.POLAR>
0

>  <SCORE.INTER.ROT>
0

>  <SCORE.INTER.SOLV>
7.76652

>  <SCORE.INTER.VDW>
-15.1089

>  <SCORE.INTER.norm>
-1.33801

>  <SCORE.INTRA>
0

>  <SCORE.INTRA.DIHEDRAL>
0

>  <SCORE.INTRA.DIHEDRAL.0>
0

>  <SCORE.INTRA.POLAR>
0

>  <SCORE.INTRA.POLAR.0>
0

>  <SCORE.INTRA.REPUL>
0

>  <SCORE.INTRA.REPUL.0>
0

>  <SCORE.INTRA.SOLV>
0

>  <SCORE.INTRA.SOLV.lig_0>
-23.8918

>  <SCORE.INTRA.VDW>
0

>  <SCORE.INTRA.VDW.0>
0

>  <SCORE.INTRA.norm>
0

>  <SCORE.RESTR>
0

>  <SCORE.RESTR.CAVITY>
0

>  <SCORE.RESTR.norm>
0

>  <SCORE.SYSTEM>
0

>  <SCORE.SYSTEM.CONST>
0

>  <SCORE.SYSTEM.DIHEDRAL>
0

>  <SCORE.SYSTEM.SOLV>
0

>  <SCORE.SYSTEM.norm>
0

>  <SCORE.heavy>
10

>  <SCORE.norm>
-1.33801

>  <RMSD>
2.879

$$$$
ligand
 OpenBabel11021811513D
libRbt.so/2013.1/901 2013/11/27
 10 11  0  0  0  0  0  0  0  0999 V2000
    5.2076   17.9795    5.3199 N   0  0  0  0  0  0  0  0  0  0  0  0
    6.0688   19.0018    5.3860 C   0  0  0  0  0  0  0  0  0  0  0  0
    6.8653   19.4894    4.4360 N   0  0  0  0  0  0  0  0  0  0  0  0
    6.7179   18.8029    3.2922 C   0  0  0  0  0  0  0  0  0  0  0  0
    5.8753   17.7307    3.0706 C   0  0  0  0  0  0  0  0  0  0  0  0
    5.0817   17.3089    4.1557 C   0  0  0  0  0  0  0  0  0  0  0  0
    4.2223   16.2876    4.0853 N   0  0  0  0  0  0  0  0  0  0  0  0
    5.9910   17.2767    1.7673 N   0  0  0  0  0  0  0  0  0  0  0  0
    6.8894   18.0714    1.2357 C   0  0  0  0  0  0  0  0  0  0  0  0
    7.3706   19.0157    2.0995 N   0  0  0  0  0  0  0  0  0  0  0  0
  1  2  2  0  0  0  0
  1  6  1  0  0  0  0
  2  3  1  0  0  0  0
  3  4  2  0  0  0  0
  4  5  1  0  0  0  0
  4 10  1  0  0  0  0
  5  6  2  0  0  0  0
  5  8  1  0  0  0  0
  6  7  1  0  0  0  0
  8  9  1  0  0  0  0
  9 10  2  0  0  0  0
M  END
>  <CHROM.1>
6.02150778,18.08979939,3.48917337,-2.38941242,-0.80953126,-1.99520605

>  <Name>
ligand

>  <RI>
0

>  <Rbt.Current_Directory>
/home/itssahil/PROJECTS/Mol_Feturizer/New_Systems/rnas/4XNR

>  <Rbt.Executable>
rbdock ($Id: //depot/dev/client3/rdock/2013.1/src/exe/rbdock.cxx#4 $)

>  <Rbt.Library>
libRbt.so (2013.1, Build901 2013/11/27)

>  <Rbt.Parameter_File>
/export/apps/rDock/src/rDock_2013.1_src/data/scripts/dock_solv.prm

>  <Rbt.Receptor>
prm/blind_docking_100.prm

>  <SCORE>
-13.3843

>  <SCORE.INTER>
-13.3843

>  <SCORE.INTER.CONST>
1

>  <SCORE.INTER.POLAR>
0

>  <SCORE.INTER.ROT>
0

>  <SCORE.INTER.SOLV>
7.99709

>  <SCORE.INTER.VDW>
-15.1886

>  <SCORE.INTER.norm>
-1.33843

>  <SCORE.INTRA>
0

>  <SCORE.INTRA.DIHEDRAL>
0

>  <SCORE.INTRA.DIHEDRAL.0>
0

>  <SCORE.INTRA.POLAR>
0

>  <SCORE.INTRA.POLAR.0>
0

>  <SCORE.INTRA.REPUL>
0

>  <SCORE.INTRA.REPUL.0>
0

>  <SCORE.INTRA.SOLV>
0

>  <SCORE.INTRA.SOLV.lig_0>
-23.8918

>  <SCORE.INTRA.VDW>
0

>  <SCORE.INTRA.VDW.0>
0

>  <SCORE.INTRA.norm>
0

>  <SCORE.RESTR>
0

>  <SCORE.RESTR.CAVITY>
0

>  <SCORE.RESTR.norm>
0

>  <SCORE.SYSTEM>
0

>  <SCORE.SYSTEM.CONST>
0

>  <SCORE.SYSTEM.DIHEDRAL>
0

>  <SCORE.SYSTEM.SOLV>
0

>  <SCORE.SYSTEM.norm>
0

>  <SCORE.heavy>
10

>  <SCORE.norm>
-1.33843

>  <RMSD>
2.883

$$$$
ligand
 OpenBabel11021811513D
libRbt.so/2013.1/901 2013/11/27
 10 11  0  0  0  0  0  0  0  0999 V2000
    5.2305   17.9969    5.3286 N   0  0  0  0  0  0  0  0  0  0  0  0
    6.0870   19.0237    5.3889 C   0  0  0  0  0  0  0  0  0  0  0  0
    6.8838   19.5073    4.4371 N   0  0  0  0  0  0  0  0  0  0  0  0
    6.7423   18.8114    3.2983 C   0  0  0  0  0  0  0  0  0  0  0  0
    5.9051   17.7337    3.0829 C   0  0  0  0  0  0  0  0  0  0  0  0
    5.1106   17.3168    4.1692 C   0  0  0  0  0  0  0  0  0  0  0  0
    4.2559   16.2911    4.1047 N   0  0  0  0  0  0  0  0  0  0  0  0
    6.0261   17.2701    1.7834 N   0  0  0  0  0  0  0  0  0  0  0  0
    6.9224   18.0646    1.2479 C   0  0  0  0  0  0  0  0  0  0  0  0
    7.3971   19.0178    2.1056 N   0  0  0  0  0  0  0  0  0  0  0  0
  1  2  2  0  0  0  0
  1  6  1  0  0  0  0
  2  3  1  0  0  0  0
  3  4  2  0  0  0  0
  4  5  1  0  0  0  0
  4 10  1  0  0  0  0
  5  6  2  0  0  0  0
  5  8  1  0  0  0  0
  6  7  1  0  0  0  0
  8  9  1  0  0  0  0
  9 10  2  0  0  0  0
M  END
>  <CHROM.1>
6.04860816,18.09670702,3.49905311,-2.39545536,-0.81252759,-2.00735607

>  <Name>
ligand

>  <RI>
0

>  <Rbt.Current_Directory>
/home/itssahil/PROJECTS/Mol_Feturizer/New_Systems/rnas/4XNR

>  <Rbt.Executable>
rbdock ($Id: //depot/dev/client3/rdock/2013.1/src/exe/rbdock.cxx#4 $)

>  <Rbt.Library>
libRbt.so (2013.1, Build901 2013/11/27)

>  <Rbt.Parameter_File>
/export/apps/rDock/src/rDock_2013.1_src/data/scripts/dock_solv.prm

>  <Rbt.Receptor>
prm/blind_docking_100.prm

>  <SCORE>
-13.4072

>  <SCORE.INTER>
-13.4072

>  <SCORE.INTER.CONST>
1

>  <SCORE.INTER.POLAR>
0

>  <SCORE.INTER.ROT>
0

>  <SCORE.INTER.SOLV>
8.10303

>  <SCORE.INTER.VDW>
-15.2392

>  <SCORE.INTER.norm>
-1.34072

>  <SCORE.INTRA>
0

>  <SCORE.INTRA.DIHEDRAL>
0

>  <SCORE.INTRA.DIHEDRAL.0>
0

>  <SCORE.INTRA.POLAR>
0

>  <SCORE.INTRA.POLAR.0>
0

>  <SCORE.INTRA.REPUL>
0

>  <SCORE.INTRA.REPUL.0>
0

>  <SCORE.INTRA.SOLV>
0

>  <SCORE.INTRA.SOLV.lig_0>
-23.8918

>  <SCORE.INTRA.VDW>
0

>  <SCORE.INTRA.VDW.0>
0

>  <SCORE.INTRA.norm>
0

>  <SCORE.RESTR>
0

>  <SCORE.RESTR.CAVITY>
0

>  <SCORE.RESTR.norm>
0

>  <SCORE.SYSTEM>
0

>  <SCORE.SYSTEM.CONST>
0

>  <SCORE.SYSTEM.DIHEDRAL>
0

>  <SCORE.SYSTEM.SOLV>
0

>  <SCORE.SYSTEM.norm>
0

>  <SCORE.heavy>
10

>  <SCORE.norm>
-1.34072

>  <RMSD>
2.883

$$$$
ligand
 OpenBabel11021811513D
libRbt.so/2013.1/901 2013/11/27
 10 11  0  0  0  0  0  0  0  0999 V2000
    5.2327   17.8869    5.2865 N   0  0  0  0  0  0  0  0  0  0  0  0
    6.1317   18.8726    5.3939 C   0  0  0  0  0  0  0  0  0  0  0  0
    6.9352   19.3793    4.4599 N   0  0  0  0  0  0  0  0  0  0  0  0
    6.7501   18.7587    3.2844 C   0  0  0  0  0  0  0  0  0  0  0  0
    5.8661   17.7307    3.0190 C   0  0  0  0  0  0  0  0  0  0  0  0
    5.0694   17.2825    4.0911 C   0  0  0  0  0  0  0  0  0  0  0  0
    4.1721   16.2980    3.9795 N   0  0  0  0  0  0  0  0  0  0  0  0
    5.9506   17.3408    1.6927 N   0  0  0  0  0  0  0  0  0  0  0  0
    6.8719   18.1288    1.1910 C   0  0  0  0  0  0  0  0  0  0  0  0
    7.3971   19.0091    2.0959 N   0  0  0  0  0  0  0  0  0  0  0  0
  1  2  2  0  0  0  0
  1  6  1  0  0  0  0
  2  3  1  0  0  0  0
  3  4  2  0  0  0  0
  4  5  1  0  0  0  0
  4 10  1  0  0  0  0
  5  6  2  0  0  0  0
  5  8  1  0  0  0  0
  6  7  1  0  0  0  0
  8  9  1  0  0  0  0
  9 10  2  0  0  0  0
M  END
>  <CHROM.1>
6.03000644,18.06215932,3.45349610,-2.35396605,-0.78007068,-1.91836395

>  <Name>
ligand

>  <RI>
0

>  <Rbt.Current_Directory>
/home/itssahil/PROJECTS/Mol_Feturizer/New_Systems/rnas/4XNR

>  <Rbt.Executable>
rbdock ($Id: //depot/dev/client3/rdock/2013.1/src/exe/rbdock.cxx#4 $)

>  <Rbt.Library>
libRbt.so (2013.1, Build901 2013/11/27)

>  <Rbt.Parameter_File>
/export/apps/rDock/src/rDock_2013.1_src/data/scripts/dock_solv.prm

>  <Rbt.Receptor>
prm/blind_docking_80.prm

>  <SCORE>
-13.3847

>  <SCORE.INTER>
-13.3847

>  <SCORE.INTER.CONST>
1

>  <SCORE.INTER.POLAR>
0

>  <SCORE.INTER.ROT>
0

>  <SCORE.INTER.SOLV>
7.61481

>  <SCORE.INTER.VDW>
-15.0614

>  <SCORE.INTER.norm>
-1.33847

>  <SCORE.INTRA>
0

>  <SCORE.INTRA.DIHEDRAL>
0

>  <SCORE.INTRA.DIHEDRAL.0>
0

>  <SCORE.INTRA.POLAR>
0

>  <SCORE.INTRA.POLAR.0>
0

>  <SCORE.INTRA.REPUL>
0

>  <SCORE.INTRA.REPUL.0>
0

>  <SCORE.INTRA.SOLV>
0

>  <SCORE.INTRA.SOLV.lig_0>
-23.8918

>  <SCORE.INTRA.VDW>
0

>  <SCORE.INTRA.VDW.0>
0

>  <SCORE.INTRA.norm>
0

>  <SCORE.RESTR>
0

>  <SCORE.RESTR.CAVITY>
0

>  <SCORE.RESTR.norm>
0

>  <SCORE.SYSTEM>
0

>  <SCORE.SYSTEM.CONST>
0

>  <SCORE.SYSTEM.DIHEDRAL>
0

>  <SCORE.SYSTEM.SOLV>
0

>  <SCORE.SYSTEM.norm>
0

>  <SCORE.heavy>
10

>  <SCORE.norm>
-1.33847

>  <RMSD>
2.883

$$$$
ligand
 OpenBabel11021811513D
libRbt.so/2013.1/901 2013/11/27
 10 11  0  0  0  0  0  0  0  0999 V2000
    7.2577   19.0602    3.3341 N   0  0  0  0  0  0  0  0  0  0  0  0
    7.0828   18.6244    2.0808 C   0  0  0  0  0  0  0  0  0  0  0  0
    6.3406   17.6085    1.6427 N   0  0  0  0  0  0  0  0  0  0  0  0
    5.7198   16.9973    2.6636 C   0  0  0  0  0  0  0  0  0  0  0  0
    5.8012   17.3284    4.0023 C   0  0  0  0  0  0  0  0  0  0  0  0
    6.6196   18.4248    4.3390 C   0  0  0  0  0  0  0  0  0  0  0  0
    6.7911   18.8573    5.5921 N   0  0  0  0  0  0  0  0  0  0  0  0
    5.0229   16.4755    4.7672 N   0  0  0  0  0  0  0  0  0  0  0  0
    4.4957   15.6569    3.8879 C   0  0  0  0  0  0  0  0  0  0  0  0
    4.8733   15.9140    2.5992 N   0  0  0  0  0  0  0  0  0  0  0  0
  1  2  2  0  0  0  0
  1  6  1  0  0  0  0
  2  3  1  0  0  0  0
  3  4  2  0  0  0  0
  4  5  1  0  0  0  0
  4 10  1  0  0  0  0
  5  6  2  0  0  0  0
  5  8  1  0  0  0  0
  6  7  1  0  0  0  0
  8  9  1  0  0  0  0
  9 10  2  0  0  0  0
M  END
>  <CHROM.1>
6.00480038,17.50151623,3.49826757,-0.24065350,-0.89549735,-1.74073146

>  <Name>
ligand

>  <RI>
0

>  <Rbt.Current_Directory>
/home/itssahil/PROJECTS/Mol_Feturizer/New_Systems/rnas/4XNR

>  <Rbt.Executable>
rbdock ($Id: //depot/dev/client3/rdock/2013.1/src/exe/rbdock.cxx#4 $)

>  <Rbt.Library>
libRbt.so (2013.1, Build901 2013/11/27)

>  <Rbt.Parameter_File>
/export/apps/rDock/src/rDock_2013.1_src/data/scripts/dock_solv.prm

>  <Rbt.Receptor>
prm/blind_docking_100.prm

>  <SCORE>
-11.565

>  <SCORE.INTER>
-11.565

>  <SCORE.INTER.CONST>
1

>  <SCORE.INTER.POLAR>
0

>  <SCORE.INTER.ROT>
0

>  <SCORE.INTER.SOLV>
8.33425

>  <SCORE.INTER.VDW>
-14.0881

>  <SCORE.INTER.norm>
-1.1565

>  <SCORE.INTRA>
0

>  <SCORE.INTRA.DIHEDRAL>
0

>  <SCORE.INTRA.DIHEDRAL.0>
0

>  <SCORE.INTRA.POLAR>
0

>  <SCORE.INTRA.POLAR.0>
0

>  <SCORE.INTRA.REPUL>
0

>  <SCORE.INTRA.REPUL.0>
0

>  <SCORE.INTRA.SOLV>
0

>  <SCORE.INTRA.SOLV.lig_0>
-23.8918

>  <SCORE.INTRA.VDW>
0

>  <SCORE.INTRA.VDW.0>
0

>  <SCORE.INTRA.norm>
0

>  <SCORE.RESTR>
0

>  <SCORE.RESTR.CAVITY>
0

>  <SCORE.RESTR.norm>
0

>  <SCORE.SYSTEM>
0

>  <SCORE.SYSTEM.CONST>
0

>  <SCORE.SYSTEM.DIHEDRAL>
0

>  <SCORE.SYSTEM.SOLV>
0

>  <SCORE.SYSTEM.norm>
0

>  <SCORE.heavy>
10

>  <SCORE.norm>
-1.1565

>  <RMSD>
2.891

$$$$
ligand
 OpenBabel11021811513D
libRbt.so/2013.1/901 2013/11/27
 10 11  0  0  0  0  0  0  0  0999 V2000
    5.2721   18.0094    5.3184 N   0  0  0  0  0  0  0  0  0  0  0  0
    6.1259   19.0390    5.3671 C   0  0  0  0  0  0  0  0  0  0  0  0
    6.8980   19.5338    4.4008 N   0  0  0  0  0  0  0  0  0  0  0  0
    6.7322   18.8469    3.2599 C   0  0  0  0  0  0  0  0  0  0  0  0
    5.8942   17.7678    3.0553 C   0  0  0  0  0  0  0  0  0  0  0  0
    5.1274   17.3386    4.1565 C   0  0  0  0  0  0  0  0  0  0  0  0
    4.2753   16.3101    4.1036 N   0  0  0  0  0  0  0  0  0  0  0  0
    5.9861   17.3156    1.7494 N   0  0  0  0  0  0  0  0  0  0  0  0
    6.8664   18.1181    1.1996 C   0  0  0  0  0  0  0  0  0  0  0  0
    7.3577   19.0660    2.0538 N   0  0  0  0  0  0  0  0  0  0  0  0
  1  2  2  0  0  0  0
  1  6  1  0  0  0  0
  2  3  1  0  0  0  0
  3  4  2  0  0  0  0
  4  5  1  0  0  0  0
  4 10  1  0  0  0  0
  5  6  2  0  0  0  0
  5  8  1  0  0  0  0
  6  7  1  0  0  0  0
  8  9  1  0  0  0  0
  9 10  2  0  0  0  0
M  END
>  <CHROM.1>
6.04618436,18.12781139,3.47094277,-2.36609116,-0.82579249,-1.97747401

>  <Name>
ligand

>  <RI>
0

>  <Rbt.Current_Directory>
/home/itssahil/PROJECTS/Mol_Feturizer/New_Systems/rnas/4XNR

>  <Rbt.Executable>
rbdock ($Id: //depot/dev/client3/rdock/2013.1/src/exe/rbdock.cxx#4 $)

>  <Rbt.Library>
libRbt.so (2013.1, Build901 2013/11/27)

>  <Rbt.Parameter_File>
/export/apps/rDock/src/rDock_2013.1_src/data/scripts/dock_solv.prm

>  <Rbt.Receptor>
prm/blind_docking_80.prm

>  <SCORE>
-13.3618

>  <SCORE.INTER>
-13.3633

>  <SCORE.INTER.CONST>
1

>  <SCORE.INTER.POLAR>
0

>  <SCORE.INTER.ROT>
0

>  <SCORE.INTER.SOLV>
8.11453

>  <SCORE.INTER.VDW>
-15.2137

>  <SCORE.INTER.norm>
-1.33633

>  <SCORE.INTRA>
0

>  <SCORE.INTRA.DIHEDRAL>
0

>  <SCORE.INTRA.DIHEDRAL.0>
0

>  <SCORE.INTRA.POLAR>
0

>  <SCORE.INTRA.POLAR.0>
0

>  <SCORE.INTRA.REPUL>
0

>  <SCORE.INTRA.REPUL.0>
0

>  <SCORE.INTRA.SOLV>
0

>  <SCORE.INTRA.SOLV.lig_0>
-23.8918

>  <SCORE.INTRA.VDW>
0

>  <SCORE.INTRA.VDW.0>
0

>  <SCORE.INTRA.norm>
0

>  <SCORE.RESTR>
0.00145967

>  <SCORE.RESTR.CAVITY>
0.00145967

>  <SCORE.RESTR.norm>
0.000145967

>  <SCORE.SYSTEM>
0

>  <SCORE.SYSTEM.CONST>
0

>  <SCORE.SYSTEM.DIHEDRAL>
0

>  <SCORE.SYSTEM.SOLV>
0

>  <SCORE.SYSTEM.norm>
0

>  <SCORE.heavy>
10

>  <SCORE.norm>
-1.33618

>  <RMSD>
2.891

$$$$
ligand
 OpenBabel11021811513D
libRbt.so/2013.1/901 2013/11/27
 10 11  0  0  0  0  0  0  0  0999 V2000
    7.3062   18.9906    3.2943 N   0  0  0  0  0  0  0  0  0  0  0  0
    7.1536   18.5484    2.0403 C   0  0  0  0  0  0  0  0  0  0  0  0
    6.4061   17.5409    1.5922 N   0  0  0  0  0  0  0  0  0  0  0  0
    5.7525   16.9465    2.6025 C   0  0  0  0  0  0  0  0  0  0  0  0
    5.8081   17.2861    3.9405 C   0  0  0  0  0  0  0  0  0  0  0  0
    6.6353   18.3722    4.2886 C   0  0  0  0  0  0  0  0  0  0  0  0
    6.7845   18.8111    5.5423 N   0  0  0  0  0  0  0  0  0  0  0  0
    4.9994   16.4506    4.6930 N   0  0  0  0  0  0  0  0  0  0  0  0
    4.4800   15.6338    3.8073 C   0  0  0  0  0  0  0  0  0  0  0  0
    4.8912   15.8759    2.5259 N   0  0  0  0  0  0  0  0  0  0  0  0
  1  2  2  0  0  0  0
  1  6  1  0  0  0  0
  2  3  1  0  0  0  0
  3  4  2  0  0  0  0
  4  5  1  0  0  0  0
  4 10  1  0  0  0  0
  5  6  2  0  0  0  0
  5  8  1  0  0  0  0
  6  7  1  0  0  0  0
  8  9  1  0  0  0  0
  9 10  2  0  0  0  0
M  END
>  <CHROM.1>
6.02597950,17.45237115,3.44012012,-0.27213822,-0.87616120,-1.77214181

>  <Name>
ligand

>  <RI>
0

>  <Rbt.Current_Directory>
/home/itssahil/PROJECTS/Mol_Feturizer/New_Systems/rnas/4XNR

>  <Rbt.Executable>
rbdock ($Id: //depot/dev/client3/rdock/2013.1/src/exe/rbdock.cxx#4 $)

>  <Rbt.Library>
libRbt.so (2013.1, Build901 2013/11/27)

>  <Rbt.Parameter_File>
/export/apps/rDock/src/rDock_2013.1_src/data/scripts/dock_solv.prm

>  <Rbt.Receptor>
prm/blind_docking_40.prm

>  <SCORE>
-11.6089

>  <SCORE.INTER>
-11.6089

>  <SCORE.INTER.CONST>
1

>  <SCORE.INTER.POLAR>
0

>  <SCORE.INTER.ROT>
0

>  <SCORE.INTER.SOLV>
8.23253

>  <SCORE.INTER.VDW>
-14.0835

>  <SCORE.INTER.norm>
-1.16089

>  <SCORE.INTRA>
0

>  <SCORE.INTRA.DIHEDRAL>
0

>  <SCORE.INTRA.DIHEDRAL.0>
0

>  <SCORE.INTRA.POLAR>
0

>  <SCORE.INTRA.POLAR.0>
0

>  <SCORE.INTRA.REPUL>
0

>  <SCORE.INTRA.REPUL.0>
0

>  <SCORE.INTRA.SOLV>
0

>  <SCORE.INTRA.SOLV.lig_0>
-23.8918

>  <SCORE.INTRA.VDW>
0

>  <SCORE.INTRA.VDW.0>
0

>  <SCORE.INTRA.norm>
0

>  <SCORE.RESTR>
0

>  <SCORE.RESTR.CAVITY>
0

>  <SCORE.RESTR.norm>
0

>  <SCORE.SYSTEM>
0

>  <SCORE.SYSTEM.CONST>
0

>  <SCORE.SYSTEM.DIHEDRAL>
0

>  <SCORE.SYSTEM.SOLV>
0

>  <SCORE.SYSTEM.norm>
0

>  <SCORE.heavy>
10

>  <SCORE.norm>
-1.16089

>  <RMSD>
2.904

$$$$
ligand
 OpenBabel11021811513D
libRbt.so/2013.1/901 2013/11/27
 10 11  0  0  0  0  0  0  0  0999 V2000
    7.2689   19.0338    3.2895 N   0  0  0  0  0  0  0  0  0  0  0  0
    7.1037   18.6051    2.0325 C   0  0  0  0  0  0  0  0  0  0  0  0
    6.3646   17.5920    1.5829 N   0  0  0  0  0  0  0  0  0  0  0  0
    5.7357   16.9752    2.5954 C   0  0  0  0  0  0  0  0  0  0  0  0
    5.8068   17.2987    3.9366 C   0  0  0  0  0  0  0  0  0  0  0  0
    6.6228   18.3928    4.2859 C   0  0  0  0  0  0  0  0  0  0  0  0
    6.7848   18.8182    5.5427 N   0  0  0  0  0  0  0  0  0  0  0  0
    5.0223   16.4417    4.6906 N   0  0  0  0  0  0  0  0  0  0  0  0
    4.5017   15.6283    3.8026 C   0  0  0  0  0  0  0  0  0  0  0  0
    4.8894   15.8926    2.5183 N   0  0  0  0  0  0  0  0  0  0  0  0
  1  2  2  0  0  0  0
  1  6  1  0  0  0  0
  2  3  1  0  0  0  0
  3  4  2  0  0  0  0
  4  5  1  0  0  0  0
  4 10  1  0  0  0  0
  5  6  2  0  0  0  0
  5  8  1  0  0  0  0
  6  7  1  0  0  0  0
  8  9  1  0  0  0  0
  9 10  2  0  0  0  0
M  END
>  <CHROM.1>
6.01435073,17.47456708,3.43514377,-0.25280474,-0.89385304,-1.74452630

>  <Name>
ligand

>  <RI>
0

>  <Rbt.Current_Directory>
/home/itssahil/PROJECTS/Mol_Feturizer/New_Systems/rnas/4XNR

>  <Rbt.Executable>
rbdock ($Id: //depot/dev/client3/rdock/2013.1/src/exe/rbdock.cxx#4 $)

>  <Rbt.Library>
libRbt.so (2013.1, Build901 2013/11/27)

>  <Rbt.Parameter_File>
/export/apps/rDock/src/rDock_2013.1_src/data/scripts/dock_solv.prm

>  <Rbt.Receptor>
prm/blind_docking_40.prm

>  <SCORE>
-11.6063

>  <SCORE.INTER>
-11.6063

>  <SCORE.INTER.CONST>
1

>  <SCORE.INTER.POLAR>
0

>  <SCORE.INTER.ROT>
0

>  <SCORE.INTER.SOLV>
8.24496

>  <SCORE.INTER.VDW>
-14.0859

>  <SCORE.INTER.norm>
-1.16063

>  <SCORE.INTRA>
0

>  <SCORE.INTRA.DIHEDRAL>
0

>  <SCORE.INTRA.DIHEDRAL.0>
0

>  <SCORE.INTRA.POLAR>
0

>  <SCORE.INTRA.POLAR.0>
0

>  <SCORE.INTRA.REPUL>
0

>  <SCORE.INTRA.REPUL.0>
0

>  <SCORE.INTRA.SOLV>
0

>  <SCORE.INTRA.SOLV.lig_0>
-23.8918

>  <SCORE.INTRA.VDW>
0

>  <SCORE.INTRA.VDW.0>
0

>  <SCORE.INTRA.norm>
0

>  <SCORE.RESTR>
0

>  <SCORE.RESTR.CAVITY>
0

>  <SCORE.RESTR.norm>
0

>  <SCORE.SYSTEM>
0

>  <SCORE.SYSTEM.CONST>
0

>  <SCORE.SYSTEM.DIHEDRAL>
0

>  <SCORE.SYSTEM.SOLV>
0

>  <SCORE.SYSTEM.norm>
0

>  <SCORE.heavy>
10

>  <SCORE.norm>
-1.16063

>  <RMSD>
2.904

$$$$
ligand
 OpenBabel11021811513D
libRbt.so/2013.1/901 2013/11/27
 10 11  0  0  0  0  0  0  0  0999 V2000
    7.2797   19.0576    3.2917 N   0  0  0  0  0  0  0  0  0  0  0  0
    7.1021   18.6467    2.0304 C   0  0  0  0  0  0  0  0  0  0  0  0
    6.3634   17.6363    1.5744 N   0  0  0  0  0  0  0  0  0  0  0  0
    5.7496   17.0010    2.5848 C   0  0  0  0  0  0  0  0  0  0  0  0
    5.8345   17.3050    3.9298 C   0  0  0  0  0  0  0  0  0  0  0  0
    6.6486   18.3984    4.2858 C   0  0  0  0  0  0  0  0  0  0  0  0
    6.8229   18.8060    5.5468 N   0  0  0  0  0  0  0  0  0  0  0  0
    5.0635   16.4326    4.6799 N   0  0  0  0  0  0  0  0  0  0  0  0
    4.5370   15.6296    3.7859 C   0  0  0  0  0  0  0  0  0  0  0  0
    4.9083   15.9151    2.5013 N   0  0  0  0  0  0  0  0  0  0  0  0
  1  2  2  0  0  0  0
  1  6  1  0  0  0  0
  2  3  1  0  0  0  0
  3  4  2  0  0  0  0
  4  5  1  0  0  0  0
  4 10  1  0  0  0  0
  5  6  2  0  0  0  0
  5  8  1  0  0  0  0
  6  7  1  0  0  0  0
  8  9  1  0  0  0  0
  9 10  2  0  0  0  0
M  END
>  <CHROM.1>
6.03528751,17.48947967,3.42857705,-0.23588129,-0.90110130,-1.71643827

>  <Name>
ligand

>  <RI>
0

>  <Rbt.Current_Directory>
/home/itssahil/PROJECTS/Mol_Feturizer/New_Systems/rnas/4XNR

>  <Rbt.Executable>
rbdock ($Id: //depot/dev/client3/rdock/2013.1/src/exe/rbdock.cxx#4 $)

>  <Rbt.Library>
libRbt.so (2013.1, Build901 2013/11/27)

>  <Rbt.Parameter_File>
/export/apps/rDock/src/rDock_2013.1_src/data/scripts/dock_solv.prm

>  <Rbt.Receptor>
prm/blind_docking_100.prm

>  <SCORE>
-11.5988

>  <SCORE.INTER>
-11.5988

>  <SCORE.INTER.CONST>
1

>  <SCORE.INTER.POLAR>
0

>  <SCORE.INTER.ROT>
0

>  <SCORE.INTER.SOLV>
8.22521

>  <SCORE.INTER.VDW>
-14.0743

>  <SCORE.INTER.norm>
-1.15988

>  <SCORE.INTRA>
0

>  <SCORE.INTRA.DIHEDRAL>
0

>  <SCORE.INTRA.DIHEDRAL.0>
0

>  <SCORE.INTRA.POLAR>
0

>  <SCORE.INTRA.POLAR.0>
0

>  <SCORE.INTRA.REPUL>
0

>  <SCORE.INTRA.REPUL.0>
0

>  <SCORE.INTRA.SOLV>
0

>  <SCORE.INTRA.SOLV.lig_0>
-23.8918

>  <SCORE.INTRA.VDW>
0

>  <SCORE.INTRA.VDW.0>
0

>  <SCORE.INTRA.norm>
0

>  <SCORE.RESTR>
0

>  <SCORE.RESTR.CAVITY>
0

>  <SCORE.RESTR.norm>
0

>  <SCORE.SYSTEM>
0

>  <SCORE.SYSTEM.CONST>
0

>  <SCORE.SYSTEM.DIHEDRAL>
0

>  <SCORE.SYSTEM.SOLV>
0

>  <SCORE.SYSTEM.norm>
0

>  <SCORE.heavy>
10

>  <SCORE.norm>
-1.15988

>  <RMSD>
2.905

$$$$
ligand
 OpenBabel11021811513D
libRbt.so/2013.1/901 2013/11/27
 10 11  0  0  0  0  0  0  0  0999 V2000
    7.2751   19.0742    3.2936 N   0  0  0  0  0  0  0  0  0  0  0  0
    7.0980   18.6698    2.0302 C   0  0  0  0  0  0  0  0  0  0  0  0
    6.3667   17.6560    1.5695 N   0  0  0  0  0  0  0  0  0  0  0  0
    5.7609   17.0091    2.5773 C   0  0  0  0  0  0  0  0  0  0  0  0
    5.8465   17.3053    3.9240 C   0  0  0  0  0  0  0  0  0  0  0  0
    6.6522   18.4033    4.2850 C   0  0  0  0  0  0  0  0  0  0  0  0
    6.8261   18.8044    5.5482 N   0  0  0  0  0  0  0  0  0  0  0  0
    5.0849   16.4216    4.6704 N   0  0  0  0  0  0  0  0  0  0  0  0
    4.5630   15.6198    3.7727 C   0  0  0  0  0  0  0  0  0  0  0  0
    4.9287   15.9166    2.4890 N   0  0  0  0  0  0  0  0  0  0  0  0
  1  2  2  0  0  0  0
  1  6  1  0  0  0  0
  2  3  1  0  0  0  0
  3  4  2  0  0  0  0
  4  5  1  0  0  0  0
  4 10  1  0  0  0  0
  5  6  2  0  0  0  0
  5  8  1  0  0  0  0
  6  7  1  0  0  0  0
  8  9  1  0  0  0  0
  9 10  2  0  0  0  0
M  END
>  <CHROM.1>
6.04452523,17.49463924,3.42353157,-0.23387656,-0.90990062,-1.70851581

>  <Name>
ligand

>  <RI>
0

>  <Rbt.Current_Directory>
/home/itssahil/PROJECTS/Mol_Feturizer/New_Systems/rnas/4XNR

>  <Rbt.Executable>
rbdock ($Id: //depot/dev/client3/rdock/2013.1/src/exe/rbdock.cxx#4 $)

>  <Rbt.Library>
libRbt.so (2013.1, Build901 2013/11/27)

>  <Rbt.Parameter_File>
/export/apps/rDock/src/rDock_2013.1_src/data/scripts/dock_solv.prm

>  <Rbt.Receptor>
prm/blind_docking_100.prm

>  <SCORE>
-11.63

>  <SCORE.INTER>
-11.63

>  <SCORE.INTER.CONST>
1

>  <SCORE.INTER.POLAR>
0

>  <SCORE.INTER.ROT>
0

>  <SCORE.INTER.SOLV>
8.23314

>  <SCORE.INTER.VDW>
-14.0977

>  <SCORE.INTER.norm>
-1.163

>  <SCORE.INTRA>
0

>  <SCORE.INTRA.DIHEDRAL>
0

>  <SCORE.INTRA.DIHEDRAL.0>
0

>  <SCORE.INTRA.POLAR>
0

>  <SCORE.INTRA.POLAR.0>
0

>  <SCORE.INTRA.REPUL>
0

>  <SCORE.INTRA.REPUL.0>
0

>  <SCORE.INTRA.SOLV>
0

>  <SCORE.INTRA.SOLV.lig_0>
-23.8918

>  <SCORE.INTRA.VDW>
0

>  <SCORE.INTRA.VDW.0>
0

>  <SCORE.INTRA.norm>
0

>  <SCORE.RESTR>
0

>  <SCORE.RESTR.CAVITY>
0

>  <SCORE.RESTR.norm>
0

>  <SCORE.SYSTEM>
0

>  <SCORE.SYSTEM.CONST>
0

>  <SCORE.SYSTEM.DIHEDRAL>
0

>  <SCORE.SYSTEM.SOLV>
0

>  <SCORE.SYSTEM.norm>
0

>  <SCORE.heavy>
10

>  <SCORE.norm>
-1.163

>  <RMSD>
2.907

$$$$
ligand
 OpenBabel11021811513D
libRbt.so/2013.1/901 2013/11/27
 10 11  0  0  0  0  0  0  0  0999 V2000
    7.2550   19.0409    3.2855 N   0  0  0  0  0  0  0  0  0  0  0  0
    7.0826   18.6324    2.0227 C   0  0  0  0  0  0  0  0  0  0  0  0
    6.3381   17.6288    1.5608 N   0  0  0  0  0  0  0  0  0  0  0  0
    5.7116   16.9984    2.5664 C   0  0  0  0  0  0  0  0  0  0  0  0
    5.7899   17.3008    3.9122 C   0  0  0  0  0  0  0  0  0  0  0  0
    6.6112   18.3866    4.2747 C   0  0  0  0  0  0  0  0  0  0  0  0
    6.7802   18.7918    5.5372 N   0  0  0  0  0  0  0  0  0  0  0  0
    5.0059   16.4347    4.6563 N   0  0  0  0  0  0  0  0  0  0  0  0
    4.4786   15.6370    3.7580 C   0  0  0  0  0  0  0  0  0  0  0  0
    4.8614   15.9200    2.4763 N   0  0  0  0  0  0  0  0  0  0  0  0
  1  2  2  0  0  0  0
  1  6  1  0  0  0  0
  2  3  1  0  0  0  0
  3  4  2  0  0  0  0
  4  5  1  0  0  0  0
  4 10  1  0  0  0  0
  5  6  2  0  0  0  0
  5  8  1  0  0  0  0
  6  7  1  0  0  0  0
  8  9  1  0  0  0  0
  9 10  2  0  0  0  0
M  END
>  <CHROM.1>
5.99581079,17.48374381,3.41254854,-0.24482501,-0.89127231,-1.72272767

>  <Name>
ligand

>  <RI>
0

>  <Rbt.Current_Directory>
/home/itssahil/PROJECTS/Mol_Feturizer/New_Systems/rnas/4XNR

>  <Rbt.Executable>
rbdock ($Id: //depot/dev/client3/rdock/2013.1/src/exe/rbdock.cxx#4 $)

>  <Rbt.Library>
libRbt.so (2013.1, Build901 2013/11/27)

>  <Rbt.Parameter_File>
/export/apps/rDock/src/rDock_2013.1_src/data/scripts/dock_solv.prm

>  <Rbt.Receptor>
prm/blind_docking_100.prm

>  <SCORE>
-11.5809

>  <SCORE.INTER>
-11.5809

>  <SCORE.INTER.CONST>
1

>  <SCORE.INTER.POLAR>
0

>  <SCORE.INTER.ROT>
0

>  <SCORE.INTER.SOLV>
8.17108

>  <SCORE.INTER.VDW>
-14.0443

>  <SCORE.INTER.norm>
-1.15809

>  <SCORE.INTRA>
0

>  <SCORE.INTRA.DIHEDRAL>
0

>  <SCORE.INTRA.DIHEDRAL.0>
0

>  <SCORE.INTRA.POLAR>
0

>  <SCORE.INTRA.POLAR.0>
0

>  <SCORE.INTRA.REPUL>
0

>  <SCORE.INTRA.REPUL.0>
0

>  <SCORE.INTRA.SOLV>
0

>  <SCORE.INTRA.SOLV.lig_0>
-23.8918

>  <SCORE.INTRA.VDW>
0

>  <SCORE.INTRA.VDW.0>
0

>  <SCORE.INTRA.norm>
0

>  <SCORE.RESTR>
0

>  <SCORE.RESTR.CAVITY>
0

>  <SCORE.RESTR.norm>
0

>  <SCORE.SYSTEM>
0

>  <SCORE.SYSTEM.CONST>
0

>  <SCORE.SYSTEM.DIHEDRAL>
0

>  <SCORE.SYSTEM.SOLV>
0

>  <SCORE.SYSTEM.norm>
0

>  <SCORE.heavy>
10

>  <SCORE.norm>
-1.15809

>  <RMSD>
2.908

$$$$
ligand
 OpenBabel11021811513D
libRbt.so/2013.1/901 2013/11/27
 10 11  0  0  0  0  0  0  0  0999 V2000
    7.2455   19.1005    3.2915 N   0  0  0  0  0  0  0  0  0  0  0  0
    7.0817   18.6887    2.0286 C   0  0  0  0  0  0  0  0  0  0  0  0
    6.3669   17.6634    1.5676 N   0  0  0  0  0  0  0  0  0  0  0  0
    5.7634   17.0126    2.5742 C   0  0  0  0  0  0  0  0  0  0  0  0
    5.8367   17.3153    3.9202 C   0  0  0  0  0  0  0  0  0  0  0  0
    6.6254   18.4253    4.2817 C   0  0  0  0  0  0  0  0  0  0  0  0
    6.7860   18.8338    5.5443 N   0  0  0  0  0  0  0  0  0  0  0  0
    5.0823   16.4245    4.6655 N   0  0  0  0  0  0  0  0  0  0  0  0
    4.5768   15.6121    3.7678 C   0  0  0  0  0  0  0  0  0  0  0  0
    4.9465   15.9086    2.4852 N   0  0  0  0  0  0  0  0  0  0  0  0
  1  2  2  0  0  0  0
  1  6  1  0  0  0  0
  2  3  1  0  0  0  0
  3  4  2  0  0  0  0
  4  5  1  0  0  0  0
  4 10  1  0  0  0  0
  5  6  2  0  0  0  0
  5  8  1  0  0  0  0
  6  7  1  0  0  0  0
  8  9  1  0  0  0  0
  9 10  2  0  0  0  0
M  END
>  <CHROM.1>
6.03528530,17.50520321,3.42018500,-0.24716511,-0.92221007,-1.72310027

>  <Name>
ligand

>  <RI>
0

>  <Rbt.Current_Directory>
/home/itssahil/PROJECTS/Mol_Feturizer/New_Systems/rnas/4XNR

>  <Rbt.Executable>
rbdock ($Id: //depot/dev/client3/rdock/2013.1/src/exe/rbdock.cxx#4 $)

>  <Rbt.Library>
libRbt.so (2013.1, Build901 2013/11/27)

>  <Rbt.Parameter_File>
/export/apps/rDock/src/rDock_2013.1_src/data/scripts/dock_solv.prm

>  <Rbt.Receptor>
prm/pocket_docking_5.prm

>  <SCORE>
-11.6316

>  <SCORE.INTER>
-11.6316

>  <SCORE.INTER.CONST>
1

>  <SCORE.INTER.POLAR>
0

>  <SCORE.INTER.ROT>
0

>  <SCORE.INTER.SOLV>
8.30699

>  <SCORE.INTER.VDW>
-14.1234

>  <SCORE.INTER.norm>
-1.16316

>  <SCORE.INTRA>
0

>  <SCORE.INTRA.DIHEDRAL>
0

>  <SCORE.INTRA.DIHEDRAL.0>
0

>  <SCORE.INTRA.POLAR>
0

>  <SCORE.INTRA.POLAR.0>
0

>  <SCORE.INTRA.REPUL>
0

>  <SCORE.INTRA.REPUL.0>
0

>  <SCORE.INTRA.SOLV>
0

>  <SCORE.INTRA.SOLV.lig_0>
-23.8918

>  <SCORE.INTRA.VDW>
0

>  <SCORE.INTRA.VDW.0>
0

>  <SCORE.INTRA.norm>
0

>  <SCORE.RESTR>
0

>  <SCORE.RESTR.CAVITY>
0

>  <SCORE.RESTR.norm>
0

>  <SCORE.SYSTEM>
0

>  <SCORE.SYSTEM.CONST>
0

>  <SCORE.SYSTEM.DIHEDRAL>
0

>  <SCORE.SYSTEM.SOLV>
0

>  <SCORE.SYSTEM.norm>
0

>  <SCORE.heavy>
10

>  <SCORE.norm>
-1.16316

>  <RMSD>
2.908

$$$$
ligand
 OpenBabel11021811513D
libRbt.so/2013.1/901 2013/11/27
 10 11  0  0  0  0  0  0  0  0999 V2000
    6.8606   19.4679    3.8551 N   0  0  0  0  0  0  0  0  0  0  0  0
    6.2215   19.3265    5.0224 C   0  0  0  0  0  0  0  0  0  0  0  0
    5.4991   18.2975    5.4630 N   0  0  0  0  0  0  0  0  0  0  0  0
    5.4619   17.3156    4.5490 C   0  0  0  0  0  0  0  0  0  0  0  0
    6.0668   17.3147    3.3069 C   0  0  0  0  0  0  0  0  0  0  0  0
    6.8046   18.4626    2.9566 C   0  0  0  0  0  0  0  0  0  0  0  0
    7.4421   18.5997    1.7897 N   0  0  0  0  0  0  0  0  0  0  0  0
    5.8113   16.1295    2.6373 N   0  0  0  0  0  0  0  0  0  0  0  0
    5.0666   15.4485    3.4758 C   0  0  0  0  0  0  0  0  0  0  0  0
    4.8164   16.1042    4.6492 N   0  0  0  0  0  0  0  0  0  0  0  0
  1  2  2  0  0  0  0
  1  6  1  0  0  0  0
  2  3  1  0  0  0  0
  3  4  2  0  0  0  0
  4  5  1  0  0  0  0
  4 10  1  0  0  0  0
  5  6  2  0  0  0  0
  5  8  1  0  0  0  0
  6  7  1  0  0  0  0
  8  9  1  0  0  0  0
  9 10  2  0  0  0  0
M  END
>  <CHROM.1>
6.01131019,17.65227770,3.76347746,0.54361723,0.96438106,0.78966831

>  <Name>
ligand

>  <RI>
0

>  <Rbt.Current_Directory>
/home/itssahil/PROJECTS/Mol_Feturizer/New_Systems/rnas/4XNR

>  <Rbt.Executable>
rbdock ($Id: //depot/dev/client3/rdock/2013.1/src/exe/rbdock.cxx#4 $)

>  <Rbt.Library>
libRbt.so (2013.1, Build901 2013/11/27)

>  <Rbt.Parameter_File>
/export/apps/rDock/src/rDock_2013.1_src/data/scripts/dock_solv.prm

>  <Rbt.Receptor>
prm/blind_docking_40.prm

>  <SCORE>
-11.3072

>  <SCORE.INTER>
-11.3072

>  <SCORE.INTER.CONST>
1

>  <SCORE.INTER.POLAR>
0

>  <SCORE.INTER.ROT>
0

>  <SCORE.INTER.SOLV>
13.1866

>  <SCORE.INTER.VDW>
-15.5336

>  <SCORE.INTER.norm>
-1.13072

>  <SCORE.INTRA>
0

>  <SCORE.INTRA.DIHEDRAL>
0

>  <SCORE.INTRA.DIHEDRAL.0>
0

>  <SCORE.INTRA.POLAR>
0

>  <SCORE.INTRA.POLAR.0>
0

>  <SCORE.INTRA.REPUL>
0

>  <SCORE.INTRA.REPUL.0>
0

>  <SCORE.INTRA.SOLV>
0

>  <SCORE.INTRA.SOLV.lig_0>
-23.8918

>  <SCORE.INTRA.VDW>
0

>  <SCORE.INTRA.VDW.0>
0

>  <SCORE.INTRA.norm>
0

>  <SCORE.RESTR>
0

>  <SCORE.RESTR.CAVITY>
0

>  <SCORE.RESTR.norm>
0

>  <SCORE.SYSTEM>
0

>  <SCORE.SYSTEM.CONST>
0

>  <SCORE.SYSTEM.DIHEDRAL>
0

>  <SCORE.SYSTEM.SOLV>
0

>  <SCORE.SYSTEM.norm>
0

>  <SCORE.heavy>
10

>  <SCORE.norm>
-1.13072

>  <RMSD>
3.269

$$$$
ligand
 OpenBabel11021811513D
libRbt.so/2013.1/901 2013/11/27
 10 11  0  0  0  0  0  0  0  0999 V2000
    6.8568   19.4707    3.8577 N   0  0  0  0  0  0  0  0  0  0  0  0
    6.2124   19.3304    5.0224 C   0  0  0  0  0  0  0  0  0  0  0  0
    5.4902   18.3008    5.4617 N   0  0  0  0  0  0  0  0  0  0  0  0
    5.4595   17.3168    4.5496 C   0  0  0  0  0  0  0  0  0  0  0  0
    6.0702   17.3146    3.3104 C   0  0  0  0  0  0  0  0  0  0  0  0
    6.8072   18.4634    2.9611 C   0  0  0  0  0  0  0  0  0  0  0  0
    7.4500   18.5994    1.7970 N   0  0  0  0  0  0  0  0  0  0  0  0
    5.8205   16.1274    2.6422 N   0  0  0  0  0  0  0  0  0  0  0  0
    5.0733   15.4466    3.4786 C   0  0  0  0  0  0  0  0  0  0  0  0
    4.8161   16.1043    4.6494 N   0  0  0  0  0  0  0  0  0  0  0  0
  1  2  2  0  0  0  0
  1  6  1  0  0  0  0
  2  3  1  0  0  0  0
  3  4  2  0  0  0  0
  4  5  1  0  0  0  0
  4 10  1  0  0  0  0
  5  6  2  0  0  0  0
  5  8  1  0  0  0  0
  6  7  1  0  0  0  0
  8  9  1  0  0  0  0
  9 10  2  0  0  0  0
M  END
>  <CHROM.1>
6.01184179,17.65306261,3.76601399,0.55216719,0.96255953,0.78049912

>  <Name>
ligand

>  <RI>
0

>  <Rbt.Current_Directory>
/home/itssahil/PROJECTS/Mol_Feturizer/New_Systems/rnas/4XNR

>  <Rbt.Executable>
rbdock ($Id: //depot/dev/client3/rdock/2013.1/src/exe/rbdock.cxx#4 $)

>  <Rbt.Library>
libRbt.so (2013.1, Build901 2013/11/27)

>  <Rbt.Parameter_File>
/export/apps/rDock/src/rDock_2013.1_src/data/scripts/dock_solv.prm

>  <Rbt.Receptor>
prm/blind_docking_60.prm

>  <SCORE>
-11.3116

>  <SCORE.INTER>
-11.3116

>  <SCORE.INTER.CONST>
1

>  <SCORE.INTER.POLAR>
0

>  <SCORE.INTER.ROT>
0

>  <SCORE.INTER.SOLV>
13.1883

>  <SCORE.INTER.VDW>
-15.5372

>  <SCORE.INTER.norm>
-1.13116

>  <SCORE.INTRA>
0

>  <SCORE.INTRA.DIHEDRAL>
0

>  <SCORE.INTRA.DIHEDRAL.0>
0

>  <SCORE.INTRA.POLAR>
0

>  <SCORE.INTRA.POLAR.0>
0

>  <SCORE.INTRA.REPUL>
0

>  <SCORE.INTRA.REPUL.0>
0

>  <SCORE.INTRA.SOLV>
0

>  <SCORE.INTRA.SOLV.lig_0>
-23.8918

>  <SCORE.INTRA.VDW>
0

>  <SCORE.INTRA.VDW.0>
0

>  <SCORE.INTRA.norm>
0

>  <SCORE.RESTR>
0

>  <SCORE.RESTR.CAVITY>
0

>  <SCORE.RESTR.norm>
0

>  <SCORE.SYSTEM>
0

>  <SCORE.SYSTEM.CONST>
0

>  <SCORE.SYSTEM.DIHEDRAL>
0

>  <SCORE.SYSTEM.SOLV>
0

>  <SCORE.SYSTEM.norm>
0

>  <SCORE.heavy>
10

>  <SCORE.norm>
-1.13116

>  <RMSD>
3.270

$$$$
ligand
 OpenBabel11021811513D
libRbt.so/2013.1/901 2013/11/27
 10 11  0  0  0  0  0  0  0  0999 V2000
    5.3053   16.9936    5.2206 N   0  0  0  0  0  0  0  0  0  0  0  0
    4.9610   16.0937    4.2916 C   0  0  0  0  0  0  0  0  0  0  0  0
    5.2783   16.0612    2.9982 N   0  0  0  0  0  0  0  0  0  0  0  0
    6.0496   17.1095    2.6704 C   0  0  0  0  0  0  0  0  0  0  0  0
    6.4850   18.1148    3.5122 C   0  0  0  0  0  0  0  0  0  0  0  0
    6.0820   18.0365    4.8600 C   0  0  0  0  0  0  0  0  0  0  0  0
    6.4286   18.9371    5.7849 N   0  0  0  0  0  0  0  0  0  0  0  0
    7.2645   19.0289    2.8231 N   0  0  0  0  0  0  0  0  0  0  0  0
    7.2829   18.5650    1.5959 C   0  0  0  0  0  0  0  0  0  0  0  0
    6.5703   17.4096    1.4324 N   0  0  0  0  0  0  0  0  0  0  0  0
  1  2  2  0  0  0  0
  1  6  1  0  0  0  0
  2  3  1  0  0  0  0
  3  4  2  0  0  0  0
  4  5  1  0  0  0  0
  4 10  1  0  0  0  0
  5  6  2  0  0  0  0
  5  8  1  0  0  0  0
  6  7  1  0  0  0  0
  8  9  1  0  0  0  0
  9 10  2  0  0  0  0
M  END
>  <CHROM.1>
6.17066607,17.63891783,3.52912363,2.22713268,0.95716719,1.18956902

>  <Name>
ligand

>  <RI>
0

>  <Rbt.Current_Directory>
/home/itssahil/PROJECTS/Mol_Feturizer/New_Systems/rnas/4XNR

>  <Rbt.Executable>
rbdock ($Id: //depot/dev/client3/rdock/2013.1/src/exe/rbdock.cxx#4 $)

>  <Rbt.Library>
libRbt.so (2013.1, Build901 2013/11/27)

>  <Rbt.Parameter_File>
/export/apps/rDock/src/rDock_2013.1_src/data/scripts/dock_solv.prm

>  <Rbt.Receptor>
prm/blind_docking_40.prm

>  <SCORE>
-12.2033

>  <SCORE.INTER>
-12.2033

>  <SCORE.INTER.CONST>
1

>  <SCORE.INTER.POLAR>
0

>  <SCORE.INTER.ROT>
0

>  <SCORE.INTER.SOLV>
10.0449

>  <SCORE.INTER.VDW>
-15.0838

>  <SCORE.INTER.norm>
-1.22033

>  <SCORE.INTRA>
0

>  <SCORE.INTRA.DIHEDRAL>
0

>  <SCORE.INTRA.DIHEDRAL.0>
0

>  <SCORE.INTRA.POLAR>
0

>  <SCORE.INTRA.POLAR.0>
0

>  <SCORE.INTRA.REPUL>
0

>  <SCORE.INTRA.REPUL.0>
0

>  <SCORE.INTRA.SOLV>
0

>  <SCORE.INTRA.SOLV.lig_0>
-23.8918

>  <SCORE.INTRA.VDW>
0

>  <SCORE.INTRA.VDW.0>
0

>  <SCORE.INTRA.norm>
0

>  <SCORE.RESTR>
0

>  <SCORE.RESTR.CAVITY>
0

>  <SCORE.RESTR.norm>
0

>  <SCORE.SYSTEM>
0

>  <SCORE.SYSTEM.CONST>
0

>  <SCORE.SYSTEM.DIHEDRAL>
0

>  <SCORE.SYSTEM.SOLV>
0

>  <SCORE.SYSTEM.norm>
0

>  <SCORE.heavy>
10

>  <SCORE.norm>
-1.22033

>  <RMSD>
3.426

$$$$
ligand
 OpenBabel11021811513D
libRbt.so/2013.1/901 2013/11/27
 10 11  0  0  0  0  0  0  0  0999 V2000
    5.3077   16.9999    5.2200 N   0  0  0  0  0  0  0  0  0  0  0  0
    4.9704   16.0886    4.2995 C   0  0  0  0  0  0  0  0  0  0  0  0
    5.2779   16.0527    3.0038 N   0  0  0  0  0  0  0  0  0  0  0  0
    6.0299   17.1109    2.6632 C   0  0  0  0  0  0  0  0  0  0  0  0
    6.4559   18.1284    3.4950 C   0  0  0  0  0  0  0  0  0  0  0  0
    6.0649   18.0526    4.8465 C   0  0  0  0  0  0  0  0  0  0  0  0
    6.4045   18.9645    5.7628 N   0  0  0  0  0  0  0  0  0  0  0  0
    7.2154   19.0502    2.7938 N   0  0  0  0  0  0  0  0  0  0  0  0
    7.2314   18.5787    1.5696 C   0  0  0  0  0  0  0  0  0  0  0  0
    6.5359   17.4111    1.4191 N   0  0  0  0  0  0  0  0  0  0  0  0
  1  2  2  0  0  0  0
  1  6  1  0  0  0  0
  2  3  1  0  0  0  0
  3  4  2  0  0  0  0
  4  5  1  0  0  0  0
  4 10  1  0  0  0  0
  5  6  2  0  0  0  0
  5  8  1  0  0  0  0
  6  7  1  0  0  0  0
  8  9  1  0  0  0  0
  9 10  2  0  0  0  0
M  END
>  <CHROM.1>
6.14929836,17.64772870,3.51751799,2.22453884,0.97483896,1.18524818

>  <Name>
ligand

>  <RI>
0

>  <Rbt.Current_Directory>
/home/itssahil/PROJECTS/Mol_Feturizer/New_Systems/rnas/4XNR

>  <Rbt.Executable>
rbdock ($Id: //depot/dev/client3/rdock/2013.1/src/exe/rbdock.cxx#4 $)

>  <Rbt.Library>
libRbt.so (2013.1, Build901 2013/11/27)

>  <Rbt.Parameter_File>
/export/apps/rDock/src/rDock_2013.1_src/data/scripts/dock_solv.prm

>  <Rbt.Receptor>
prm/blind_docking_40.prm

>  <SCORE>
-12.2607

>  <SCORE.INTER>
-12.2613

>  <SCORE.INTER.CONST>
1

>  <SCORE.INTER.POLAR>
0

>  <SCORE.INTER.ROT>
0

>  <SCORE.INTER.SOLV>
10.1386

>  <SCORE.INTER.VDW>
-15.1537

>  <SCORE.INTER.norm>
-1.22613

>  <SCORE.INTRA>
0

>  <SCORE.INTRA.DIHEDRAL>
0

>  <SCORE.INTRA.DIHEDRAL.0>
0

>  <SCORE.INTRA.POLAR>
0

>  <SCORE.INTRA.POLAR.0>
0

>  <SCORE.INTRA.REPUL>
0

>  <SCORE.INTRA.REPUL.0>
0

>  <SCORE.INTRA.SOLV>
0

>  <SCORE.INTRA.SOLV.lig_0>
-23.8918

>  <SCORE.INTRA.VDW>
0

>  <SCORE.INTRA.VDW.0>
0

>  <SCORE.INTRA.norm>
0

>  <SCORE.RESTR>
0.000583056

>  <SCORE.RESTR.CAVITY>
0.000583056

>  <SCORE.RESTR.norm>
5.83056e-05

>  <SCORE.SYSTEM>
0

>  <SCORE.SYSTEM.CONST>
0

>  <SCORE.SYSTEM.DIHEDRAL>
0

>  <SCORE.SYSTEM.SOLV>
0

>  <SCORE.SYSTEM.norm>
0

>  <SCORE.heavy>
10

>  <SCORE.norm>
-1.22607

>  <RMSD>
3.430

$$$$
ligand
 OpenBabel11021811513D
libRbt.so/2013.1/901 2013/11/27
 10 11  0  0  0  0  0  0  0  0999 V2000
    5.2911   17.0060    5.2064 N   0  0  0  0  0  0  0  0  0  0  0  0
    4.9646   16.0886    4.2882 C   0  0  0  0  0  0  0  0  0  0  0  0
    5.2814   16.0475    2.9949 N   0  0  0  0  0  0  0  0  0  0  0  0
    6.0307   17.1075    2.6542 C   0  0  0  0  0  0  0  0  0  0  0  0
    6.4461   18.1312    3.4838 C   0  0  0  0  0  0  0  0  0  0  0  0
    6.0459   18.0604    4.8328 C   0  0  0  0  0  0  0  0  0  0  0  0
    6.3747   18.9786    5.7469 N   0  0  0  0  0  0  0  0  0  0  0  0
    7.2061   19.0531    2.7833 N   0  0  0  0  0  0  0  0  0  0  0  0
    7.2330   18.5754    1.5616 C   0  0  0  0  0  0  0  0  0  0  0  0
    6.5442   17.4038    1.4122 N   0  0  0  0  0  0  0  0  0  0  0  0
  1  2  2  0  0  0  0
  1  6  1  0  0  0  0
  2  3  1  0  0  0  0
  3  4  2  0  0  0  0
  4  5  1  0  0  0  0
  4 10  1  0  0  0  0
  5  6  2  0  0  0  0
  5  8  1  0  0  0  0
  6  7  1  0  0  0  0
  8  9  1  0  0  0  0
  9 10  2  0  0  0  0
M  END
>  <CHROM.1>
6.14160462,17.64925448,3.50659395,2.23939701,0.97649275,1.16785441

>  <Name>
ligand

>  <RI>
0

>  <Rbt.Current_Directory>
/home/itssahil/PROJECTS/Mol_Feturizer/New_Systems/rnas/4XNR

>  <Rbt.Executable>
rbdock ($Id: //depot/dev/client3/rdock/2013.1/src/exe/rbdock.cxx#4 $)

>  <Rbt.Library>
libRbt.so (2013.1, Build901 2013/11/27)

>  <Rbt.Parameter_File>
/export/apps/rDock/src/rDock_2013.1_src/data/scripts/dock_solv.prm

>  <Rbt.Receptor>
prm/blind_docking_60.prm

>  <SCORE>
-12.236

>  <SCORE.INTER>
-12.2388

>  <SCORE.INTER.CONST>
1

>  <SCORE.INTER.POLAR>
0

>  <SCORE.INTER.ROT>
0

>  <SCORE.INTER.SOLV>
10.2489

>  <SCORE.INTER.VDW>
-15.1755

>  <SCORE.INTER.norm>
-1.22388

>  <SCORE.INTRA>
0

>  <SCORE.INTRA.DIHEDRAL>
0

>  <SCORE.INTRA.DIHEDRAL.0>
0

>  <SCORE.INTRA.POLAR>
0

>  <SCORE.INTRA.POLAR.0>
0

>  <SCORE.INTRA.REPUL>
0

>  <SCORE.INTRA.REPUL.0>
0

>  <SCORE.INTRA.SOLV>
0

>  <SCORE.INTRA.SOLV.lig_0>
-23.8918

>  <SCORE.INTRA.VDW>
0

>  <SCORE.INTRA.VDW.0>
0

>  <SCORE.INTRA.norm>
0

>  <SCORE.RESTR>
0.00286722

>  <SCORE.RESTR.CAVITY>
0.00286722

>  <SCORE.RESTR.norm>
0.000286722

>  <SCORE.SYSTEM>
0

>  <SCORE.SYSTEM.CONST>
0

>  <SCORE.SYSTEM.DIHEDRAL>
0

>  <SCORE.SYSTEM.SOLV>
0

>  <SCORE.SYSTEM.norm>
0

>  <SCORE.heavy>
10

>  <SCORE.norm>
-1.2236

>  <RMSD>
3.430

$$$$
ligand
 OpenBabel11021811513D
libRbt.so/2013.1/901 2013/11/27
 10 11  0  0  0  0  0  0  0  0999 V2000
    5.2822   17.0284    5.2170 N   0  0  0  0  0  0  0  0  0  0  0  0
    4.9808   16.0914    4.3101 C   0  0  0  0  0  0  0  0  0  0  0  0
    5.3153   16.0336    3.0219 N   0  0  0  0  0  0  0  0  0  0  0  0
    6.0541   17.0985    2.6734 C   0  0  0  0  0  0  0  0  0  0  0  0
    6.4439   18.1415    3.4912 C   0  0  0  0  0  0  0  0  0  0  0  0
    6.0269   18.0872    4.8359 C   0  0  0  0  0  0  0  0  0  0  0  0
    6.3306   19.0249    5.7388 N   0  0  0  0  0  0  0  0  0  0  0  0
    7.2002   19.0625    2.7854 N   0  0  0  0  0  0  0  0  0  0  0  0
    7.2500   18.5652    1.5723 C   0  0  0  0  0  0  0  0  0  0  0  0
    6.5797   17.3816    1.4335 N   0  0  0  0  0  0  0  0  0  0  0  0
  1  2  2  0  0  0  0
  1  6  1  0  0  0  0
  2  3  1  0  0  0  0
  3  4  2  0  0  0  0
  4  5  1  0  0  0  0
  4 10  1  0  0  0  0
  5  6  2  0  0  0  0
  5  8  1  0  0  0  0
  6  7  1  0  0  0  0
  8  9  1  0  0  0  0
  9 10  2  0  0  0  0
M  END
>  <CHROM.1>
6.14600511,17.65567538,3.51803104,2.27141902,0.98400917,1.12470916

>  <Name>
ligand

>  <RI>
0

>  <Rbt.Current_Directory>
/home/itssahil/PROJECTS/Mol_Feturizer/New_Systems/rnas/4XNR

>  <Rbt.Executable>
rbdock ($Id: //depot/dev/client3/rdock/2013.1/src/exe/rbdock.cxx#4 $)

>  <Rbt.Library>
libRbt.so (2013.1, Build901 2013/11/27)

>  <Rbt.Parameter_File>
/export/apps/rDock/src/rDock_2013.1_src/data/scripts/dock_solv.prm

>  <Rbt.Receptor>
prm/blind_docking_60.prm

>  <SCORE>
-12.2112

>  <SCORE.INTER>
-12.2132

>  <SCORE.INTER.CONST>
1

>  <SCORE.INTER.POLAR>
0

>  <SCORE.INTER.ROT>
0

>  <SCORE.INTER.SOLV>
10.5281

>  <SCORE.INTER.VDW>
-15.2515

>  <SCORE.INTER.norm>
-1.22132

>  <SCORE.INTRA>
0

>  <SCORE.INTRA.DIHEDRAL>
0

>  <SCORE.INTRA.DIHEDRAL.0>
0

>  <SCORE.INTRA.POLAR>
0

>  <SCORE.INTRA.POLAR.0>
0

>  <SCORE.INTRA.REPUL>
0

>  <SCORE.INTRA.REPUL.0>
0

>  <SCORE.INTRA.SOLV>
0

>  <SCORE.INTRA.SOLV.lig_0>
-23.8918

>  <SCORE.INTRA.VDW>
0

>  <SCORE.INTRA.VDW.0>
0

>  <SCORE.INTRA.norm>
0

>  <SCORE.RESTR>
0.00199372

>  <SCORE.RESTR.CAVITY>
0.00199372

>  <SCORE.RESTR.norm>
0.000199372

>  <SCORE.SYSTEM>
0

>  <SCORE.SYSTEM.CONST>
0

>  <SCORE.SYSTEM.DIHEDRAL>
0

>  <SCORE.SYSTEM.SOLV>
0

>  <SCORE.SYSTEM.norm>
0

>  <SCORE.heavy>
10

>  <SCORE.norm>
-1.22112

>  <RMSD>
3.431

$$$$
ligand
 OpenBabel11021811513D
libRbt.so/2013.1/901 2013/11/27
 10 11  0  0  0  0  0  0  0  0999 V2000
    5.3177   16.9868    5.2264 N   0  0  0  0  0  0  0  0  0  0  0  0
    4.9584   16.0871    4.3029 C   0  0  0  0  0  0  0  0  0  0  0  0
    5.2730   16.0430    3.0091 N   0  0  0  0  0  0  0  0  0  0  0  0
    6.0592   17.0779    2.6744 C   0  0  0  0  0  0  0  0  0  0  0  0
    6.5108   18.0811    3.5100 C   0  0  0  0  0  0  0  0  0  0  0  0
    6.1091   18.0161    4.8589 C   0  0  0  0  0  0  0  0  0  0  0  0
    6.4706   18.9164    5.7783 N   0  0  0  0  0  0  0  0  0  0  0  0
    7.3026   18.9798    2.8146 N   0  0  0  0  0  0  0  0  0  0  0  0
    7.3120   18.5091    1.5900 C   0  0  0  0  0  0  0  0  0  0  0  0
    6.5821   17.3635    1.4339 N   0  0  0  0  0  0  0  0  0  0  0  0
  1  2  2  0  0  0  0
  1  6  1  0  0  0  0
  2  3  1  0  0  0  0
  3  4  2  0  0  0  0
  4  5  1  0  0  0  0
  4 10  1  0  0  0  0
  5  6  2  0  0  0  0
  5  8  1  0  0  0  0
  6  7  1  0  0  0  0
  8  9  1  0  0  0  0
  9 10  2  0  0  0  0
M  END
>  <CHROM.1>
6.18953084,17.61006726,3.53004313,2.21495056,0.94402056,1.19408452

>  <Name>
ligand

>  <RI>
0

>  <Rbt.Current_Directory>
/home/itssahil/PROJECTS/Mol_Feturizer/New_Systems/rnas/4XNR

>  <Rbt.Executable>
rbdock ($Id: //depot/dev/client3/rdock/2013.1/src/exe/rbdock.cxx#4 $)

>  <Rbt.Library>
libRbt.so (2013.1, Build901 2013/11/27)

>  <Rbt.Parameter_File>
/export/apps/rDock/src/rDock_2013.1_src/data/scripts/dock_solv.prm

>  <Rbt.Receptor>
prm/blind_docking_80.prm

>  <SCORE>
-12.2406

>  <SCORE.INTER>
-12.2483

>  <SCORE.INTER.CONST>
1

>  <SCORE.INTER.POLAR>
0

>  <SCORE.INTER.ROT>
0

>  <SCORE.INTER.SOLV>
9.79695

>  <SCORE.INTER.VDW>
-15.0312

>  <SCORE.INTER.norm>
-1.22483

>  <SCORE.INTRA>
0

>  <SCORE.INTRA.DIHEDRAL>
0

>  <SCORE.INTRA.DIHEDRAL.0>
0

>  <SCORE.INTRA.POLAR>
0

>  <SCORE.INTRA.POLAR.0>
0

>  <SCORE.INTRA.REPUL>
0

>  <SCORE.INTRA.REPUL.0>
0

>  <SCORE.INTRA.SOLV>
0

>  <SCORE.INTRA.SOLV.lig_0>
-23.8918

>  <SCORE.INTRA.VDW>
0

>  <SCORE.INTRA.VDW.0>
0

>  <SCORE.INTRA.norm>
0

>  <SCORE.RESTR>
0.00767547

>  <SCORE.RESTR.CAVITY>
0.00767547

>  <SCORE.RESTR.norm>
0.000767547

>  <SCORE.SYSTEM>
0

>  <SCORE.SYSTEM.CONST>
0

>  <SCORE.SYSTEM.DIHEDRAL>
0

>  <SCORE.SYSTEM.SOLV>
0

>  <SCORE.SYSTEM.norm>
0

>  <SCORE.heavy>
10

>  <SCORE.norm>
-1.22406

>  <RMSD>
3.436

$$$$
ligand
 OpenBabel11021811513D
libRbt.so/2013.1/901 2013/11/27
 10 11  0  0  0  0  0  0  0  0999 V2000
    5.3123   16.9877    5.2268 N   0  0  0  0  0  0  0  0  0  0  0  0
    4.9628   16.0755    4.3118 C   0  0  0  0  0  0  0  0  0  0  0  0
    5.2800   16.0212    3.0191 N   0  0  0  0  0  0  0  0  0  0  0  0
    6.0572   17.0598    2.6752 C   0  0  0  0  0  0  0  0  0  0  0  0
    6.4983   18.0755    3.5014 C   0  0  0  0  0  0  0  0  0  0  0  0
    6.0949   18.0205    4.8501 C   0  0  0  0  0  0  0  0  0  0  0  0
    6.4466   18.9333    5.7610 N   0  0  0  0  0  0  0  0  0  0  0  0
    7.2831   18.9744    2.7982 N   0  0  0  0  0  0  0  0  0  0  0  0
    7.2988   18.4914    1.5784 C   0  0  0  0  0  0  0  0  0  0  0  0
    6.5796   17.3377    1.4327 N   0  0  0  0  0  0  0  0  0  0  0  0
  1  2  2  0  0  0  0
  1  6  1  0  0  0  0
  2  3  1  0  0  0  0
  3  4  2  0  0  0  0
  4  5  1  0  0  0  0
  4 10  1  0  0  0  0
  5  6  2  0  0  0  0
  5  8  1  0  0  0  0
  6  7  1  0  0  0  0
  8  9  1  0  0  0  0
  9 10  2  0  0  0  0
M  END
>  <CHROM.1>
6.18128907,17.60177225,3.52560880,2.22346563,0.95186199,1.17706919

>  <Name>
ligand

>  <RI>
0

>  <Rbt.Current_Directory>
/home/itssahil/PROJECTS/Mol_Feturizer/New_Systems/rnas/4XNR

>  <Rbt.Executable>
rbdock ($Id: //depot/dev/client3/rdock/2013.1/src/exe/rbdock.cxx#4 $)

>  <Rbt.Library>
libRbt.so (2013.1, Build901 2013/11/27)

>  <Rbt.Parameter_File>
/export/apps/rDock/src/rDock_2013.1_src/data/scripts/dock_solv.prm

>  <Rbt.Receptor>
prm/blind_docking_100.prm

>  <SCORE>
-12.2659

>  <SCORE.INTER>
-12.2743

>  <SCORE.INTER.CONST>
1

>  <SCORE.INTER.POLAR>
0

>  <SCORE.INTER.ROT>
0

>  <SCORE.INTER.SOLV>
9.89367

>  <SCORE.INTER.VDW>
-15.0807

>  <SCORE.INTER.norm>
-1.22743

>  <SCORE.INTRA>
0

>  <SCORE.INTRA.DIHEDRAL>
0

>  <SCORE.INTRA.DIHEDRAL.0>
0

>  <SCORE.INTRA.POLAR>
0

>  <SCORE.INTRA.POLAR.0>
0

>  <SCORE.INTRA.REPUL>
0

>  <SCORE.INTRA.REPUL.0>
0

>  <SCORE.INTRA.SOLV>
0

>  <SCORE.INTRA.SOLV.lig_0>
-23.8918

>  <SCORE.INTRA.VDW>
0

>  <SCORE.INTRA.VDW.0>
0

>  <SCORE.INTRA.norm>
0

>  <SCORE.RESTR>
0.00839994

>  <SCORE.RESTR.CAVITY>
0.00839994

>  <SCORE.RESTR.norm>
0.000839994

>  <SCORE.SYSTEM>
0

>  <SCORE.SYSTEM.CONST>
0

>  <SCORE.SYSTEM.DIHEDRAL>
0

>  <SCORE.SYSTEM.SOLV>
0

>  <SCORE.SYSTEM.norm>
0

>  <SCORE.heavy>
10

>  <SCORE.norm>
-1.22659

>  <RMSD>
3.441

$$$$
ligand
 OpenBabel11021811513D
libRbt.so/2013.1/901 2013/11/27
 10 11  0  0  0  0  0  0  0  0999 V2000
    5.2714   16.9842    5.1896 N   0  0  0  0  0  0  0  0  0  0  0  0
    4.9477   16.0566    4.2806 C   0  0  0  0  0  0  0  0  0  0  0  0
    5.2703   16.0002    2.9893 N   0  0  0  0  0  0  0  0  0  0  0  0
    6.0227   17.0551    2.6398 C   0  0  0  0  0  0  0  0  0  0  0  0
    6.4358   18.0877    3.4594 C   0  0  0  0  0  0  0  0  0  0  0  0
    6.0295   18.0331    4.8073 C   0  0  0  0  0  0  0  0  0  0  0  0
    6.3555   18.9613    5.7122 N   0  0  0  0  0  0  0  0  0  0  0  0
    7.2004   19.0003    2.7517 N   0  0  0  0  0  0  0  0  0  0  0  0
    7.2321   18.5085    1.5357 C   0  0  0  0  0  0  0  0  0  0  0  0
    6.5421   17.3363    1.3968 N   0  0  0  0  0  0  0  0  0  0  0  0
  1  2  2  0  0  0  0
  1  6  1  0  0  0  0
  2  3  1  0  0  0  0
  3  4  2  0  0  0  0
  4  5  1  0  0  0  0
  4 10  1  0  0  0  0
  5  6  2  0  0  0  0
  5  8  1  0  0  0  0
  6  7  1  0  0  0  0
  8  9  1  0  0  0  0
  9 10  2  0  0  0  0
M  END
>  <CHROM.1>
6.13053858,17.60648070,3.48634732,2.24569845,0.97335794,1.15109243

>  <Name>
ligand

>  <RI>
0

>  <Rbt.Current_Directory>
/home/itssahil/PROJECTS/Mol_Feturizer/New_Systems/rnas/4XNR

>  <Rbt.Executable>
rbdock ($Id: //depot/dev/client3/rdock/2013.1/src/exe/rbdock.cxx#4 $)

>  <Rbt.Library>
libRbt.so (2013.1, Build901 2013/11/27)

>  <Rbt.Parameter_File>
/export/apps/rDock/src/rDock_2013.1_src/data/scripts/dock_solv.prm

>  <Rbt.Receptor>
prm/blind_docking_80.prm

>  <SCORE>
-12.1872

>  <SCORE.INTER>
-12.1872

>  <SCORE.INTER.CONST>
1

>  <SCORE.INTER.POLAR>
0

>  <SCORE.INTER.ROT>
0

>  <SCORE.INTER.SOLV>
10.2037

>  <SCORE.INTER.VDW>
-15.1261

>  <SCORE.INTER.norm>
-1.21872

>  <SCORE.INTRA>
0

>  <SCORE.INTRA.DIHEDRAL>
0

>  <SCORE.INTRA.DIHEDRAL.0>
0

>  <SCORE.INTRA.POLAR>
0

>  <SCORE.INTRA.POLAR.0>
0

>  <SCORE.INTRA.REPUL>
0

>  <SCORE.INTRA.REPUL.0>
0

>  <SCORE.INTRA.SOLV>
0

>  <SCORE.INTRA.SOLV.lig_0>
-23.8918

>  <SCORE.INTRA.VDW>
0

>  <SCORE.INTRA.VDW.0>
0

>  <SCORE.INTRA.norm>
0

>  <SCORE.RESTR>
0

>  <SCORE.RESTR.CAVITY>
0

>  <SCORE.RESTR.norm>
0

>  <SCORE.SYSTEM>
0

>  <SCORE.SYSTEM.CONST>
0

>  <SCORE.SYSTEM.DIHEDRAL>
0

>  <SCORE.SYSTEM.SOLV>
0

>  <SCORE.SYSTEM.norm>
0

>  <SCORE.heavy>
10

>  <SCORE.norm>
-1.21872

>  <RMSD>
3.441

$$$$
ligand
 OpenBabel11021811513D
libRbt.so/2013.1/901 2013/11/27
 10 11  0  0  0  0  0  0  0  0999 V2000
    5.3386   17.0741    5.1565 N   0  0  0  0  0  0  0  0  0  0  0  0
    4.9635   16.1563    4.2575 C   0  0  0  0  0  0  0  0  0  0  0  0
    5.2740   16.0737    2.9647 N   0  0  0  0  0  0  0  0  0  0  0  0
    6.0749   17.0875    2.6015 C   0  0  0  0  0  0  0  0  0  0  0  0
    6.5438   18.1051    3.4096 C   0  0  0  0  0  0  0  0  0  0  0  0
    6.1446   18.0814    4.7606 C   0  0  0  0  0  0  0  0  0  0  0  0
    6.5220   18.9998    5.6555 N   0  0  0  0  0  0  0  0  0  0  0  0
    7.3474   18.9733    2.6894 N   0  0  0  0  0  0  0  0  0  0  0  0
    7.3465   18.4708    1.4774 C   0  0  0  0  0  0  0  0  0  0  0  0
    6.5989   17.3327    1.3528 N   0  0  0  0  0  0  0  0  0  0  0  0
  1  2  2  0  0  0  0
  1  6  1  0  0  0  0
  2  3  1  0  0  0  0
  3  4  2  0  0  0  0
  4  5  1  0  0  0  0
  4 10  1  0  0  0  0
  5  6  2  0  0  0  0
  5  8  1  0  0  0  0
  6  7  1  0  0  0  0
  8  9  1  0  0  0  0
  9 10  2  0  0  0  0
M  END
>  <CHROM.1>
6.21549114,17.63970628,3.44261340,2.20168433,0.93084012,1.17871949

>  <Name>
ligand

>  <RI>
0

>  <Rbt.Current_Directory>
/home/itssahil/PROJECTS/Mol_Feturizer/New_Systems/rnas/4XNR

>  <Rbt.Executable>
rbdock ($Id: //depot/dev/client3/rdock/2013.1/src/exe/rbdock.cxx#4 $)

>  <Rbt.Library>
libRbt.so (2013.1, Build901 2013/11/27)

>  <Rbt.Parameter_File>
/export/apps/rDock/src/rDock_2013.1_src/data/scripts/dock_solv.prm

>  <Rbt.Receptor>
prm/pocket_docking_4.prm

>  <SCORE>
-12.4188

>  <SCORE.INTER>
-12.4188

>  <SCORE.INTER.CONST>
1

>  <SCORE.INTER.POLAR>
0

>  <SCORE.INTER.ROT>
0

>  <SCORE.INTER.SOLV>
9.41354

>  <SCORE.INTER.VDW>
-15.017

>  <SCORE.INTER.norm>
-1.24188

>  <SCORE.INTRA>
0

>  <SCORE.INTRA.DIHEDRAL>
0

>  <SCORE.INTRA.DIHEDRAL.0>
0

>  <SCORE.INTRA.POLAR>
0

>  <SCORE.INTRA.POLAR.0>
0

>  <SCORE.INTRA.REPUL>
0

>  <SCORE.INTRA.REPUL.0>
0

>  <SCORE.INTRA.SOLV>
0

>  <SCORE.INTRA.SOLV.lig_0>
-23.8918

>  <SCORE.INTRA.VDW>
0

>  <SCORE.INTRA.VDW.0>
0

>  <SCORE.INTRA.norm>
0

>  <SCORE.RESTR>
0

>  <SCORE.RESTR.CAVITY>
0

>  <SCORE.RESTR.norm>
0

>  <SCORE.SYSTEM>
0

>  <SCORE.SYSTEM.CONST>
0

>  <SCORE.SYSTEM.DIHEDRAL>
0

>  <SCORE.SYSTEM.SOLV>
0

>  <SCORE.SYSTEM.norm>
0

>  <SCORE.heavy>
10

>  <SCORE.norm>
-1.24188

>  <RMSD>
3.466

$$$$
ligand
 OpenBabel11021811513D
libRbt.so/2013.1/901 2013/11/27
 10 11  0  0  0  0  0  0  0  0999 V2000
    4.6243   14.7632    3.7252 N   0  0  0  0  0  0  0  0  0  0  0  0
    4.6761   15.9281    3.0681 C   0  0  0  0  0  0  0  0  0  0  0  0
    3.7194   16.8402    2.9027 N   0  0  0  0  0  0  0  0  0  0  0  0
    2.5858   16.4571    3.5105 C   0  0  0  0  0  0  0  0  0  0  0  0
    2.3789   15.2910    4.2219 C   0  0  0  0  0  0  0  0  0  0  0  0
    3.4701   14.4060    4.3263 C   0  0  0  0  0  0  0  0  0  0  0  0
    3.4144   13.2437    4.9840 N   0  0  0  0  0  0  0  0  0  0  0  0
    1.0831   15.2358    4.7078 N   0  0  0  0  0  0  0  0  0  0  0  0
    0.5405   16.3530    4.2850 C   0  0  0  0  0  0  0  0  0  0  0  0
    1.3905   17.1377    3.5561 N   0  0  0  0  0  0  0  0  0  0  0  0
  1  2  2  0  0  0  0
  1  6  1  0  0  0  0
  2  3  1  0  0  0  0
  3  4  2  0  0  0  0
  4  5  1  0  0  0  0
  4 10  1  0  0  0  0
  5  6  2  0  0  0  0
  5  8  1  0  0  0  0
  6  7  1  0  0  0  0
  8  9  1  0  0  0  0
  9 10  2  0  0  0  0
M  END
>  <CHROM.1>
2.79275525,15.55625586,3.93232827,-0.49125121,0.29822630,-0.50199654

>  <Name>
ligand

>  <RI>
0

>  <Rbt.Current_Directory>
/home/itssahil/PROJECTS/Mol_Feturizer/New_Systems/rnas/4XNR

>  <Rbt.Executable>
rbdock ($Id: //depot/dev/client3/rdock/2013.1/src/exe/rbdock.cxx#4 $)

>  <Rbt.Library>
libRbt.so (2013.1, Build901 2013/11/27)

>  <Rbt.Parameter_File>
/export/apps/rDock/src/rDock_2013.1_src/data/scripts/dock_solv.prm

>  <Rbt.Receptor>
prm/blind_docking_20.prm

>  <SCORE>
-7.9878

>  <SCORE.INTER>
-7.9878

>  <SCORE.INTER.CONST>
1

>  <SCORE.INTER.POLAR>
0

>  <SCORE.INTER.ROT>
0

>  <SCORE.INTER.SOLV>
8.13074

>  <SCORE.INTER.VDW>
-11.6354

>  <SCORE.INTER.norm>
-0.79878

>  <SCORE.INTRA>
0

>  <SCORE.INTRA.DIHEDRAL>
0

>  <SCORE.INTRA.DIHEDRAL.0>
0

>  <SCORE.INTRA.POLAR>
0

>  <SCORE.INTRA.POLAR.0>
0

>  <SCORE.INTRA.REPUL>
0

>  <SCORE.INTRA.REPUL.0>
0

>  <SCORE.INTRA.SOLV>
0

>  <SCORE.INTRA.SOLV.lig_0>
-23.8918

>  <SCORE.INTRA.VDW>
0

>  <SCORE.INTRA.VDW.0>
0

>  <SCORE.INTRA.norm>
0

>  <SCORE.RESTR>
0

>  <SCORE.RESTR.CAVITY>
0

>  <SCORE.RESTR.norm>
0

>  <SCORE.SYSTEM>
0

>  <SCORE.SYSTEM.CONST>
0

>  <SCORE.SYSTEM.DIHEDRAL>
0

>  <SCORE.SYSTEM.SOLV>
0

>  <SCORE.SYSTEM.norm>
0

>  <SCORE.heavy>
10

>  <SCORE.norm>
-0.79878

>  <RMSD>
4.382

$$$$
ligand
 OpenBabel11021811513D
libRbt.so/2013.1/901 2013/11/27
 10 11  0  0  0  0  0  0  0  0999 V2000
    4.6231   14.7580    3.7318 N   0  0  0  0  0  0  0  0  0  0  0  0
    4.6741   15.9184    3.0668 C   0  0  0  0  0  0  0  0  0  0  0  0
    3.7171   16.8293    2.8965 N   0  0  0  0  0  0  0  0  0  0  0  0
    2.5844   16.4504    3.5085 C   0  0  0  0  0  0  0  0  0  0  0  0
    2.3784   15.2892    4.2281 C   0  0  0  0  0  0  0  0  0  0  0  0
    3.4698   14.4049    4.3370 C   0  0  0  0  0  0  0  0  0  0  0  0
    3.4150   13.2471    5.0027 N   0  0  0  0  0  0  0  0  0  0  0  0
    1.0833   15.2374    4.7163 N   0  0  0  0  0  0  0  0  0  0  0  0
    0.5402   16.3517    4.2866 C   0  0  0  0  0  0  0  0  0  0  0  0
    1.3892   17.1314    3.5512 N   0  0  0  0  0  0  0  0  0  0  0  0
  1  2  2  0  0  0  0
  1  6  1  0  0  0  0
  2  3  1  0  0  0  0
  3  4  2  0  0  0  0
  4  5  1  0  0  0  0
  4 10  1  0  0  0  0
  5  6  2  0  0  0  0
  5  8  1  0  0  0  0
  6  7  1  0  0  0  0
  8  9  1  0  0  0  0
  9 10  2  0  0  0  0
M  END
>  <CHROM.1>
2.79191605,15.55249835,3.93618322,-0.49055944,0.29949248,-0.50899213

>  <Name>
ligand

>  <RI>
0

>  <Rbt.Current_Directory>
/home/itssahil/PROJECTS/Mol_Feturizer/New_Systems/rnas/4XNR

>  <Rbt.Executable>
rbdock ($Id: //depot/dev/client3/rdock/2013.1/src/exe/rbdock.cxx#4 $)

>  <Rbt.Library>
libRbt.so (2013.1, Build901 2013/11/27)

>  <Rbt.Parameter_File>
/export/apps/rDock/src/rDock_2013.1_src/data/scripts/dock_solv.prm

>  <Rbt.Receptor>
prm/blind_docking_20.prm

>  <SCORE>
-7.98897

>  <SCORE.INTER>
-7.98897

>  <SCORE.INTER.CONST>
1

>  <SCORE.INTER.POLAR>
0

>  <SCORE.INTER.ROT>
0

>  <SCORE.INTER.SOLV>
8.20514

>  <SCORE.INTER.VDW>
-11.661

>  <SCORE.INTER.norm>
-0.798897

>  <SCORE.INTRA>
0

>  <SCORE.INTRA.DIHEDRAL>
0

>  <SCORE.INTRA.DIHEDRAL.0>
0

>  <SCORE.INTRA.POLAR>
0

>  <SCORE.INTRA.POLAR.0>
0

>  <SCORE.INTRA.REPUL>
0

>  <SCORE.INTRA.REPUL.0>
0

>  <SCORE.INTRA.SOLV>
0

>  <SCORE.INTRA.SOLV.lig_0>
-23.8918

>  <SCORE.INTRA.VDW>
0

>  <SCORE.INTRA.VDW.0>
0

>  <SCORE.INTRA.norm>
0

>  <SCORE.RESTR>
0

>  <SCORE.RESTR.CAVITY>
0

>  <SCORE.RESTR.norm>
0

>  <SCORE.SYSTEM>
0

>  <SCORE.SYSTEM.CONST>
0

>  <SCORE.SYSTEM.DIHEDRAL>
0

>  <SCORE.SYSTEM.SOLV>
0

>  <SCORE.SYSTEM.norm>
0

>  <SCORE.heavy>
10

>  <SCORE.norm>
-0.798897

>  <RMSD>
4.386

$$$$
ligand
 OpenBabel11021811513D
libRbt.so/2013.1/901 2013/11/27
 10 11  0  0  0  0  0  0  0  0999 V2000
    4.6126   14.7542    3.7215 N   0  0  0  0  0  0  0  0  0  0  0  0
    4.6658   15.9158    3.0588 C   0  0  0  0  0  0  0  0  0  0  0  0
    3.7111   16.8298    2.8916 N   0  0  0  0  0  0  0  0  0  0  0  0
    2.5782   16.4527    3.5044 C   0  0  0  0  0  0  0  0  0  0  0  0
    2.3700   15.2906    4.2219 C   0  0  0  0  0  0  0  0  0  0  0  0
    3.4591   14.4031    4.3275 C   0  0  0  0  0  0  0  0  0  0  0  0
    3.4020   13.2440    4.9908 N   0  0  0  0  0  0  0  0  0  0  0  0
    1.0754   15.2413    4.7116 N   0  0  0  0  0  0  0  0  0  0  0  0
    0.5348   16.3580    4.2850 C   0  0  0  0  0  0  0  0  0  0  0  0
    1.3850   17.1369    3.5501 N   0  0  0  0  0  0  0  0  0  0  0  0
  1  2  2  0  0  0  0
  1  6  1  0  0  0  0
  2  3  1  0  0  0  0
  3  4  2  0  0  0  0
  4  5  1  0  0  0  0
  4 10  1  0  0  0  0
  5  6  2  0  0  0  0
  5  8  1  0  0  0  0
  6  7  1  0  0  0  0
  8  9  1  0  0  0  0
  9 10  2  0  0  0  0
M  END
>  <CHROM.1>
2.78383540,15.55334555,3.92990035,-0.49240039,0.30198943,-0.50638646

>  <Name>
ligand

>  <RI>
0

>  <Rbt.Current_Directory>
/home/itssahil/PROJECTS/Mol_Feturizer/New_Systems/rnas/4XNR

>  <Rbt.Executable>
rbdock ($Id: //depot/dev/client3/rdock/2013.1/src/exe/rbdock.cxx#4 $)

>  <Rbt.Library>
libRbt.so (2013.1, Build901 2013/11/27)

>  <Rbt.Parameter_File>
/export/apps/rDock/src/rDock_2013.1_src/data/scripts/dock_solv.prm

>  <Rbt.Receptor>
prm/blind_docking_20.prm

>  <SCORE>
-7.99377

>  <SCORE.INTER>
-7.99377

>  <SCORE.INTER.CONST>
1

>  <SCORE.INTER.POLAR>
0

>  <SCORE.INTER.ROT>
0

>  <SCORE.INTER.SOLV>
8.13319

>  <SCORE.INTER.VDW>
-11.6402

>  <SCORE.INTER.norm>
-0.799377

>  <SCORE.INTRA>
0

>  <SCORE.INTRA.DIHEDRAL>
0

>  <SCORE.INTRA.DIHEDRAL.0>
0

>  <SCORE.INTRA.POLAR>
0

>  <SCORE.INTRA.POLAR.0>
0

>  <SCORE.INTRA.REPUL>
0

>  <SCORE.INTRA.REPUL.0>
0

>  <SCORE.INTRA.SOLV>
0

>  <SCORE.INTRA.SOLV.lig_0>
-23.8918

>  <SCORE.INTRA.VDW>
0

>  <SCORE.INTRA.VDW.0>
0

>  <SCORE.INTRA.norm>
0

>  <SCORE.RESTR>
0

>  <SCORE.RESTR.CAVITY>
0

>  <SCORE.RESTR.norm>
0

>  <SCORE.SYSTEM>
0

>  <SCORE.SYSTEM.CONST>
0

>  <SCORE.SYSTEM.DIHEDRAL>
0

>  <SCORE.SYSTEM.SOLV>
0

>  <SCORE.SYSTEM.norm>
0

>  <SCORE.heavy>
10

>  <SCORE.norm>
-0.799377

>  <RMSD>
4.389

$$$$
ligand
 OpenBabel11021811513D
libRbt.so/2013.1/901 2013/11/27
 10 11  0  0  0  0  0  0  0  0999 V2000
    4.6106   14.7492    3.7236 N   0  0  0  0  0  0  0  0  0  0  0  0
    4.6624   15.9074    3.0547 C   0  0  0  0  0  0  0  0  0  0  0  0
    3.7078   16.8212    2.8863 N   0  0  0  0  0  0  0  0  0  0  0  0
    2.5769   16.4483    3.5051 C   0  0  0  0  0  0  0  0  0  0  0  0
    2.3703   15.2900    4.2293 C   0  0  0  0  0  0  0  0  0  0  0  0
    3.4591   14.4021    4.3355 C   0  0  0  0  0  0  0  0  0  0  0  0
    3.4034   13.2466    5.0050 N   0  0  0  0  0  0  0  0  0  0  0  0
    1.0775   15.2443    4.7240 N   0  0  0  0  0  0  0  0  0  0  0  0
    0.5362   16.3593    4.2936 C   0  0  0  0  0  0  0  0  0  0  0  0
    1.3843   17.1336    3.5517 N   0  0  0  0  0  0  0  0  0  0  0  0
  1  2  2  0  0  0  0
  1  6  1  0  0  0  0
  2  3  1  0  0  0  0
  3  4  2  0  0  0  0
  4  5  1  0  0  0  0
  4 10  1  0  0  0  0
  5  6  2  0  0  0  0
  5  8  1  0  0  0  0
  6  7  1  0  0  0  0
  8  9  1  0  0  0  0
  9 10  2  0  0  0  0
M  END
>  <CHROM.1>
2.78328872,15.55090529,3.93452029,-0.49129955,0.30556472,-0.51184605

>  <Name>
ligand

>  <RI>
0

>  <Rbt.Current_Directory>
/home/itssahil/PROJECTS/Mol_Feturizer/New_Systems/rnas/4XNR

>  <Rbt.Executable>
rbdock ($Id: //depot/dev/client3/rdock/2013.1/src/exe/rbdock.cxx#4 $)

>  <Rbt.Library>
libRbt.so (2013.1, Build901 2013/11/27)

>  <Rbt.Parameter_File>
/export/apps/rDock/src/rDock_2013.1_src/data/scripts/dock_solv.prm

>  <Rbt.Receptor>
prm/blind_docking_20.prm

>  <SCORE>
-7.99124

>  <SCORE.INTER>
-7.99124

>  <SCORE.INTER.CONST>
1

>  <SCORE.INTER.POLAR>
0

>  <SCORE.INTER.ROT>
0

>  <SCORE.INTER.SOLV>
8.19456

>  <SCORE.INTER.VDW>
-11.659

>  <SCORE.INTER.norm>
-0.799124

>  <SCORE.INTRA>
0

>  <SCORE.INTRA.DIHEDRAL>
0

>  <SCORE.INTRA.DIHEDRAL.0>
0

>  <SCORE.INTRA.POLAR>
0

>  <SCORE.INTRA.POLAR.0>
0

>  <SCORE.INTRA.REPUL>
0

>  <SCORE.INTRA.REPUL.0>
0

>  <SCORE.INTRA.SOLV>
0

>  <SCORE.INTRA.SOLV.lig_0>
-23.8918

>  <SCORE.INTRA.VDW>
0

>  <SCORE.INTRA.VDW.0>
0

>  <SCORE.INTRA.norm>
0

>  <SCORE.RESTR>
0

>  <SCORE.RESTR.CAVITY>
0

>  <SCORE.RESTR.norm>
0

>  <SCORE.SYSTEM>
0

>  <SCORE.SYSTEM.CONST>
0

>  <SCORE.SYSTEM.DIHEDRAL>
0

>  <SCORE.SYSTEM.SOLV>
0

>  <SCORE.SYSTEM.norm>
0

>  <SCORE.heavy>
10

>  <SCORE.norm>
-0.799124

>  <RMSD>
4.390

$$$$
ligand
 OpenBabel11021811513D
libRbt.so/2013.1/901 2013/11/27
 10 11  0  0  0  0  0  0  0  0999 V2000
    4.6083   14.7419    3.7370 N   0  0  0  0  0  0  0  0  0  0  0  0
    4.6671   15.8993    3.0675 C   0  0  0  0  0  0  0  0  0  0  0  0
    3.7168   16.8169    2.8951 N   0  0  0  0  0  0  0  0  0  0  0  0
    2.5822   16.4489    3.5103 C   0  0  0  0  0  0  0  0  0  0  0  0
    2.3685   15.2921    4.2346 C   0  0  0  0  0  0  0  0  0  0  0  0
    3.4533   14.3999    4.3453 C   0  0  0  0  0  0  0  0  0  0  0  0
    3.3907   13.2451    5.0155 N   0  0  0  0  0  0  0  0  0  0  0  0
    1.0738   15.2520    4.7249 N   0  0  0  0  0  0  0  0  0  0  0  0
    0.5385   16.3687    4.2918 C   0  0  0  0  0  0  0  0  0  0  0  0
    1.3923   17.1391    3.5522 N   0  0  0  0  0  0  0  0  0  0  0  0
  1  2  2  0  0  0  0
  1  6  1  0  0  0  0
  2  3  1  0  0  0  0
  3  4  2  0  0  0  0
  4  5  1  0  0  0  0
  4 10  1  0  0  0  0
  5  6  2  0  0  0  0
  5  8  1  0  0  0  0
  6  7  1  0  0  0  0
  8  9  1  0  0  0  0
  9 10  2  0  0  0  0
M  END
>  <CHROM.1>
2.78354402,15.55108532,3.94105254,-0.49673212,0.30451509,-0.51099045

>  <Name>
ligand

>  <RI>
0

>  <Rbt.Current_Directory>
/home/itssahil/PROJECTS/Mol_Feturizer/New_Systems/rnas/4XNR

>  <Rbt.Executable>
rbdock ($Id: //depot/dev/client3/rdock/2013.1/src/exe/rbdock.cxx#4 $)

>  <Rbt.Library>
libRbt.so (2013.1, Build901 2013/11/27)

>  <Rbt.Parameter_File>
/export/apps/rDock/src/rDock_2013.1_src/data/scripts/dock_solv.prm

>  <Rbt.Receptor>
prm/blind_docking_40.prm

>  <SCORE>
-7.98956

>  <SCORE.INTER>
-7.98956

>  <SCORE.INTER.CONST>
1

>  <SCORE.INTER.POLAR>
0

>  <SCORE.INTER.ROT>
0

>  <SCORE.INTER.SOLV>
8.19671

>  <SCORE.INTER.VDW>
-11.6586

>  <SCORE.INTER.norm>
-0.798956

>  <SCORE.INTRA>
0

>  <SCORE.INTRA.DIHEDRAL>
0

>  <SCORE.INTRA.DIHEDRAL.0>
0

>  <SCORE.INTRA.POLAR>
0

>  <SCORE.INTRA.POLAR.0>
0

>  <SCORE.INTRA.REPUL>
0

>  <SCORE.INTRA.REPUL.0>
0

>  <SCORE.INTRA.SOLV>
0

>  <SCORE.INTRA.SOLV.lig_0>
-23.8918

>  <SCORE.INTRA.VDW>
0

>  <SCORE.INTRA.VDW.0>
0

>  <SCORE.INTRA.norm>
0

>  <SCORE.RESTR>
0

>  <SCORE.RESTR.CAVITY>
0

>  <SCORE.RESTR.norm>
0

>  <SCORE.SYSTEM>
0

>  <SCORE.SYSTEM.CONST>
0

>  <SCORE.SYSTEM.DIHEDRAL>
0

>  <SCORE.SYSTEM.SOLV>
0

>  <SCORE.SYSTEM.norm>
0

>  <SCORE.heavy>
10

>  <SCORE.norm>
-0.798956

>  <RMSD>
4.390

$$$$
ligand
 OpenBabel11021811513D
libRbt.so/2013.1/901 2013/11/27
 10 11  0  0  0  0  0  0  0  0999 V2000
    4.6197   14.6958    3.7335 N   0  0  0  0  0  0  0  0  0  0  0  0
    4.6873   15.8529    3.0642 C   0  0  0  0  0  0  0  0  0  0  0  0
    3.7438   16.7774    2.8915 N   0  0  0  0  0  0  0  0  0  0  0  0
    2.6062   16.4177    3.5061 C   0  0  0  0  0  0  0  0  0  0  0  0
    2.3837   15.2623    4.2301 C   0  0  0  0  0  0  0  0  0  0  0  0
    3.4619   14.3622    4.3411 C   0  0  0  0  0  0  0  0  0  0  0  0
    3.3904   13.2078    5.0110 N   0  0  0  0  0  0  0  0  0  0  0  0
    1.0885   15.2317    4.7197 N   0  0  0  0  0  0  0  0  0  0  0  0
    0.5616   16.3524    4.2866 C   0  0  0  0  0  0  0  0  0  0  0  0
    1.4214   17.1166    3.5475 N   0  0  0  0  0  0  0  0  0  0  0  0
  1  2  2  0  0  0  0
  1  6  1  0  0  0  0
  2  3  1  0  0  0  0
  3  4  2  0  0  0  0
  4  5  1  0  0  0  0
  4 10  1  0  0  0  0
  5  6  2  0  0  0  0
  5  8  1  0  0  0  0
  6  7  1  0  0  0  0
  8  9  1  0  0  0  0
  9 10  2  0  0  0  0
M  END
>  <CHROM.1>
2.80078116,15.51834198,3.93677257,-0.50371504,0.30766533,-0.50869064

>  <Name>
ligand

>  <RI>
0

>  <Rbt.Current_Directory>
/home/itssahil/PROJECTS/Mol_Feturizer/New_Systems/rnas/4XNR

>  <Rbt.Executable>
rbdock ($Id: //depot/dev/client3/rdock/2013.1/src/exe/rbdock.cxx#4 $)

>  <Rbt.Library>
libRbt.so (2013.1, Build901 2013/11/27)

>  <Rbt.Parameter_File>
/export/apps/rDock/src/rDock_2013.1_src/data/scripts/dock_solv.prm

>  <Rbt.Receptor>
prm/blind_docking_60.prm

>  <SCORE>
-7.96432

>  <SCORE.INTER>
-7.96432

>  <SCORE.INTER.CONST>
1

>  <SCORE.INTER.POLAR>
0

>  <SCORE.INTER.ROT>
0

>  <SCORE.INTER.SOLV>
8.11128

>  <SCORE.INTER.VDW>
-11.6133

>  <SCORE.INTER.norm>
-0.796432

>  <SCORE.INTRA>
0

>  <SCORE.INTRA.DIHEDRAL>
0

>  <SCORE.INTRA.DIHEDRAL.0>
0

>  <SCORE.INTRA.POLAR>
0

>  <SCORE.INTRA.POLAR.0>
0

>  <SCORE.INTRA.REPUL>
0

>  <SCORE.INTRA.REPUL.0>
0

>  <SCORE.INTRA.SOLV>
0

>  <SCORE.INTRA.SOLV.lig_0>
-23.8918

>  <SCORE.INTRA.VDW>
0

>  <SCORE.INTRA.VDW.0>
0

>  <SCORE.INTRA.norm>
0

>  <SCORE.RESTR>
0

>  <SCORE.RESTR.CAVITY>
0

>  <SCORE.RESTR.norm>
0

>  <SCORE.SYSTEM>
0

>  <SCORE.SYSTEM.CONST>
0

>  <SCORE.SYSTEM.DIHEDRAL>
0

>  <SCORE.SYSTEM.SOLV>
0

>  <SCORE.SYSTEM.norm>
0

>  <SCORE.heavy>
10

>  <SCORE.norm>
-0.796432

>  <RMSD>
4.393

$$$$
ligand
 OpenBabel11021811513D
libRbt.so/2013.1/901 2013/11/27
 10 11  0  0  0  0  0  0  0  0999 V2000
    4.6110   14.7522    3.7354 N   0  0  0  0  0  0  0  0  0  0  0  0
    4.6600   15.9104    3.0665 C   0  0  0  0  0  0  0  0  0  0  0  0
    3.7026   16.8211    2.8965 N   0  0  0  0  0  0  0  0  0  0  0  0
    2.5720   16.4445    3.5137 C   0  0  0  0  0  0  0  0  0  0  0  0
    2.3682   15.2857    4.2378 C   0  0  0  0  0  0  0  0  0  0  0  0
    3.4597   14.4014    4.3458 C   0  0  0  0  0  0  0  0  0  0  0  0
    3.4068   13.2458    5.0154 N   0  0  0  0  0  0  0  0  0  0  0  0
    1.0748   15.2358    4.7306 N   0  0  0  0  0  0  0  0  0  0  0  0
    0.5304   16.3489    4.2991 C   0  0  0  0  0  0  0  0  0  0  0  0
    1.3771   17.1259    3.5583 N   0  0  0  0  0  0  0  0  0  0  0  0
  1  2  2  0  0  0  0
  1  6  1  0  0  0  0
  2  3  1  0  0  0  0
  3  4  2  0  0  0  0
  4  5  1  0  0  0  0
  4 10  1  0  0  0  0
  5  6  2  0  0  0  0
  5  8  1  0  0  0  0
  6  7  1  0  0  0  0
  8  9  1  0  0  0  0
  9 10  2  0  0  0  0
M  END
>  <CHROM.1>
2.78072077,15.54788139,3.94353110,-0.48904754,0.30263977,-0.51269861

>  <Name>
ligand

>  <RI>
0

>  <Rbt.Current_Directory>
/home/itssahil/PROJECTS/Mol_Feturizer/New_Systems/rnas/4XNR

>  <Rbt.Executable>
rbdock ($Id: //depot/dev/client3/rdock/2013.1/src/exe/rbdock.cxx#4 $)

>  <Rbt.Library>
libRbt.so (2013.1, Build901 2013/11/27)

>  <Rbt.Parameter_File>
/export/apps/rDock/src/rDock_2013.1_src/data/scripts/dock_solv.prm

>  <Rbt.Receptor>
prm/blind_docking_20.prm

>  <SCORE>
-7.98886

>  <SCORE.INTER>
-7.98886

>  <SCORE.INTER.CONST>
1

>  <SCORE.INTER.POLAR>
0

>  <SCORE.INTER.ROT>
0

>  <SCORE.INTER.SOLV>
8.23251

>  <SCORE.INTER.VDW>
-11.6701

>  <SCORE.INTER.norm>
-0.798886

>  <SCORE.INTRA>
0

>  <SCORE.INTRA.DIHEDRAL>
0

>  <SCORE.INTRA.DIHEDRAL.0>
0

>  <SCORE.INTRA.POLAR>
0

>  <SCORE.INTRA.POLAR.0>
0

>  <SCORE.INTRA.REPUL>
0

>  <SCORE.INTRA.REPUL.0>
0

>  <SCORE.INTRA.SOLV>
0

>  <SCORE.INTRA.SOLV.lig_0>
-23.8918

>  <SCORE.INTRA.VDW>
0

>  <SCORE.INTRA.VDW.0>
0

>  <SCORE.INTRA.norm>
0

>  <SCORE.RESTR>
0

>  <SCORE.RESTR.CAVITY>
0

>  <SCORE.RESTR.norm>
0

>  <SCORE.SYSTEM>
0

>  <SCORE.SYSTEM.CONST>
0

>  <SCORE.SYSTEM.DIHEDRAL>
0

>  <SCORE.SYSTEM.SOLV>
0

>  <SCORE.SYSTEM.norm>
0

>  <SCORE.heavy>
10

>  <SCORE.norm>
-0.798886

>  <RMSD>
4.396

$$$$
ligand
 OpenBabel11021811513D
libRbt.so/2013.1/901 2013/11/27
 10 11  0  0  0  0  0  0  0  0999 V2000
    4.6068   14.6827    3.7358 N   0  0  0  0  0  0  0  0  0  0  0  0
    4.6772   15.8385    3.0647 C   0  0  0  0  0  0  0  0  0  0  0  0
    3.7366   16.7661    2.8924 N   0  0  0  0  0  0  0  0  0  0  0  0
    2.5989   16.4112    3.5095 C   0  0  0  0  0  0  0  0  0  0  0  0
    2.3737   15.2576    4.2356 C   0  0  0  0  0  0  0  0  0  0  0  0
    3.4490   14.3539    4.3460 C   0  0  0  0  0  0  0  0  0  0  0  0
    3.3748   13.2007    5.0177 N   0  0  0  0  0  0  0  0  0  0  0  0
    1.0793   15.2320    4.7276 N   0  0  0  0  0  0  0  0  0  0  0  0
    0.5554   16.3540    4.2938 C   0  0  0  0  0  0  0  0  0  0  0  0
    1.4165   17.1142    3.5520 N   0  0  0  0  0  0  0  0  0  0  0  0
  1  2  2  0  0  0  0
  1  6  1  0  0  0  0
  2  3  1  0  0  0  0
  3  4  2  0  0  0  0
  4  5  1  0  0  0  0
  4 10  1  0  0  0  0
  5  6  2  0  0  0  0
  5  8  1  0  0  0  0
  6  7  1  0  0  0  0
  8  9  1  0  0  0  0
  9 10  2  0  0  0  0
M  END
>  <CHROM.1>
2.79110364,15.51172434,3.94114936,-0.50593887,0.31091175,-0.50945900

>  <Name>
ligand

>  <RI>
0

>  <Rbt.Current_Directory>
/home/itssahil/PROJECTS/Mol_Feturizer/New_Systems/rnas/4XNR

>  <Rbt.Executable>
rbdock ($Id: //depot/dev/client3/rdock/2013.1/src/exe/rbdock.cxx#4 $)

>  <Rbt.Library>
libRbt.so (2013.1, Build901 2013/11/27)

>  <Rbt.Parameter_File>
/export/apps/rDock/src/rDock_2013.1_src/data/scripts/dock_solv.prm

>  <Rbt.Receptor>
prm/blind_docking_20.prm

>  <SCORE>
-7.96424

>  <SCORE.INTER>
-7.96424

>  <SCORE.INTER.CONST>
1

>  <SCORE.INTER.POLAR>
0

>  <SCORE.INTER.ROT>
0

>  <SCORE.INTER.SOLV>
8.1024

>  <SCORE.INTER.VDW>
-11.6103

>  <SCORE.INTER.norm>
-0.796424

>  <SCORE.INTRA>
0

>  <SCORE.INTRA.DIHEDRAL>
0

>  <SCORE.INTRA.DIHEDRAL.0>
0

>  <SCORE.INTRA.POLAR>
0

>  <SCORE.INTRA.POLAR.0>
0

>  <SCORE.INTRA.REPUL>
0

>  <SCORE.INTRA.REPUL.0>
0

>  <SCORE.INTRA.SOLV>
0

>  <SCORE.INTRA.SOLV.lig_0>
-23.8918

>  <SCORE.INTRA.VDW>
0

>  <SCORE.INTRA.VDW.0>
0

>  <SCORE.INTRA.norm>
0

>  <SCORE.RESTR>
0

>  <SCORE.RESTR.CAVITY>
0

>  <SCORE.RESTR.norm>
0

>  <SCORE.SYSTEM>
0

>  <SCORE.SYSTEM.CONST>
0

>  <SCORE.SYSTEM.DIHEDRAL>
0

>  <SCORE.SYSTEM.SOLV>
0

>  <SCORE.SYSTEM.norm>
0

>  <SCORE.heavy>
10

>  <SCORE.norm>
-0.796424

>  <RMSD>
4.402

$$$$
ligand
 OpenBabel11021811513D
libRbt.so/2013.1/901 2013/11/27
 10 11  0  0  0  0  0  0  0  0999 V2000
    4.5968   14.7026    3.6998 N   0  0  0  0  0  0  0  0  0  0  0  0
    4.6483   15.8598    3.0292 C   0  0  0  0  0  0  0  0  0  0  0  0
    3.6986   16.7809    2.8733 N   0  0  0  0  0  0  0  0  0  0  0  0
    2.5734   16.4173    3.5081 C   0  0  0  0  0  0  0  0  0  0  0  0
    2.3680   15.2612    4.2361 C   0  0  0  0  0  0  0  0  0  0  0  0
    3.4512   14.3650    4.3280 C   0  0  0  0  0  0  0  0  0  0  0  0
    3.3958   13.2104    4.9993 N   0  0  0  0  0  0  0  0  0  0  0  0
    1.0818   15.2260    4.7488 N   0  0  0  0  0  0  0  0  0  0  0  0
    0.5433   16.3448    4.3249 C   0  0  0  0  0  0  0  0  0  0  0  0
    1.3871   17.1119    3.5705 N   0  0  0  0  0  0  0  0  0  0  0  0
  1  2  2  0  0  0  0
  1  6  1  0  0  0  0
  2  3  1  0  0  0  0
  3  4  2  0  0  0  0
  4  5  1  0  0  0  0
  4 10  1  0  0  0  0
  5  6  2  0  0  0  0
  5  8  1  0  0  0  0
  6  7  1  0  0  0  0
  8  9  1  0  0  0  0
  9 10  2  0  0  0  0
M  END
>  <CHROM.1>
2.77883503,15.51865992,3.93535926,-0.49126949,0.32149040,-0.51271482

>  <Name>
ligand

>  <RI>
0

>  <Rbt.Current_Directory>
/home/itssahil/PROJECTS/Mol_Feturizer/New_Systems/rnas/4XNR

>  <Rbt.Executable>
rbdock ($Id: //depot/dev/client3/rdock/2013.1/src/exe/rbdock.cxx#4 $)

>  <Rbt.Library>
libRbt.so (2013.1, Build901 2013/11/27)

>  <Rbt.Parameter_File>
/export/apps/rDock/src/rDock_2013.1_src/data/scripts/dock_solv.prm

>  <Rbt.Receptor>
prm/blind_docking_40.prm

>  <SCORE>
-7.94531

>  <SCORE.INTER>
-7.94531

>  <SCORE.INTER.CONST>
1

>  <SCORE.INTER.POLAR>
0

>  <SCORE.INTER.ROT>
0

>  <SCORE.INTER.SOLV>
8.10823

>  <SCORE.INTER.VDW>
-11.5996

>  <SCORE.INTER.norm>
-0.794531

>  <SCORE.INTRA>
0

>  <SCORE.INTRA.DIHEDRAL>
0

>  <SCORE.INTRA.DIHEDRAL.0>
0

>  <SCORE.INTRA.POLAR>
0

>  <SCORE.INTRA.POLAR.0>
0

>  <SCORE.INTRA.REPUL>
0

>  <SCORE.INTRA.REPUL.0>
0

>  <SCORE.INTRA.SOLV>
0

>  <SCORE.INTRA.SOLV.lig_0>
-23.8918

>  <SCORE.INTRA.VDW>
0

>  <SCORE.INTRA.VDW.0>
0

>  <SCORE.INTRA.norm>
0

>  <SCORE.RESTR>
0

>  <SCORE.RESTR.CAVITY>
0

>  <SCORE.RESTR.norm>
0

>  <SCORE.SYSTEM>
0

>  <SCORE.SYSTEM.CONST>
0

>  <SCORE.SYSTEM.DIHEDRAL>
0

>  <SCORE.SYSTEM.SOLV>
0

>  <SCORE.SYSTEM.norm>
0

>  <SCORE.heavy>
10

>  <SCORE.norm>
-0.794531

>  <RMSD>
4.404

$$$$
ligand
 OpenBabel11021811513D
libRbt.so/2013.1/901 2013/11/27
 10 11  0  0  0  0  0  0  0  0999 V2000
    4.5862   14.7167    3.7437 N   0  0  0  0  0  0  0  0  0  0  0  0
    4.6503   15.8754    3.0768 C   0  0  0  0  0  0  0  0  0  0  0  0
    3.7042   16.7976    2.9063 N   0  0  0  0  0  0  0  0  0  0  0  0
    2.5678   16.4334    3.5205 C   0  0  0  0  0  0  0  0  0  0  0  0
    2.3488   15.2760    4.2422 C   0  0  0  0  0  0  0  0  0  0  0  0
    3.4295   14.3786    4.3510 C   0  0  0  0  0  0  0  0  0  0  0  0
    3.3615   13.2226    5.0186 N   0  0  0  0  0  0  0  0  0  0  0  0
    1.0538   15.2406    4.7322 N   0  0  0  0  0  0  0  0  0  0  0  0
    0.5236   16.3608    4.3015 C   0  0  0  0  0  0  0  0  0  0  0  0
    1.3810   17.1289    3.5637 N   0  0  0  0  0  0  0  0  0  0  0  0
  1  2  2  0  0  0  0
  1  6  1  0  0  0  0
  2  3  1  0  0  0  0
  3  4  2  0  0  0  0
  4  5  1  0  0  0  0
  4 10  1  0  0  0  0
  5  6  2  0  0  0  0
  5  8  1  0  0  0  0
  6  7  1  0  0  0  0
  8  9  1  0  0  0  0
  9 10  2  0  0  0  0
M  END
>  <CHROM.1>
2.76501735,15.53372309,3.94929430,-0.50096556,0.30658653,-0.50747392

>  <Name>
ligand

>  <RI>
0

>  <Rbt.Current_Directory>
/home/itssahil/PROJECTS/Mol_Feturizer/New_Systems/rnas/4XNR

>  <Rbt.Executable>
rbdock ($Id: //depot/dev/client3/rdock/2013.1/src/exe/rbdock.cxx#4 $)

>  <Rbt.Library>
libRbt.so (2013.1, Build901 2013/11/27)

>  <Rbt.Parameter_File>
/export/apps/rDock/src/rDock_2013.1_src/data/scripts/dock_solv.prm

>  <Rbt.Receptor>
prm/blind_docking_20.prm

>  <SCORE>
-7.97585

>  <SCORE.INTER>
-7.97585

>  <SCORE.INTER.CONST>
1

>  <SCORE.INTER.POLAR>
0

>  <SCORE.INTER.ROT>
0

>  <SCORE.INTER.SOLV>
8.12892

>  <SCORE.INTER.VDW>
-11.6269

>  <SCORE.INTER.norm>
-0.797585

>  <SCORE.INTRA>
0

>  <SCORE.INTRA.DIHEDRAL>
0

>  <SCORE.INTRA.DIHEDRAL.0>
0

>  <SCORE.INTRA.POLAR>
0

>  <SCORE.INTRA.POLAR.0>
0

>  <SCORE.INTRA.REPUL>
0

>  <SCORE.INTRA.REPUL.0>
0

>  <SCORE.INTRA.SOLV>
0

>  <SCORE.INTRA.SOLV.lig_0>
-23.8918

>  <SCORE.INTRA.VDW>
0

>  <SCORE.INTRA.VDW.0>
0

>  <SCORE.INTRA.norm>
0

>  <SCORE.RESTR>
0

>  <SCORE.RESTR.CAVITY>
0

>  <SCORE.RESTR.norm>
0

>  <SCORE.SYSTEM>
0

>  <SCORE.SYSTEM.CONST>
0

>  <SCORE.SYSTEM.DIHEDRAL>
0

>  <SCORE.SYSTEM.SOLV>
0

>  <SCORE.SYSTEM.norm>
0

>  <SCORE.heavy>
10

>  <SCORE.norm>
-0.797585

>  <RMSD>
4.411

$$$$
ligand
 OpenBabel11021811513D
libRbt.so/2013.1/901 2013/11/27
 10 11  0  0  0  0  0  0  0  0999 V2000
    4.5861   14.6889    3.6831 N   0  0  0  0  0  0  0  0  0  0  0  0
    4.6090   15.8992    3.1121 C   0  0  0  0  0  0  0  0  0  0  0  0
    3.6393   16.8096    3.0387 N   0  0  0  0  0  0  0  0  0  0  0  0
    2.5261   16.3699    3.6458 C   0  0  0  0  0  0  0  0  0  0  0  0
    2.3496   15.1526    4.2748 C   0  0  0  0  0  0  0  0  0  0  0  0
    3.4519   14.2752    4.2859 C   0  0  0  0  0  0  0  0  0  0  0  0
    3.4250   13.0674    4.8578 N   0  0  0  0  0  0  0  0  0  0  0  0
    1.0677   15.0468    4.7886 N   0  0  0  0  0  0  0  0  0  0  0  0
    0.5031   16.1855    4.4630 C   0  0  0  0  0  0  0  0  0  0  0  0
    1.3258   17.0312    3.7719 N   0  0  0  0  0  0  0  0  0  0  0  0
  1  2  2  0  0  0  0
  1  6  1  0  0  0  0
  2  3  1  0  0  0  0
  3  4  2  0  0  0  0
  4  5  1  0  0  0  0
  4 10  1  0  0  0  0
  5  6  2  0  0  0  0
  5  8  1  0  0  0  0
  6  7  1  0  0  0  0
  8  9  1  0  0  0  0
  9 10  2  0  0  0  0
M  END
>  <CHROM.1>
2.75299341,15.44313606,3.99491609,-0.46873352,0.31669418,-0.43553105

>  <Name>
ligand

>  <RI>
0

>  <Rbt.Current_Directory>
/home/itssahil/PROJECTS/Mol_Feturizer/New_Systems/rnas/4XNR

>  <Rbt.Executable>
rbdock ($Id: //depot/dev/client3/rdock/2013.1/src/exe/rbdock.cxx#4 $)

>  <Rbt.Library>
libRbt.so (2013.1, Build901 2013/11/27)

>  <Rbt.Parameter_File>
/export/apps/rDock/src/rDock_2013.1_src/data/scripts/dock_solv.prm

>  <Rbt.Receptor>
prm/blind_docking_20.prm

>  <SCORE>
-7.96928

>  <SCORE.INTER>
-7.96928

>  <SCORE.INTER.CONST>
1

>  <SCORE.INTER.POLAR>
0

>  <SCORE.INTER.ROT>
0

>  <SCORE.INTER.SOLV>
7.5161

>  <SCORE.INTER.VDW>
-11.4182

>  <SCORE.INTER.norm>
-0.796928

>  <SCORE.INTRA>
0

>  <SCORE.INTRA.DIHEDRAL>
0

>  <SCORE.INTRA.DIHEDRAL.0>
0

>  <SCORE.INTRA.POLAR>
0

>  <SCORE.INTRA.POLAR.0>
0

>  <SCORE.INTRA.REPUL>
0

>  <SCORE.INTRA.REPUL.0>
0

>  <SCORE.INTRA.SOLV>
0

>  <SCORE.INTRA.SOLV.lig_0>
-23.8918

>  <SCORE.INTRA.VDW>
0

>  <SCORE.INTRA.VDW.0>
0

>  <SCORE.INTRA.norm>
0

>  <SCORE.RESTR>
0

>  <SCORE.RESTR.CAVITY>
0

>  <SCORE.RESTR.norm>
0

>  <SCORE.SYSTEM>
0

>  <SCORE.SYSTEM.CONST>
0

>  <SCORE.SYSTEM.DIHEDRAL>
0

>  <SCORE.SYSTEM.SOLV>
0

>  <SCORE.SYSTEM.norm>
0

>  <SCORE.heavy>
10

>  <SCORE.norm>
-0.796928

>  <RMSD>
4.455

$$$$
ligand
 OpenBabel11021811513D
libRbt.so/2013.1/901 2013/11/27
 10 11  0  0  0  0  0  0  0  0999 V2000
    4.5647   14.6585    3.7157 N   0  0  0  0  0  0  0  0  0  0  0  0
    4.6037   15.8598    3.1268 C   0  0  0  0  0  0  0  0  0  0  0  0
    3.6442   16.7793    3.0345 N   0  0  0  0  0  0  0  0  0  0  0  0
    2.5232   16.3607    3.6422 C   0  0  0  0  0  0  0  0  0  0  0  0
    2.3303   15.1549    4.2884 C   0  0  0  0  0  0  0  0  0  0  0  0
    3.4230   14.2661    4.3186 C   0  0  0  0  0  0  0  0  0  0  0  0
    3.3802   13.0673    4.9083 N   0  0  0  0  0  0  0  0  0  0  0  0
    1.0448   15.0707    4.7969 N   0  0  0  0  0  0  0  0  0  0  0  0
    0.4942   16.2103    4.4512 C   0  0  0  0  0  0  0  0  0  0  0  0
    1.3295   17.0367    3.7520 N   0  0  0  0  0  0  0  0  0  0  0  0
  1  2  2  0  0  0  0
  1  6  1  0  0  0  0
  2  3  1  0  0  0  0
  3  4  2  0  0  0  0
  4  5  1  0  0  0  0
  4 10  1  0  0  0  0
  5  6  2  0  0  0  0
  5  8  1  0  0  0  0
  6  7  1  0  0  0  0
  8  9  1  0  0  0  0
  9 10  2  0  0  0  0
M  END
>  <CHROM.1>
2.73829357,15.43692200,4.00637604,-0.48132818,0.31651893,-0.44660956

>  <Name>
ligand

>  <RI>
0

>  <Rbt.Current_Directory>
/home/itssahil/PROJECTS/Mol_Feturizer/New_Systems/rnas/4XNR

>  <Rbt.Executable>
rbdock ($Id: //depot/dev/client3/rdock/2013.1/src/exe/rbdock.cxx#4 $)

>  <Rbt.Library>
libRbt.so (2013.1, Build901 2013/11/27)

>  <Rbt.Parameter_File>
/export/apps/rDock/src/rDock_2013.1_src/data/scripts/dock_solv.prm

>  <Rbt.Receptor>
prm/blind_docking_20.prm

>  <SCORE>
-7.95239

>  <SCORE.INTER>
-7.95239

>  <SCORE.INTER.CONST>
1

>  <SCORE.INTER.POLAR>
0

>  <SCORE.INTER.ROT>
0

>  <SCORE.INTER.SOLV>
7.60548

>  <SCORE.INTER.VDW>
-11.4368

>  <SCORE.INTER.norm>
-0.795239

>  <SCORE.INTRA>
0

>  <SCORE.INTRA.DIHEDRAL>
0

>  <SCORE.INTRA.DIHEDRAL.0>
0

>  <SCORE.INTRA.POLAR>
0

>  <SCORE.INTRA.POLAR.0>
0

>  <SCORE.INTRA.REPUL>
0

>  <SCORE.INTRA.REPUL.0>
0

>  <SCORE.INTRA.SOLV>
0

>  <SCORE.INTRA.SOLV.lig_0>
-23.8918

>  <SCORE.INTRA.VDW>
0

>  <SCORE.INTRA.VDW.0>
0

>  <SCORE.INTRA.norm>
0

>  <SCORE.RESTR>
0

>  <SCORE.RESTR.CAVITY>
0

>  <SCORE.RESTR.norm>
0

>  <SCORE.SYSTEM>
0

>  <SCORE.SYSTEM.CONST>
0

>  <SCORE.SYSTEM.DIHEDRAL>
0

>  <SCORE.SYSTEM.SOLV>
0

>  <SCORE.SYSTEM.norm>
0

>  <SCORE.heavy>
10

>  <SCORE.norm>
-0.795239

>  <RMSD>
4.470

$$$$
ligand
 OpenBabel11021811513D
libRbt.so/2013.1/901 2013/11/27
 10 11  0  0  0  0  0  0  0  0999 V2000
    4.5623   14.6581    3.7675 N   0  0  0  0  0  0  0  0  0  0  0  0
    4.6207   15.8437    3.1492 C   0  0  0  0  0  0  0  0  0  0  0  0
    3.6690   16.7661    3.0141 N   0  0  0  0  0  0  0  0  0  0  0  0
    2.5334   16.3696    3.6093 C   0  0  0  0  0  0  0  0  0  0  0  0
    2.3199   15.1818    4.2819 C   0  0  0  0  0  0  0  0  0  0  0  0
    3.4062   14.2878    4.3568 C   0  0  0  0  0  0  0  0  0  0  0  0
    3.3439   13.1047    4.9758 N   0  0  0  0  0  0  0  0  0  0  0  0
    1.0239   15.1180    4.7660 N   0  0  0  0  0  0  0  0  0  0  0  0
    0.4875   16.2515    4.3804 C   0  0  0  0  0  0  0  0  0  0  0  0
    1.3420   17.0550    3.6776 N   0  0  0  0  0  0  0  0  0  0  0  0
  1  2  2  0  0  0  0
  1  6  1  0  0  0  0
  2  3  1  0  0  0  0
  3  4  2  0  0  0  0
  4  5  1  0  0  0  0
  4 10  1  0  0  0  0
  5  6  2  0  0  0  0
  5  8  1  0  0  0  0
  6  7  1  0  0  0  0
  8  9  1  0  0  0  0
  9 10  2  0  0  0  0
M  END
>  <CHROM.1>
2.73526653,15.45417279,4.00111597,-0.49639486,0.30097887,-0.46747746

>  <Name>
ligand

>  <RI>
0

>  <Rbt.Current_Directory>
/home/itssahil/PROJECTS/Mol_Feturizer/New_Systems/rnas/4XNR

>  <Rbt.Executable>
rbdock ($Id: //depot/dev/client3/rdock/2013.1/src/exe/rbdock.cxx#4 $)

>  <Rbt.Library>
libRbt.so (2013.1, Build901 2013/11/27)

>  <Rbt.Parameter_File>
/export/apps/rDock/src/rDock_2013.1_src/data/scripts/dock_solv.prm

>  <Rbt.Receptor>
prm/blind_docking_60.prm

>  <SCORE>
-7.88997

>  <SCORE.INTER>
-7.88997

>  <SCORE.INTER.CONST>
1

>  <SCORE.INTER.POLAR>
0

>  <SCORE.INTER.ROT>
0

>  <SCORE.INTER.SOLV>
7.79531

>  <SCORE.INTER.VDW>
-11.4584

>  <SCORE.INTER.norm>
-0.788997

>  <SCORE.INTRA>
0

>  <SCORE.INTRA.DIHEDRAL>
0

>  <SCORE.INTRA.DIHEDRAL.0>
0

>  <SCORE.INTRA.POLAR>
0

>  <SCORE.INTRA.POLAR.0>
0

>  <SCORE.INTRA.REPUL>
0

>  <SCORE.INTRA.REPUL.0>
0

>  <SCORE.INTRA.SOLV>
0

>  <SCORE.INTRA.SOLV.lig_0>
-23.8918

>  <SCORE.INTRA.VDW>
0

>  <SCORE.INTRA.VDW.0>
0

>  <SCORE.INTRA.norm>
0

>  <SCORE.RESTR>
0

>  <SCORE.RESTR.CAVITY>
0

>  <SCORE.RESTR.norm>
0

>  <SCORE.SYSTEM>
0

>  <SCORE.SYSTEM.CONST>
0

>  <SCORE.SYSTEM.DIHEDRAL>
0

>  <SCORE.SYSTEM.SOLV>
0

>  <SCORE.SYSTEM.norm>
0

>  <SCORE.heavy>
10

>  <SCORE.norm>
-0.788997

>  <RMSD>
4.472

$$$$
ligand
 OpenBabel11021811513D
libRbt.so/2013.1/901 2013/11/27
 10 11  0  0  0  0  0  0  0  0999 V2000
    1.1350   14.6039    4.6645 N   0  0  0  0  0  0  0  0  0  0  0  0
    0.8778   15.8650    4.2973 C   0  0  0  0  0  0  0  0  0  0  0  0
    1.7068   16.7753    3.7884 N   0  0  0  0  0  0  0  0  0  0  0  0
    2.9449   16.2734    3.6606 C   0  0  0  0  0  0  0  0  0  0  0  0
    3.3625   14.9994    3.9942 C   0  0  0  0  0  0  0  0  0  0  0  0
    2.3899   14.1282    4.5235 C   0  0  0  0  0  0  0  0  0  0  0  0
    2.6508   12.8691    4.8886 N   0  0  0  0  0  0  0  0  0  0  0  0
    4.7110   14.8380    3.7230 N   0  0  0  0  0  0  0  0  0  0  0  0
    5.0763   16.0017    3.2393 C   0  0  0  0  0  0  0  0  0  0  0  0
    4.0608   16.9149    3.1736 N   0  0  0  0  0  0  0  0  0  0  0  0
  1  2  2  0  0  0  0
  1  6  1  0  0  0  0
  2  3  1  0  0  0  0
  3  4  2  0  0  0  0
  4  5  1  0  0  0  0
  4 10  1  0  0  0  0
  5  6  2  0  0  0  0
  5  8  1  0  0  0  0
  6  7  1  0  0  0  0
  8  9  1  0  0  0  0
  9 10  2  0  0  0  0
M  END
>  <CHROM.1>
2.88862929,15.31717970,3.99932971,2.49246257,-0.22429504,2.81389940

>  <Name>
ligand

>  <RI>
0

>  <Rbt.Current_Directory>
/home/itssahil/PROJECTS/Mol_Feturizer/New_Systems/rnas/4XNR

>  <Rbt.Executable>
rbdock ($Id: //depot/dev/client3/rdock/2013.1/src/exe/rbdock.cxx#4 $)

>  <Rbt.Library>
libRbt.so (2013.1, Build901 2013/11/27)

>  <Rbt.Parameter_File>
/export/apps/rDock/src/rDock_2013.1_src/data/scripts/dock_solv.prm

>  <Rbt.Receptor>
prm/blind_docking_20.prm

>  <SCORE>
-9.18135

>  <SCORE.INTER>
-9.18158

>  <SCORE.INTER.CONST>
1

>  <SCORE.INTER.POLAR>
0

>  <SCORE.INTER.ROT>
0

>  <SCORE.INTER.SOLV>
5.67653

>  <SCORE.INTER.VDW>
-11.6132

>  <SCORE.INTER.norm>
-0.918158

>  <SCORE.INTRA>
0

>  <SCORE.INTRA.DIHEDRAL>
0

>  <SCORE.INTRA.DIHEDRAL.0>
0

>  <SCORE.INTRA.POLAR>
0

>  <SCORE.INTRA.POLAR.0>
0

>  <SCORE.INTRA.REPUL>
0

>  <SCORE.INTRA.REPUL.0>
0

>  <SCORE.INTRA.SOLV>
0

>  <SCORE.INTRA.SOLV.lig_0>
-23.8918

>  <SCORE.INTRA.VDW>
0

>  <SCORE.INTRA.VDW.0>
0

>  <SCORE.INTRA.norm>
0

>  <SCORE.RESTR>
0.000232331

>  <SCORE.RESTR.CAVITY>
0.000232331

>  <SCORE.RESTR.norm>
2.32331e-05

>  <SCORE.SYSTEM>
0

>  <SCORE.SYSTEM.CONST>
0

>  <SCORE.SYSTEM.DIHEDRAL>
0

>  <SCORE.SYSTEM.SOLV>
0

>  <SCORE.SYSTEM.norm>
0

>  <SCORE.heavy>
10

>  <SCORE.norm>
-0.918135

>  <RMSD>
4.723

$$$$
ligand
 OpenBabel11021811513D
libRbt.so/2013.1/901 2013/11/27
 10 11  0  0  0  0  0  0  0  0999 V2000
    1.1195   14.5684    4.6440 N   0  0  0  0  0  0  0  0  0  0  0  0
    0.8349   15.8290    4.2955 C   0  0  0  0  0  0  0  0  0  0  0  0
    1.6458   16.7674    3.8095 N   0  0  0  0  0  0  0  0  0  0  0  0
    2.8969   16.2979    3.6846 C   0  0  0  0  0  0  0  0  0  0  0  0
    3.3424   15.0289    4.0008 C   0  0  0  0  0  0  0  0  0  0  0  0
    2.3867   14.1257    4.5066 C   0  0  0  0  0  0  0  0  0  0  0  0
    2.6750   12.8672    4.8530 N   0  0  0  0  0  0  0  0  0  0  0  0
    4.6968   14.9048    3.7392 N   0  0  0  0  0  0  0  0  0  0  0  0
    5.0378   16.0849    3.2783 C   0  0  0  0  0  0  0  0  0  0  0  0
    4.0010   16.9743    3.2185 N   0  0  0  0  0  0  0  0  0  0  0  0
  1  2  2  0  0  0  0
  1  6  1  0  0  0  0
  2  3  1  0  0  0  0
  3  4  2  0  0  0  0
  4  5  1  0  0  0  0
  4 10  1  0  0  0  0
  5  6  2  0  0  0  0
  5  8  1  0  0  0  0
  6  7  1  0  0  0  0
  8  9  1  0  0  0  0
  9 10  2  0  0  0  0
M  END
>  <CHROM.1>
2.86090841,15.33501144,4.00681331,2.47178137,-0.20816157,2.82621978

>  <Name>
ligand

>  <RI>
0

>  <Rbt.Current_Directory>
/home/itssahil/PROJECTS/Mol_Feturizer/New_Systems/rnas/4XNR

>  <Rbt.Executable>
rbdock ($Id: //depot/dev/client3/rdock/2013.1/src/exe/rbdock.cxx#4 $)

>  <Rbt.Library>
libRbt.so (2013.1, Build901 2013/11/27)

>  <Rbt.Parameter_File>
/export/apps/rDock/src/rDock_2013.1_src/data/scripts/dock_solv.prm

>  <Rbt.Receptor>
prm/blind_docking_20.prm

>  <SCORE>
-9.21831

>  <SCORE.INTER>
-9.21831

>  <SCORE.INTER.CONST>
1

>  <SCORE.INTER.POLAR>
0

>  <SCORE.INTER.ROT>
0

>  <SCORE.INTER.SOLV>
5.52364

>  <SCORE.INTER.VDW>
-11.5868

>  <SCORE.INTER.norm>
-0.921831

>  <SCORE.INTRA>
0

>  <SCORE.INTRA.DIHEDRAL>
0

>  <SCORE.INTRA.DIHEDRAL.0>
0

>  <SCORE.INTRA.POLAR>
0

>  <SCORE.INTRA.POLAR.0>
0

>  <SCORE.INTRA.REPUL>
0

>  <SCORE.INTRA.REPUL.0>
0

>  <SCORE.INTRA.SOLV>
0

>  <SCORE.INTRA.SOLV.lig_0>
-23.8918

>  <SCORE.INTRA.VDW>
0

>  <SCORE.INTRA.VDW.0>
0

>  <SCORE.INTRA.norm>
0

>  <SCORE.RESTR>
0

>  <SCORE.RESTR.CAVITY>
0

>  <SCORE.RESTR.norm>
0

>  <SCORE.SYSTEM>
0

>  <SCORE.SYSTEM.CONST>
0

>  <SCORE.SYSTEM.DIHEDRAL>
0

>  <SCORE.SYSTEM.SOLV>
0

>  <SCORE.SYSTEM.norm>
0

>  <SCORE.heavy>
10

>  <SCORE.norm>
-0.921831

>  <RMSD>
4.727

$$$$
ligand
 OpenBabel11021811513D
libRbt.so/2013.1/901 2013/11/27
 10 11  0  0  0  0  0  0  0  0999 V2000
    1.2230   14.4565    4.7304 N   0  0  0  0  0  0  0  0  0  0  0  0
    0.8824   15.7133    4.4210 C   0  0  0  0  0  0  0  0  0  0  0  0
    1.6428   16.6910    3.9306 N   0  0  0  0  0  0  0  0  0  0  0  0
    2.9048   16.2698    3.7536 C   0  0  0  0  0  0  0  0  0  0  0  0
    3.4052   15.0110    4.0251 C   0  0  0  0  0  0  0  0  0  0  0  0
    2.4998   14.0628    4.5410 C   0  0  0  0  0  0  0  0  0  0  0  0
    2.8438   12.8083    4.8481 N   0  0  0  0  0  0  0  0  0  0  0  0
    4.7536   14.9417    3.7162 N   0  0  0  0  0  0  0  0  0  0  0  0
    5.0369   16.1433    3.2720 C   0  0  0  0  0  0  0  0  0  0  0  0
    3.9679   16.9958    3.2673 N   0  0  0  0  0  0  0  0  0  0  0  0
  1  2  2  0  0  0  0
  1  6  1  0  0  0  0
  2  3  1  0  0  0  0
  3  4  2  0  0  0  0
  4  5  1  0  0  0  0
  4 10  1  0  0  0  0
  5  6  2  0  0  0  0
  5  8  1  0  0  0  0
  6  7  1  0  0  0  0
  8  9  1  0  0  0  0
  9 10  2  0  0  0  0
M  END
>  <CHROM.1>
2.91373296,15.29931243,4.05420721,2.42651597,-0.22912645,2.83918602

>  <Name>
ligand

>  <RI>
0

>  <Rbt.Current_Directory>
/home/itssahil/PROJECTS/Mol_Feturizer/New_Systems/rnas/4XNR

>  <Rbt.Executable>
rbdock ($Id: //depot/dev/client3/rdock/2013.1/src/exe/rbdock.cxx#4 $)

>  <Rbt.Library>
libRbt.so (2013.1, Build901 2013/11/27)

>  <Rbt.Parameter_File>
/export/apps/rDock/src/rDock_2013.1_src/data/scripts/dock_solv.prm

>  <Rbt.Receptor>
prm/blind_docking_20.prm

>  <SCORE>
-9.17625

>  <SCORE.INTER>
-9.17625

>  <SCORE.INTER.CONST>
1

>  <SCORE.INTER.POLAR>
0

>  <SCORE.INTER.ROT>
0

>  <SCORE.INTER.SOLV>
5.73376

>  <SCORE.INTER.VDW>
-11.6288

>  <SCORE.INTER.norm>
-0.917625

>  <SCORE.INTRA>
0

>  <SCORE.INTRA.DIHEDRAL>
0

>  <SCORE.INTRA.DIHEDRAL.0>
0

>  <SCORE.INTRA.POLAR>
0

>  <SCORE.INTRA.POLAR.0>
0

>  <SCORE.INTRA.REPUL>
0

>  <SCORE.INTRA.REPUL.0>
0

>  <SCORE.INTRA.SOLV>
0

>  <SCORE.INTRA.SOLV.lig_0>
-23.8918

>  <SCORE.INTRA.VDW>
0

>  <SCORE.INTRA.VDW.0>
0

>  <SCORE.INTRA.norm>
0

>  <SCORE.RESTR>
0

>  <SCORE.RESTR.CAVITY>
0

>  <SCORE.RESTR.norm>
0

>  <SCORE.SYSTEM>
0

>  <SCORE.SYSTEM.CONST>
0

>  <SCORE.SYSTEM.DIHEDRAL>
0

>  <SCORE.SYSTEM.SOLV>
0

>  <SCORE.SYSTEM.norm>
0

>  <SCORE.heavy>
10

>  <SCORE.norm>
-0.917625

>  <RMSD>
4.727

$$$$
ligand
 OpenBabel11021811513D
libRbt.so/2013.1/901 2013/11/27
 10 11  0  0  0  0  0  0  0  0999 V2000
    1.1167   14.5567    4.6560 N   0  0  0  0  0  0  0  0  0  0  0  0
    0.8212   15.8195    4.3252 C   0  0  0  0  0  0  0  0  0  0  0  0
    1.6237   16.7710    3.8505 N   0  0  0  0  0  0  0  0  0  0  0  0
    2.8782   16.3133    3.7169 C   0  0  0  0  0  0  0  0  0  0  0  0
    3.3345   15.0438    4.0149 C   0  0  0  0  0  0  0  0  0  0  0  0
    2.3872   14.1261    4.5102 C   0  0  0  0  0  0  0  0  0  0  0  0
    2.6863   12.8654    4.8389 N   0  0  0  0  0  0  0  0  0  0  0  0
    4.6893   14.9342    3.7491 N   0  0  0  0  0  0  0  0  0  0  0  0
    5.0199   16.1232    3.3037 C   0  0  0  0  0  0  0  0  0  0  0  0
    3.9759   17.0049    3.2580 N   0  0  0  0  0  0  0  0  0  0  0  0
  1  2  2  0  0  0  0
  1  6  1  0  0  0  0
  2  3  1  0  0  0  0
  3  4  2  0  0  0  0
  4  5  1  0  0  0  0
  4 10  1  0  0  0  0
  5  6  2  0  0  0  0
  5  8  1  0  0  0  0
  6  7  1  0  0  0  0
  8  9  1  0  0  0  0
  9 10  2  0  0  0  0
M  END
>  <CHROM.1>
2.85061376,15.34587550,4.02603702,2.46332821,-0.20755327,2.83805885

>  <Name>
ligand

>  <RI>
0

>  <Rbt.Current_Directory>
/home/itssahil/PROJECTS/Mol_Feturizer/New_Systems/rnas/4XNR

>  <Rbt.Executable>
rbdock ($Id: //depot/dev/client3/rdock/2013.1/src/exe/rbdock.cxx#4 $)

>  <Rbt.Library>
libRbt.so (2013.1, Build901 2013/11/27)

>  <Rbt.Parameter_File>
/export/apps/rDock/src/rDock_2013.1_src/data/scripts/dock_solv.prm

>  <Rbt.Receptor>
prm/blind_docking_20.prm

>  <SCORE>
-9.22945

>  <SCORE.INTER>
-9.23006

>  <SCORE.INTER.CONST>
1

>  <SCORE.INTER.POLAR>
0

>  <SCORE.INTER.ROT>
0

>  <SCORE.INTER.SOLV>
5.48545

>  <SCORE.INTER.VDW>
-11.5819

>  <SCORE.INTER.norm>
-0.923006

>  <SCORE.INTRA>
0

>  <SCORE.INTRA.DIHEDRAL>
0

>  <SCORE.INTRA.DIHEDRAL.0>
0

>  <SCORE.INTRA.POLAR>
0

>  <SCORE.INTRA.POLAR.0>
0

>  <SCORE.INTRA.REPUL>
0

>  <SCORE.INTRA.REPUL.0>
0

>  <SCORE.INTRA.SOLV>
0

>  <SCORE.INTRA.SOLV.lig_0>
-23.8918

>  <SCORE.INTRA.VDW>
0

>  <SCORE.INTRA.VDW.0>
0

>  <SCORE.INTRA.norm>
0

>  <SCORE.RESTR>
0.000602693

>  <SCORE.RESTR.CAVITY>
0.000602693

>  <SCORE.RESTR.norm>
6.02693e-05

>  <SCORE.SYSTEM>
0

>  <SCORE.SYSTEM.CONST>
0

>  <SCORE.SYSTEM.DIHEDRAL>
0

>  <SCORE.SYSTEM.SOLV>
0

>  <SCORE.SYSTEM.norm>
0

>  <SCORE.heavy>
10

>  <SCORE.norm>
-0.922945

>  <RMSD>
4.728

$$$$
ligand
 OpenBabel11021811513D
libRbt.so/2013.1/901 2013/11/27
 10 11  0  0  0  0  0  0  0  0999 V2000
    1.1143   14.5719    4.6511 N   0  0  0  0  0  0  0  0  0  0  0  0
    0.8306   15.8332    4.3045 C   0  0  0  0  0  0  0  0  0  0  0  0
    1.6419   16.7712    3.8182 N   0  0  0  0  0  0  0  0  0  0  0  0
    2.8922   16.3003    3.6907 C   0  0  0  0  0  0  0  0  0  0  0  0
    3.3367   15.0305    4.0047 C   0  0  0  0  0  0  0  0  0  0  0  0
    2.3808   14.1278    4.5111 C   0  0  0  0  0  0  0  0  0  0  0  0
    2.6681   12.8686    4.8556 N   0  0  0  0  0  0  0  0  0  0  0  0
    4.6905   14.9050    3.7407 N   0  0  0  0  0  0  0  0  0  0  0  0
    5.0322   16.0852    3.2806 C   0  0  0  0  0  0  0  0  0  0  0  0
    3.9964   16.9759    3.2235 N   0  0  0  0  0  0  0  0  0  0  0  0
  1  2  2  0  0  0  0
  1  6  1  0  0  0  0
  2  3  1  0  0  0  0
  3  4  2  0  0  0  0
  4  5  1  0  0  0  0
  4 10  1  0  0  0  0
  5  6  2  0  0  0  0
  5  8  1  0  0  0  0
  6  7  1  0  0  0  0
  8  9  1  0  0  0  0
  9 10  2  0  0  0  0
M  END
>  <CHROM.1>
2.85560423,15.33709803,4.01187535,2.47243010,-0.21012287,2.82748015

>  <Name>
ligand

>  <RI>
0

>  <Rbt.Current_Directory>
/home/itssahil/PROJECTS/Mol_Feturizer/New_Systems/rnas/4XNR

>  <Rbt.Executable>
rbdock ($Id: //depot/dev/client3/rdock/2013.1/src/exe/rbdock.cxx#4 $)

>  <Rbt.Library>
libRbt.so (2013.1, Build901 2013/11/27)

>  <Rbt.Parameter_File>
/export/apps/rDock/src/rDock_2013.1_src/data/scripts/dock_solv.prm

>  <Rbt.Receptor>
prm/blind_docking_20.prm

>  <SCORE>
-9.21754

>  <SCORE.INTER>
-9.21754

>  <SCORE.INTER.CONST>
1

>  <SCORE.INTER.POLAR>
0

>  <SCORE.INTER.ROT>
0

>  <SCORE.INTER.SOLV>
5.53274

>  <SCORE.INTER.VDW>
-11.5893

>  <SCORE.INTER.norm>
-0.921754

>  <SCORE.INTRA>
0

>  <SCORE.INTRA.DIHEDRAL>
0

>  <SCORE.INTRA.DIHEDRAL.0>
0

>  <SCORE.INTRA.POLAR>
0

>  <SCORE.INTRA.POLAR.0>
0

>  <SCORE.INTRA.REPUL>
0

>  <SCORE.INTRA.REPUL.0>
0

>  <SCORE.INTRA.SOLV>
0

>  <SCORE.INTRA.SOLV.lig_0>
-23.8918

>  <SCORE.INTRA.VDW>
0

>  <SCORE.INTRA.VDW.0>
0

>  <SCORE.INTRA.norm>
0

>  <SCORE.RESTR>
0

>  <SCORE.RESTR.CAVITY>
0

>  <SCORE.RESTR.norm>
0

>  <SCORE.SYSTEM>
0

>  <SCORE.SYSTEM.CONST>
0

>  <SCORE.SYSTEM.DIHEDRAL>
0

>  <SCORE.SYSTEM.SOLV>
0

>  <SCORE.SYSTEM.norm>
0

>  <SCORE.heavy>
10

>  <SCORE.norm>
-0.921754

>  <RMSD>
4.730

$$$$
ligand
 OpenBabel11021811513D
libRbt.so/2013.1/901 2013/11/27
 10 11  0  0  0  0  0  0  0  0999 V2000
    1.1247   14.5690    4.6620 N   0  0  0  0  0  0  0  0  0  0  0  0
    0.8415   15.8273    4.3044 C   0  0  0  0  0  0  0  0  0  0  0  0
    1.6515   16.7583    3.8025 N   0  0  0  0  0  0  0  0  0  0  0  0
    2.8997   16.2831    3.6709 C   0  0  0  0  0  0  0  0  0  0  0  0
    3.3435   15.0155    3.9949 C   0  0  0  0  0  0  0  0  0  0  0  0
    2.3892   14.1204    4.5175 C   0  0  0  0  0  0  0  0  0  0  0  0
    2.6760   12.8642    4.8730 N   0  0  0  0  0  0  0  0  0  0  0  0
    4.6950   14.8840    3.7225 N   0  0  0  0  0  0  0  0  0  0  0  0
    5.0361   16.0586    3.2476 C   0  0  0  0  0  0  0  0  0  0  0  0
    4.0020   16.9511    3.1888 N   0  0  0  0  0  0  0  0  0  0  0  0
  1  2  2  0  0  0  0
  1  6  1  0  0  0  0
  2  3  1  0  0  0  0
  3  4  2  0  0  0  0
  4  5  1  0  0  0  0
  4 10  1  0  0  0  0
  5  6  2  0  0  0  0
  5  8  1  0  0  0  0
  6  7  1  0  0  0  0
  8  9  1  0  0  0  0
  9 10  2  0  0  0  0
M  END
>  <CHROM.1>
2.86316361,15.32333375,4.00234543,2.47240366,-0.21771494,2.81707876

>  <Name>
ligand

>  <RI>
0

>  <Rbt.Current_Directory>
/home/itssahil/PROJECTS/Mol_Feturizer/New_Systems/rnas/4XNR

>  <Rbt.Executable>
rbdock ($Id: //depot/dev/client3/rdock/2013.1/src/exe/rbdock.cxx#4 $)

>  <Rbt.Library>
libRbt.so (2013.1, Build901 2013/11/27)

>  <Rbt.Parameter_File>
/export/apps/rDock/src/rDock_2013.1_src/data/scripts/dock_solv.prm

>  <Rbt.Receptor>
prm/blind_docking_20.prm

>  <SCORE>
-9.23154

>  <SCORE.INTER>
-9.23169

>  <SCORE.INTER.CONST>
1

>  <SCORE.INTER.POLAR>
0

>  <SCORE.INTER.ROT>
0

>  <SCORE.INTER.SOLV>
5.62751

>  <SCORE.INTER.VDW>
-11.6303

>  <SCORE.INTER.norm>
-0.923169

>  <SCORE.INTRA>
0

>  <SCORE.INTRA.DIHEDRAL>
0

>  <SCORE.INTRA.DIHEDRAL.0>
0

>  <SCORE.INTRA.POLAR>
0

>  <SCORE.INTRA.POLAR.0>
0

>  <SCORE.INTRA.REPUL>
0

>  <SCORE.INTRA.REPUL.0>
0

>  <SCORE.INTRA.SOLV>
0

>  <SCORE.INTRA.SOLV.lig_0>
-23.8918

>  <SCORE.INTRA.VDW>
0

>  <SCORE.INTRA.VDW.0>
0

>  <SCORE.INTRA.norm>
0

>  <SCORE.RESTR>
0.000146437

>  <SCORE.RESTR.CAVITY>
0.000146437

>  <SCORE.RESTR.norm>
1.46437e-05

>  <SCORE.SYSTEM>
0

>  <SCORE.SYSTEM.CONST>
0

>  <SCORE.SYSTEM.DIHEDRAL>
0

>  <SCORE.SYSTEM.SOLV>
0

>  <SCORE.SYSTEM.norm>
0

>  <SCORE.heavy>
10

>  <SCORE.norm>
-0.923154

>  <RMSD>
4.737

$$$$
ligand
 OpenBabel11021811513D
libRbt.so/2013.1/901 2013/11/27
 10 11  0  0  0  0  0  0  0  0999 V2000
    1.1215   14.5730    4.6675 N   0  0  0  0  0  0  0  0  0  0  0  0
    0.8403   15.8311    4.3077 C   0  0  0  0  0  0  0  0  0  0  0  0
    1.6515   16.7596    3.8031 N   0  0  0  0  0  0  0  0  0  0  0  0
    2.8987   16.2818    3.6712 C   0  0  0  0  0  0  0  0  0  0  0  0
    3.3404   15.0140    3.9972 C   0  0  0  0  0  0  0  0  0  0  0  0
    2.3850   14.1217    4.5226 C   0  0  0  0  0  0  0  0  0  0  0  0
    2.6698   12.8657    4.8803 N   0  0  0  0  0  0  0  0  0  0  0  0
    4.6915   14.8794    3.7237 N   0  0  0  0  0  0  0  0  0  0  0  0
    5.0343   16.0524    3.2462 C   0  0  0  0  0  0  0  0  0  0  0  0
    4.0018   16.9468    3.1867 N   0  0  0  0  0  0  0  0  0  0  0  0
  1  2  2  0  0  0  0
  1  6  1  0  0  0  0
  2  3  1  0  0  0  0
  3  4  2  0  0  0  0
  4  5  1  0  0  0  0
  4 10  1  0  0  0  0
  5  6  2  0  0  0  0
  5  8  1  0  0  0  0
  6  7  1  0  0  0  0
  8  9  1  0  0  0  0
  9 10  2  0  0  0  0
M  END
>  <CHROM.1>
2.86070498,15.32274925,4.00457207,2.47390560,-0.21928718,2.81544202

>  <Name>
ligand

>  <RI>
0

>  <Rbt.Current_Directory>
/home/itssahil/PROJECTS/Mol_Feturizer/New_Systems/rnas/4XNR

>  <Rbt.Executable>
rbdock ($Id: //depot/dev/client3/rdock/2013.1/src/exe/rbdock.cxx#4 $)

>  <Rbt.Library>
libRbt.so (2013.1, Build901 2013/11/27)

>  <Rbt.Parameter_File>
/export/apps/rDock/src/rDock_2013.1_src/data/scripts/dock_solv.prm

>  <Rbt.Receptor>
prm/blind_docking_20.prm

>  <SCORE>
-9.22928

>  <SCORE.INTER>
-9.22928

>  <SCORE.INTER.CONST>
1

>  <SCORE.INTER.POLAR>
0

>  <SCORE.INTER.ROT>
0

>  <SCORE.INTER.SOLV>
5.6562

>  <SCORE.INTER.VDW>
-11.6382

>  <SCORE.INTER.norm>
-0.922928

>  <SCORE.INTRA>
0

>  <SCORE.INTRA.DIHEDRAL>
0

>  <SCORE.INTRA.DIHEDRAL.0>
0

>  <SCORE.INTRA.POLAR>
0

>  <SCORE.INTRA.POLAR.0>
0

>  <SCORE.INTRA.REPUL>
0

>  <SCORE.INTRA.REPUL.0>
0

>  <SCORE.INTRA.SOLV>
0

>  <SCORE.INTRA.SOLV.lig_0>
-23.8918

>  <SCORE.INTRA.VDW>
0

>  <SCORE.INTRA.VDW.0>
0

>  <SCORE.INTRA.norm>
0

>  <SCORE.RESTR>
0

>  <SCORE.RESTR.CAVITY>
0

>  <SCORE.RESTR.norm>
0

>  <SCORE.SYSTEM>
0

>  <SCORE.SYSTEM.CONST>
0

>  <SCORE.SYSTEM.DIHEDRAL>
0

>  <SCORE.SYSTEM.SOLV>
0

>  <SCORE.SYSTEM.norm>
0

>  <SCORE.heavy>
10

>  <SCORE.norm>
-0.922928

>  <RMSD>
4.739

$$$$
ligand
 OpenBabel11021811513D
libRbt.so/2013.1/901 2013/11/27
 10 11  0  0  0  0  0  0  0  0999 V2000
    1.1261   14.5671    4.6678 N   0  0  0  0  0  0  0  0  0  0  0  0
    0.8434   15.8240    4.3050 C   0  0  0  0  0  0  0  0  0  0  0  0
    1.6538   16.7528    3.7998 N   0  0  0  0  0  0  0  0  0  0  0  0
    2.9020   16.2768    3.6708 C   0  0  0  0  0  0  0  0  0  0  0  0
    3.3453   15.0104    4.0000 C   0  0  0  0  0  0  0  0  0  0  0  0
    2.3905   14.1176    4.5257 C   0  0  0  0  0  0  0  0  0  0  0  0
    2.6769   12.8627    4.8863 N   0  0  0  0  0  0  0  0  0  0  0  0
    4.6970   14.8775    3.7289 N   0  0  0  0  0  0  0  0  0  0  0  0
    5.0386   16.0501    3.2496 C   0  0  0  0  0  0  0  0  0  0  0  0
    4.0048   16.9427    3.1867 N   0  0  0  0  0  0  0  0  0  0  0  0
  1  2  2  0  0  0  0
  1  6  1  0  0  0  0
  2  3  1  0  0  0  0
  3  4  2  0  0  0  0
  4  5  1  0  0  0  0
  4 10  1  0  0  0  0
  5  6  2  0  0  0  0
  5  8  1  0  0  0  0
  6  7  1  0  0  0  0
  8  9  1  0  0  0  0
  9 10  2  0  0  0  0
M  END
>  <CHROM.1>
2.86505584,15.31836601,4.00603044,2.47282186,-0.21727850,2.81322375

>  <Name>
ligand

>  <RI>
0

>  <Rbt.Current_Directory>
/home/itssahil/PROJECTS/Mol_Feturizer/New_Systems/rnas/4XNR

>  <Rbt.Executable>
rbdock ($Id: //depot/dev/client3/rdock/2013.1/src/exe/rbdock.cxx#4 $)

>  <Rbt.Library>
libRbt.so (2013.1, Build901 2013/11/27)

>  <Rbt.Parameter_File>
/export/apps/rDock/src/rDock_2013.1_src/data/scripts/dock_solv.prm

>  <Rbt.Receptor>
prm/blind_docking_20.prm

>  <SCORE>
-9.22749

>  <SCORE.INTER>
-9.22749

>  <SCORE.INTER.CONST>
1

>  <SCORE.INTER.POLAR>
0

>  <SCORE.INTER.ROT>
0

>  <SCORE.INTER.SOLV>
5.68497

>  <SCORE.INTER.VDW>
-11.6467

>  <SCORE.INTER.norm>
-0.922749

>  <SCORE.INTRA>
0

>  <SCORE.INTRA.DIHEDRAL>
0

>  <SCORE.INTRA.DIHEDRAL.0>
0

>  <SCORE.INTRA.POLAR>
0

>  <SCORE.INTRA.POLAR.0>
0

>  <SCORE.INTRA.REPUL>
0

>  <SCORE.INTRA.REPUL.0>
0

>  <SCORE.INTRA.SOLV>
0

>  <SCORE.INTRA.SOLV.lig_0>
-23.8918

>  <SCORE.INTRA.VDW>
0

>  <SCORE.INTRA.VDW.0>
0

>  <SCORE.INTRA.norm>
0

>  <SCORE.RESTR>
0

>  <SCORE.RESTR.CAVITY>
0

>  <SCORE.RESTR.norm>
0

>  <SCORE.SYSTEM>
0

>  <SCORE.SYSTEM.CONST>
0

>  <SCORE.SYSTEM.DIHEDRAL>
0

>  <SCORE.SYSTEM.SOLV>
0

>  <SCORE.SYSTEM.norm>
0

>  <SCORE.heavy>
10

>  <SCORE.norm>
-0.922749

>  <RMSD>
4.739

$$$$
ligand
 OpenBabel11021811513D
libRbt.so/2013.1/901 2013/11/27
 10 11  0  0  0  0  0  0  0  0999 V2000
    1.1638   14.5344    4.7134 N   0  0  0  0  0  0  0  0  0  0  0  0
    0.8573   15.7932    4.3778 C   0  0  0  0  0  0  0  0  0  0  0  0
    1.6440   16.7398    3.8681 N   0  0  0  0  0  0  0  0  0  0  0  0
    2.8942   16.2814    3.7014 C   0  0  0  0  0  0  0  0  0  0  0  0
    3.3606   15.0155    3.9995 C   0  0  0  0  0  0  0  0  0  0  0  0
    2.4296   14.1028    4.5337 C   0  0  0  0  0  0  0  0  0  0  0  0
    2.7397   12.8461    4.8671 N   0  0  0  0  0  0  0  0  0  0  0  0
    4.7068   14.9037    3.6937 N   0  0  0  0  0  0  0  0  0  0  0  0
    5.0225   16.0878    3.2251 C   0  0  0  0  0  0  0  0  0  0  0  0
    3.9768   16.9684    3.2015 N   0  0  0  0  0  0  0  0  0  0  0  0
  1  2  2  0  0  0  0
  1  6  1  0  0  0  0
  2  3  1  0  0  0  0
  3  4  2  0  0  0  0
  4  5  1  0  0  0  0
  4 10  1  0  0  0  0
  5  6  2  0  0  0  0
  5  8  1  0  0  0  0
  6  7  1  0  0  0  0
  8  9  1  0  0  0  0
  9 10  2  0  0  0  0
M  END
>  <CHROM.1>
2.87697804,15.31744592,4.02201352,2.45307009,-0.23641788,2.82465159

>  <Name>
ligand

>  <RI>
0

>  <Rbt.Current_Directory>
/home/itssahil/PROJECTS/Mol_Feturizer/New_Systems/rnas/4XNR

>  <Rbt.Executable>
rbdock ($Id: //depot/dev/client3/rdock/2013.1/src/exe/rbdock.cxx#4 $)

>  <Rbt.Library>
libRbt.so (2013.1, Build901 2013/11/27)

>  <Rbt.Parameter_File>
/export/apps/rDock/src/rDock_2013.1_src/data/scripts/dock_solv.prm

>  <Rbt.Receptor>
prm/blind_docking_20.prm

>  <SCORE>
-9.17504

>  <SCORE.INTER>
-9.17504

>  <SCORE.INTER.CONST>
1

>  <SCORE.INTER.POLAR>
0

>  <SCORE.INTER.ROT>
0

>  <SCORE.INTER.SOLV>
5.72574

>  <SCORE.INTER.VDW>
-11.6253

>  <SCORE.INTER.norm>
-0.917504

>  <SCORE.INTRA>
0

>  <SCORE.INTRA.DIHEDRAL>
0

>  <SCORE.INTRA.DIHEDRAL.0>
0

>  <SCORE.INTRA.POLAR>
0

>  <SCORE.INTRA.POLAR.0>
0

>  <SCORE.INTRA.REPUL>
0

>  <SCORE.INTRA.REPUL.0>
0

>  <SCORE.INTRA.SOLV>
0

>  <SCORE.INTRA.SOLV.lig_0>
-23.8918

>  <SCORE.INTRA.VDW>
0

>  <SCORE.INTRA.VDW.0>
0

>  <SCORE.INTRA.norm>
0

>  <SCORE.RESTR>
0

>  <SCORE.RESTR.CAVITY>
0

>  <SCORE.RESTR.norm>
0

>  <SCORE.SYSTEM>
0

>  <SCORE.SYSTEM.CONST>
0

>  <SCORE.SYSTEM.DIHEDRAL>
0

>  <SCORE.SYSTEM.SOLV>
0

>  <SCORE.SYSTEM.norm>
0

>  <SCORE.heavy>
10

>  <SCORE.norm>
-0.917504

>  <RMSD>
4.741

$$$$
ligand
 OpenBabel11021811513D
libRbt.so/2013.1/901 2013/11/27
 10 11  0  0  0  0  0  0  0  0999 V2000
    1.1244   14.5697    4.6694 N   0  0  0  0  0  0  0  0  0  0  0  0
    0.8418   15.8265    4.3063 C   0  0  0  0  0  0  0  0  0  0  0  0
    1.6518   16.7543    3.7984 N   0  0  0  0  0  0  0  0  0  0  0  0
    2.8993   16.2771    3.6667 C   0  0  0  0  0  0  0  0  0  0  0  0
    3.3423   15.0106    3.9958 C   0  0  0  0  0  0  0  0  0  0  0  0
    2.3881   14.1190    4.5245 C   0  0  0  0  0  0  0  0  0  0  0  0
    2.6743   12.8642    4.8855 N   0  0  0  0  0  0  0  0  0  0  0  0
    4.6932   14.8764    3.7215 N   0  0  0  0  0  0  0  0  0  0  0  0
    5.0347   16.0483    3.2404 C   0  0  0  0  0  0  0  0  0  0  0  0
    4.0014   16.9417    3.1793 N   0  0  0  0  0  0  0  0  0  0  0  0
  1  2  2  0  0  0  0
  1  6  1  0  0  0  0
  2  3  1  0  0  0  0
  3  4  2  0  0  0  0
  4  5  1  0  0  0  0
  4 10  1  0  0  0  0
  5  6  2  0  0  0  0
  5  8  1  0  0  0  0
  6  7  1  0  0  0  0
  8  9  1  0  0  0  0
  9 10  2  0  0  0  0
M  END
>  <CHROM.1>
2.86235985,15.31897990,4.00275894,2.47281071,-0.21987169,2.81241363

>  <Name>
ligand

>  <RI>
0

>  <Rbt.Current_Directory>
/home/itssahil/PROJECTS/Mol_Feturizer/New_Systems/rnas/4XNR

>  <Rbt.Executable>
rbdock ($Id: //depot/dev/client3/rdock/2013.1/src/exe/rbdock.cxx#4 $)

>  <Rbt.Library>
libRbt.so (2013.1, Build901 2013/11/27)

>  <Rbt.Parameter_File>
/export/apps/rDock/src/rDock_2013.1_src/data/scripts/dock_solv.prm

>  <Rbt.Receptor>
prm/blind_docking_20.prm

>  <SCORE>
-9.22672

>  <SCORE.INTER>
-9.22672

>  <SCORE.INTER.CONST>
1

>  <SCORE.INTER.POLAR>
0

>  <SCORE.INTER.ROT>
0

>  <SCORE.INTER.SOLV>
5.68449

>  <SCORE.INTER.VDW>
-11.646

>  <SCORE.INTER.norm>
-0.922672

>  <SCORE.INTRA>
0

>  <SCORE.INTRA.DIHEDRAL>
0

>  <SCORE.INTRA.DIHEDRAL.0>
0

>  <SCORE.INTRA.POLAR>
0

>  <SCORE.INTRA.POLAR.0>
0

>  <SCORE.INTRA.REPUL>
0

>  <SCORE.INTRA.REPUL.0>
0

>  <SCORE.INTRA.SOLV>
0

>  <SCORE.INTRA.SOLV.lig_0>
-23.8918

>  <SCORE.INTRA.VDW>
0

>  <SCORE.INTRA.VDW.0>
0

>  <SCORE.INTRA.norm>
0

>  <SCORE.RESTR>
0

>  <SCORE.RESTR.CAVITY>
0

>  <SCORE.RESTR.norm>
0

>  <SCORE.SYSTEM>
0

>  <SCORE.SYSTEM.CONST>
0

>  <SCORE.SYSTEM.DIHEDRAL>
0

>  <SCORE.SYSTEM.SOLV>
0

>  <SCORE.SYSTEM.norm>
0

>  <SCORE.heavy>
10

>  <SCORE.norm>
-0.922672

>  <RMSD>
4.741

$$$$
ligand
 OpenBabel11021811513D
libRbt.so/2013.1/901 2013/11/27
 10 11  0  0  0  0  0  0  0  0999 V2000
    1.1175   14.5765    4.6667 N   0  0  0  0  0  0  0  0  0  0  0  0
    0.8388   15.8341    4.3034 C   0  0  0  0  0  0  0  0  0  0  0  0
    1.6518   16.7597    3.7966 N   0  0  0  0  0  0  0  0  0  0  0  0
    2.8981   16.2792    3.6662 C   0  0  0  0  0  0  0  0  0  0  0  0
    3.3373   15.0114    3.9957 C   0  0  0  0  0  0  0  0  0  0  0  0
    2.3801   14.1224    4.5233 C   0  0  0  0  0  0  0  0  0  0  0  0
    2.6625   12.8668    4.8843 N   0  0  0  0  0  0  0  0  0  0  0  0
    4.6882   14.8736    3.7228 N   0  0  0  0  0  0  0  0  0  0  0  0
    5.0333   16.0446    3.2423 C   0  0  0  0  0  0  0  0  0  0  0  0
    4.0026   16.9408    3.1801 N   0  0  0  0  0  0  0  0  0  0  0  0
  1  2  2  0  0  0  0
  1  6  1  0  0  0  0
  2  3  1  0  0  0  0
  3  4  2  0  0  0  0
  4  5  1  0  0  0  0
  4 10  1  0  0  0  0
  5  6  2  0  0  0  0
  5  8  1  0  0  0  0
  6  7  1  0  0  0  0
  8  9  1  0  0  0  0
  9 10  2  0  0  0  0
M  END
>  <CHROM.1>
2.85822047,15.32113748,4.00212497,2.47582144,-0.21970543,2.81318526

>  <Name>
ligand

>  <RI>
0

>  <Rbt.Current_Directory>
/home/itssahil/PROJECTS/Mol_Feturizer/New_Systems/rnas/4XNR

>  <Rbt.Executable>
rbdock ($Id: //depot/dev/client3/rdock/2013.1/src/exe/rbdock.cxx#4 $)

>  <Rbt.Library>
libRbt.so (2013.1, Build901 2013/11/27)

>  <Rbt.Parameter_File>
/export/apps/rDock/src/rDock_2013.1_src/data/scripts/dock_solv.prm

>  <Rbt.Receptor>
prm/blind_docking_20.prm

>  <SCORE>
-9.22611

>  <SCORE.INTER>
-9.22611

>  <SCORE.INTER.CONST>
1

>  <SCORE.INTER.POLAR>
0

>  <SCORE.INTER.ROT>
0

>  <SCORE.INTER.SOLV>
5.66353

>  <SCORE.INTER.VDW>
-11.6386

>  <SCORE.INTER.norm>
-0.922611

>  <SCORE.INTRA>
0

>  <SCORE.INTRA.DIHEDRAL>
0

>  <SCORE.INTRA.DIHEDRAL.0>
0

>  <SCORE.INTRA.POLAR>
0

>  <SCORE.INTRA.POLAR.0>
0

>  <SCORE.INTRA.REPUL>
0

>  <SCORE.INTRA.REPUL.0>
0

>  <SCORE.INTRA.SOLV>
0

>  <SCORE.INTRA.SOLV.lig_0>
-23.8918

>  <SCORE.INTRA.VDW>
0

>  <SCORE.INTRA.VDW.0>
0

>  <SCORE.INTRA.norm>
0

>  <SCORE.RESTR>
0

>  <SCORE.RESTR.CAVITY>
0

>  <SCORE.RESTR.norm>
0

>  <SCORE.SYSTEM>
0

>  <SCORE.SYSTEM.CONST>
0

>  <SCORE.SYSTEM.DIHEDRAL>
0

>  <SCORE.SYSTEM.SOLV>
0

>  <SCORE.SYSTEM.norm>
0

>  <SCORE.heavy>
10

>  <SCORE.norm>
-0.922611

>  <RMSD>
4.742

$$$$
ligand
 OpenBabel11021811513D
libRbt.so/2013.1/901 2013/11/27
 10 11  0  0  0  0  0  0  0  0999 V2000
    1.1144   14.5837    4.6517 N   0  0  0  0  0  0  0  0  0  0  0  0
    0.8332   15.8436    4.2979 C   0  0  0  0  0  0  0  0  0  0  0  0
    1.6424   16.7716    3.7893 N   0  0  0  0  0  0  0  0  0  0  0  0
    2.8873   16.2911    3.6456 C   0  0  0  0  0  0  0  0  0  0  0  0
    3.3286   15.0213    3.9641 C   0  0  0  0  0  0  0  0  0  0  0  0
    2.3754   14.1298    4.4948 C   0  0  0  0  0  0  0  0  0  0  0  0
    2.6602   12.8720    4.8463 N   0  0  0  0  0  0  0  0  0  0  0  0
    4.6770   14.8843    3.6788 N   0  0  0  0  0  0  0  0  0  0  0  0
    5.0187   16.0579    3.2020 C   0  0  0  0  0  0  0  0  0  0  0  0
    3.9879   16.9550    3.1538 N   0  0  0  0  0  0  0  0  0  0  0  0
  1  2  2  0  0  0  0
  1  6  1  0  0  0  0
  2  3  1  0  0  0  0
  3  4  2  0  0  0  0
  4  5  1  0  0  0  0
  4 10  1  0  0  0  0
  5  6  2  0  0  0  0
  5  8  1  0  0  0  0
  6  7  1  0  0  0  0
  8  9  1  0  0  0  0
  9 10  2  0  0  0  0
M  END
>  <CHROM.1>
2.84975268,15.33123575,3.97639134,2.47353258,-0.22800580,2.81833702

>  <Name>
ligand

>  <RI>
0

>  <Rbt.Current_Directory>
/home/itssahil/PROJECTS/Mol_Feturizer/New_Systems/rnas/4XNR

>  <Rbt.Executable>
rbdock ($Id: //depot/dev/client3/rdock/2013.1/src/exe/rbdock.cxx#4 $)

>  <Rbt.Library>
libRbt.so (2013.1, Build901 2013/11/27)

>  <Rbt.Parameter_File>
/export/apps/rDock/src/rDock_2013.1_src/data/scripts/dock_solv.prm

>  <Rbt.Receptor>
prm/blind_docking_20.prm

>  <SCORE>
-9.22423

>  <SCORE.INTER>
-9.22423

>  <SCORE.INTER.CONST>
1

>  <SCORE.INTER.POLAR>
0

>  <SCORE.INTER.ROT>
0

>  <SCORE.INTER.SOLV>
5.51196

>  <SCORE.INTER.VDW>
-11.5868

>  <SCORE.INTER.norm>
-0.922423

>  <SCORE.INTRA>
0

>  <SCORE.INTRA.DIHEDRAL>
0

>  <SCORE.INTRA.DIHEDRAL.0>
0

>  <SCORE.INTRA.POLAR>
0

>  <SCORE.INTRA.POLAR.0>
0

>  <SCORE.INTRA.REPUL>
0

>  <SCORE.INTRA.REPUL.0>
0

>  <SCORE.INTRA.SOLV>
0

>  <SCORE.INTRA.SOLV.lig_0>
-23.8918

>  <SCORE.INTRA.VDW>
0

>  <SCORE.INTRA.VDW.0>
0

>  <SCORE.INTRA.norm>
0

>  <SCORE.RESTR>
0

>  <SCORE.RESTR.CAVITY>
0

>  <SCORE.RESTR.norm>
0

>  <SCORE.SYSTEM>
0

>  <SCORE.SYSTEM.CONST>
0

>  <SCORE.SYSTEM.DIHEDRAL>
0

>  <SCORE.SYSTEM.SOLV>
0

>  <SCORE.SYSTEM.norm>
0

>  <SCORE.heavy>
10

>  <SCORE.norm>
-0.922423

>  <RMSD>
4.744

$$$$
ligand
 OpenBabel11021811513D
libRbt.so/2013.1/901 2013/11/27
 10 11  0  0  0  0  0  0  0  0999 V2000
    1.1098   14.5830    4.6784 N   0  0  0  0  0  0  0  0  0  0  0  0
    0.8339   15.8410    4.3142 C   0  0  0  0  0  0  0  0  0  0  0  0
    1.6487   16.7640    3.8055 N   0  0  0  0  0  0  0  0  0  0  0  0
    2.8936   16.2802    3.6743 C   0  0  0  0  0  0  0  0  0  0  0  0
    3.3300   15.0117    4.0045 C   0  0  0  0  0  0  0  0  0  0  0  0
    2.3711   14.1256    4.5340 C   0  0  0  0  0  0  0  0  0  0  0  0
    2.6508   12.8696    4.8960 N   0  0  0  0  0  0  0  0  0  0  0  0
    4.6802   14.8702    3.7303 N   0  0  0  0  0  0  0  0  0  0  0  0
    5.0278   16.0398    3.2483 C   0  0  0  0  0  0  0  0  0  0  0  0
    3.9993   16.9386    3.1864 N   0  0  0  0  0  0  0  0  0  0  0  0
  1  2  2  0  0  0  0
  1  6  1  0  0  0  0
  2  3  1  0  0  0  0
  3  4  2  0  0  0  0
  4  5  1  0  0  0  0
  4 10  1  0  0  0  0
  5  6  2  0  0  0  0
  5  8  1  0  0  0  0
  6  7  1  0  0  0  0
  8  9  1  0  0  0  0
  9 10  2  0  0  0  0
M  END
>  <CHROM.1>
2.85170914,15.32258597,4.01117605,2.47790568,-0.22153789,2.81266784

>  <Name>
ligand

>  <RI>
0

>  <Rbt.Current_Directory>
/home/itssahil/PROJECTS/Mol_Feturizer/New_Systems/rnas/4XNR

>  <Rbt.Executable>
rbdock ($Id: //depot/dev/client3/rdock/2013.1/src/exe/rbdock.cxx#4 $)

>  <Rbt.Library>
libRbt.so (2013.1, Build901 2013/11/27)

>  <Rbt.Parameter_File>
/export/apps/rDock/src/rDock_2013.1_src/data/scripts/dock_solv.prm

>  <Rbt.Receptor>
prm/blind_docking_20.prm

>  <SCORE>
-9.22052

>  <SCORE.INTER>
-9.22052

>  <SCORE.INTER.CONST>
1

>  <SCORE.INTER.POLAR>
0

>  <SCORE.INTER.ROT>
0

>  <SCORE.INTER.SOLV>
5.70839

>  <SCORE.INTER.VDW>
-11.6498

>  <SCORE.INTER.norm>
-0.922052

>  <SCORE.INTRA>
0

>  <SCORE.INTRA.DIHEDRAL>
0

>  <SCORE.INTRA.DIHEDRAL.0>
0

>  <SCORE.INTRA.POLAR>
0

>  <SCORE.INTRA.POLAR.0>
0

>  <SCORE.INTRA.REPUL>
0

>  <SCORE.INTRA.REPUL.0>
0

>  <SCORE.INTRA.SOLV>
0

>  <SCORE.INTRA.SOLV.lig_0>
-23.8918

>  <SCORE.INTRA.VDW>
0

>  <SCORE.INTRA.VDW.0>
0

>  <SCORE.INTRA.norm>
0

>  <SCORE.RESTR>
0

>  <SCORE.RESTR.CAVITY>
0

>  <SCORE.RESTR.norm>
0

>  <SCORE.SYSTEM>
0

>  <SCORE.SYSTEM.CONST>
0

>  <SCORE.SYSTEM.DIHEDRAL>
0

>  <SCORE.SYSTEM.SOLV>
0

>  <SCORE.SYSTEM.norm>
0

>  <SCORE.heavy>
10

>  <SCORE.norm>
-0.922052

>  <RMSD>
4.746

$$$$
ligand
 OpenBabel11021811513D
libRbt.so/2013.1/901 2013/11/27
 10 11  0  0  0  0  0  0  0  0999 V2000
    1.1345   14.5641    4.7096 N   0  0  0  0  0  0  0  0  0  0  0  0
    0.8417   15.8252    4.3704 C   0  0  0  0  0  0  0  0  0  0  0  0
    1.6393   16.7626    3.8607 N   0  0  0  0  0  0  0  0  0  0  0  0
    2.8853   16.2910    3.6981 C   0  0  0  0  0  0  0  0  0  0  0  0
    3.3379   15.0211    4.0001 C   0  0  0  0  0  0  0  0  0  0  0  0
    2.3963   14.1192    4.5340 C   0  0  0  0  0  0  0  0  0  0  0  0
    2.6927   12.8601    4.8709 N   0  0  0  0  0  0  0  0  0  0  0  0
    4.6836   14.8948    3.6980 N   0  0  0  0  0  0  0  0  0  0  0  0
    5.0127   16.0746    3.2276 C   0  0  0  0  0  0  0  0  0  0  0  0
    3.9761   16.9658    3.1995 N   0  0  0  0  0  0  0  0  0  0  0  0
  1  2  2  0  0  0  0
  1  6  1  0  0  0  0
  2  3  1  0  0  0  0
  3  4  2  0  0  0  0
  4  5  1  0  0  0  0
  4 10  1  0  0  0  0
  5  6  2  0  0  0  0
  5  8  1  0  0  0  0
  6  7  1  0  0  0  0
  8  9  1  0  0  0  0
  9 10  2  0  0  0  0
M  END
>  <CHROM.1>
2.85733541,15.32800526,4.02079406,2.46388315,-0.23721934,2.82499147

>  <Name>
ligand

>  <RI>
0

>  <Rbt.Current_Directory>
/home/itssahil/PROJECTS/Mol_Feturizer/New_Systems/rnas/4XNR

>  <Rbt.Executable>
rbdock ($Id: //depot/dev/client3/rdock/2013.1/src/exe/rbdock.cxx#4 $)

>  <Rbt.Library>
libRbt.so (2013.1, Build901 2013/11/27)

>  <Rbt.Parameter_File>
/export/apps/rDock/src/rDock_2013.1_src/data/scripts/dock_solv.prm

>  <Rbt.Receptor>
prm/blind_docking_20.prm

>  <SCORE>
-9.19045

>  <SCORE.INTER>
-9.19045

>  <SCORE.INTER.CONST>
1

>  <SCORE.INTER.POLAR>
0

>  <SCORE.INTER.ROT>
0

>  <SCORE.INTER.SOLV>
5.69269

>  <SCORE.INTER.VDW>
-11.6245

>  <SCORE.INTER.norm>
-0.919045

>  <SCORE.INTRA>
0

>  <SCORE.INTRA.DIHEDRAL>
0

>  <SCORE.INTRA.DIHEDRAL.0>
0

>  <SCORE.INTRA.POLAR>
0

>  <SCORE.INTRA.POLAR.0>
0

>  <SCORE.INTRA.REPUL>
0

>  <SCORE.INTRA.REPUL.0>
0

>  <SCORE.INTRA.SOLV>
0

>  <SCORE.INTRA.SOLV.lig_0>
-23.8918

>  <SCORE.INTRA.VDW>
0

>  <SCORE.INTRA.VDW.0>
0

>  <SCORE.INTRA.norm>
0

>  <SCORE.RESTR>
0

>  <SCORE.RESTR.CAVITY>
0

>  <SCORE.RESTR.norm>
0

>  <SCORE.SYSTEM>
0

>  <SCORE.SYSTEM.CONST>
0

>  <SCORE.SYSTEM.DIHEDRAL>
0

>  <SCORE.SYSTEM.SOLV>
0

>  <SCORE.SYSTEM.norm>
0

>  <SCORE.heavy>
10

>  <SCORE.norm>
-0.919045

>  <RMSD>
4.746

$$$$
ligand
 OpenBabel11021811513D
libRbt.so/2013.1/901 2013/11/27
 10 11  0  0  0  0  0  0  0  0999 V2000
    1.0945   14.6075    4.6531 N   0  0  0  0  0  0  0  0  0  0  0  0
    0.8231   15.8730    4.3121 C   0  0  0  0  0  0  0  0  0  0  0  0
    1.6382   16.7984    3.8083 N   0  0  0  0  0  0  0  0  0  0  0  0
    2.8781   16.3083    3.6545 C   0  0  0  0  0  0  0  0  0  0  0  0
    3.3095   15.0318    3.9594 C   0  0  0  0  0  0  0  0  0  0  0  0
    2.3508   14.1439    4.4863 C   0  0  0  0  0  0  0  0  0  0  0  0
    2.6259   12.8805    4.8251 N   0  0  0  0  0  0  0  0  0  0  0  0
    4.6553   14.8854    3.6668 N   0  0  0  0  0  0  0  0  0  0  0  0
    5.0053   16.0602    3.1991 C   0  0  0  0  0  0  0  0  0  0  0  0
    3.9824   16.9668    3.1638 N   0  0  0  0  0  0  0  0  0  0  0  0
  1  2  2  0  0  0  0
  1  6  1  0  0  0  0
  2  3  1  0  0  0  0
  3  4  2  0  0  0  0
  4  5  1  0  0  0  0
  4 10  1  0  0  0  0
  5  6  2  0  0  0  0
  5  8  1  0  0  0  0
  6  7  1  0  0  0  0
  8  9  1  0  0  0  0
  9 10  2  0  0  0  0
M  END
>  <CHROM.1>
2.83347176,15.34577122,3.97674663,2.48075073,-0.23507019,2.82913612

>  <Name>
ligand

>  <RI>
0

>  <Rbt.Current_Directory>
/home/itssahil/PROJECTS/Mol_Feturizer/New_Systems/rnas/4XNR

>  <Rbt.Executable>
rbdock ($Id: //depot/dev/client3/rdock/2013.1/src/exe/rbdock.cxx#4 $)

>  <Rbt.Library>
libRbt.so (2013.1, Build901 2013/11/27)

>  <Rbt.Parameter_File>
/export/apps/rDock/src/rDock_2013.1_src/data/scripts/dock_solv.prm

>  <Rbt.Receptor>
prm/blind_docking_20.prm

>  <SCORE>
-9.22537

>  <SCORE.INTER>
-9.22537

>  <SCORE.INTER.CONST>
1

>  <SCORE.INTER.POLAR>
0

>  <SCORE.INTER.ROT>
0

>  <SCORE.INTER.SOLV>
5.39018

>  <SCORE.INTER.VDW>
-11.547

>  <SCORE.INTER.norm>
-0.922537

>  <SCORE.INTRA>
0

>  <SCORE.INTRA.DIHEDRAL>
0

>  <SCORE.INTRA.DIHEDRAL.0>
0

>  <SCORE.INTRA.POLAR>
0

>  <SCORE.INTRA.POLAR.0>
0

>  <SCORE.INTRA.REPUL>
0

>  <SCORE.INTRA.REPUL.0>
0

>  <SCORE.INTRA.SOLV>
0

>  <SCORE.INTRA.SOLV.lig_0>
-23.8918

>  <SCORE.INTRA.VDW>
0

>  <SCORE.INTRA.VDW.0>
0

>  <SCORE.INTRA.norm>
0

>  <SCORE.RESTR>
0

>  <SCORE.RESTR.CAVITY>
0

>  <SCORE.RESTR.norm>
0

>  <SCORE.SYSTEM>
0

>  <SCORE.SYSTEM.CONST>
0

>  <SCORE.SYSTEM.DIHEDRAL>
0

>  <SCORE.SYSTEM.SOLV>
0

>  <SCORE.SYSTEM.norm>
0

>  <SCORE.heavy>
10

>  <SCORE.norm>
-0.922537

>  <RMSD>
4.747

$$$$
ligand
 OpenBabel11021811513D
libRbt.so/2013.1/901 2013/11/27
 10 11  0  0  0  0  0  0  0  0999 V2000
    1.2690   14.3794    4.7726 N   0  0  0  0  0  0  0  0  0  0  0  0
    0.9074   15.6325    4.4720 C   0  0  0  0  0  0  0  0  0  0  0  0
    1.6473   16.6213    3.9726 N   0  0  0  0  0  0  0  0  0  0  0  0
    2.9118   16.2171    3.7752 C   0  0  0  0  0  0  0  0  0  0  0  0
    3.4328   14.9644    4.0356 C   0  0  0  0  0  0  0  0  0  0  0  0
    2.5478   14.0031    4.5626 C   0  0  0  0  0  0  0  0  0  0  0  0
    2.9129   12.7523    4.8610 N   0  0  0  0  0  0  0  0  0  0  0  0
    4.7770   14.9135    3.7058 N   0  0  0  0  0  0  0  0  0  0  0  0
    5.0378   16.1198    3.2607 C   0  0  0  0  0  0  0  0  0  0  0  0
    3.9578   16.9583    3.2746 N   0  0  0  0  0  0  0  0  0  0  0  0
  1  2  2  0  0  0  0
  1  6  1  0  0  0  0
  2  3  1  0  0  0  0
  3  4  2  0  0  0  0
  4  5  1  0  0  0  0
  4 10  1  0  0  0  0
  5  6  2  0  0  0  0
  5  8  1  0  0  0  0
  6  7  1  0  0  0  0
  8  9  1  0  0  0  0
  9 10  2  0  0  0  0
M  END
>  <CHROM.1>
2.93805965,15.24610526,4.07295783,2.40896949,-0.23984936,2.83776184

>  <Name>
ligand

>  <RI>
0

>  <Rbt.Current_Directory>
/home/itssahil/PROJECTS/Mol_Feturizer/New_Systems/rnas/4XNR

>  <Rbt.Executable>
rbdock ($Id: //depot/dev/client3/rdock/2013.1/src/exe/rbdock.cxx#4 $)

>  <Rbt.Library>
libRbt.so (2013.1, Build901 2013/11/27)

>  <Rbt.Parameter_File>
/export/apps/rDock/src/rDock_2013.1_src/data/scripts/dock_solv.prm

>  <Rbt.Receptor>
prm/blind_docking_20.prm

>  <SCORE>
-9.17131

>  <SCORE.INTER>
-9.17131

>  <SCORE.INTER.CONST>
1

>  <SCORE.INTER.POLAR>
0

>  <SCORE.INTER.ROT>
0

>  <SCORE.INTER.SOLV>
5.82222

>  <SCORE.INTER.VDW>
-11.6549

>  <SCORE.INTER.norm>
-0.917131

>  <SCORE.INTRA>
0

>  <SCORE.INTRA.DIHEDRAL>
0

>  <SCORE.INTRA.DIHEDRAL.0>
0

>  <SCORE.INTRA.POLAR>
0

>  <SCORE.INTRA.POLAR.0>
0

>  <SCORE.INTRA.REPUL>
0

>  <SCORE.INTRA.REPUL.0>
0

>  <SCORE.INTRA.SOLV>
0

>  <SCORE.INTRA.SOLV.lig_0>
-23.8918

>  <SCORE.INTRA.VDW>
0

>  <SCORE.INTRA.VDW.0>
0

>  <SCORE.INTRA.norm>
0

>  <SCORE.RESTR>
0

>  <SCORE.RESTR.CAVITY>
0

>  <SCORE.RESTR.norm>
0

>  <SCORE.SYSTEM>
0

>  <SCORE.SYSTEM.CONST>
0

>  <SCORE.SYSTEM.DIHEDRAL>
0

>  <SCORE.SYSTEM.SOLV>
0

>  <SCORE.SYSTEM.norm>
0

>  <SCORE.heavy>
10

>  <SCORE.norm>
-0.917131

>  <RMSD>
4.748

$$$$
ligand
 OpenBabel11021811513D
libRbt.so/2013.1/901 2013/11/27
 10 11  0  0  0  0  0  0  0  0999 V2000
    1.1128   14.5803    4.6813 N   0  0  0  0  0  0  0  0  0  0  0  0
    0.8389   15.8349    4.3043 C   0  0  0  0  0  0  0  0  0  0  0  0
    1.6550   16.7512    3.7857 N   0  0  0  0  0  0  0  0  0  0  0  0
    2.8991   16.2639    3.6589 C   0  0  0  0  0  0  0  0  0  0  0  0
    3.3334   14.9981    4.0021 C   0  0  0  0  0  0  0  0  0  0  0  0
    2.3733   14.1192    4.5411 C   0  0  0  0  0  0  0  0  0  0  0  0
    2.6509   12.8665    4.9160 N   0  0  0  0  0  0  0  0  0  0  0  0
    4.6832   14.8514    3.7287 N   0  0  0  0  0  0  0  0  0  0  0  0
    5.0326   16.0154    3.2344 C   0  0  0  0  0  0  0  0  0  0  0  0
    4.0056   16.9152    3.1636 N   0  0  0  0  0  0  0  0  0  0  0  0
  1  2  2  0  0  0  0
  1  6  1  0  0  0  0
  2  3  1  0  0  0  0
  3  4  2  0  0  0  0
  4  5  1  0  0  0  0
  4 10  1  0  0  0  0
  5  6  2  0  0  0  0
  5  8  1  0  0  0  0
  6  7  1  0  0  0  0
  8  9  1  0  0  0  0
  9 10  2  0  0  0  0
M  END
>  <CHROM.1>
2.85564456,15.30987093,4.00570180,2.47942998,-0.22256219,2.80262681

>  <Name>
ligand

>  <RI>
0

>  <Rbt.Current_Directory>
/home/itssahil/PROJECTS/Mol_Feturizer/New_Systems/rnas/4XNR

>  <Rbt.Executable>
rbdock ($Id: //depot/dev/client3/rdock/2013.1/src/exe/rbdock.cxx#4 $)

>  <Rbt.Library>
libRbt.so (2013.1, Build901 2013/11/27)

>  <Rbt.Parameter_File>
/export/apps/rDock/src/rDock_2013.1_src/data/scripts/dock_solv.prm

>  <Rbt.Receptor>
prm/blind_docking_20.prm

>  <SCORE>
-9.21127

>  <SCORE.INTER>
-9.21127

>  <SCORE.INTER.CONST>
1

>  <SCORE.INTER.POLAR>
0

>  <SCORE.INTER.ROT>
0

>  <SCORE.INTER.SOLV>
5.78917

>  <SCORE.INTER.VDW>
-11.6706

>  <SCORE.INTER.norm>
-0.921127

>  <SCORE.INTRA>
0

>  <SCORE.INTRA.DIHEDRAL>
0

>  <SCORE.INTRA.DIHEDRAL.0>
0

>  <SCORE.INTRA.POLAR>
0

>  <SCORE.INTRA.POLAR.0>
0

>  <SCORE.INTRA.REPUL>
0

>  <SCORE.INTRA.REPUL.0>
0

>  <SCORE.INTRA.SOLV>
0

>  <SCORE.INTRA.SOLV.lig_0>
-23.8918

>  <SCORE.INTRA.VDW>
0

>  <SCORE.INTRA.VDW.0>
0

>  <SCORE.INTRA.norm>
0

>  <SCORE.RESTR>
0

>  <SCORE.RESTR.CAVITY>
0

>  <SCORE.RESTR.norm>
0

>  <SCORE.SYSTEM>
0

>  <SCORE.SYSTEM.CONST>
0

>  <SCORE.SYSTEM.DIHEDRAL>
0

>  <SCORE.SYSTEM.SOLV>
0

>  <SCORE.SYSTEM.norm>
0

>  <SCORE.heavy>
10

>  <SCORE.norm>
-0.921127

>  <RMSD>
4.752

$$$$
ligand
 OpenBabel11021811513D
libRbt.so/2013.1/901 2013/11/27
 10 11  0  0  0  0  0  0  0  0999 V2000
    1.0923   14.6024    4.6633 N   0  0  0  0  0  0  0  0  0  0  0  0
    0.8189   15.8660    4.3169 C   0  0  0  0  0  0  0  0  0  0  0  0
    1.6328   16.7906    3.8096 N   0  0  0  0  0  0  0  0  0  0  0  0
    2.8736   16.3018    3.6585 C   0  0  0  0  0  0  0  0  0  0  0  0
    3.3069   15.0273    3.9690 C   0  0  0  0  0  0  0  0  0  0  0  0
    2.3494   14.1401    4.4992 C   0  0  0  0  0  0  0  0  0  0  0  0
    2.6263   12.8786    4.8435 N   0  0  0  0  0  0  0  0  0  0  0  0
    4.6531   14.8819    3.6777 N   0  0  0  0  0  0  0  0  0  0  0  0
    5.0014   16.0552    3.2052 C   0  0  0  0  0  0  0  0  0  0  0  0
    3.9771   16.9600    3.1655 N   0  0  0  0  0  0  0  0  0  0  0  0
  1  2  2  0  0  0  0
  1  6  1  0  0  0  0
  2  3  1  0  0  0  0
  3  4  2  0  0  0  0
  4  5  1  0  0  0  0
  4 10  1  0  0  0  0
  5  6  2  0  0  0  0
  5  8  1  0  0  0  0
  6  7  1  0  0  0  0
  8  9  1  0  0  0  0
  9 10  2  0  0  0  0
M  END
>  <CHROM.1>
2.83034293,15.34059621,3.98475610,2.47933956,-0.23408641,2.82454792

>  <Name>
ligand

>  <RI>
0

>  <Rbt.Current_Directory>
/home/itssahil/PROJECTS/Mol_Feturizer/New_Systems/rnas/4XNR

>  <Rbt.Executable>
rbdock ($Id: //depot/dev/client3/rdock/2013.1/src/exe/rbdock.cxx#4 $)

>  <Rbt.Library>
libRbt.so (2013.1, Build901 2013/11/27)

>  <Rbt.Parameter_File>
/export/apps/rDock/src/rDock_2013.1_src/data/scripts/dock_solv.prm

>  <Rbt.Receptor>
prm/blind_docking_20.prm

>  <SCORE>
-9.22395

>  <SCORE.INTER>
-9.22429

>  <SCORE.INTER.CONST>
1

>  <SCORE.INTER.POLAR>
0

>  <SCORE.INTER.ROT>
0

>  <SCORE.INTER.SOLV>
5.46826

>  <SCORE.INTER.VDW>
-11.5723

>  <SCORE.INTER.norm>
-0.922429

>  <SCORE.INTRA>
0

>  <SCORE.INTRA.DIHEDRAL>
0

>  <SCORE.INTRA.DIHEDRAL.0>
0

>  <SCORE.INTRA.POLAR>
0

>  <SCORE.INTRA.POLAR.0>
0

>  <SCORE.INTRA.REPUL>
0

>  <SCORE.INTRA.REPUL.0>
0

>  <SCORE.INTRA.SOLV>
0

>  <SCORE.INTRA.SOLV.lig_0>
-23.8918

>  <SCORE.INTRA.VDW>
0

>  <SCORE.INTRA.VDW.0>
0

>  <SCORE.INTRA.norm>
0

>  <SCORE.RESTR>
0.000337717

>  <SCORE.RESTR.CAVITY>
0.000337717

>  <SCORE.RESTR.norm>
3.37717e-05

>  <SCORE.SYSTEM>
0

>  <SCORE.SYSTEM.CONST>
0

>  <SCORE.SYSTEM.DIHEDRAL>
0

>  <SCORE.SYSTEM.SOLV>
0

>  <SCORE.SYSTEM.norm>
0

>  <SCORE.heavy>
10

>  <SCORE.norm>
-0.922395

>  <RMSD>
4.753

$$$$
ligand
 OpenBabel11021811513D
libRbt.so/2013.1/901 2013/11/27
 10 11  0  0  0  0  0  0  0  0999 V2000
    1.0574   14.6287    4.6938 N   0  0  0  0  0  0  0  0  0  0  0  0
    0.7998   15.8899    4.3273 C   0  0  0  0  0  0  0  0  0  0  0  0
    1.6246   16.7952    3.8031 N   0  0  0  0  0  0  0  0  0  0  0  0
    2.8584   16.2877    3.6573 C   0  0  0  0  0  0  0  0  0  0  0  0
    3.2757   15.0128    3.9877 C   0  0  0  0  0  0  0  0  0  0  0  0
    2.3078   14.1472    4.5345 C   0  0  0  0  0  0  0  0  0  0  0  0
    2.5690   12.8879    4.8988 N   0  0  0  0  0  0  0  0  0  0  0  0
    4.6191   14.8449    3.6958 N   0  0  0  0  0  0  0  0  0  0  0  0
    4.9817   16.0057    3.2033 C   0  0  0  0  0  0  0  0  0  0  0  0
    3.9693   16.9231    3.1511 N   0  0  0  0  0  0  0  0  0  0  0  0
  1  2  2  0  0  0  0
  1  6  1  0  0  0  0
  2  3  1  0  0  0  0
  3  4  2  0  0  0  0
  4  5  1  0  0  0  0
  4 10  1  0  0  0  0
  5  6  2  0  0  0  0
  5  8  1  0  0  0  0
  6  7  1  0  0  0  0
  8  9  1  0  0  0  0
  9 10  2  0  0  0  0
M  END
>  <CHROM.1>
2.80333236,15.33261452,3.99934805,2.49143145,-0.24051822,2.81101475

>  <Name>
ligand

>  <RI>
0

>  <Rbt.Current_Directory>
/home/itssahil/PROJECTS/Mol_Feturizer/New_Systems/rnas/4XNR

>  <Rbt.Executable>
rbdock ($Id: //depot/dev/client3/rdock/2013.1/src/exe/rbdock.cxx#4 $)

>  <Rbt.Library>
libRbt.so (2013.1, Build901 2013/11/27)

>  <Rbt.Parameter_File>
/export/apps/rDock/src/rDock_2013.1_src/data/scripts/dock_solv.prm

>  <Rbt.Receptor>
prm/blind_docking_20.prm

>  <SCORE>
-9.23728

>  <SCORE.INTER>
-9.23728

>  <SCORE.INTER.CONST>
1

>  <SCORE.INTER.POLAR>
0

>  <SCORE.INTER.ROT>
0

>  <SCORE.INTER.SOLV>
5.65548

>  <SCORE.INTER.VDW>
-11.6433

>  <SCORE.INTER.norm>
-0.923728

>  <SCORE.INTRA>
0

>  <SCORE.INTRA.DIHEDRAL>
0

>  <SCORE.INTRA.DIHEDRAL.0>
0

>  <SCORE.INTRA.POLAR>
0

>  <SCORE.INTRA.POLAR.0>
0

>  <SCORE.INTRA.REPUL>
0

>  <SCORE.INTRA.REPUL.0>
0

>  <SCORE.INTRA.SOLV>
0

>  <SCORE.INTRA.SOLV.lig_0>
-23.8918

>  <SCORE.INTRA.VDW>
0

>  <SCORE.INTRA.VDW.0>
0

>  <SCORE.INTRA.norm>
0

>  <SCORE.RESTR>
0

>  <SCORE.RESTR.CAVITY>
0

>  <SCORE.RESTR.norm>
0

>  <SCORE.SYSTEM>
0

>  <SCORE.SYSTEM.CONST>
0

>  <SCORE.SYSTEM.DIHEDRAL>
0

>  <SCORE.SYSTEM.SOLV>
0

>  <SCORE.SYSTEM.norm>
0

>  <SCORE.heavy>
10

>  <SCORE.norm>
-0.923728

>  <RMSD>
4.778

$$$$
ligand
 OpenBabel11021811513D
libRbt.so/2013.1/901 2013/11/27
 10 11  0  0  0  0  0  0  0  0999 V2000
    1.1301   14.3496    4.6238 N   0  0  0  0  0  0  0  0  0  0  0  0
    0.8245   15.6418    4.4562 C   0  0  0  0  0  0  0  0  0  0  0  0
    1.6166   16.6503    4.0954 N   0  0  0  0  0  0  0  0  0  0  0  0
    2.8719   16.2211    3.8928 C   0  0  0  0  0  0  0  0  0  0  0  0
    3.3381   14.9273    4.0253 C   0  0  0  0  0  0  0  0  0  0  0  0
    2.4012   13.9488    4.4121 C   0  0  0  0  0  0  0  0  0  0  0  0
    2.7104   12.6590    4.5779 N   0  0  0  0  0  0  0  0  0  0  0  0
    4.6904   14.8605    3.7338 N   0  0  0  0  0  0  0  0  0  0  0  0
    5.0099   16.0979    3.4367 C   0  0  0  0  0  0  0  0  0  0  0  0
    3.9609   16.9716    3.5122 N   0  0  0  0  0  0  0  0  0  0  0  0
  1  2  2  0  0  0  0
  1  6  1  0  0  0  0
  2  3  1  0  0  0  0
  3  4  2  0  0  0  0
  4  5  1  0  0  0  0
  4 10  1  0  0  0  0
  5  6  2  0  0  0  0
  5  8  1  0  0  0  0
  6  7  1  0  0  0  0
  8  9  1  0  0  0  0
  9 10  2  0  0  0  0
M  END
>  <CHROM.1>
2.85281934,15.22248368,4.07907887,2.45485292,-0.21665801,2.96131012

>  <Name>
ligand

>  <RI>
0

>  <Rbt.Current_Directory>
/home/itssahil/PROJECTS/Mol_Feturizer/New_Systems/rnas/4XNR

>  <Rbt.Executable>
rbdock ($Id: //depot/dev/client3/rdock/2013.1/src/exe/rbdock.cxx#4 $)

>  <Rbt.Library>
libRbt.so (2013.1, Build901 2013/11/27)

>  <Rbt.Parameter_File>
/export/apps/rDock/src/rDock_2013.1_src/data/scripts/dock_solv.prm

>  <Rbt.Receptor>
prm/blind_docking_80.prm

>  <SCORE>
-9.39882

>  <SCORE.INTER>
-9.39882

>  <SCORE.INTER.CONST>
1

>  <SCORE.INTER.POLAR>
0

>  <SCORE.INTER.ROT>
0

>  <SCORE.INTER.SOLV>
4.25343

>  <SCORE.INTER.VDW>
-11.2837

>  <SCORE.INTER.norm>
-0.939882

>  <SCORE.INTRA>
0

>  <SCORE.INTRA.DIHEDRAL>
0

>  <SCORE.INTRA.DIHEDRAL.0>
0

>  <SCORE.INTRA.POLAR>
0

>  <SCORE.INTRA.POLAR.0>
0

>  <SCORE.INTRA.REPUL>
0

>  <SCORE.INTRA.REPUL.0>
0

>  <SCORE.INTRA.SOLV>
0

>  <SCORE.INTRA.SOLV.lig_0>
-23.8918

>  <SCORE.INTRA.VDW>
0

>  <SCORE.INTRA.VDW.0>
0

>  <SCORE.INTRA.norm>
0

>  <SCORE.RESTR>
0

>  <SCORE.RESTR.CAVITY>
0

>  <SCORE.RESTR.norm>
0

>  <SCORE.SYSTEM>
0

>  <SCORE.SYSTEM.CONST>
0

>  <SCORE.SYSTEM.DIHEDRAL>
0

>  <SCORE.SYSTEM.SOLV>
0

>  <SCORE.SYSTEM.norm>
0

>  <SCORE.heavy>
10

>  <SCORE.norm>
-0.939882

>  <RMSD>
4.778

$$$$
ligand
 OpenBabel11021811513D
libRbt.so/2013.1/901 2013/11/27
 10 11  0  0  0  0  0  0  0  0999 V2000
    1.2207   14.2517    4.6784 N   0  0  0  0  0  0  0  0  0  0  0  0
    0.8784   15.5340    4.5056 C   0  0  0  0  0  0  0  0  0  0  0  0
    1.6350   16.5577    4.1127 N   0  0  0  0  0  0  0  0  0  0  0  0
    2.8946   16.1573    3.8801 C   0  0  0  0  0  0  0  0  0  0  0  0
    3.3965   14.8770    4.0134 C   0  0  0  0  0  0  0  0  0  0  0  0
    2.4951   13.8801    4.4361 C   0  0  0  0  0  0  0  0  0  0  0  0
    2.8409   12.6002    4.6069 N   0  0  0  0  0  0  0  0  0  0  0  0
    4.7416   14.8404    3.6856 N   0  0  0  0  0  0  0  0  0  0  0  0
    5.0218   16.0819    3.3669 C   0  0  0  0  0  0  0  0  0  0  0  0
    3.9537   16.9302    3.4620 N   0  0  0  0  0  0  0  0  0  0  0  0
  1  2  2  0  0  0  0
  1  6  1  0  0  0  0
  2  3  1  0  0  0  0
  3  4  2  0  0  0  0
  4  5  1  0  0  0  0
  4 10  1  0  0  0  0
  5  6  2  0  0  0  0
  5  8  1  0  0  0  0
  6  7  1  0  0  0  0
  8  9  1  0  0  0  0
  9 10  2  0  0  0  0
M  END
>  <CHROM.1>
2.90557023,15.16070297,4.07739581,2.42452301,-0.23883740,2.94360519

>  <Name>
ligand

>  <RI>
0

>  <Rbt.Current_Directory>
/home/itssahil/PROJECTS/Mol_Feturizer/New_Systems/rnas/4XNR

>  <Rbt.Executable>
rbdock ($Id: //depot/dev/client3/rdock/2013.1/src/exe/rbdock.cxx#4 $)

>  <Rbt.Library>
libRbt.so (2013.1, Build901 2013/11/27)

>  <Rbt.Parameter_File>
/export/apps/rDock/src/rDock_2013.1_src/data/scripts/dock_solv.prm

>  <Rbt.Receptor>
prm/blind_docking_100.prm

>  <SCORE>
-9.39443

>  <SCORE.INTER>
-9.39447

>  <SCORE.INTER.CONST>
1

>  <SCORE.INTER.POLAR>
0

>  <SCORE.INTER.ROT>
0

>  <SCORE.INTER.SOLV>
4.39874

>  <SCORE.INTER.VDW>
-11.3292

>  <SCORE.INTER.norm>
-0.939447

>  <SCORE.INTRA>
0

>  <SCORE.INTRA.DIHEDRAL>
0

>  <SCORE.INTRA.DIHEDRAL.0>
0

>  <SCORE.INTRA.POLAR>
0

>  <SCORE.INTRA.POLAR.0>
0

>  <SCORE.INTRA.REPUL>
0

>  <SCORE.INTRA.REPUL.0>
0

>  <SCORE.INTRA.SOLV>
0

>  <SCORE.INTRA.SOLV.lig_0>
-23.8918

>  <SCORE.INTRA.VDW>
0

>  <SCORE.INTRA.VDW.0>
0

>  <SCORE.INTRA.norm>
0

>  <SCORE.RESTR>
3.6334e-05

>  <SCORE.RESTR.CAVITY>
3.6334e-05

>  <SCORE.RESTR.norm>
3.6334e-06

>  <SCORE.SYSTEM>
0

>  <SCORE.SYSTEM.CONST>
0

>  <SCORE.SYSTEM.DIHEDRAL>
0

>  <SCORE.SYSTEM.SOLV>
0

>  <SCORE.SYSTEM.norm>
0

>  <SCORE.heavy>
10

>  <SCORE.norm>
-0.939443

>  <RMSD>
4.793

$$$$
ligand
 OpenBabel11021811513D
libRbt.so/2013.1/901 2013/11/27
 10 11  0  0  0  0  0  0  0  0999 V2000
    1.1083   14.2890    4.6110 N   0  0  0  0  0  0  0  0  0  0  0  0
    0.8212   15.5882    4.4659 C   0  0  0  0  0  0  0  0  0  0  0  0
    1.6257   16.5900    4.1137 N   0  0  0  0  0  0  0  0  0  0  0  0
    2.8724   16.1447    3.8933 C   0  0  0  0  0  0  0  0  0  0  0  0
    3.3197   14.8421    4.0019 C   0  0  0  0  0  0  0  0  0  0  0  0
    2.3712   13.8722    4.3820 C   0  0  0  0  0  0  0  0  0  0  0  0
    2.6619   12.5754    4.5251 N   0  0  0  0  0  0  0  0  0  0  0  0
    4.6683   14.7592    3.6974 N   0  0  0  0  0  0  0  0  0  0  0  0
    5.0042   15.9959    3.4165 C   0  0  0  0  0  0  0  0  0  0  0  0
    3.9695   16.8844    3.5147 N   0  0  0  0  0  0  0  0  0  0  0  0
  1  2  2  0  0  0  0
  1  6  1  0  0  0  0
  2  3  1  0  0  0  0
  3  4  2  0  0  0  0
  4  5  1  0  0  0  0
  4 10  1  0  0  0  0
  5  6  2  0  0  0  0
  5  8  1  0  0  0  0
  6  7  1  0  0  0  0
  8  9  1  0  0  0  0
  9 10  2  0  0  0  0
M  END
>  <CHROM.1>
2.83951782,15.14378879,4.06448314,2.46885083,-0.22789314,2.97980864

>  <Name>
ligand

>  <RI>
0

>  <Rbt.Current_Directory>
/home/itssahil/PROJECTS/Mol_Feturizer/New_Systems/rnas/4XNR

>  <Rbt.Executable>
rbdock ($Id: //depot/dev/client3/rdock/2013.1/src/exe/rbdock.cxx#4 $)

>  <Rbt.Library>
libRbt.so (2013.1, Build901 2013/11/27)

>  <Rbt.Parameter_File>
/export/apps/rDock/src/rDock_2013.1_src/data/scripts/dock_solv.prm

>  <Rbt.Receptor>
prm/blind_docking_60.prm

>  <SCORE>
-9.45284

>  <SCORE.INTER>
-9.45284

>  <SCORE.INTER.CONST>
1

>  <SCORE.INTER.POLAR>
0

>  <SCORE.INTER.ROT>
0

>  <SCORE.INTER.SOLV>
3.90623

>  <SCORE.INTER.VDW>
-11.204

>  <SCORE.INTER.norm>
-0.945284

>  <SCORE.INTRA>
0

>  <SCORE.INTRA.DIHEDRAL>
0

>  <SCORE.INTRA.DIHEDRAL.0>
0

>  <SCORE.INTRA.POLAR>
0

>  <SCORE.INTRA.POLAR.0>
0

>  <SCORE.INTRA.REPUL>
0

>  <SCORE.INTRA.REPUL.0>
0

>  <SCORE.INTRA.SOLV>
0

>  <SCORE.INTRA.SOLV.lig_0>
-23.8918

>  <SCORE.INTRA.VDW>
0

>  <SCORE.INTRA.VDW.0>
0

>  <SCORE.INTRA.norm>
0

>  <SCORE.RESTR>
0

>  <SCORE.RESTR.CAVITY>
0

>  <SCORE.RESTR.norm>
0

>  <SCORE.SYSTEM>
0

>  <SCORE.SYSTEM.CONST>
0

>  <SCORE.SYSTEM.DIHEDRAL>
0

>  <SCORE.SYSTEM.SOLV>
0

>  <SCORE.SYSTEM.norm>
0

>  <SCORE.heavy>
10

>  <SCORE.norm>
-0.945284

>  <RMSD>
4.829

$$$$
ligand
 OpenBabel11021811513D
libRbt.so/2013.1/901 2013/11/27
 10 11  0  0  0  0  0  0  0  0999 V2000
    1.0999   14.2834    4.6085 N   0  0  0  0  0  0  0  0  0  0  0  0
    0.8152   15.5842    4.4734 C   0  0  0  0  0  0  0  0  0  0  0  0
    1.6225   16.5879    4.1336 N   0  0  0  0  0  0  0  0  0  0  0  0
    2.8697   16.1429    3.9150 C   0  0  0  0  0  0  0  0  0  0  0  0
    3.3148   14.8388    4.0143 C   0  0  0  0  0  0  0  0  0  0  0  0
    2.3632   13.8669    4.3816 C   0  0  0  0  0  0  0  0  0  0  0  0
    2.6515   12.5685    4.5149 N   0  0  0  0  0  0  0  0  0  0  0  0
    4.6646   14.7566    3.7152 N   0  0  0  0  0  0  0  0  0  0  0  0
    5.0034   15.9953    3.4466 C   0  0  0  0  0  0  0  0  0  0  0  0
    3.9694   16.8843    3.5478 N   0  0  0  0  0  0  0  0  0  0  0  0
  1  2  2  0  0  0  0
  1  6  1  0  0  0  0
  2  3  1  0  0  0  0
  3  4  2  0  0  0  0
  4  5  1  0  0  0  0
  4 10  1  0  0  0  0
  5  6  2  0  0  0  0
  5  8  1  0  0  0  0
  6  7  1  0  0  0  0
  8  9  1  0  0  0  0
  9 10  2  0  0  0  0
M  END
>  <CHROM.1>
2.83466844,15.14053401,4.07731106,2.47092992,-0.22361741,2.98894477

>  <Name>
ligand

>  <RI>
0

>  <Rbt.Current_Directory>
/home/itssahil/PROJECTS/Mol_Feturizer/New_Systems/rnas/4XNR

>  <Rbt.Executable>
rbdock ($Id: //depot/dev/client3/rdock/2013.1/src/exe/rbdock.cxx#4 $)

>  <Rbt.Library>
libRbt.so (2013.1, Build901 2013/11/27)

>  <Rbt.Parameter_File>
/export/apps/rDock/src/rDock_2013.1_src/data/scripts/dock_solv.prm

>  <Rbt.Receptor>
prm/blind_docking_40.prm

>  <SCORE>
-9.46044

>  <SCORE.INTER>
-9.46044

>  <SCORE.INTER.CONST>
1

>  <SCORE.INTER.POLAR>
0

>  <SCORE.INTER.ROT>
0

>  <SCORE.INTER.SOLV>
3.8456

>  <SCORE.INTER.VDW>
-11.1888

>  <SCORE.INTER.norm>
-0.946044

>  <SCORE.INTRA>
0

>  <SCORE.INTRA.DIHEDRAL>
0

>  <SCORE.INTRA.DIHEDRAL.0>
0

>  <SCORE.INTRA.POLAR>
0

>  <SCORE.INTRA.POLAR.0>
0

>  <SCORE.INTRA.REPUL>
0

>  <SCORE.INTRA.REPUL.0>
0

>  <SCORE.INTRA.SOLV>
0

>  <SCORE.INTRA.SOLV.lig_0>
-23.8918

>  <SCORE.INTRA.VDW>
0

>  <SCORE.INTRA.VDW.0>
0

>  <SCORE.INTRA.norm>
0

>  <SCORE.RESTR>
0

>  <SCORE.RESTR.CAVITY>
0

>  <SCORE.RESTR.norm>
0

>  <SCORE.SYSTEM>
0

>  <SCORE.SYSTEM.CONST>
0

>  <SCORE.SYSTEM.DIHEDRAL>
0

>  <SCORE.SYSTEM.SOLV>
0

>  <SCORE.SYSTEM.norm>
0

>  <SCORE.heavy>
10

>  <SCORE.norm>
-0.946044

>  <RMSD>
4.831

$$$$
ligand
 OpenBabel11021811513D
libRbt.so/2013.1/901 2013/11/27
 10 11  0  0  0  0  0  0  0  0999 V2000
    1.1003   14.2794    4.6065 N   0  0  0  0  0  0  0  0  0  0  0  0
    0.8168   15.5802    4.4688 C   0  0  0  0  0  0  0  0  0  0  0  0
    1.6252   16.5824    4.1273 N   0  0  0  0  0  0  0  0  0  0  0  0
    2.8721   16.1358    3.9101 C   0  0  0  0  0  0  0  0  0  0  0  0
    3.3159   14.8315    4.0122 C   0  0  0  0  0  0  0  0  0  0  0  0
    2.3633   13.8612    4.3810 C   0  0  0  0  0  0  0  0  0  0  0  0
    2.6504   12.5628    4.5170 N   0  0  0  0  0  0  0  0  0  0  0  0
    4.6658   14.7476    3.7139 N   0  0  0  0  0  0  0  0  0  0  0  0
    5.0059   15.9854    3.4430 C   0  0  0  0  0  0  0  0  0  0  0  0
    3.9727   16.8755    3.5420 N   0  0  0  0  0  0  0  0  0  0  0  0
  1  2  2  0  0  0  0
  1  6  1  0  0  0  0
  2  3  1  0  0  0  0
  3  4  2  0  0  0  0
  4  5  1  0  0  0  0
  4 10  1  0  0  0  0
  5  6  2  0  0  0  0
  5  8  1  0  0  0  0
  6  7  1  0  0  0  0
  8  9  1  0  0  0  0
  9 10  2  0  0  0  0
M  END
>  <CHROM.1>
2.83606078,15.13385948,4.07441650,2.47192706,-0.22332175,2.98719208

>  <Name>
ligand

>  <RI>
0

>  <Rbt.Current_Directory>
/home/itssahil/PROJECTS/Mol_Feturizer/New_Systems/rnas/4XNR

>  <Rbt.Executable>
rbdock ($Id: //depot/dev/client3/rdock/2013.1/src/exe/rbdock.cxx#4 $)

>  <Rbt.Library>
libRbt.so (2013.1, Build901 2013/11/27)

>  <Rbt.Parameter_File>
/export/apps/rDock/src/rDock_2013.1_src/data/scripts/dock_solv.prm

>  <Rbt.Receptor>
prm/blind_docking_40.prm

>  <SCORE>
-9.46177

>  <SCORE.INTER>
-9.46177

>  <SCORE.INTER.CONST>
1

>  <SCORE.INTER.POLAR>
0

>  <SCORE.INTER.ROT>
0

>  <SCORE.INTER.SOLV>
3.83679

>  <SCORE.INTER.VDW>
-11.1868

>  <SCORE.INTER.norm>
-0.946177

>  <SCORE.INTRA>
0

>  <SCORE.INTRA.DIHEDRAL>
0

>  <SCORE.INTRA.DIHEDRAL.0>
0

>  <SCORE.INTRA.POLAR>
0

>  <SCORE.INTRA.POLAR.0>
0

>  <SCORE.INTRA.REPUL>
0

>  <SCORE.INTRA.REPUL.0>
0

>  <SCORE.INTRA.SOLV>
0

>  <SCORE.INTRA.SOLV.lig_0>
-23.8918

>  <SCORE.INTRA.VDW>
0

>  <SCORE.INTRA.VDW.0>
0

>  <SCORE.INTRA.norm>
0

>  <SCORE.RESTR>
0

>  <SCORE.RESTR.CAVITY>
0

>  <SCORE.RESTR.norm>
0

>  <SCORE.SYSTEM>
0

>  <SCORE.SYSTEM.CONST>
0

>  <SCORE.SYSTEM.DIHEDRAL>
0

>  <SCORE.SYSTEM.SOLV>
0

>  <SCORE.SYSTEM.norm>
0

>  <SCORE.heavy>
10

>  <SCORE.norm>
-0.946177

>  <RMSD>
4.834

$$$$
ligand
 OpenBabel11021811513D
libRbt.so/2013.1/901 2013/11/27
 10 11  0  0  0  0  0  0  0  0999 V2000
    1.0973   14.2843    4.6159 N   0  0  0  0  0  0  0  0  0  0  0  0
    0.8168   15.5851    4.4720 C   0  0  0  0  0  0  0  0  0  0  0  0
    1.6268   16.5833    4.1224 N   0  0  0  0  0  0  0  0  0  0  0  0
    2.8717   16.1322    3.9034 C   0  0  0  0  0  0  0  0  0  0  0  0
    3.3123   14.8272    4.0111 C   0  0  0  0  0  0  0  0  0  0  0  0
    2.3584   13.8615    4.3884 C   0  0  0  0  0  0  0  0  0  0  0  0
    2.6425   12.5631    4.5304 N   0  0  0  0  0  0  0  0  0  0  0  0
    4.6610   14.7380    3.7087 N   0  0  0  0  0  0  0  0  0  0  0  0
    5.0035   15.9735    3.4299 C   0  0  0  0  0  0  0  0  0  0  0  0
    3.9730   16.8668    3.5276 N   0  0  0  0  0  0  0  0  0  0  0  0
  1  2  2  0  0  0  0
  1  6  1  0  0  0  0
  2  3  1  0  0  0  0
  3  4  2  0  0  0  0
  4  5  1  0  0  0  0
  4 10  1  0  0  0  0
  5  6  2  0  0  0  0
  5  8  1  0  0  0  0
  6  7  1  0  0  0  0
  8  9  1  0  0  0  0
  9 10  2  0  0  0  0
M  END
>  <CHROM.1>
2.83353363,15.13119278,4.07326706,2.47411319,-0.22707899,2.98225262

>  <Name>
ligand

>  <RI>
0

>  <Rbt.Current_Directory>
/home/itssahil/PROJECTS/Mol_Feturizer/New_Systems/rnas/4XNR

>  <Rbt.Executable>
rbdock ($Id: //depot/dev/client3/rdock/2013.1/src/exe/rbdock.cxx#4 $)

>  <Rbt.Library>
libRbt.so (2013.1, Build901 2013/11/27)

>  <Rbt.Parameter_File>
/export/apps/rDock/src/rDock_2013.1_src/data/scripts/dock_solv.prm

>  <Rbt.Receptor>
prm/blind_docking_60.prm

>  <SCORE>
-9.46092

>  <SCORE.INTER>
-9.46092

>  <SCORE.INTER.CONST>
1

>  <SCORE.INTER.POLAR>
0

>  <SCORE.INTER.ROT>
0

>  <SCORE.INTER.SOLV>
3.87693

>  <SCORE.INTER.VDW>
-11.1996

>  <SCORE.INTER.norm>
-0.946092

>  <SCORE.INTRA>
0

>  <SCORE.INTRA.DIHEDRAL>
0

>  <SCORE.INTRA.DIHEDRAL.0>
0

>  <SCORE.INTRA.POLAR>
0

>  <SCORE.INTRA.POLAR.0>
0

>  <SCORE.INTRA.REPUL>
0

>  <SCORE.INTRA.REPUL.0>
0

>  <SCORE.INTRA.SOLV>
0

>  <SCORE.INTRA.SOLV.lig_0>
-23.8918

>  <SCORE.INTRA.VDW>
0

>  <SCORE.INTRA.VDW.0>
0

>  <SCORE.INTRA.norm>
0

>  <SCORE.RESTR>
0

>  <SCORE.RESTR.CAVITY>
0

>  <SCORE.RESTR.norm>
0

>  <SCORE.SYSTEM>
0

>  <SCORE.SYSTEM.CONST>
0

>  <SCORE.SYSTEM.DIHEDRAL>
0

>  <SCORE.SYSTEM.SOLV>
0

>  <SCORE.SYSTEM.norm>
0

>  <SCORE.heavy>
10

>  <SCORE.norm>
-0.946092

>  <RMSD>
4.839

$$$$
ligand
 OpenBabel11021811513D
libRbt.so/2013.1/901 2013/11/27
 10 11  0  0  0  0  0  0  0  0999 V2000
    2.5298   17.4447    2.7672 N   0  0  0  0  0  0  0  0  0  0  0  0
    1.3002   17.0574    3.1269 C   0  0  0  0  0  0  0  0  0  0  0  0
    0.9328   16.0034    3.8542 N   0  0  0  0  0  0  0  0  0  0  0  0
    2.0043   15.2910    4.2356 C   0  0  0  0  0  0  0  0  0  0  0  0
    3.3274   15.5618    3.9444 C   0  0  0  0  0  0  0  0  0  0  0  0
    3.5871   16.7073    3.1664 C   0  0  0  0  0  0  0  0  0  0  0  0
    4.8168   17.0911    2.8098 N   0  0  0  0  0  0  0  0  0  0  0  0
    4.1590   14.6077    4.5068 N   0  0  0  0  0  0  0  0  0  0  0  0
    3.3333   13.7905    5.1165 C   0  0  0  0  0  0  0  0  0  0  0  0
    2.0179   14.1426    4.9939 N   0  0  0  0  0  0  0  0  0  0  0  0
  1  2  2  0  0  0  0
  1  6  1  0  0  0  0
  2  3  1  0  0  0  0
  3  4  2  0  0  0  0
  4  5  1  0  0  0  0
  4 10  1  0  0  0  0
  5  6  2  0  0  0  0
  5  8  1  0  0  0  0
  6  7  1  0  0  0  0
  8  9  1  0  0  0  0
  9 10  2  0  0  0  0
M  END
>  <CHROM.1>
2.80778926,15.77649549,3.84712002,1.52020934,0.06982355,-0.58423439

>  <Name>
ligand

>  <RI>
0

>  <Rbt.Current_Directory>
/home/itssahil/PROJECTS/Mol_Feturizer/New_Systems/rnas/4XNR

>  <Rbt.Executable>
rbdock ($Id: //depot/dev/client3/rdock/2013.1/src/exe/rbdock.cxx#4 $)

>  <Rbt.Library>
libRbt.so (2013.1, Build901 2013/11/27)

>  <Rbt.Parameter_File>
/export/apps/rDock/src/rDock_2013.1_src/data/scripts/dock_solv.prm

>  <Rbt.Receptor>
prm/blind_docking_20.prm

>  <SCORE>
-7.83949

>  <SCORE.INTER>
-7.83949

>  <SCORE.INTER.CONST>
1

>  <SCORE.INTER.POLAR>
0

>  <SCORE.INTER.ROT>
0

>  <SCORE.INTER.SOLV>
6.6933

>  <SCORE.INTER.VDW>
-11.0574

>  <SCORE.INTER.norm>
-0.783949

>  <SCORE.INTRA>
0

>  <SCORE.INTRA.DIHEDRAL>
0

>  <SCORE.INTRA.DIHEDRAL.0>
0

>  <SCORE.INTRA.POLAR>
0

>  <SCORE.INTRA.POLAR.0>
0

>  <SCORE.INTRA.REPUL>
0

>  <SCORE.INTRA.REPUL.0>
0

>  <SCORE.INTRA.SOLV>
0

>  <SCORE.INTRA.SOLV.lig_0>
-23.8918

>  <SCORE.INTRA.VDW>
0

>  <SCORE.INTRA.VDW.0>
0

>  <SCORE.INTRA.norm>
0

>  <SCORE.RESTR>
0

>  <SCORE.RESTR.CAVITY>
0

>  <SCORE.RESTR.norm>
0

>  <SCORE.SYSTEM>
0

>  <SCORE.SYSTEM.CONST>
0

>  <SCORE.SYSTEM.DIHEDRAL>
0

>  <SCORE.SYSTEM.SOLV>
0

>  <SCORE.SYSTEM.norm>
0

>  <SCORE.heavy>
10

>  <SCORE.norm>
-0.783949

>  <RMSD>
4.843

$$$$
ligand
 OpenBabel11021811513D
libRbt.so/2013.1/901 2013/11/27
 10 11  0  0  0  0  0  0  0  0999 V2000
    2.4502   17.4381    2.7693 N   0  0  0  0  0  0  0  0  0  0  0  0
    1.2264   17.0405    3.1374 C   0  0  0  0  0  0  0  0  0  0  0  0
    0.8729   15.9844    3.8684 N   0  0  0  0  0  0  0  0  0  0  0  0
    1.9530   15.2819    4.2438 C   0  0  0  0  0  0  0  0  0  0  0  0
    3.2718   15.5639    3.9438 C   0  0  0  0  0  0  0  0  0  0  0  0
    3.5165   16.7106    3.1627 C   0  0  0  0  0  0  0  0  0  0  0  0
    4.7405   17.1046    2.7977 N   0  0  0  0  0  0  0  0  0  0  0  0
    4.1154   14.6179    4.5021 N   0  0  0  0  0  0  0  0  0  0  0  0
    3.3008   13.7943    5.1182 C   0  0  0  0  0  0  0  0  0  0  0  0
    1.9815   14.1347    5.0035 N   0  0  0  0  0  0  0  0  0  0  0  0
  1  2  2  0  0  0  0
  1  6  1  0  0  0  0
  2  3  1  0  0  0  0
  3  4  2  0  0  0  0
  4  5  1  0  0  0  0
  4 10  1  0  0  0  0
  5  6  2  0  0  0  0
  5  8  1  0  0  0  0
  6  7  1  0  0  0  0
  8  9  1  0  0  0  0
  9 10  2  0  0  0  0
M  END
>  <CHROM.1>
2.74974424,15.77392647,3.84959848,1.53108398,0.07032254,-0.58633009

>  <Name>
ligand

>  <RI>
0

>  <Rbt.Current_Directory>
/home/itssahil/PROJECTS/Mol_Feturizer/New_Systems/rnas/4XNR

>  <Rbt.Executable>
rbdock ($Id: //depot/dev/client3/rdock/2013.1/src/exe/rbdock.cxx#4 $)

>  <Rbt.Library>
libRbt.so (2013.1, Build901 2013/11/27)

>  <Rbt.Parameter_File>
/export/apps/rDock/src/rDock_2013.1_src/data/scripts/dock_solv.prm

>  <Rbt.Receptor>
prm/blind_docking_20.prm

>  <SCORE>
-7.84746

>  <SCORE.INTER>
-7.84746

>  <SCORE.INTER.CONST>
1

>  <SCORE.INTER.POLAR>
0

>  <SCORE.INTER.ROT>
0

>  <SCORE.INTER.SOLV>
6.73599

>  <SCORE.INTER.VDW>
-11.077

>  <SCORE.INTER.norm>
-0.784746

>  <SCORE.INTRA>
0

>  <SCORE.INTRA.DIHEDRAL>
0

>  <SCORE.INTRA.DIHEDRAL.0>
0

>  <SCORE.INTRA.POLAR>
0

>  <SCORE.INTRA.POLAR.0>
0

>  <SCORE.INTRA.REPUL>
0

>  <SCORE.INTRA.REPUL.0>
0

>  <SCORE.INTRA.SOLV>
0

>  <SCORE.INTRA.SOLV.lig_0>
-23.8918

>  <SCORE.INTRA.VDW>
0

>  <SCORE.INTRA.VDW.0>
0

>  <SCORE.INTRA.norm>
0

>  <SCORE.RESTR>
0

>  <SCORE.RESTR.CAVITY>
0

>  <SCORE.RESTR.norm>
0

>  <SCORE.SYSTEM>
0

>  <SCORE.SYSTEM.CONST>
0

>  <SCORE.SYSTEM.DIHEDRAL>
0

>  <SCORE.SYSTEM.SOLV>
0

>  <SCORE.SYSTEM.norm>
0

>  <SCORE.heavy>
10

>  <SCORE.norm>
-0.784746

>  <RMSD>
4.884

$$$$
ligand
 OpenBabel11021811513D
libRbt.so/2013.1/901 2013/11/27
 10 11  0  0  0  0  0  0  0  0999 V2000
    2.4434   17.4446    2.7749 N   0  0  0  0  0  0  0  0  0  0  0  0
    1.2216   17.0470    3.1498 C   0  0  0  0  0  0  0  0  0  0  0  0
    0.8717   15.9871    3.8771 N   0  0  0  0  0  0  0  0  0  0  0  0
    1.9533   15.2804    4.2401 C   0  0  0  0  0  0  0  0  0  0  0  0
    3.2703   15.5618    3.9318 C   0  0  0  0  0  0  0  0  0  0  0  0
    3.5113   16.7129    3.1559 C   0  0  0  0  0  0  0  0  0  0  0  0
    4.7332   17.1069    2.7840 N   0  0  0  0  0  0  0  0  0  0  0  0
    4.1163   14.6110    4.4781 N   0  0  0  0  0  0  0  0  0  0  0  0
    3.3049   13.7851    5.0953 C   0  0  0  0  0  0  0  0  0  0  0  0
    1.9855   14.1286    4.9926 N   0  0  0  0  0  0  0  0  0  0  0  0
  1  2  2  0  0  0  0
  1  6  1  0  0  0  0
  2  3  1  0  0  0  0
  3  4  2  0  0  0  0
  4  5  1  0  0  0  0
  4 10  1  0  0  0  0
  5  6  2  0  0  0  0
  5  8  1  0  0  0  0
  6  7  1  0  0  0  0
  8  9  1  0  0  0  0
  9 10  2  0  0  0  0
M  END
>  <CHROM.1>
2.74797447,15.77338327,3.84285993,1.53372709,0.07758978,-0.58046244

>  <Name>
ligand

>  <RI>
0

>  <Rbt.Current_Directory>
/home/itssahil/PROJECTS/Mol_Feturizer/New_Systems/rnas/4XNR

>  <Rbt.Executable>
rbdock ($Id: //depot/dev/client3/rdock/2013.1/src/exe/rbdock.cxx#4 $)

>  <Rbt.Library>
libRbt.so (2013.1, Build901 2013/11/27)

>  <Rbt.Parameter_File>
/export/apps/rDock/src/rDock_2013.1_src/data/scripts/dock_solv.prm

>  <Rbt.Receptor>
prm/blind_docking_100.prm

>  <SCORE>
-7.78695

>  <SCORE.INTER>
-7.78695

>  <SCORE.INTER.CONST>
1

>  <SCORE.INTER.POLAR>
0

>  <SCORE.INTER.ROT>
0

>  <SCORE.INTER.SOLV>
6.74793

>  <SCORE.INTER.VDW>
-11.0406

>  <SCORE.INTER.norm>
-0.778695

>  <SCORE.INTRA>
0

>  <SCORE.INTRA.DIHEDRAL>
0

>  <SCORE.INTRA.DIHEDRAL.0>
0

>  <SCORE.INTRA.POLAR>
0

>  <SCORE.INTRA.POLAR.0>
0

>  <SCORE.INTRA.REPUL>
0

>  <SCORE.INTRA.REPUL.0>
0

>  <SCORE.INTRA.SOLV>
0

>  <SCORE.INTRA.SOLV.lig_0>
-23.8918

>  <SCORE.INTRA.VDW>
0

>  <SCORE.INTRA.VDW.0>
0

>  <SCORE.INTRA.norm>
0

>  <SCORE.RESTR>
0

>  <SCORE.RESTR.CAVITY>
0

>  <SCORE.RESTR.norm>
0

>  <SCORE.SYSTEM>
0

>  <SCORE.SYSTEM.CONST>
0

>  <SCORE.SYSTEM.DIHEDRAL>
0

>  <SCORE.SYSTEM.SOLV>
0

>  <SCORE.SYSTEM.norm>
0

>  <SCORE.heavy>
10

>  <SCORE.norm>
-0.778695

>  <RMSD>
4.889

$$$$
ligand
 OpenBabel11021811513D
libRbt.so/2013.1/901 2013/11/27
 10 11  0  0  0  0  0  0  0  0999 V2000
    4.2185   14.6550    3.9357 N   0  0  0  0  0  0  0  0  0  0  0  0
    3.4199   13.9905    4.7795 C   0  0  0  0  0  0  0  0  0  0  0  0
    2.1636   14.2596    5.1316 N   0  0  0  0  0  0  0  0  0  0  0  0
    1.7197   15.3616    4.5075 C   0  0  0  0  0  0  0  0  0  0  0  0
    2.4211   16.1495    3.6154 C   0  0  0  0  0  0  0  0  0  0  0  0
    3.7430   15.7594    3.3233 C   0  0  0  0  0  0  0  0  0  0  0  0
    4.5372   16.4256    2.4794 N   0  0  0  0  0  0  0  0  0  0  0  0
    1.6402   17.2044    3.1729 N   0  0  0  0  0  0  0  0  0  0  0  0
    0.4996   17.0359    3.7988 C   0  0  0  0  0  0  0  0  0  0  0  0
    0.4775   15.9433    4.6206 N   0  0  0  0  0  0  0  0  0  0  0  0
  1  2  2  0  0  0  0
  1  6  1  0  0  0  0
  2  3  1  0  0  0  0
  3  4  2  0  0  0  0
  4  5  1  0  0  0  0
  4 10  1  0  0  0  0
  5  6  2  0  0  0  0
  5  8  1  0  0  0  0
  6  7  1  0  0  0  0
  8  9  1  0  0  0  0
  9 10  2  0  0  0  0
M  END
>  <CHROM.1>
2.49350977,15.67993483,3.93121987,0.23399736,-0.33883712,2.50251722

>  <Name>
ligand

>  <RI>
0

>  <Rbt.Current_Directory>
/home/itssahil/PROJECTS/Mol_Feturizer/New_Systems/rnas/4XNR

>  <Rbt.Executable>
rbdock ($Id: //depot/dev/client3/rdock/2013.1/src/exe/rbdock.cxx#4 $)

>  <Rbt.Library>
libRbt.so (2013.1, Build901 2013/11/27)

>  <Rbt.Parameter_File>
/export/apps/rDock/src/rDock_2013.1_src/data/scripts/dock_solv.prm

>  <Rbt.Receptor>
prm/blind_docking_40.prm

>  <SCORE>
-8.84902

>  <SCORE.INTER>
-8.84902

>  <SCORE.INTER.CONST>
1

>  <SCORE.INTER.POLAR>
0

>  <SCORE.INTER.ROT>
0

>  <SCORE.INTER.SOLV>
8.69909

>  <SCORE.INTER.VDW>
-12.399

>  <SCORE.INTER.norm>
-0.884902

>  <SCORE.INTRA>
0

>  <SCORE.INTRA.DIHEDRAL>
0

>  <SCORE.INTRA.DIHEDRAL.0>
0

>  <SCORE.INTRA.POLAR>
0

>  <SCORE.INTRA.POLAR.0>
0

>  <SCORE.INTRA.REPUL>
0

>  <SCORE.INTRA.REPUL.0>
0

>  <SCORE.INTRA.SOLV>
0

>  <SCORE.INTRA.SOLV.lig_0>
-23.8918

>  <SCORE.INTRA.VDW>
0

>  <SCORE.INTRA.VDW.0>
0

>  <SCORE.INTRA.norm>
0

>  <SCORE.RESTR>
0

>  <SCORE.RESTR.CAVITY>
0

>  <SCORE.RESTR.norm>
0

>  <SCORE.SYSTEM>
0

>  <SCORE.SYSTEM.CONST>
0

>  <SCORE.SYSTEM.DIHEDRAL>
0

>  <SCORE.SYSTEM.SOLV>
0

>  <SCORE.SYSTEM.norm>
0

>  <SCORE.heavy>
10

>  <SCORE.norm>
-0.884902

>  <RMSD>
5.111

$$$$
ligand
 OpenBabel11021811513D
libRbt.so/2013.1/901 2013/11/27
 10 11  0  0  0  0  0  0  0  0999 V2000
    4.2286   14.6982    3.9067 N   0  0  0  0  0  0  0  0  0  0  0  0
    3.4648   14.0017    4.7569 C   0  0  0  0  0  0  0  0  0  0  0  0
    2.2110   14.2358    5.1414 N   0  0  0  0  0  0  0  0  0  0  0  0
    1.7278   15.3372    4.5459 C   0  0  0  0  0  0  0  0  0  0  0  0
    2.3906   16.1555    3.6516 C   0  0  0  0  0  0  0  0  0  0  0  0
    3.7141   15.8011    3.3236 C   0  0  0  0  0  0  0  0  0  0  0  0
    4.4735   16.4991    2.4734 N   0  0  0  0  0  0  0  0  0  0  0  0
    1.5760   17.1990    3.2444 N   0  0  0  0  0  0  0  0  0  0  0  0
    0.4540   16.9939    3.8928 C   0  0  0  0  0  0  0  0  0  0  0  0
    0.4756   15.8879    4.6964 N   0  0  0  0  0  0  0  0  0  0  0  0
  1  2  2  0  0  0  0
  1  6  1  0  0  0  0
  2  3  1  0  0  0  0
  3  4  2  0  0  0  0
  4  5  1  0  0  0  0
  4 10  1  0  0  0  0
  5  6  2  0  0  0  0
  5  8  1  0  0  0  0
  6  7  1  0  0  0  0
  8  9  1  0  0  0  0
  9 10  2  0  0  0  0
M  END
>  <CHROM.1>
2.48090168,15.68270059,3.95787462,0.20008452,-0.34325369,2.50761084

>  <Name>
ligand

>  <RI>
0

>  <Rbt.Current_Directory>
/home/itssahil/PROJECTS/Mol_Feturizer/New_Systems/rnas/4XNR

>  <Rbt.Executable>
rbdock ($Id: //depot/dev/client3/rdock/2013.1/src/exe/rbdock.cxx#4 $)

>  <Rbt.Library>
libRbt.so (2013.1, Build901 2013/11/27)

>  <Rbt.Parameter_File>
/export/apps/rDock/src/rDock_2013.1_src/data/scripts/dock_solv.prm

>  <Rbt.Receptor>
prm/blind_docking_20.prm

>  <SCORE>
-8.84986

>  <SCORE.INTER>
-8.84986

>  <SCORE.INTER.CONST>
1

>  <SCORE.INTER.POLAR>
0

>  <SCORE.INTER.ROT>
0

>  <SCORE.INTER.SOLV>
8.69194

>  <SCORE.INTER.VDW>
-12.3972

>  <SCORE.INTER.norm>
-0.884986

>  <SCORE.INTRA>
0

>  <SCORE.INTRA.DIHEDRAL>
0

>  <SCORE.INTRA.DIHEDRAL.0>
0

>  <SCORE.INTRA.POLAR>
0

>  <SCORE.INTRA.POLAR.0>
0

>  <SCORE.INTRA.REPUL>
0

>  <SCORE.INTRA.REPUL.0>
0

>  <SCORE.INTRA.SOLV>
0

>  <SCORE.INTRA.SOLV.lig_0>
-23.8918

>  <SCORE.INTRA.VDW>
0

>  <SCORE.INTRA.VDW.0>
0

>  <SCORE.INTRA.norm>
0

>  <SCORE.RESTR>
0

>  <SCORE.RESTR.CAVITY>
0

>  <SCORE.RESTR.norm>
0

>  <SCORE.SYSTEM>
0

>  <SCORE.SYSTEM.CONST>
0

>  <SCORE.SYSTEM.DIHEDRAL>
0

>  <SCORE.SYSTEM.SOLV>
0

>  <SCORE.SYSTEM.norm>
0

>  <SCORE.heavy>
10

>  <SCORE.norm>
-0.884986

>  <RMSD>
5.112

$$$$
ligand
 OpenBabel11021811513D
libRbt.so/2013.1/901 2013/11/27
 10 11  0  0  0  0  0  0  0  0999 V2000
    4.2724   14.7893    4.0070 N   0  0  0  0  0  0  0  0  0  0  0  0
    3.4941   14.0543    4.8103 C   0  0  0  0  0  0  0  0  0  0  0  0
    2.2174   14.2420    5.1415 N   0  0  0  0  0  0  0  0  0  0  0  0
    1.7263   15.3382    4.5428 C   0  0  0  0  0  0  0  0  0  0  0  0
    2.4018   16.1927    3.6930 C   0  0  0  0  0  0  0  0  0  0  0  0
    3.7494   15.8858    3.4195 C   0  0  0  0  0  0  0  0  0  0  0  0
    4.5232   16.6223    2.6160 N   0  0  0  0  0  0  0  0  0  0  0  0
    1.5731   17.2172    3.2664 N   0  0  0  0  0  0  0  0  0  0  0  0
    0.4304   16.9655    3.8599 C   0  0  0  0  0  0  0  0  0  0  0  0
    0.4516   15.8466    4.6455 N   0  0  0  0  0  0  0  0  0  0  0  0
  1  2  2  0  0  0  0
  1  6  1  0  0  0  0
  2  3  1  0  0  0  0
  3  4  2  0  0  0  0
  4  5  1  0  0  0  0
  4 10  1  0  0  0  0
  5  6  2  0  0  0  0
  5  8  1  0  0  0  0
  6  7  1  0  0  0  0
  8  9  1  0  0  0  0
  9 10  2  0  0  0  0
M  END
>  <CHROM.1>
2.49343312,15.71755045,3.99520315,0.20073845,-0.28816759,2.52493812

>  <Name>
ligand

>  <RI>
0

>  <Rbt.Current_Directory>
/home/itssahil/PROJECTS/Mol_Feturizer/New_Systems/rnas/4XNR

>  <Rbt.Executable>
rbdock ($Id: //depot/dev/client3/rdock/2013.1/src/exe/rbdock.cxx#4 $)

>  <Rbt.Library>
libRbt.so (2013.1, Build901 2013/11/27)

>  <Rbt.Parameter_File>
/export/apps/rDock/src/rDock_2013.1_src/data/scripts/dock_solv.prm

>  <Rbt.Receptor>
prm/blind_docking_20.prm

>  <SCORE>
-8.76221

>  <SCORE.INTER>
-8.76221

>  <SCORE.INTER.CONST>
1

>  <SCORE.INTER.POLAR>
0

>  <SCORE.INTER.ROT>
0

>  <SCORE.INTER.SOLV>
7.96716

>  <SCORE.INTER.VDW>
-12.0972

>  <SCORE.INTER.norm>
-0.876221

>  <SCORE.INTRA>
0

>  <SCORE.INTRA.DIHEDRAL>
0

>  <SCORE.INTRA.DIHEDRAL.0>
0

>  <SCORE.INTRA.POLAR>
0

>  <SCORE.INTRA.POLAR.0>
0

>  <SCORE.INTRA.REPUL>
0

>  <SCORE.INTRA.REPUL.0>
0

>  <SCORE.INTRA.SOLV>
0

>  <SCORE.INTRA.SOLV.lig_0>
-23.8918

>  <SCORE.INTRA.VDW>
0

>  <SCORE.INTRA.VDW.0>
0

>  <SCORE.INTRA.norm>
0

>  <SCORE.RESTR>
0

>  <SCORE.RESTR.CAVITY>
0

>  <SCORE.RESTR.norm>
0

>  <SCORE.SYSTEM>
0

>  <SCORE.SYSTEM.CONST>
0

>  <SCORE.SYSTEM.DIHEDRAL>
0

>  <SCORE.SYSTEM.SOLV>
0

>  <SCORE.SYSTEM.norm>
0

>  <SCORE.heavy>
10

>  <SCORE.norm>
-0.876221

>  <RMSD>
5.112

$$$$
ligand
 OpenBabel11021811513D
libRbt.so/2013.1/901 2013/11/27
 10 11  0  0  0  0  0  0  0  0999 V2000
    4.2140   14.5406    3.9806 N   0  0  0  0  0  0  0  0  0  0  0  0
    3.3927   13.9103    4.8288 C   0  0  0  0  0  0  0  0  0  0  0  0
    2.1446   14.2225    5.1747 N   0  0  0  0  0  0  0  0  0  0  0  0
    1.7374   15.3318    4.5384 C   0  0  0  0  0  0  0  0  0  0  0  0
    2.4656   16.0881    3.6404 C   0  0  0  0  0  0  0  0  0  0  0  0
    3.7752   15.6534    3.3560 C   0  0  0  0  0  0  0  0  0  0  0  0
    4.5922   16.2856    2.5077 N   0  0  0  0  0  0  0  0  0  0  0  0
    1.7197   17.1626    3.1853 N   0  0  0  0  0  0  0  0  0  0  0  0
    0.5727   17.0366    3.8097 C   0  0  0  0  0  0  0  0  0  0  0  0
    0.5140   15.9536    4.6422 N   0  0  0  0  0  0  0  0  0  0  0  0
  1  2  2  0  0  0  0
  1  6  1  0  0  0  0
  2  3  1  0  0  0  0
  3  4  2  0  0  0  0
  4  5  1  0  0  0  0
  4 10  1  0  0  0  0
  5  6  2  0  0  0  0
  5  8  1  0  0  0  0
  6  7  1  0  0  0  0
  8  9  1  0  0  0  0
  9 10  2  0  0  0  0
M  END
>  <CHROM.1>
2.52233949,15.61962009,3.96114716,0.26270752,-0.35563365,2.50227677

>  <Name>
ligand

>  <RI>
0

>  <Rbt.Current_Directory>
/home/itssahil/PROJECTS/Mol_Feturizer/New_Systems/rnas/4XNR

>  <Rbt.Executable>
rbdock ($Id: //depot/dev/client3/rdock/2013.1/src/exe/rbdock.cxx#4 $)

>  <Rbt.Library>
libRbt.so (2013.1, Build901 2013/11/27)

>  <Rbt.Parameter_File>
/export/apps/rDock/src/rDock_2013.1_src/data/scripts/dock_solv.prm

>  <Rbt.Receptor>
prm/blind_docking_20.prm

>  <SCORE>
-8.83727

>  <SCORE.INTER>
-8.83727

>  <SCORE.INTER.CONST>
1

>  <SCORE.INTER.POLAR>
0

>  <SCORE.INTER.ROT>
0

>  <SCORE.INTER.SOLV>
8.76183

>  <SCORE.INTER.VDW>
-12.4121

>  <SCORE.INTER.norm>
-0.883727

>  <SCORE.INTRA>
0

>  <SCORE.INTRA.DIHEDRAL>
0

>  <SCORE.INTRA.DIHEDRAL.0>
0

>  <SCORE.INTRA.POLAR>
0

>  <SCORE.INTRA.POLAR.0>
0

>  <SCORE.INTRA.REPUL>
0

>  <SCORE.INTRA.REPUL.0>
0

>  <SCORE.INTRA.SOLV>
0

>  <SCORE.INTRA.SOLV.lig_0>
-23.8918

>  <SCORE.INTRA.VDW>
0

>  <SCORE.INTRA.VDW.0>
0

>  <SCORE.INTRA.norm>
0

>  <SCORE.RESTR>
0

>  <SCORE.RESTR.CAVITY>
0

>  <SCORE.RESTR.norm>
0

>  <SCORE.SYSTEM>
0

>  <SCORE.SYSTEM.CONST>
0

>  <SCORE.SYSTEM.DIHEDRAL>
0

>  <SCORE.SYSTEM.SOLV>
0

>  <SCORE.SYSTEM.norm>
0

>  <SCORE.heavy>
10

>  <SCORE.norm>
-0.883727

>  <RMSD>
5.116

$$$$
ligand
 OpenBabel11021811513D
libRbt.so/2013.1/901 2013/11/27
 10 11  0  0  0  0  0  0  0  0999 V2000
    4.2066   14.5766    3.9757 N   0  0  0  0  0  0  0  0  0  0  0  0
    3.3934   13.9353    4.8236 C   0  0  0  0  0  0  0  0  0  0  0  0
    2.1418   14.2319    5.1704 N   0  0  0  0  0  0  0  0  0  0  0  0
    1.7208   15.3368    4.5356 C   0  0  0  0  0  0  0  0  0  0  0  0
    2.4393   16.1030    3.6381 C   0  0  0  0  0  0  0  0  0  0  0  0
    3.7540   15.6846    3.3525 C   0  0  0  0  0  0  0  0  0  0  0  0
    4.5628   16.3277    2.5045 N   0  0  0  0  0  0  0  0  0  0  0  0
    1.6801   17.1689    3.1845 N   0  0  0  0  0  0  0  0  0  0  0  0
    0.5350   17.0282    3.8094 C   0  0  0  0  0  0  0  0  0  0  0  0
    0.4900   15.9436    4.6407 N   0  0  0  0  0  0  0  0  0  0  0  0
  1  2  2  0  0  0  0
  1  6  1  0  0  0  0
  2  3  1  0  0  0  0
  3  4  2  0  0  0  0
  4  5  1  0  0  0  0
  4 10  1  0  0  0  0
  5  6  2  0  0  0  0
  5  8  1  0  0  0  0
  6  7  1  0  0  0  0
  8  9  1  0  0  0  0
  9 10  2  0  0  0  0
M  END
>  <CHROM.1>
2.50187508,15.63489448,3.95824789,0.25197729,-0.34874144,2.49971084

>  <Name>
ligand

>  <RI>
0

>  <Rbt.Current_Directory>
/home/itssahil/PROJECTS/Mol_Feturizer/New_Systems/rnas/4XNR

>  <Rbt.Executable>
rbdock ($Id: //depot/dev/client3/rdock/2013.1/src/exe/rbdock.cxx#4 $)

>  <Rbt.Library>
libRbt.so (2013.1, Build901 2013/11/27)

>  <Rbt.Parameter_File>
/export/apps/rDock/src/rDock_2013.1_src/data/scripts/dock_solv.prm

>  <Rbt.Receptor>
prm/blind_docking_20.prm

>  <SCORE>
-8.8803

>  <SCORE.INTER>
-8.8803

>  <SCORE.INTER.CONST>
1

>  <SCORE.INTER.POLAR>
0

>  <SCORE.INTER.ROT>
0

>  <SCORE.INTER.SOLV>
8.74246

>  <SCORE.INTER.VDW>
-12.4344

>  <SCORE.INTER.norm>
-0.88803

>  <SCORE.INTRA>
0

>  <SCORE.INTRA.DIHEDRAL>
0

>  <SCORE.INTRA.DIHEDRAL.0>
0

>  <SCORE.INTRA.POLAR>
0

>  <SCORE.INTRA.POLAR.0>
0

>  <SCORE.INTRA.REPUL>
0

>  <SCORE.INTRA.REPUL.0>
0

>  <SCORE.INTRA.SOLV>
0

>  <SCORE.INTRA.SOLV.lig_0>
-23.8918

>  <SCORE.INTRA.VDW>
0

>  <SCORE.INTRA.VDW.0>
0

>  <SCORE.INTRA.norm>
0

>  <SCORE.RESTR>
0

>  <SCORE.RESTR.CAVITY>
0

>  <SCORE.RESTR.norm>
0

>  <SCORE.SYSTEM>
0

>  <SCORE.SYSTEM.CONST>
0

>  <SCORE.SYSTEM.DIHEDRAL>
0

>  <SCORE.SYSTEM.SOLV>
0

>  <SCORE.SYSTEM.norm>
0

>  <SCORE.heavy>
10

>  <SCORE.norm>
-0.88803

>  <RMSD>
5.124

$$$$
ligand
 OpenBabel11021811513D
libRbt.so/2013.1/901 2013/11/27
 10 11  0  0  0  0  0  0  0  0999 V2000
    4.2075   14.5757    3.9770 N   0  0  0  0  0  0  0  0  0  0  0  0
    3.4005   13.9328    4.8296 C   0  0  0  0  0  0  0  0  0  0  0  0
    2.1498   14.2260    5.1823 N   0  0  0  0  0  0  0  0  0  0  0  0
    1.7222   15.3290    4.5484 C   0  0  0  0  0  0  0  0  0  0  0  0
    2.4339   16.0964    3.6467 C   0  0  0  0  0  0  0  0  0  0  0  0
    3.7485   15.6818    3.3550 C   0  0  0  0  0  0  0  0  0  0  0  0
    4.5511   16.3264    2.5024 N   0  0  0  0  0  0  0  0  0  0  0  0
    1.6693   17.1595    3.1958 N   0  0  0  0  0  0  0  0  0  0  0  0
    0.5278   17.0160    3.8265 C   0  0  0  0  0  0  0  0  0  0  0  0
    0.4901   15.9320    4.6590 N   0  0  0  0  0  0  0  0  0  0  0  0
  1  2  2  0  0  0  0
  1  6  1  0  0  0  0
  2  3  1  0  0  0  0
  3  4  2  0  0  0  0
  4  5  1  0  0  0  0
  4 10  1  0  0  0  0
  5  6  2  0  0  0  0
  5  8  1  0  0  0  0
  6  7  1  0  0  0  0
  8  9  1  0  0  0  0
  9 10  2  0  0  0  0
M  END
>  <CHROM.1>
2.49955796,15.62880740,3.96698505,0.24622909,-0.35086324,2.49674208

>  <Name>
ligand

>  <RI>
0

>  <Rbt.Current_Directory>
/home/itssahil/PROJECTS/Mol_Feturizer/New_Systems/rnas/4XNR

>  <Rbt.Executable>
rbdock ($Id: //depot/dev/client3/rdock/2013.1/src/exe/rbdock.cxx#4 $)

>  <Rbt.Library>
libRbt.so (2013.1, Build901 2013/11/27)

>  <Rbt.Parameter_File>
/export/apps/rDock/src/rDock_2013.1_src/data/scripts/dock_solv.prm

>  <Rbt.Receptor>
prm/blind_docking_20.prm

>  <SCORE>
-8.87834

>  <SCORE.INTER>
-8.87834

>  <SCORE.INTER.CONST>
1

>  <SCORE.INTER.POLAR>
0

>  <SCORE.INTER.ROT>
0

>  <SCORE.INTER.SOLV>
8.76658

>  <SCORE.INTER.VDW>
-12.4411

>  <SCORE.INTER.norm>
-0.887834

>  <SCORE.INTRA>
0

>  <SCORE.INTRA.DIHEDRAL>
0

>  <SCORE.INTRA.DIHEDRAL.0>
0

>  <SCORE.INTRA.POLAR>
0

>  <SCORE.INTRA.POLAR.0>
0

>  <SCORE.INTRA.REPUL>
0

>  <SCORE.INTRA.REPUL.0>
0

>  <SCORE.INTRA.SOLV>
0

>  <SCORE.INTRA.SOLV.lig_0>
-23.8918

>  <SCORE.INTRA.VDW>
0

>  <SCORE.INTRA.VDW.0>
0

>  <SCORE.INTRA.norm>
0

>  <SCORE.RESTR>
0

>  <SCORE.RESTR.CAVITY>
0

>  <SCORE.RESTR.norm>
0

>  <SCORE.SYSTEM>
0

>  <SCORE.SYSTEM.CONST>
0

>  <SCORE.SYSTEM.DIHEDRAL>
0

>  <SCORE.SYSTEM.SOLV>
0

>  <SCORE.SYSTEM.norm>
0

>  <SCORE.heavy>
10

>  <SCORE.norm>
-0.887834

>  <RMSD>
5.128

$$$$
ligand
 OpenBabel11021811513D
libRbt.so/2013.1/901 2013/11/27
 10 11  0  0  0  0  0  0  0  0999 V2000
    4.1899   14.5505    3.9851 N   0  0  0  0  0  0  0  0  0  0  0  0
    3.3692   13.9122    4.8279 C   0  0  0  0  0  0  0  0  0  0  0  0
    2.1175   14.2149    5.1691 N   0  0  0  0  0  0  0  0  0  0  0  0
    1.7054   15.3230    4.5340 C   0  0  0  0  0  0  0  0  0  0  0  0
    2.4324   16.0868    3.6414 C   0  0  0  0  0  0  0  0  0  0  0  0
    3.7462   15.6619    3.3615 C   0  0  0  0  0  0  0  0  0  0  0  0
    4.5626   16.3020    2.5186 N   0  0  0  0  0  0  0  0  0  0  0  0
    1.6811   17.1575    3.1858 N   0  0  0  0  0  0  0  0  0  0  0  0
    0.5323   17.0219    3.8048 C   0  0  0  0  0  0  0  0  0  0  0  0
    0.4774   15.9361    4.6341 N   0  0  0  0  0  0  0  0  0  0  0  0
  1  2  2  0  0  0  0
  1  6  1  0  0  0  0
  2  3  1  0  0  0  0
  3  4  2  0  0  0  0
  4  5  1  0  0  0  0
  4 10  1  0  0  0  0
  5  6  2  0  0  0  0
  5  8  1  0  0  0  0
  6  7  1  0  0  0  0
  8  9  1  0  0  0  0
  9 10  2  0  0  0  0
M  END
>  <CHROM.1>
2.49093040,15.61787478,3.96104674,0.25962644,-0.34797142,2.50394394

>  <Name>
ligand

>  <RI>
0

>  <Rbt.Current_Directory>
/home/itssahil/PROJECTS/Mol_Feturizer/New_Systems/rnas/4XNR

>  <Rbt.Executable>
rbdock ($Id: //depot/dev/client3/rdock/2013.1/src/exe/rbdock.cxx#4 $)

>  <Rbt.Library>
libRbt.so (2013.1, Build901 2013/11/27)

>  <Rbt.Parameter_File>
/export/apps/rDock/src/rDock_2013.1_src/data/scripts/dock_solv.prm

>  <Rbt.Receptor>
prm/blind_docking_20.prm

>  <SCORE>
-8.88661

>  <SCORE.INTER>
-8.88661

>  <SCORE.INTER.CONST>
1

>  <SCORE.INTER.POLAR>
0

>  <SCORE.INTER.ROT>
0

>  <SCORE.INTER.SOLV>
8.72072

>  <SCORE.INTER.VDW>
-12.4313

>  <SCORE.INTER.norm>
-0.888661

>  <SCORE.INTRA>
0

>  <SCORE.INTRA.DIHEDRAL>
0

>  <SCORE.INTRA.DIHEDRAL.0>
0

>  <SCORE.INTRA.POLAR>
0

>  <SCORE.INTRA.POLAR.0>
0

>  <SCORE.INTRA.REPUL>
0

>  <SCORE.INTRA.REPUL.0>
0

>  <SCORE.INTRA.SOLV>
0

>  <SCORE.INTRA.SOLV.lig_0>
-23.8918

>  <SCORE.INTRA.VDW>
0

>  <SCORE.INTRA.VDW.0>
0

>  <SCORE.INTRA.norm>
0

>  <SCORE.RESTR>
0

>  <SCORE.RESTR.CAVITY>
0

>  <SCORE.RESTR.norm>
0

>  <SCORE.SYSTEM>
0

>  <SCORE.SYSTEM.CONST>
0

>  <SCORE.SYSTEM.DIHEDRAL>
0

>  <SCORE.SYSTEM.SOLV>
0

>  <SCORE.SYSTEM.norm>
0

>  <SCORE.heavy>
10

>  <SCORE.norm>
-0.888661

>  <RMSD>
5.140

$$$$
ligand
 OpenBabel11021811513D
libRbt.so/2013.1/901 2013/11/27
 10 11  0  0  0  0  0  0  0  0999 V2000
    4.1871   14.5445    3.9823 N   0  0  0  0  0  0  0  0  0  0  0  0
    3.3659   13.9030    4.8221 C   0  0  0  0  0  0  0  0  0  0  0  0
    2.1141   14.2046    5.1639 N   0  0  0  0  0  0  0  0  0  0  0  0
    1.7025   15.3154    4.5331 C   0  0  0  0  0  0  0  0  0  0  0  0
    2.4301   16.0826    3.6439 C   0  0  0  0  0  0  0  0  0  0  0  0
    3.7440   15.6586    3.3630 C   0  0  0  0  0  0  0  0  0  0  0  0
    4.5609   16.3019    2.5230 N   0  0  0  0  0  0  0  0  0  0  0  0
    1.6792   17.1552    3.1923 N   0  0  0  0  0  0  0  0  0  0  0  0
    0.5301   17.0173    3.8102 C   0  0  0  0  0  0  0  0  0  0  0  0
    0.4746   15.9283    4.6350 N   0  0  0  0  0  0  0  0  0  0  0  0
  1  2  2  0  0  0  0
  1  6  1  0  0  0  0
  2  3  1  0  0  0  0
  3  4  2  0  0  0  0
  4  5  1  0  0  0  0
  4 10  1  0  0  0  0
  5  6  2  0  0  0  0
  5  8  1  0  0  0  0
  6  7  1  0  0  0  0
  8  9  1  0  0  0  0
  9 10  2  0  0  0  0
M  END
>  <CHROM.1>
2.48838172,15.61234631,3.96167769,0.26011219,-0.34769092,2.50815717

>  <Name>
ligand

>  <RI>
0

>  <Rbt.Current_Directory>
/home/itssahil/PROJECTS/Mol_Feturizer/New_Systems/rnas/4XNR

>  <Rbt.Executable>
rbdock ($Id: //depot/dev/client3/rdock/2013.1/src/exe/rbdock.cxx#4 $)

>  <Rbt.Library>
libRbt.so (2013.1, Build901 2013/11/27)

>  <Rbt.Parameter_File>
/export/apps/rDock/src/rDock_2013.1_src/data/scripts/dock_solv.prm

>  <Rbt.Receptor>
prm/blind_docking_20.prm

>  <SCORE>
-8.8881

>  <SCORE.INTER>
-8.8881

>  <SCORE.INTER.CONST>
1

>  <SCORE.INTER.POLAR>
0

>  <SCORE.INTER.ROT>
0

>  <SCORE.INTER.SOLV>
8.7019

>  <SCORE.INTER.VDW>
-12.426

>  <SCORE.INTER.norm>
-0.88881

>  <SCORE.INTRA>
0

>  <SCORE.INTRA.DIHEDRAL>
0

>  <SCORE.INTRA.DIHEDRAL.0>
0

>  <SCORE.INTRA.POLAR>
0

>  <SCORE.INTRA.POLAR.0>
0

>  <SCORE.INTRA.REPUL>
0

>  <SCORE.INTRA.REPUL.0>
0

>  <SCORE.INTRA.SOLV>
0

>  <SCORE.INTRA.SOLV.lig_0>
-23.8918

>  <SCORE.INTRA.VDW>
0

>  <SCORE.INTRA.VDW.0>
0

>  <SCORE.INTRA.norm>
0

>  <SCORE.RESTR>
0

>  <SCORE.RESTR.CAVITY>
0

>  <SCORE.RESTR.norm>
0

>  <SCORE.SYSTEM>
0

>  <SCORE.SYSTEM.CONST>
0

>  <SCORE.SYSTEM.DIHEDRAL>
0

>  <SCORE.SYSTEM.SOLV>
0

>  <SCORE.SYSTEM.norm>
0

>  <SCORE.heavy>
10

>  <SCORE.norm>
-0.88881

>  <RMSD>
5.144

$$$$
ligand
 OpenBabel11021811513D
libRbt.so/2013.1/901 2013/11/27
 10 11  0  0  0  0  0  0  0  0999 V2000
    4.1740   14.5346    3.9879 N   0  0  0  0  0  0  0  0  0  0  0  0
    3.3426   13.9022    4.8247 C   0  0  0  0  0  0  0  0  0  0  0  0
    2.0921   14.2162    5.1600 N   0  0  0  0  0  0  0  0  0  0  0  0
    1.6943   15.3300    4.5257 C   0  0  0  0  0  0  0  0  0  0  0  0
    2.4334   16.0889    3.6389 C   0  0  0  0  0  0  0  0  0  0  0  0
    3.7445   15.6520    3.3650 C   0  0  0  0  0  0  0  0  0  0  0  0
    4.5716   16.2862    2.5281 N   0  0  0  0  0  0  0  0  0  0  0  0
    1.6951   17.1681    3.1822 N   0  0  0  0  0  0  0  0  0  0  0  0
    0.5417   17.0421    3.7947 C   0  0  0  0  0  0  0  0  0  0  0  0
    0.4718   15.9548    4.6208 N   0  0  0  0  0  0  0  0  0  0  0  0
  1  2  2  0  0  0  0
  1  6  1  0  0  0  0
  2  3  1  0  0  0  0
  3  4  2  0  0  0  0
  4  5  1  0  0  0  0
  4 10  1  0  0  0  0
  5  6  2  0  0  0  0
  5  8  1  0  0  0  0
  6  7  1  0  0  0  0
  8  9  1  0  0  0  0
  9 10  2  0  0  0  0
M  END
>  <CHROM.1>
2.48567596,15.61862034,3.95764759,0.27137775,-0.34946564,2.51059688

>  <Name>
ligand

>  <RI>
0

>  <Rbt.Current_Directory>
/home/itssahil/PROJECTS/Mol_Feturizer/New_Systems/rnas/4XNR

>  <Rbt.Executable>
rbdock ($Id: //depot/dev/client3/rdock/2013.1/src/exe/rbdock.cxx#4 $)

>  <Rbt.Library>
libRbt.so (2013.1, Build901 2013/11/27)

>  <Rbt.Parameter_File>
/export/apps/rDock/src/rDock_2013.1_src/data/scripts/dock_solv.prm

>  <Rbt.Receptor>
prm/blind_docking_20.prm

>  <SCORE>
-8.84354

>  <SCORE.INTER>
-8.84354

>  <SCORE.INTER.CONST>
1

>  <SCORE.INTER.POLAR>
0

>  <SCORE.INTER.ROT>
0

>  <SCORE.INTER.SOLV>
8.68905

>  <SCORE.INTER.VDW>
-12.392

>  <SCORE.INTER.norm>
-0.884354

>  <SCORE.INTRA>
0

>  <SCORE.INTRA.DIHEDRAL>
0

>  <SCORE.INTRA.DIHEDRAL.0>
0

>  <SCORE.INTRA.POLAR>
0

>  <SCORE.INTRA.POLAR.0>
0

>  <SCORE.INTRA.REPUL>
0

>  <SCORE.INTRA.REPUL.0>
0

>  <SCORE.INTRA.SOLV>
0

>  <SCORE.INTRA.SOLV.lig_0>
-23.8918

>  <SCORE.INTRA.VDW>
0

>  <SCORE.INTRA.VDW.0>
0

>  <SCORE.INTRA.norm>
0

>  <SCORE.RESTR>
0

>  <SCORE.RESTR.CAVITY>
0

>  <SCORE.RESTR.norm>
0

>  <SCORE.SYSTEM>
0

>  <SCORE.SYSTEM.CONST>
0

>  <SCORE.SYSTEM.DIHEDRAL>
0

>  <SCORE.SYSTEM.SOLV>
0

>  <SCORE.SYSTEM.norm>
0

>  <SCORE.heavy>
10

>  <SCORE.norm>
-0.884354

>  <RMSD>
5.144

$$$$
ligand
 OpenBabel11021811513D
libRbt.so/2013.1/901 2013/11/27
 10 11  0  0  0  0  0  0  0  0999 V2000
    4.1758   14.6142    3.9091 N   0  0  0  0  0  0  0  0  0  0  0  0
    3.3962   13.9299    4.7548 C   0  0  0  0  0  0  0  0  0  0  0  0
    2.1466   14.1879    5.1377 N   0  0  0  0  0  0  0  0  0  0  0  0
    1.6873   15.3014    4.5460 C   0  0  0  0  0  0  0  0  0  0  0  0
    2.3685   16.1099    3.6566 C   0  0  0  0  0  0  0  0  0  0  0  0
    3.6853   15.7299    3.3298 C   0  0  0  0  0  0  0  0  0  0  0  0
    4.4605   16.4158    2.4841 N   0  0  0  0  0  0  0  0  0  0  0  0
    1.5762   17.1715    3.2522 N   0  0  0  0  0  0  0  0  0  0  0  0
    0.4489   16.9866    3.8974 C   0  0  0  0  0  0  0  0  0  0  0  0
    0.4463   15.8770    4.6963 N   0  0  0  0  0  0  0  0  0  0  0  0
  1  2  2  0  0  0  0
  1  6  1  0  0  0  0
  2  3  1  0  0  0  0
  3  4  2  0  0  0  0
  4  5  1  0  0  0  0
  4 10  1  0  0  0  0
  5  6  2  0  0  0  0
  5  8  1  0  0  0  0
  6  7  1  0  0  0  0
  8  9  1  0  0  0  0
  9 10  2  0  0  0  0
M  END
>  <CHROM.1>
2.44851103,15.63400611,3.96099080,0.21896838,-0.35357494,2.51835845

>  <Name>
ligand

>  <RI>
0

>  <Rbt.Current_Directory>
/home/itssahil/PROJECTS/Mol_Feturizer/New_Systems/rnas/4XNR

>  <Rbt.Executable>
rbdock ($Id: //depot/dev/client3/rdock/2013.1/src/exe/rbdock.cxx#4 $)

>  <Rbt.Library>
libRbt.so (2013.1, Build901 2013/11/27)

>  <Rbt.Parameter_File>
/export/apps/rDock/src/rDock_2013.1_src/data/scripts/dock_solv.prm

>  <Rbt.Receptor>
prm/blind_docking_20.prm

>  <SCORE>
-8.89449

>  <SCORE.INTER>
-8.89449

>  <SCORE.INTER.CONST>
1

>  <SCORE.INTER.POLAR>
0

>  <SCORE.INTER.ROT>
0

>  <SCORE.INTER.SOLV>
8.73697

>  <SCORE.INTER.VDW>
-12.442

>  <SCORE.INTER.norm>
-0.889449

>  <SCORE.INTRA>
0

>  <SCORE.INTRA.DIHEDRAL>
0

>  <SCORE.INTRA.DIHEDRAL.0>
0

>  <SCORE.INTRA.POLAR>
0

>  <SCORE.INTRA.POLAR.0>
0

>  <SCORE.INTRA.REPUL>
0

>  <SCORE.INTRA.REPUL.0>
0

>  <SCORE.INTRA.SOLV>
0

>  <SCORE.INTRA.SOLV.lig_0>
-23.8918

>  <SCORE.INTRA.VDW>
0

>  <SCORE.INTRA.VDW.0>
0

>  <SCORE.INTRA.norm>
0

>  <SCORE.RESTR>
0

>  <SCORE.RESTR.CAVITY>
0

>  <SCORE.RESTR.norm>
0

>  <SCORE.SYSTEM>
0

>  <SCORE.SYSTEM.CONST>
0

>  <SCORE.SYSTEM.DIHEDRAL>
0

>  <SCORE.SYSTEM.SOLV>
0

>  <SCORE.SYSTEM.norm>
0

>  <SCORE.heavy>
10

>  <SCORE.norm>
-0.889449

>  <RMSD>
5.153

$$$$
ligand
 OpenBabel11021811513D
libRbt.so/2013.1/901 2013/11/27
 10 11  0  0  0  0  0  0  0  0999 V2000
    4.1797   14.5312    3.9903 N   0  0  0  0  0  0  0  0  0  0  0  0
    3.3601   13.8926    4.8340 C   0  0  0  0  0  0  0  0  0  0  0  0
    2.1095   14.1962    5.1782 N   0  0  0  0  0  0  0  0  0  0  0  0
    1.6972   15.3056    4.5454 C   0  0  0  0  0  0  0  0  0  0  0  0
    2.4230   16.0697    3.6522 C   0  0  0  0  0  0  0  0  0  0  0  0
    3.7359   15.6439    3.3691 C   0  0  0  0  0  0  0  0  0  0  0  0
    4.5511   16.2842    2.5252 N   0  0  0  0  0  0  0  0  0  0  0  0
    1.6719   17.1417    3.1996 N   0  0  0  0  0  0  0  0  0  0  0  0
    0.5242   17.0065    3.8208 C   0  0  0  0  0  0  0  0  0  0  0  0
    0.4700   15.9197    4.6489 N   0  0  0  0  0  0  0  0  0  0  0  0
  1  2  2  0  0  0  0
  1  6  1  0  0  0  0
  2  3  1  0  0  0  0
  3  4  2  0  0  0  0
  4  5  1  0  0  0  0
  4 10  1  0  0  0  0
  5  6  2  0  0  0  0
  5  8  1  0  0  0  0
  6  7  1  0  0  0  0
  8  9  1  0  0  0  0
  9 10  2  0  0  0  0
M  END
>  <CHROM.1>
2.48178918,15.60031600,3.97115784,0.25915451,-0.35026843,2.50505362

>  <Name>
ligand

>  <RI>
0

>  <Rbt.Current_Directory>
/home/itssahil/PROJECTS/Mol_Feturizer/New_Systems/rnas/4XNR

>  <Rbt.Executable>
rbdock ($Id: //depot/dev/client3/rdock/2013.1/src/exe/rbdock.cxx#4 $)

>  <Rbt.Library>
libRbt.so (2013.1, Build901 2013/11/27)

>  <Rbt.Parameter_File>
/export/apps/rDock/src/rDock_2013.1_src/data/scripts/dock_solv.prm

>  <Rbt.Receptor>
prm/blind_docking_20.prm

>  <SCORE>
-8.88362

>  <SCORE.INTER>
-8.88362

>  <SCORE.INTER.CONST>
1

>  <SCORE.INTER.POLAR>
0

>  <SCORE.INTER.ROT>
0

>  <SCORE.INTER.SOLV>
8.72912

>  <SCORE.INTER.VDW>
-12.4321

>  <SCORE.INTER.norm>
-0.888362

>  <SCORE.INTRA>
0

>  <SCORE.INTRA.DIHEDRAL>
0

>  <SCORE.INTRA.DIHEDRAL.0>
0

>  <SCORE.INTRA.POLAR>
0

>  <SCORE.INTRA.POLAR.0>
0

>  <SCORE.INTRA.REPUL>
0

>  <SCORE.INTRA.REPUL.0>
0

>  <SCORE.INTRA.SOLV>
0

>  <SCORE.INTRA.SOLV.lig_0>
-23.8918

>  <SCORE.INTRA.VDW>
0

>  <SCORE.INTRA.VDW.0>
0

>  <SCORE.INTRA.norm>
0

>  <SCORE.RESTR>
0

>  <SCORE.RESTR.CAVITY>
0

>  <SCORE.RESTR.norm>
0

>  <SCORE.SYSTEM>
0

>  <SCORE.SYSTEM.CONST>
0

>  <SCORE.SYSTEM.DIHEDRAL>
0

>  <SCORE.SYSTEM.SOLV>
0

>  <SCORE.SYSTEM.norm>
0

>  <SCORE.heavy>
10

>  <SCORE.norm>
-0.888362

>  <RMSD>
5.153

$$$$
ligand
 OpenBabel11021811513D
libRbt.so/2013.1/901 2013/11/27
 10 11  0  0  0  0  0  0  0  0999 V2000
    4.1729   14.5256    3.9963 N   0  0  0  0  0  0  0  0  0  0  0  0
    3.3481   13.8942    4.8402 C   0  0  0  0  0  0  0  0  0  0  0  0
    2.0981   14.2053    5.1802 N   0  0  0  0  0  0  0  0  0  0  0  0
    1.6930   15.3144    4.5424 C   0  0  0  0  0  0  0  0  0  0  0  0
    2.4249   16.0717    3.6482 C   0  0  0  0  0  0  0  0  0  0  0  0
    3.7363   15.6383    3.3699 C   0  0  0  0  0  0  0  0  0  0  0  0
    4.5568   16.2715    2.5258 N   0  0  0  0  0  0  0  0  0  0  0  0
    1.6802   17.1458    3.1899 N   0  0  0  0  0  0  0  0  0  0  0  0
    0.5303   17.0185    3.8087 C   0  0  0  0  0  0  0  0  0  0  0  0
    0.4686   15.9351    4.6405 N   0  0  0  0  0  0  0  0  0  0  0  0
  1  2  2  0  0  0  0
  1  6  1  0  0  0  0
  2  3  1  0  0  0  0
  3  4  2  0  0  0  0
  4  5  1  0  0  0  0
  4 10  1  0  0  0  0
  5  6  2  0  0  0  0
  5  8  1  0  0  0  0
  6  7  1  0  0  0  0
  8  9  1  0  0  0  0
  9 10  2  0  0  0  0
M  END
>  <CHROM.1>
2.48046421,15.60315942,3.96902024,0.26503192,-0.35122787,2.50347889

>  <Name>
ligand

>  <RI>
0

>  <Rbt.Current_Directory>
/home/itssahil/PROJECTS/Mol_Feturizer/New_Systems/rnas/4XNR

>  <Rbt.Executable>
rbdock ($Id: //depot/dev/client3/rdock/2013.1/src/exe/rbdock.cxx#4 $)

>  <Rbt.Library>
libRbt.so (2013.1, Build901 2013/11/27)

>  <Rbt.Parameter_File>
/export/apps/rDock/src/rDock_2013.1_src/data/scripts/dock_solv.prm

>  <Rbt.Receptor>
prm/blind_docking_20.prm

>  <SCORE>
-8.87939

>  <SCORE.INTER>
-8.87939

>  <SCORE.INTER.CONST>
1

>  <SCORE.INTER.POLAR>
0

>  <SCORE.INTER.ROT>
0

>  <SCORE.INTER.SOLV>
8.73781

>  <SCORE.INTER.VDW>
-12.4322

>  <SCORE.INTER.norm>
-0.887939

>  <SCORE.INTRA>
0

>  <SCORE.INTRA.DIHEDRAL>
0

>  <SCORE.INTRA.DIHEDRAL.0>
0

>  <SCORE.INTRA.POLAR>
0

>  <SCORE.INTRA.POLAR.0>
0

>  <SCORE.INTRA.REPUL>
0

>  <SCORE.INTRA.REPUL.0>
0

>  <SCORE.INTRA.SOLV>
0

>  <SCORE.INTRA.SOLV.lig_0>
-23.8918

>  <SCORE.INTRA.VDW>
0

>  <SCORE.INTRA.VDW.0>
0

>  <SCORE.INTRA.norm>
0

>  <SCORE.RESTR>
0

>  <SCORE.RESTR.CAVITY>
0

>  <SCORE.RESTR.norm>
0

>  <SCORE.SYSTEM>
0

>  <SCORE.SYSTEM.CONST>
0

>  <SCORE.SYSTEM.DIHEDRAL>
0

>  <SCORE.SYSTEM.SOLV>
0

>  <SCORE.SYSTEM.norm>
0

>  <SCORE.heavy>
10

>  <SCORE.norm>
-0.887939

>  <RMSD>
5.154

$$$$
ligand
 OpenBabel11021811513D
libRbt.so/2013.1/901 2013/11/27
 10 11  0  0  0  0  0  0  0  0999 V2000
    4.1354   14.4780    4.0184 N   0  0  0  0  0  0  0  0  0  0  0  0
    3.2975   13.8622    4.8610 C   0  0  0  0  0  0  0  0  0  0  0  0
    2.0514   14.1941    5.1955 N   0  0  0  0  0  0  0  0  0  0  0  0
    1.6664   15.3078    4.5533 C   0  0  0  0  0  0  0  0  0  0  0  0
    2.4135   16.0509    3.6598 C   0  0  0  0  0  0  0  0  0  0  0  0
    3.7188   15.5958    3.3875 C   0  0  0  0  0  0  0  0  0  0  0  0
    4.5524   16.2136    2.5447 N   0  0  0  0  0  0  0  0  0  0  0  0
    1.6878   17.1355    3.1960 N   0  0  0  0  0  0  0  0  0  0  0  0
    0.5338   17.0283    3.8109 C   0  0  0  0  0  0  0  0  0  0  0  0
    0.4517   15.9482    4.6453 N   0  0  0  0  0  0  0  0  0  0  0  0
  1  2  2  0  0  0  0
  1  6  1  0  0  0  0
  2  3  1  0  0  0  0
  3  4  2  0  0  0  0
  4  5  1  0  0  0  0
  4 10  1  0  0  0  0
  5  6  2  0  0  0  0
  5  8  1  0  0  0  0
  6  7  1  0  0  0  0
  8  9  1  0  0  0  0
  9 10  2  0  0  0  0
M  END
>  <CHROM.1>
2.46044465,15.58238309,3.98208479,0.28103526,-0.35780956,2.50635598

>  <Name>
ligand

>  <RI>
0

>  <Rbt.Current_Directory>
/home/itssahil/PROJECTS/Mol_Feturizer/New_Systems/rnas/4XNR

>  <Rbt.Executable>
rbdock ($Id: //depot/dev/client3/rdock/2013.1/src/exe/rbdock.cxx#4 $)

>  <Rbt.Library>
libRbt.so (2013.1, Build901 2013/11/27)

>  <Rbt.Parameter_File>
/export/apps/rDock/src/rDock_2013.1_src/data/scripts/dock_solv.prm

>  <Rbt.Receptor>
prm/blind_docking_20.prm

>  <SCORE>
-8.88104

>  <SCORE.INTER>
-8.88104

>  <SCORE.INTER.CONST>
1

>  <SCORE.INTER.POLAR>
0

>  <SCORE.INTER.ROT>
0

>  <SCORE.INTER.SOLV>
8.73641

>  <SCORE.INTER.VDW>
-12.4328

>  <SCORE.INTER.norm>
-0.888104

>  <SCORE.INTRA>
0

>  <SCORE.INTRA.DIHEDRAL>
0

>  <SCORE.INTRA.DIHEDRAL.0>
0

>  <SCORE.INTRA.POLAR>
0

>  <SCORE.INTRA.POLAR.0>
0

>  <SCORE.INTRA.REPUL>
0

>  <SCORE.INTRA.REPUL.0>
0

>  <SCORE.INTRA.SOLV>
0

>  <SCORE.INTRA.SOLV.lig_0>
-23.8918

>  <SCORE.INTRA.VDW>
0

>  <SCORE.INTRA.VDW.0>
0

>  <SCORE.INTRA.norm>
0

>  <SCORE.RESTR>
0

>  <SCORE.RESTR.CAVITY>
0

>  <SCORE.RESTR.norm>
0

>  <SCORE.SYSTEM>
0

>  <SCORE.SYSTEM.CONST>
0

>  <SCORE.SYSTEM.DIHEDRAL>
0

>  <SCORE.SYSTEM.SOLV>
0

>  <SCORE.SYSTEM.norm>
0

>  <SCORE.heavy>
10

>  <SCORE.norm>
-0.888104

>  <RMSD>
5.176

$$$$
ligand
 OpenBabel11021811513D
libRbt.so/2013.1/901 2013/11/27
 10 11  0  0  0  0  0  0  0  0999 V2000
    2.4917    9.9309    9.8091 N   0  0  0  0  0  0  0  0  0  0  0  0
    3.3896   10.5330    9.0200 C   0  0  0  0  0  0  0  0  0  0  0  0
    3.7248   11.8210    8.9628 N   0  0  0  0  0  0  0  0  0  0  0  0
    3.0180   12.5371    9.8510 C   0  0  0  0  0  0  0  0  0  0  0  0
    2.0619   12.0614   10.7275 C   0  0  0  0  0  0  0  0  0  0  0  0
    1.7969   10.6781   10.6923 C   0  0  0  0  0  0  0  0  0  0  0  0
    0.8997   10.0805   11.4826 N   0  0  0  0  0  0  0  0  0  0  0  0
    1.5429   13.0915   11.4942 N   0  0  0  0  0  0  0  0  0  0  0  0
    2.1855   14.1539   11.0704 C   0  0  0  0  0  0  0  0  0  0  0  0
    3.0907   13.8922   10.0796 N   0  0  0  0  0  0  0  0  0  0  0  0
  1  2  2  0  0  0  0
  1  6  1  0  0  0  0
  2  3  1  0  0  0  0
  3  4  2  0  0  0  0
  4  5  1  0  0  0  0
  4 10  1  0  0  0  0
  5  6  2  0  0  0  0
  5  8  1  0  0  0  0
  6  7  1  0  0  0  0
  8  9  1  0  0  0  0
  9 10  2  0  0  0  0
M  END
>  <CHROM.1>
2.41476595,11.86915277,10.32253000,-1.70624285,0.78780882,0.22025254

>  <Name>
ligand

>  <RI>
0

>  <Rbt.Current_Directory>
/home/itssahil/PROJECTS/Mol_Feturizer/New_Systems/rnas/4XNR

>  <Rbt.Executable>
rbdock ($Id: //depot/dev/client3/rdock/2013.1/src/exe/rbdock.cxx#4 $)

>  <Rbt.Library>
libRbt.so (2013.1, Build901 2013/11/27)

>  <Rbt.Parameter_File>
/export/apps/rDock/src/rDock_2013.1_src/data/scripts/dock_solv.prm

>  <Rbt.Receptor>
prm/blind_docking_20.prm

>  <SCORE>
-7.74217

>  <SCORE.INTER>
-7.7518

>  <SCORE.INTER.CONST>
1

>  <SCORE.INTER.POLAR>
0

>  <SCORE.INTER.ROT>
0

>  <SCORE.INTER.SOLV>
4.77111

>  <SCORE.INTER.VDW>
-10.3582

>  <SCORE.INTER.norm>
-0.77518

>  <SCORE.INTRA>
0

>  <SCORE.INTRA.DIHEDRAL>
0

>  <SCORE.INTRA.DIHEDRAL.0>
0

>  <SCORE.INTRA.POLAR>
0

>  <SCORE.INTRA.POLAR.0>
0

>  <SCORE.INTRA.REPUL>
0

>  <SCORE.INTRA.REPUL.0>
0

>  <SCORE.INTRA.SOLV>
0

>  <SCORE.INTRA.SOLV.lig_0>
-23.8918

>  <SCORE.INTRA.VDW>
0

>  <SCORE.INTRA.VDW.0>
0

>  <SCORE.INTRA.norm>
0

>  <SCORE.RESTR>
0.00963217

>  <SCORE.RESTR.CAVITY>
0.00963217

>  <SCORE.RESTR.norm>
0.000963217

>  <SCORE.SYSTEM>
0

>  <SCORE.SYSTEM.CONST>
0

>  <SCORE.SYSTEM.DIHEDRAL>
0

>  <SCORE.SYSTEM.SOLV>
0

>  <SCORE.SYSTEM.norm>
0

>  <SCORE.heavy>
10

>  <SCORE.norm>
-0.774217

>  <RMSD>
9.620

$$$$
ligand
 OpenBabel11021811513D
libRbt.so/2013.1/901 2013/11/27
 10 11  0  0  0  0  0  0  0  0999 V2000
    1.3037   13.8001   11.7466 N   0  0  0  0  0  0  0  0  0  0  0  0
    2.3071   14.3684   11.0672 C   0  0  0  0  0  0  0  0  0  0  0  0
    3.1895   13.8017   10.2457 N   0  0  0  0  0  0  0  0  0  0  0  0
    2.9669   12.4821   10.1445 C   0  0  0  0  0  0  0  0  0  0  0  0
    1.9780   11.7562   10.7799 C   0  0  0  0  0  0  0  0  0  0  0  0
    1.1053   12.4710   11.6238 C   0  0  0  0  0  0  0  0  0  0  0  0
    0.1038   11.8998   12.3003 N   0  0  0  0  0  0  0  0  0  0  0  0
    2.0540   10.4168   10.4355 N   0  0  0  0  0  0  0  0  0  0  0  0
    3.0738   10.3610    9.6119 C   0  0  0  0  0  0  0  0  0  0  0  0
    3.6715   11.5708    9.3914 N   0  0  0  0  0  0  0  0  0  0  0  0
  1  2  2  0  0  0  0
  1  6  1  0  0  0  0
  2  3  1  0  0  0  0
  3  4  2  0  0  0  0
  4  5  1  0  0  0  0
  4 10  1  0  0  0  0
  5  6  2  0  0  0  0
  5  8  1  0  0  0  0
  6  7  1  0  0  0  0
  8  9  1  0  0  0  0
  9 10  2  0  0  0  0
M  END
>  <CHROM.1>
2.16686365,12.29316150,10.74150438,-2.33750080,-0.66169092,-2.93374121

>  <Name>
ligand

>  <RI>
0

>  <Rbt.Current_Directory>
/home/itssahil/PROJECTS/Mol_Feturizer/New_Systems/rnas/4XNR

>  <Rbt.Executable>
rbdock ($Id: //depot/dev/client3/rdock/2013.1/src/exe/rbdock.cxx#4 $)

>  <Rbt.Library>
libRbt.so (2013.1, Build901 2013/11/27)

>  <Rbt.Parameter_File>
/export/apps/rDock/src/rDock_2013.1_src/data/scripts/dock_solv.prm

>  <Rbt.Receptor>
prm/blind_docking_40.prm

>  <SCORE>
-9.7929

>  <SCORE.INTER>
-9.79315

>  <SCORE.INTER.CONST>
1

>  <SCORE.INTER.POLAR>
0

>  <SCORE.INTER.ROT>
0

>  <SCORE.INTER.SOLV>
3.8091

>  <SCORE.INTER.VDW>
-11.3985

>  <SCORE.INTER.norm>
-0.979315

>  <SCORE.INTRA>
0

>  <SCORE.INTRA.DIHEDRAL>
0

>  <SCORE.INTRA.DIHEDRAL.0>
0

>  <SCORE.INTRA.POLAR>
0

>  <SCORE.INTRA.POLAR.0>
0

>  <SCORE.INTRA.REPUL>
0

>  <SCORE.INTRA.REPUL.0>
0

>  <SCORE.INTRA.SOLV>
0

>  <SCORE.INTRA.SOLV.lig_0>
-23.8918

>  <SCORE.INTRA.VDW>
0

>  <SCORE.INTRA.VDW.0>
0

>  <SCORE.INTRA.norm>
0

>  <SCORE.RESTR>
0.000249133

>  <SCORE.RESTR.CAVITY>
0.000249133

>  <SCORE.RESTR.norm>
2.49133e-05

>  <SCORE.SYSTEM>
0

>  <SCORE.SYSTEM.CONST>
0

>  <SCORE.SYSTEM.DIHEDRAL>
0

>  <SCORE.SYSTEM.SOLV>
0

>  <SCORE.SYSTEM.norm>
0

>  <SCORE.heavy>
10

>  <SCORE.norm>
-0.97929

>  <RMSD>
10.045

$$$$
ligand
 OpenBabel11021811513D
libRbt.so/2013.1/901 2013/11/27
 10 11  0  0  0  0  0  0  0  0999 V2000
    1.4361   14.0714   11.7438 N   0  0  0  0  0  0  0  0  0  0  0  0
    2.4570   14.4462   10.9637 C   0  0  0  0  0  0  0  0  0  0  0  0
    3.1873   13.7096   10.1278 N   0  0  0  0  0  0  0  0  0  0  0  0
    2.7733   12.4330   10.1318 C   0  0  0  0  0  0  0  0  0  0  0  0
    1.7411   11.8978   10.8780 C   0  0  0  0  0  0  0  0  0  0  0  0
    1.0430   12.7806   11.7255 C   0  0  0  0  0  0  0  0  0  0  0  0
    0.0234   12.4022   12.5027 N   0  0  0  0  0  0  0  0  0  0  0  0
    1.6012   10.5438   10.6220 N   0  0  0  0  0  0  0  0  0  0  0  0
    2.5392   10.2916    9.7401 C   0  0  0  0  0  0  0  0  0  0  0  0
    3.2843   11.3862    9.3991 N   0  0  0  0  0  0  0  0  0  0  0  0
  1  2  2  0  0  0  0
  1  6  1  0  0  0  0
  2  3  1  0  0  0  0
  3  4  2  0  0  0  0
  4  5  1  0  0  0  0
  4 10  1  0  0  0  0
  5  6  2  0  0  0  0
  5  8  1  0  0  0  0
  6  7  1  0  0  0  0
  8  9  1  0  0  0  0
  9 10  2  0  0  0  0
M  END
>  <CHROM.1>
2.00074783,12.39826957,10.79077053,-2.13594736,-0.69506479,-2.87098983

>  <Name>
ligand

>  <RI>
0

>  <Rbt.Current_Directory>
/home/itssahil/PROJECTS/Mol_Feturizer/New_Systems/rnas/4XNR

>  <Rbt.Executable>
rbdock ($Id: //depot/dev/client3/rdock/2013.1/src/exe/rbdock.cxx#4 $)

>  <Rbt.Library>
libRbt.so (2013.1, Build901 2013/11/27)

>  <Rbt.Parameter_File>
/export/apps/rDock/src/rDock_2013.1_src/data/scripts/dock_solv.prm

>  <Rbt.Receptor>
prm/blind_docking_20.prm

>  <SCORE>
-9.06577

>  <SCORE.INTER>
-9.06578

>  <SCORE.INTER.CONST>
1

>  <SCORE.INTER.POLAR>
0

>  <SCORE.INTER.ROT>
0

>  <SCORE.INTER.SOLV>
3.89518

>  <SCORE.INTER.VDW>
-10.9423

>  <SCORE.INTER.norm>
-0.906578

>  <SCORE.INTRA>
0

>  <SCORE.INTRA.DIHEDRAL>
0

>  <SCORE.INTRA.DIHEDRAL.0>
0

>  <SCORE.INTRA.POLAR>
0

>  <SCORE.INTRA.POLAR.0>
0

>  <SCORE.INTRA.REPUL>
0

>  <SCORE.INTRA.REPUL.0>
0

>  <SCORE.INTRA.SOLV>
0

>  <SCORE.INTRA.SOLV.lig_0>
-23.8918

>  <SCORE.INTRA.VDW>
0

>  <SCORE.INTRA.VDW.0>
0

>  <SCORE.INTRA.norm>
0

>  <SCORE.RESTR>
1.54564e-05

>  <SCORE.RESTR.CAVITY>
1.54564e-05

>  <SCORE.RESTR.norm>
1.54564e-06

>  <SCORE.SYSTEM>
0

>  <SCORE.SYSTEM.CONST>
0

>  <SCORE.SYSTEM.DIHEDRAL>
0

>  <SCORE.SYSTEM.SOLV>
0

>  <SCORE.SYSTEM.norm>
0

>  <SCORE.heavy>
10

>  <SCORE.norm>
-0.906577

>  <RMSD>
10.097

$$$$
ligand
 OpenBabel11021811513D
libRbt.so/2013.1/901 2013/11/27
 10 11  0  0  0  0  0  0  0  0999 V2000
    1.4242   14.0592   11.7387 N   0  0  0  0  0  0  0  0  0  0  0  0
    2.4671   14.4175   10.9802 C   0  0  0  0  0  0  0  0  0  0  0  0
    3.2277   13.6614   10.1901 N   0  0  0  0  0  0  0  0  0  0  0  0
    2.8211   12.3827   10.2192 C   0  0  0  0  0  0  0  0  0  0  0  0
    1.7689   11.8629   10.9481 C   0  0  0  0  0  0  0  0  0  0  0  0
    1.0392   12.7658   11.7466 C   0  0  0  0  0  0  0  0  0  0  0  0
   -0.0022   12.4039   12.5022 N   0  0  0  0  0  0  0  0  0  0  0  0
    1.6448   10.5011   10.7285 N   0  0  0  0  0  0  0  0  0  0  0  0
    2.6118   10.2291    9.8845 C   0  0  0  0  0  0  0  0  0  0  0  0
    3.3610   11.3180    9.5345 N   0  0  0  0  0  0  0  0  0  0  0  0
  1  2  2  0  0  0  0
  1  6  1  0  0  0  0
  2  3  1  0  0  0  0
  3  4  2  0  0  0  0
  4  5  1  0  0  0  0
  4 10  1  0  0  0  0
  5  6  2  0  0  0  0
  5  8  1  0  0  0  0
  6  7  1  0  0  0  0
  8  9  1  0  0  0  0
  9 10  2  0  0  0  0
M  END
>  <CHROM.1>
2.02827703,12.36235711,10.85427039,-2.15371793,-0.66601649,-2.91195046

>  <Name>
ligand

>  <RI>
0

>  <Rbt.Current_Directory>
/home/itssahil/PROJECTS/Mol_Feturizer/New_Systems/rnas/4XNR

>  <Rbt.Executable>
rbdock ($Id: //depot/dev/client3/rdock/2013.1/src/exe/rbdock.cxx#4 $)

>  <Rbt.Library>
libRbt.so (2013.1, Build901 2013/11/27)

>  <Rbt.Parameter_File>
/export/apps/rDock/src/rDock_2013.1_src/data/scripts/dock_solv.prm

>  <Rbt.Receptor>
prm/blind_docking_20.prm

>  <SCORE>
-9.12328

>  <SCORE.INTER>
-9.1233

>  <SCORE.INTER.CONST>
1

>  <SCORE.INTER.POLAR>
0

>  <SCORE.INTER.ROT>
0

>  <SCORE.INTER.SOLV>
3.86155

>  <SCORE.INTER.VDW>
-10.9694

>  <SCORE.INTER.norm>
-0.91233

>  <SCORE.INTRA>
0

>  <SCORE.INTRA.DIHEDRAL>
0

>  <SCORE.INTRA.DIHEDRAL.0>
0

>  <SCORE.INTRA.POLAR>
0

>  <SCORE.INTRA.POLAR.0>
0

>  <SCORE.INTRA.REPUL>
0

>  <SCORE.INTRA.REPUL.0>
0

>  <SCORE.INTRA.SOLV>
0

>  <SCORE.INTRA.SOLV.lig_0>
-23.8918

>  <SCORE.INTRA.VDW>
0

>  <SCORE.INTRA.VDW.0>
0

>  <SCORE.INTRA.norm>
0

>  <SCORE.RESTR>
2.58398e-05

>  <SCORE.RESTR.CAVITY>
2.58398e-05

>  <SCORE.RESTR.norm>
2.58398e-06

>  <SCORE.SYSTEM>
0

>  <SCORE.SYSTEM.CONST>
0

>  <SCORE.SYSTEM.DIHEDRAL>
0

>  <SCORE.SYSTEM.SOLV>
0

>  <SCORE.SYSTEM.norm>
0

>  <SCORE.heavy>
10

>  <SCORE.norm>
-0.912328

>  <RMSD>
10.144

$$$$
ligand
 OpenBabel11021811513D
libRbt.so/2013.1/901 2013/11/27
 10 11  0  0  0  0  0  0  0  0999 V2000
   -6.0210   16.3276    0.4416 N   0  0  0  0  0  0  0  0  0  0  0  0
   -4.7984   16.3083   -0.1029 C   0  0  0  0  0  0  0  0  0  0  0  0
   -4.0982   15.2686   -0.5537 N   0  0  0  0  0  0  0  0  0  0  0  0
   -4.7887   14.1277   -0.4029 C   0  0  0  0  0  0  0  0  0  0  0  0
   -6.0520   13.9878    0.1386 C   0  0  0  0  0  0  0  0  0  0  0  0
   -6.6902   15.1640    0.5796 C   0  0  0  0  0  0  0  0  0  0  0  0
   -7.9116   15.1790    1.1223 N   0  0  0  0  0  0  0  0  0  0  0  0
   -6.4450   12.6598    0.1312 N   0  0  0  0  0  0  0  0  0  0  0  0
   -5.4251   12.0328   -0.4056 C   0  0  0  0  0  0  0  0  0  0  0  0
   -4.3908   12.8573   -0.7516 N   0  0  0  0  0  0  0  0  0  0  0  0
  1  2  2  0  0  0  0
  1  6  1  0  0  0  0
  2  3  1  0  0  0  0
  3  4  2  0  0  0  0
  4  5  1  0  0  0  0
  4 10  1  0  0  0  0
  5  6  2  0  0  0  0
  5  8  1  0  0  0  0
  6  7  1  0  0  0  0
  8  9  1  0  0  0  0
  9 10  2  0  0  0  0
M  END
>  <CHROM.1>
-5.67063837,14.39643679,0.02414710,-1.95257338,-0.41346178,-3.00668384

>  <Name>
ligand

>  <RI>
0

>  <Rbt.Current_Directory>
/home/itssahil/PROJECTS/Mol_Feturizer/New_Systems/rnas/4XNR

>  <Rbt.Executable>
rbdock ($Id: //depot/dev/client3/rdock/2013.1/src/exe/rbdock.cxx#4 $)

>  <Rbt.Library>
libRbt.so (2013.1, Build901 2013/11/27)

>  <Rbt.Parameter_File>
/export/apps/rDock/src/rDock_2013.1_src/data/scripts/dock_solv.prm

>  <Rbt.Receptor>
prm/blind_docking_20.prm

>  <SCORE>
-7.67025

>  <SCORE.INTER>
-7.67025

>  <SCORE.INTER.CONST>
1

>  <SCORE.INTER.POLAR>
0

>  <SCORE.INTER.ROT>
0

>  <SCORE.INTER.SOLV>
2.7668

>  <SCORE.INTER.VDW>
-9.63577

>  <SCORE.INTER.norm>
-0.767025

>  <SCORE.INTRA>
0

>  <SCORE.INTRA.DIHEDRAL>
0

>  <SCORE.INTRA.DIHEDRAL.0>
0

>  <SCORE.INTRA.POLAR>
0

>  <SCORE.INTRA.POLAR.0>
0

>  <SCORE.INTRA.REPUL>
0

>  <SCORE.INTRA.REPUL.0>
0

>  <SCORE.INTRA.SOLV>
0

>  <SCORE.INTRA.SOLV.lig_0>
-23.8918

>  <SCORE.INTRA.VDW>
0

>  <SCORE.INTRA.VDW.0>
0

>  <SCORE.INTRA.norm>
0

>  <SCORE.RESTR>
0

>  <SCORE.RESTR.CAVITY>
0

>  <SCORE.RESTR.norm>
0

>  <SCORE.SYSTEM>
0

>  <SCORE.SYSTEM.CONST>
0

>  <SCORE.SYSTEM.DIHEDRAL>
0

>  <SCORE.SYSTEM.SOLV>
0

>  <SCORE.SYSTEM.norm>
0

>  <SCORE.heavy>
10

>  <SCORE.norm>
-0.767025

>  <RMSD>
13.034

$$$$
ligand
 OpenBabel11021811513D
libRbt.so/2013.1/901 2013/11/27
 10 11  0  0  0  0  0  0  0  0999 V2000
   -5.6636   16.2483    0.2580 N   0  0  0  0  0  0  0  0  0  0  0  0
   -4.4818   15.9002   -0.2650 C   0  0  0  0  0  0  0  0  0  0  0  0
   -4.0434   14.6917   -0.6145 N   0  0  0  0  0  0  0  0  0  0  0  0
   -4.9780   13.7585   -0.3759 C   0  0  0  0  0  0  0  0  0  0  0  0
   -6.2362   13.9615    0.1574 C   0  0  0  0  0  0  0  0  0  0  0  0
   -6.5828   15.2870    0.4861 C   0  0  0  0  0  0  0  0  0  0  0  0
   -7.7645   15.6306    1.0078 N   0  0  0  0  0  0  0  0  0  0  0  0
   -6.9254   12.7645    0.2587 N   0  0  0  0  0  0  0  0  0  0  0  0
   -6.0812   11.8748   -0.2073 C   0  0  0  0  0  0  0  0  0  0  0  0
   -4.8863   12.4051   -0.6081 N   0  0  0  0  0  0  0  0  0  0  0  0
  1  2  2  0  0  0  0
  1  6  1  0  0  0  0
  2  3  1  0  0  0  0
  3  4  2  0  0  0  0
  4  5  1  0  0  0  0
  4 10  1  0  0  0  0
  5  6  2  0  0  0  0
  5  8  1  0  0  0  0
  6  7  1  0  0  0  0
  8  9  1  0  0  0  0
  9 10  2  0  0  0  0
M  END
>  <CHROM.1>
-5.77140629,14.25956327,0.01362146,-1.70294899,-0.37662325,-2.99813138

>  <Name>
ligand

>  <RI>
0

>  <Rbt.Current_Directory>
/home/itssahil/PROJECTS/Mol_Feturizer/New_Systems/rnas/4XNR

>  <Rbt.Executable>
rbdock ($Id: //depot/dev/client3/rdock/2013.1/src/exe/rbdock.cxx#4 $)

>  <Rbt.Library>
libRbt.so (2013.1, Build901 2013/11/27)

>  <Rbt.Parameter_File>
/export/apps/rDock/src/rDock_2013.1_src/data/scripts/dock_solv.prm

>  <Rbt.Receptor>
prm/blind_docking_20.prm

>  <SCORE>
-7.90298

>  <SCORE.INTER>
-7.90298

>  <SCORE.INTER.CONST>
1

>  <SCORE.INTER.POLAR>
0

>  <SCORE.INTER.ROT>
0

>  <SCORE.INTER.SOLV>
2.17027

>  <SCORE.INTER.VDW>
-9.59208

>  <SCORE.INTER.norm>
-0.790298

>  <SCORE.INTRA>
0

>  <SCORE.INTRA.DIHEDRAL>
0

>  <SCORE.INTRA.DIHEDRAL.0>
0

>  <SCORE.INTRA.POLAR>
0

>  <SCORE.INTRA.POLAR.0>
0

>  <SCORE.INTRA.REPUL>
0

>  <SCORE.INTRA.REPUL.0>
0

>  <SCORE.INTRA.SOLV>
0

>  <SCORE.INTRA.SOLV.lig_0>
-23.8918

>  <SCORE.INTRA.VDW>
0

>  <SCORE.INTRA.VDW.0>
0

>  <SCORE.INTRA.norm>
0

>  <SCORE.RESTR>
0

>  <SCORE.RESTR.CAVITY>
0

>  <SCORE.RESTR.norm>
0

>  <SCORE.SYSTEM>
0

>  <SCORE.SYSTEM.CONST>
0

>  <SCORE.SYSTEM.DIHEDRAL>
0

>  <SCORE.SYSTEM.SOLV>
0

>  <SCORE.SYSTEM.norm>
0

>  <SCORE.heavy>
10

>  <SCORE.norm>
-0.790298

>  <RMSD>
13.175

$$$$
ligand
 OpenBabel11021811513D
libRbt.so/2013.1/901 2013/11/27
 10 11  0  0  0  0  0  0  0  0999 V2000
   -5.6645   16.2473    0.2582 N   0  0  0  0  0  0  0  0  0  0  0  0
   -4.4861   15.8972   -0.2709 C   0  0  0  0  0  0  0  0  0  0  0  0
   -4.0513   14.6880   -0.6223 N   0  0  0  0  0  0  0  0  0  0  0  0
   -4.9860   13.7563   -0.3785 C   0  0  0  0  0  0  0  0  0  0  0  0
   -6.2411   13.9614    0.1613 C   0  0  0  0  0  0  0  0  0  0  0  0
   -6.5839   15.2874    0.4915 C   0  0  0  0  0  0  0  0  0  0  0  0
   -7.7623   15.6329    1.0193 N   0  0  0  0  0  0  0  0  0  0  0  0
   -6.9315   12.7654    0.2666 N   0  0  0  0  0  0  0  0  0  0  0  0
   -6.0911   11.8743   -0.2036 C   0  0  0  0  0  0  0  0  0  0  0  0
   -4.8976   12.4027   -0.6108 N   0  0  0  0  0  0  0  0  0  0  0  0
  1  2  2  0  0  0  0
  1  6  1  0  0  0  0
  2  3  1  0  0  0  0
  3  4  2  0  0  0  0
  4  5  1  0  0  0  0
  4 10  1  0  0  0  0
  5  6  2  0  0  0  0
  5  8  1  0  0  0  0
  6  7  1  0  0  0  0
  8  9  1  0  0  0  0
  9 10  2  0  0  0  0
M  END
>  <CHROM.1>
-5.77659546,14.25865217,0.01499340,-1.70053524,-0.38164112,-2.99753430

>  <Name>
ligand

>  <RI>
0

>  <Rbt.Current_Directory>
/home/itssahil/PROJECTS/Mol_Feturizer/New_Systems/rnas/4XNR

>  <Rbt.Executable>
rbdock ($Id: //depot/dev/client3/rdock/2013.1/src/exe/rbdock.cxx#4 $)

>  <Rbt.Library>
libRbt.so (2013.1, Build901 2013/11/27)

>  <Rbt.Parameter_File>
/export/apps/rDock/src/rDock_2013.1_src/data/scripts/dock_solv.prm

>  <Rbt.Receptor>
prm/blind_docking_20.prm

>  <SCORE>
-7.90222

>  <SCORE.INTER>
-7.90222

>  <SCORE.INTER.CONST>
1

>  <SCORE.INTER.POLAR>
0

>  <SCORE.INTER.ROT>
0

>  <SCORE.INTER.SOLV>
2.15031

>  <SCORE.INTER.VDW>
-9.58492

>  <SCORE.INTER.norm>
-0.790222

>  <SCORE.INTRA>
0

>  <SCORE.INTRA.DIHEDRAL>
0

>  <SCORE.INTRA.DIHEDRAL.0>
0

>  <SCORE.INTRA.POLAR>
0

>  <SCORE.INTRA.POLAR.0>
0

>  <SCORE.INTRA.REPUL>
0

>  <SCORE.INTRA.REPUL.0>
0

>  <SCORE.INTRA.SOLV>
0

>  <SCORE.INTRA.SOLV.lig_0>
-23.8918

>  <SCORE.INTRA.VDW>
0

>  <SCORE.INTRA.VDW.0>
0

>  <SCORE.INTRA.norm>
0

>  <SCORE.RESTR>
0

>  <SCORE.RESTR.CAVITY>
0

>  <SCORE.RESTR.norm>
0

>  <SCORE.SYSTEM>
0

>  <SCORE.SYSTEM.CONST>
0

>  <SCORE.SYSTEM.DIHEDRAL>
0

>  <SCORE.SYSTEM.SOLV>
0

>  <SCORE.SYSTEM.norm>
0

>  <SCORE.heavy>
10

>  <SCORE.norm>
-0.790222

>  <RMSD>
13.180

$$$$
ligand
 OpenBabel11021811513D
libRbt.so/2013.1/901 2013/11/27
 10 11  0  0  0  0  0  0  0  0999 V2000
   -9.2471   14.1074    0.7063 N   0  0  0  0  0  0  0  0  0  0  0  0
   -9.0592   12.7894    0.8441 C   0  0  0  0  0  0  0  0  0  0  0  0
   -7.9600   12.0715    0.6184 N   0  0  0  0  0  0  0  0  0  0  0  0
   -6.9554   12.8571    0.2004 C   0  0  0  0  0  0  0  0  0  0  0  0
   -6.9957   14.2249    0.0102 C   0  0  0  0  0  0  0  0  0  0  0  0
   -8.2175   14.8708    0.2842 C   0  0  0  0  0  0  0  0  0  0  0  0
   -8.4008   16.1876    0.1458 N   0  0  0  0  0  0  0  0  0  0  0  0
   -5.7690   14.6960   -0.4274 N   0  0  0  0  0  0  0  0  0  0  0  0
   -5.0233   13.6185   -0.4933 C   0  0  0  0  0  0  0  0  0  0  0  0
   -5.6754   12.4734   -0.1285 N   0  0  0  0  0  0  0  0  0  0  0  0
  1  2  2  0  0  0  0
  1  6  1  0  0  0  0
  2  3  1  0  0  0  0
  3  4  2  0  0  0  0
  4  5  1  0  0  0  0
  4 10  1  0  0  0  0
  5  6  2  0  0  0  0
  5  8  1  0  0  0  0
  6  7  1  0  0  0  0
  8  9  1  0  0  0  0
  9 10  2  0  0  0  0
M  END
>  <CHROM.1>
-7.33650213,13.79868193,0.17654481,2.83766444,0.28954382,-0.14610688

>  <Name>
ligand

>  <RI>
0

>  <Rbt.Current_Directory>
/home/itssahil/PROJECTS/Mol_Feturizer/New_Systems/rnas/4XNR

>  <Rbt.Executable>
rbdock ($Id: //depot/dev/client3/rdock/2013.1/src/exe/rbdock.cxx#4 $)

>  <Rbt.Library>
libRbt.so (2013.1, Build901 2013/11/27)

>  <Rbt.Parameter_File>
/export/apps/rDock/src/rDock_2013.1_src/data/scripts/dock_solv.prm

>  <Rbt.Receptor>
prm/blind_docking_20.prm

>  <SCORE>
-6.62384

>  <SCORE.INTER>
-6.62384

>  <SCORE.INTER.CONST>
1

>  <SCORE.INTER.POLAR>
0

>  <SCORE.INTER.ROT>
0

>  <SCORE.INTER.SOLV>
1.81958

>  <SCORE.INTER.VDW>
-8.62242

>  <SCORE.INTER.norm>
-0.662384

>  <SCORE.INTRA>
0

>  <SCORE.INTRA.DIHEDRAL>
0

>  <SCORE.INTRA.DIHEDRAL.0>
0

>  <SCORE.INTRA.POLAR>
0

>  <SCORE.INTRA.POLAR.0>
0

>  <SCORE.INTRA.REPUL>
0

>  <SCORE.INTRA.REPUL.0>
0

>  <SCORE.INTRA.SOLV>
0

>  <SCORE.INTRA.SOLV.lig_0>
-23.8918

>  <SCORE.INTRA.VDW>
0

>  <SCORE.INTRA.VDW.0>
0

>  <SCORE.INTRA.norm>
0

>  <SCORE.RESTR>
0

>  <SCORE.RESTR.CAVITY>
0

>  <SCORE.RESTR.norm>
0

>  <SCORE.SYSTEM>
0

>  <SCORE.SYSTEM.CONST>
0

>  <SCORE.SYSTEM.DIHEDRAL>
0

>  <SCORE.SYSTEM.SOLV>
0

>  <SCORE.SYSTEM.norm>
0

>  <SCORE.heavy>
10

>  <SCORE.norm>
-0.662384

>  <RMSD>
14.765

$$$$
ligand
 OpenBabel11021811513D
libRbt.so/2013.1/901 2013/11/27
 10 11  0  0  0  0  0  0  0  0999 V2000
   -6.5958   15.9054   -0.4636 N   0  0  0  0  0  0  0  0  0  0  0  0
   -5.7688   14.8674   -0.2906 C   0  0  0  0  0  0  0  0  0  0  0  0
   -6.0582   13.6142    0.0564 N   0  0  0  0  0  0  0  0  0  0  0  0
   -7.3796   13.4626    0.2355 C   0  0  0  0  0  0  0  0  0  0  0  0
   -8.3528   14.4332    0.0957 C   0  0  0  0  0  0  0  0  0  0  0  0
   -7.9194   15.7211   -0.2763 C   0  0  0  0  0  0  0  0  0  0  0  0
   -8.7488   16.7552   -0.4486 N   0  0  0  0  0  0  0  0  0  0  0  0
   -9.6082   13.9113    0.3600 N   0  0  0  0  0  0  0  0  0  0  0  0
   -9.3715   12.6542    0.6515 C   0  0  0  0  0  0  0  0  0  0  0  0
   -8.0481   12.3149    0.5960 N   0  0  0  0  0  0  0  0  0  0  0  0
  1  2  2  0  0  0  0
  1  6  1  0  0  0  0
  2  3  1  0  0  0  0
  3  4  2  0  0  0  0
  4  5  1  0  0  0  0
  4 10  1  0  0  0  0
  5  6  2  0  0  0  0
  5  8  1  0  0  0  0
  6  7  1  0  0  0  0
  8  9  1  0  0  0  0
  9 10  2  0  0  0  0
M  END
>  <CHROM.1>
-7.78716738,14.37439826,0.04916230,-1.12109650,-0.10304259,2.89468761

>  <Name>
ligand

>  <RI>
0

>  <Rbt.Current_Directory>
/home/itssahil/PROJECTS/Mol_Feturizer/New_Systems/rnas/4XNR

>  <Rbt.Executable>
rbdock ($Id: //depot/dev/client3/rdock/2013.1/src/exe/rbdock.cxx#4 $)

>  <Rbt.Library>
libRbt.so (2013.1, Build901 2013/11/27)

>  <Rbt.Parameter_File>
/export/apps/rDock/src/rDock_2013.1_src/data/scripts/dock_solv.prm

>  <Rbt.Receptor>
prm/blind_docking_20.prm

>  <SCORE>
-6.67068

>  <SCORE.INTER>
-6.67068

>  <SCORE.INTER.CONST>
1

>  <SCORE.INTER.POLAR>
0

>  <SCORE.INTER.ROT>
0

>  <SCORE.INTER.SOLV>
3.19443

>  <SCORE.INTER.VDW>
-9.11193

>  <SCORE.INTER.norm>
-0.667068

>  <SCORE.INTRA>
0

>  <SCORE.INTRA.DIHEDRAL>
0

>  <SCORE.INTRA.DIHEDRAL.0>
0

>  <SCORE.INTRA.POLAR>
0

>  <SCORE.INTRA.POLAR.0>
0

>  <SCORE.INTRA.REPUL>
0

>  <SCORE.INTRA.REPUL.0>
0

>  <SCORE.INTRA.SOLV>
0

>  <SCORE.INTRA.SOLV.lig_0>
-23.8918

>  <SCORE.INTRA.VDW>
0

>  <SCORE.INTRA.VDW.0>
0

>  <SCORE.INTRA.norm>
0

>  <SCORE.RESTR>
0

>  <SCORE.RESTR.CAVITY>
0

>  <SCORE.RESTR.norm>
0

>  <SCORE.SYSTEM>
0

>  <SCORE.SYSTEM.CONST>
0

>  <SCORE.SYSTEM.DIHEDRAL>
0

>  <SCORE.SYSTEM.SOLV>
0

>  <SCORE.SYSTEM.norm>
0

>  <SCORE.heavy>
10

>  <SCORE.norm>
-0.667068

>  <RMSD>
14.972

$$$$
ligand
 OpenBabel11021811513D
libRbt.so/2013.1/901 2013/11/27
 10 11  0  0  0  0  0  0  0  0999 V2000
   -9.4592   20.0799    1.9287 N   0  0  0  0  0  0  0  0  0  0  0  0
   -9.7906   19.5561    3.1149 C   0  0  0  0  0  0  0  0  0  0  0  0
  -10.5099   18.4662    3.3782 N   0  0  0  0  0  0  0  0  0  0  0  0
  -10.9149   17.8769    2.2424 C   0  0  0  0  0  0  0  0  0  0  0  0
  -10.6551   18.2958    0.9518 C   0  0  0  0  0  0  0  0  0  0  0  0
   -9.8814   19.4641    0.8046 C   0  0  0  0  0  0  0  0  0  0  0  0
   -9.5521   19.9837   -0.3821 N   0  0  0  0  0  0  0  0  0  0  0  0
  -11.2340   17.4381    0.0313 N   0  0  0  0  0  0  0  0  0  0  0  0
  -11.8249   16.5320    0.7737 C   0  0  0  0  0  0  0  0  0  0  0  0
  -11.6731   16.7352    2.1173 N   0  0  0  0  0  0  0  0  0  0  0  0
  1  2  2  0  0  0  0
  1  6  1  0  0  0  0
  2  3  1  0  0  0  0
  3  4  2  0  0  0  0
  4  5  1  0  0  0  0
  4 10  1  0  0  0  0
  5  6  2  0  0  0  0
  5  8  1  0  0  0  0
  6  7  1  0  0  0  0
  8  9  1  0  0  0  0
  9 10  2  0  0  0  0
M  END
>  <CHROM.1>
-10.54463381,18.45029906,1.48983763,0.01444569,0.98542989,1.59013831

>  <Name>
ligand

>  <RI>
0

>  <Rbt.Current_Directory>
/home/itssahil/PROJECTS/Mol_Feturizer/New_Systems/rnas/4XNR

>  <Rbt.Executable>
rbdock ($Id: //depot/dev/client3/rdock/2013.1/src/exe/rbdock.cxx#4 $)

>  <Rbt.Library>
libRbt.so (2013.1, Build901 2013/11/27)

>  <Rbt.Parameter_File>
/export/apps/rDock/src/rDock_2013.1_src/data/scripts/dock_solv.prm

>  <Rbt.Receptor>
prm/blind_docking_60.prm

>  <SCORE>
-8.71222

>  <SCORE.INTER>
-8.71222

>  <SCORE.INTER.CONST>
1

>  <SCORE.INTER.POLAR>
0

>  <SCORE.INTER.ROT>
0

>  <SCORE.INTER.SOLV>
1.65783

>  <SCORE.INTER.VDW>
-9.96076

>  <SCORE.INTER.norm>
-0.871222

>  <SCORE.INTRA>
0

>  <SCORE.INTRA.DIHEDRAL>
0

>  <SCORE.INTRA.DIHEDRAL.0>
0

>  <SCORE.INTRA.POLAR>
0

>  <SCORE.INTRA.POLAR.0>
0

>  <SCORE.INTRA.REPUL>
0

>  <SCORE.INTRA.REPUL.0>
0

>  <SCORE.INTRA.SOLV>
0

>  <SCORE.INTRA.SOLV.lig_0>
-23.8918

>  <SCORE.INTRA.VDW>
0

>  <SCORE.INTRA.VDW.0>
0

>  <SCORE.INTRA.norm>
0

>  <SCORE.RESTR>
0

>  <SCORE.RESTR.CAVITY>
0

>  <SCORE.RESTR.norm>
0

>  <SCORE.SYSTEM>
0

>  <SCORE.SYSTEM.CONST>
0

>  <SCORE.SYSTEM.DIHEDRAL>
0

>  <SCORE.SYSTEM.SOLV>
0

>  <SCORE.SYSTEM.norm>
0

>  <SCORE.heavy>
10

>  <SCORE.norm>
-0.871222

>  <RMSD>
17.053

$$$$
ligand
 OpenBabel11021811513D
libRbt.so/2013.1/901 2013/11/27
 10 11  0  0  0  0  0  0  0  0999 V2000
   -9.4793   20.0246    1.9716 N   0  0  0  0  0  0  0  0  0  0  0  0
   -9.8654   19.5100    3.1453 C   0  0  0  0  0  0  0  0  0  0  0  0
  -10.6087   18.4303    3.3831 N   0  0  0  0  0  0  0  0  0  0  0  0
  -10.9746   17.8414    2.2340 C   0  0  0  0  0  0  0  0  0  0  0  0
  -10.6571   18.2516    0.9535 C   0  0  0  0  0  0  0  0  0  0  0  0
   -9.8632   19.4094    0.8336 C   0  0  0  0  0  0  0  0  0  0  0  0
   -9.4793   19.9197   -0.3406 N   0  0  0  0  0  0  0  0  0  0  0  0
  -11.2090   17.3973    0.0134 N   0  0  0  0  0  0  0  0  0  0  0  0
  -11.8412   16.5019    0.7344 C   0  0  0  0  0  0  0  0  0  0  0  0
  -11.7416   16.7089    2.0823 N   0  0  0  0  0  0  0  0  0  0  0  0
  1  2  2  0  0  0  0
  1  6  1  0  0  0  0
  2  3  1  0  0  0  0
  3  4  2  0  0  0  0
  4  5  1  0  0  0  0
  4 10  1  0  0  0  0
  5  6  2  0  0  0  0
  5  8  1  0  0  0  0
  6  7  1  0  0  0  0
  8  9  1  0  0  0  0
  9 10  2  0  0  0  0
M  END
>  <CHROM.1>
-10.56668370,18.40692580,1.49498705,0.08715519,0.97221528,1.52582513

>  <Name>
ligand

>  <RI>
0

>  <Rbt.Current_Directory>
/home/itssahil/PROJECTS/Mol_Feturizer/New_Systems/rnas/4XNR

>  <Rbt.Executable>
rbdock ($Id: //depot/dev/client3/rdock/2013.1/src/exe/rbdock.cxx#4 $)

>  <Rbt.Library>
libRbt.so (2013.1, Build901 2013/11/27)

>  <Rbt.Parameter_File>
/export/apps/rDock/src/rDock_2013.1_src/data/scripts/dock_solv.prm

>  <Rbt.Receptor>
prm/blind_docking_60.prm

>  <SCORE>
-8.68677

>  <SCORE.INTER>
-8.68677

>  <SCORE.INTER.CONST>
1

>  <SCORE.INTER.POLAR>
0

>  <SCORE.INTER.ROT>
0

>  <SCORE.INTER.SOLV>
1.78445

>  <SCORE.INTER.VDW>
-9.98599

>  <SCORE.INTER.norm>
-0.868677

>  <SCORE.INTRA>
0

>  <SCORE.INTRA.DIHEDRAL>
0

>  <SCORE.INTRA.DIHEDRAL.0>
0

>  <SCORE.INTRA.POLAR>
0

>  <SCORE.INTRA.POLAR.0>
0

>  <SCORE.INTRA.REPUL>
0

>  <SCORE.INTRA.REPUL.0>
0

>  <SCORE.INTRA.SOLV>
0

>  <SCORE.INTRA.SOLV.lig_0>
-23.8918

>  <SCORE.INTRA.VDW>
0

>  <SCORE.INTRA.VDW.0>
0

>  <SCORE.INTRA.norm>
0

>  <SCORE.RESTR>
0

>  <SCORE.RESTR.CAVITY>
0

>  <SCORE.RESTR.norm>
0

>  <SCORE.SYSTEM>
0

>  <SCORE.SYSTEM.CONST>
0

>  <SCORE.SYSTEM.DIHEDRAL>
0

>  <SCORE.SYSTEM.SOLV>
0

>  <SCORE.SYSTEM.norm>
0

>  <SCORE.heavy>
10

>  <SCORE.norm>
-0.868677

>  <RMSD>
17.076

$$$$
ligand
 OpenBabel11021811513D
libRbt.so/2013.1/901 2013/11/27
 10 11  0  0  0  0  0  0  0  0999 V2000
  -14.3572   30.5194   -5.7121 N   0  0  0  0  0  0  0  0  0  0  0  0
  -15.1913   30.9781   -6.6529 C   0  0  0  0  0  0  0  0  0  0  0  0
  -16.4154   30.5557   -6.9658 N   0  0  0  0  0  0  0  0  0  0  0  0
  -16.7804   29.5300   -6.1810 C   0  0  0  0  0  0  0  0  0  0  0  0
  -16.0341   28.9492   -5.1738 C   0  0  0  0  0  0  0  0  0  0  0  0
  -14.7533   29.4870   -4.9386 C   0  0  0  0  0  0  0  0  0  0  0  0
  -13.9235   29.0263   -3.9974 N   0  0  0  0  0  0  0  0  0  0  0  0
  -16.7355   27.9144   -4.5776 N   0  0  0  0  0  0  0  0  0  0  0  0
  -17.8745   27.8902   -5.2282 C   0  0  0  0  0  0  0  0  0  0  0  0
  -17.9695   28.8377   -6.2093 N   0  0  0  0  0  0  0  0  0  0  0  0
  1  2  2  0  0  0  0
  1  6  1  0  0  0  0
  2  3  1  0  0  0  0
  3  4  2  0  0  0  0
  4  5  1  0  0  0  0
  4 10  1  0  0  0  0
  5  6  2  0  0  0  0
  5  8  1  0  0  0  0
  6  7  1  0  0  0  0
  8  9  1  0  0  0  0
  9 10  2  0  0  0  0
M  END
>  <CHROM.1>
-15.99401873,29.36895698,-5.55821181,0.29245165,-0.40081080,-0.77321433

>  <Name>
ligand

>  <RI>
0

>  <Rbt.Current_Directory>
/home/itssahil/PROJECTS/Mol_Feturizer/New_Systems/rnas/4XNR

>  <Rbt.Executable>
rbdock ($Id: //depot/dev/client3/rdock/2013.1/src/exe/rbdock.cxx#4 $)

>  <Rbt.Library>
libRbt.so (2013.1, Build901 2013/11/27)

>  <Rbt.Parameter_File>
/export/apps/rDock/src/rDock_2013.1_src/data/scripts/dock_solv.prm

>  <Rbt.Receptor>
prm/blind_docking_40.prm

>  <SCORE>
-7.73343

>  <SCORE.INTER>
-7.73343

>  <SCORE.INTER.CONST>
1

>  <SCORE.INTER.POLAR>
0

>  <SCORE.INTER.ROT>
0

>  <SCORE.INTER.SOLV>
4.88556

>  <SCORE.INTER.VDW>
-10.3841

>  <SCORE.INTER.norm>
-0.773343

>  <SCORE.INTRA>
0

>  <SCORE.INTRA.DIHEDRAL>
0

>  <SCORE.INTRA.DIHEDRAL.0>
0

>  <SCORE.INTRA.POLAR>
0

>  <SCORE.INTRA.POLAR.0>
0

>  <SCORE.INTRA.REPUL>
0

>  <SCORE.INTRA.REPUL.0>
0

>  <SCORE.INTRA.SOLV>
0

>  <SCORE.INTRA.SOLV.lig_0>
-23.8918

>  <SCORE.INTRA.VDW>
0

>  <SCORE.INTRA.VDW.0>
0

>  <SCORE.INTRA.norm>
0

>  <SCORE.RESTR>
0

>  <SCORE.RESTR.CAVITY>
0

>  <SCORE.RESTR.norm>
0

>  <SCORE.SYSTEM>
0

>  <SCORE.SYSTEM.CONST>
0

>  <SCORE.SYSTEM.DIHEDRAL>
0

>  <SCORE.SYSTEM.SOLV>
0

>  <SCORE.SYSTEM.norm>
0

>  <SCORE.heavy>
10

>  <SCORE.norm>
-0.773343

>  <RMSD>
26.685

$$$$
ligand
 OpenBabel11021811513D
libRbt.so/2013.1/901 2013/11/27
 10 11  0  0  0  0  0  0  0  0999 V2000
  -15.2813   31.9379   -4.7841 N   0  0  0  0  0  0  0  0  0  0  0  0
  -16.5026   32.1892   -4.2978 C   0  0  0  0  0  0  0  0  0  0  0  0
  -17.4975   31.3385   -4.0506 N   0  0  0  0  0  0  0  0  0  0  0  0
  -17.1383   30.0827   -4.3593 C   0  0  0  0  0  0  0  0  0  0  0  0
  -15.9221   29.6686   -4.8672 C   0  0  0  0  0  0  0  0  0  0  0  0
  -14.9498   30.6648   -5.0847 C   0  0  0  0  0  0  0  0  0  0  0  0
  -13.7308   30.4096   -5.5701 N   0  0  0  0  0  0  0  0  0  0  0  0
  -15.9127   28.2974   -5.0620 N   0  0  0  0  0  0  0  0  0  0  0  0
  -17.1069   27.9163   -4.6749 C   0  0  0  0  0  0  0  0  0  0  0  0
  -17.8989   28.9421   -4.2389 N   0  0  0  0  0  0  0  0  0  0  0  0
  1  2  2  0  0  0  0
  1  6  1  0  0  0  0
  2  3  1  0  0  0  0
  3  4  2  0  0  0  0
  4  5  1  0  0  0  0
  4 10  1  0  0  0  0
  5  6  2  0  0  0  0
  5  8  1  0  0  0  0
  6  7  1  0  0  0  0
  8  9  1  0  0  0  0
  9 10  2  0  0  0  0
M  END
>  <CHROM.1>
-16.18413174,30.14781757,-4.70219245,0.88129319,0.35021418,0.13948547

>  <Name>
ligand

>  <RI>
0

>  <Rbt.Current_Directory>
/home/itssahil/PROJECTS/Mol_Feturizer/New_Systems/rnas/4XNR

>  <Rbt.Executable>
rbdock ($Id: //depot/dev/client3/rdock/2013.1/src/exe/rbdock.cxx#4 $)

>  <Rbt.Library>
libRbt.so (2013.1, Build901 2013/11/27)

>  <Rbt.Parameter_File>
/export/apps/rDock/src/rDock_2013.1_src/data/scripts/dock_solv.prm

>  <Rbt.Receptor>
prm/blind_docking_60.prm

>  <SCORE>
-8.74168

>  <SCORE.INTER>
-8.74168

>  <SCORE.INTER.CONST>
1

>  <SCORE.INTER.POLAR>
0

>  <SCORE.INTER.ROT>
0

>  <SCORE.INTER.SOLV>
2.69082

>  <SCORE.INTER.VDW>
-10.3247

>  <SCORE.INTER.norm>
-0.874168

>  <SCORE.INTRA>
0

>  <SCORE.INTRA.DIHEDRAL>
0

>  <SCORE.INTRA.DIHEDRAL.0>
0

>  <SCORE.INTRA.POLAR>
0

>  <SCORE.INTRA.POLAR.0>
0

>  <SCORE.INTRA.REPUL>
0

>  <SCORE.INTRA.REPUL.0>
0

>  <SCORE.INTRA.SOLV>
0

>  <SCORE.INTRA.SOLV.lig_0>
-23.8918

>  <SCORE.INTRA.VDW>
0

>  <SCORE.INTRA.VDW.0>
0

>  <SCORE.INTRA.norm>
0

>  <SCORE.RESTR>
0

>  <SCORE.RESTR.CAVITY>
0

>  <SCORE.RESTR.norm>
0

>  <SCORE.SYSTEM>
0

>  <SCORE.SYSTEM.CONST>
0

>  <SCORE.SYSTEM.DIHEDRAL>
0

>  <SCORE.SYSTEM.SOLV>
0

>  <SCORE.SYSTEM.norm>
0

>  <SCORE.heavy>
10

>  <SCORE.norm>
-0.874168

>  <RMSD>
26.945

$$$$
ligand
 OpenBabel11021811513D
libRbt.so/2013.1/901 2013/11/27
 10 11  0  0  0  0  0  0  0  0999 V2000
  -15.2868   32.0029   -4.8387 N   0  0  0  0  0  0  0  0  0  0  0  0
  -16.5183   32.2455   -4.3743 C   0  0  0  0  0  0  0  0  0  0  0  0
  -17.5042   31.3852   -4.1241 N   0  0  0  0  0  0  0  0  0  0  0  0
  -17.1225   30.1292   -4.4032 C   0  0  0  0  0  0  0  0  0  0  0  0
  -15.8934   29.7232   -4.8861 C   0  0  0  0  0  0  0  0  0  0  0  0
  -14.9328   30.7292   -5.1098 C   0  0  0  0  0  0  0  0  0  0  0  0
  -13.7035   30.4826   -5.5733 N   0  0  0  0  0  0  0  0  0  0  0  0
  -15.8615   28.3488   -5.0538 N   0  0  0  0  0  0  0  0  0  0  0  0
  -17.0554   27.9577   -4.6757 C   0  0  0  0  0  0  0  0  0  0  0  0
  -17.8681   28.9800   -4.2708 N   0  0  0  0  0  0  0  0  0  0  0  0
  1  2  2  0  0  0  0
  1  6  1  0  0  0  0
  2  3  1  0  0  0  0
  3  4  2  0  0  0  0
  4  5  1  0  0  0  0
  4 10  1  0  0  0  0
  5  6  2  0  0  0  0
  5  8  1  0  0  0  0
  6  7  1  0  0  0  0
  8  9  1  0  0  0  0
  9 10  2  0  0  0  0
M  END
>  <CHROM.1>
-16.16469474,30.20161385,-4.73411855,0.89854593,0.33831993,0.11413640

>  <Name>
ligand

>  <RI>
0

>  <Rbt.Current_Directory>
/home/itssahil/PROJECTS/Mol_Feturizer/New_Systems/rnas/4XNR

>  <Rbt.Executable>
rbdock ($Id: //depot/dev/client3/rdock/2013.1/src/exe/rbdock.cxx#4 $)

>  <Rbt.Library>
libRbt.so (2013.1, Build901 2013/11/27)

>  <Rbt.Parameter_File>
/export/apps/rDock/src/rDock_2013.1_src/data/scripts/dock_solv.prm

>  <Rbt.Receptor>
prm/blind_docking_100.prm

>  <SCORE>
-8.77551

>  <SCORE.INTER>
-8.77551

>  <SCORE.INTER.CONST>
1

>  <SCORE.INTER.POLAR>
0

>  <SCORE.INTER.ROT>
0

>  <SCORE.INTER.SOLV>
2.83464

>  <SCORE.INTER.VDW>
-10.3952

>  <SCORE.INTER.norm>
-0.877551

>  <SCORE.INTRA>
0

>  <SCORE.INTRA.DIHEDRAL>
0

>  <SCORE.INTRA.DIHEDRAL.0>
0

>  <SCORE.INTRA.POLAR>
0

>  <SCORE.INTRA.POLAR.0>
0

>  <SCORE.INTRA.REPUL>
0

>  <SCORE.INTRA.REPUL.0>
0

>  <SCORE.INTRA.SOLV>
0

>  <SCORE.INTRA.SOLV.lig_0>
-23.8918

>  <SCORE.INTRA.VDW>
0

>  <SCORE.INTRA.VDW.0>
0

>  <SCORE.INTRA.norm>
0

>  <SCORE.RESTR>
0

>  <SCORE.RESTR.CAVITY>
0

>  <SCORE.RESTR.norm>
0

>  <SCORE.SYSTEM>
0

>  <SCORE.SYSTEM.CONST>
0

>  <SCORE.SYSTEM.DIHEDRAL>
0

>  <SCORE.SYSTEM.SOLV>
0

>  <SCORE.SYSTEM.norm>
0

>  <SCORE.heavy>
10

>  <SCORE.norm>
-0.877551

>  <RMSD>
26.963

$$$$
ligand
 OpenBabel11021811513D
libRbt.so/2013.1/901 2013/11/27
 10 11  0  0  0  0  0  0  0  0999 V2000
  -15.8658   28.0670   -5.2074 N   0  0  0  0  0  0  0  0  0  0  0  0
  -17.0685   28.0435   -4.6206 C   0  0  0  0  0  0  0  0  0  0  0  0
  -17.8154   29.0629   -4.1990 N   0  0  0  0  0  0  0  0  0  0  0  0
  -17.2017   30.2327   -4.4355 C   0  0  0  0  0  0  0  0  0  0  0  0
  -15.9675   30.4175   -5.0282 C   0  0  0  0  0  0  0  0  0  0  0  0
  -15.2746   29.2591   -5.4319 C   0  0  0  0  0  0  0  0  0  0  0  0
  -14.0737   29.2870   -6.0182 N   0  0  0  0  0  0  0  0  0  0  0  0
  -15.6577   31.7651   -5.1074 N   0  0  0  0  0  0  0  0  0  0  0  0
  -16.6955   32.3589   -4.5672 C   0  0  0  0  0  0  0  0  0  0  0  0
  -17.6649   31.4945   -4.1399 N   0  0  0  0  0  0  0  0  0  0  0  0
  1  2  2  0  0  0  0
  1  6  1  0  0  0  0
  2  3  1  0  0  0  0
  3  4  2  0  0  0  0
  4  5  1  0  0  0  0
  4 10  1  0  0  0  0
  5  6  2  0  0  0  0
  5  8  1  0  0  0  0
  6  7  1  0  0  0  0
  8  9  1  0  0  0  0
  9 10  2  0  0  0  0
M  END
>  <CHROM.1>
-16.31985175,29.99393319,-4.88003612,1.12632963,-0.45453495,-3.08699798

>  <Name>
ligand

>  <RI>
0

>  <Rbt.Current_Directory>
/home/itssahil/PROJECTS/Mol_Feturizer/New_Systems/rnas/4XNR

>  <Rbt.Executable>
rbdock ($Id: //depot/dev/client3/rdock/2013.1/src/exe/rbdock.cxx#4 $)

>  <Rbt.Library>
libRbt.so (2013.1, Build901 2013/11/27)

>  <Rbt.Parameter_File>
/export/apps/rDock/src/rDock_2013.1_src/data/scripts/dock_solv.prm

>  <Rbt.Receptor>
prm/blind_docking_60.prm

>  <SCORE>
-9.05751

>  <SCORE.INTER>
-9.05751

>  <SCORE.INTER.CONST>
1

>  <SCORE.INTER.POLAR>
0

>  <SCORE.INTER.ROT>
0

>  <SCORE.INTER.SOLV>
2.94114

>  <SCORE.INTER.VDW>
-10.6187

>  <SCORE.INTER.norm>
-0.905751

>  <SCORE.INTRA>
0

>  <SCORE.INTRA.DIHEDRAL>
0

>  <SCORE.INTRA.DIHEDRAL.0>
0

>  <SCORE.INTRA.POLAR>
0

>  <SCORE.INTRA.POLAR.0>
0

>  <SCORE.INTRA.REPUL>
0

>  <SCORE.INTRA.REPUL.0>
0

>  <SCORE.INTRA.SOLV>
0

>  <SCORE.INTRA.SOLV.lig_0>
-23.8918

>  <SCORE.INTRA.VDW>
0

>  <SCORE.INTRA.VDW.0>
0

>  <SCORE.INTRA.norm>
0

>  <SCORE.RESTR>
0

>  <SCORE.RESTR.CAVITY>
0

>  <SCORE.RESTR.norm>
0

>  <SCORE.SYSTEM>
0

>  <SCORE.SYSTEM.CONST>
0

>  <SCORE.SYSTEM.DIHEDRAL>
0

>  <SCORE.SYSTEM.SOLV>
0

>  <SCORE.SYSTEM.norm>
0

>  <SCORE.heavy>
10

>  <SCORE.norm>
-0.905751

>  <RMSD>
26.994

$$$$
ligand
 OpenBabel11021811513D
libRbt.so/2013.1/901 2013/11/27
 10 11  0  0  0  0  0  0  0  0999 V2000
  -15.3411   32.0050   -4.8463 N   0  0  0  0  0  0  0  0  0  0  0  0
  -16.5563   32.2411   -4.3374 C   0  0  0  0  0  0  0  0  0  0  0  0
  -17.5319   31.3768   -4.0620 N   0  0  0  0  0  0  0  0  0  0  0  0
  -17.1585   30.1242   -4.3664 C   0  0  0  0  0  0  0  0  0  0  0  0
  -15.9463   29.7249   -4.8953 C   0  0  0  0  0  0  0  0  0  0  0  0
  -14.9951   30.7346   -5.1419 C   0  0  0  0  0  0  0  0  0  0  0  0
  -13.7822   30.4944   -5.6498 N   0  0  0  0  0  0  0  0  0  0  0  0
  -15.9185   28.3523   -5.0776 N   0  0  0  0  0  0  0  0  0  0  0  0
  -17.0982   27.9556   -4.6625 C   0  0  0  0  0  0  0  0  0  0  0  0
  -17.8977   28.9726   -4.2198 N   0  0  0  0  0  0  0  0  0  0  0  0
  1  2  2  0  0  0  0
  1  6  1  0  0  0  0
  2  3  1  0  0  0  0
  3  4  2  0  0  0  0
  4  5  1  0  0  0  0
  4 10  1  0  0  0  0
  5  6  2  0  0  0  0
  5  8  1  0  0  0  0
  6  7  1  0  0  0  0
  8  9  1  0  0  0  0
  9 10  2  0  0  0  0
M  END
>  <CHROM.1>
-16.21273017,30.20138904,-4.72936280,0.89563366,0.37263371,0.12501579

>  <Name>
ligand

>  <RI>
0

>  <Rbt.Current_Directory>
/home/itssahil/PROJECTS/Mol_Feturizer/New_Systems/rnas/4XNR

>  <Rbt.Executable>
rbdock ($Id: //depot/dev/client3/rdock/2013.1/src/exe/rbdock.cxx#4 $)

>  <Rbt.Library>
libRbt.so (2013.1, Build901 2013/11/27)

>  <Rbt.Parameter_File>
/export/apps/rDock/src/rDock_2013.1_src/data/scripts/dock_solv.prm

>  <Rbt.Receptor>
prm/blind_docking_80.prm

>  <SCORE>
-8.77386

>  <SCORE.INTER>
-8.77386

>  <SCORE.INTER.CONST>
1

>  <SCORE.INTER.POLAR>
0

>  <SCORE.INTER.ROT>
0

>  <SCORE.INTER.SOLV>
3.03994

>  <SCORE.INTER.VDW>
-10.4625

>  <SCORE.INTER.norm>
-0.877386

>  <SCORE.INTRA>
0

>  <SCORE.INTRA.DIHEDRAL>
0

>  <SCORE.INTRA.DIHEDRAL.0>
0

>  <SCORE.INTRA.POLAR>
0

>  <SCORE.INTRA.POLAR.0>
0

>  <SCORE.INTRA.REPUL>
0

>  <SCORE.INTRA.REPUL.0>
0

>  <SCORE.INTRA.SOLV>
0

>  <SCORE.INTRA.SOLV.lig_0>
-23.8918

>  <SCORE.INTRA.VDW>
0

>  <SCORE.INTRA.VDW.0>
0

>  <SCORE.INTRA.norm>
0

>  <SCORE.RESTR>
0

>  <SCORE.RESTR.CAVITY>
0

>  <SCORE.RESTR.norm>
0

>  <SCORE.SYSTEM>
0

>  <SCORE.SYSTEM.CONST>
0

>  <SCORE.SYSTEM.DIHEDRAL>
0

>  <SCORE.SYSTEM.SOLV>
0

>  <SCORE.SYSTEM.norm>
0

>  <SCORE.heavy>
10

>  <SCORE.norm>
-0.877386

>  <RMSD>
27.001

$$$$
ligand
 OpenBabel11021811513D
libRbt.so/2013.1/901 2013/11/27
 10 11  0  0  0  0  0  0  0  0999 V2000
  -15.1932   31.8053   -5.7490 N   0  0  0  0  0  0  0  0  0  0  0  0
  -14.7839   30.8048   -6.5382 C   0  0  0  0  0  0  0  0  0  0  0  0
  -15.1844   29.5344   -6.5566 N   0  0  0  0  0  0  0  0  0  0  0  0
  -16.1272   29.3187   -5.6261 C   0  0  0  0  0  0  0  0  0  0  0  0
  -16.6486   30.2442   -4.7429 C   0  0  0  0  0  0  0  0  0  0  0  0
  -16.1429   31.5568   -4.8231 C   0  0  0  0  0  0  0  0  0  0  0  0
  -16.5549   32.5535   -4.0333 N   0  0  0  0  0  0  0  0  0  0  0  0
  -17.6050   29.6610   -3.9285 N   0  0  0  0  0  0  0  0  0  0  0  0
  -17.6407   28.4123   -4.3293 C   0  0  0  0  0  0  0  0  0  0  0  0
  -16.7747   28.1359   -5.3507 N   0  0  0  0  0  0  0  0  0  0  0  0
  1  2  2  0  0  0  0
  1  6  1  0  0  0  0
  2  3  1  0  0  0  0
  3  4  2  0  0  0  0
  4  5  1  0  0  0  0
  4 10  1  0  0  0  0
  5  6  2  0  0  0  0
  5  8  1  0  0  0  0
  6  7  1  0  0  0  0
  8  9  1  0  0  0  0
  9 10  2  0  0  0  0
M  END
>  <CHROM.1>
-16.26531748,30.21308666,-5.16437659,-0.90021361,-0.78890470,-2.80369830

>  <Name>
ligand

>  <RI>
0

>  <Rbt.Current_Directory>
/home/itssahil/PROJECTS/Mol_Feturizer/New_Systems/rnas/4XNR

>  <Rbt.Executable>
rbdock ($Id: //depot/dev/client3/rdock/2013.1/src/exe/rbdock.cxx#4 $)

>  <Rbt.Library>
libRbt.so (2013.1, Build901 2013/11/27)

>  <Rbt.Parameter_File>
/export/apps/rDock/src/rDock_2013.1_src/data/scripts/dock_solv.prm

>  <Rbt.Receptor>
prm/blind_docking_40.prm

>  <SCORE>
-8.98875

>  <SCORE.INTER>
-8.98875

>  <SCORE.INTER.CONST>
1

>  <SCORE.INTER.POLAR>
0

>  <SCORE.INTER.ROT>
0

>  <SCORE.INTER.SOLV>
4.73924

>  <SCORE.INTER.VDW>
-11.1722

>  <SCORE.INTER.norm>
-0.898875

>  <SCORE.INTRA>
0

>  <SCORE.INTRA.DIHEDRAL>
0

>  <SCORE.INTRA.DIHEDRAL.0>
0

>  <SCORE.INTRA.POLAR>
0

>  <SCORE.INTRA.POLAR.0>
0

>  <SCORE.INTRA.REPUL>
0

>  <SCORE.INTRA.REPUL.0>
0

>  <SCORE.INTRA.SOLV>
0

>  <SCORE.INTRA.SOLV.lig_0>
-23.8918

>  <SCORE.INTRA.VDW>
0

>  <SCORE.INTRA.VDW.0>
0

>  <SCORE.INTRA.norm>
0

>  <SCORE.RESTR>
0

>  <SCORE.RESTR.CAVITY>
0

>  <SCORE.RESTR.norm>
0

>  <SCORE.SYSTEM>
0

>  <SCORE.SYSTEM.CONST>
0

>  <SCORE.SYSTEM.DIHEDRAL>
0

>  <SCORE.SYSTEM.SOLV>
0

>  <SCORE.SYSTEM.norm>
0

>  <SCORE.heavy>
10

>  <SCORE.norm>
-0.898875

>  <RMSD>
27.139

$$$$
ligand
 OpenBabel11021811513D
libRbt.so/2013.1/901 2013/11/27
 10 11  0  0  0  0  0  0  0  0999 V2000
  -15.2956   31.8419   -5.7761 N   0  0  0  0  0  0  0  0  0  0  0  0
  -14.8029   30.8508   -6.5285 C   0  0  0  0  0  0  0  0  0  0  0  0
  -15.1271   29.5587   -6.5294 N   0  0  0  0  0  0  0  0  0  0  0  0
  -16.0849   29.3073   -5.6236 C   0  0  0  0  0  0  0  0  0  0  0  0
  -16.6880   30.2190   -4.7788 C   0  0  0  0  0  0  0  0  0  0  0  0
  -16.2583   31.5574   -4.8742 C   0  0  0  0  0  0  0  0  0  0  0  0
  -16.7534   32.5445   -4.1212 N   0  0  0  0  0  0  0  0  0  0  0  0
  -17.6341   29.5976   -3.9807 N   0  0  0  0  0  0  0  0  0  0  0  0
  -17.5833   28.3405   -4.3530 C   0  0  0  0  0  0  0  0  0  0  0  0
  -16.6701   28.0943   -5.3404 N   0  0  0  0  0  0  0  0  0  0  0  0
  1  2  2  0  0  0  0
  1  6  1  0  0  0  0
  2  3  1  0  0  0  0
  3  4  2  0  0  0  0
  4  5  1  0  0  0  0
  4 10  1  0  0  0  0
  5  6  2  0  0  0  0
  5  8  1  0  0  0  0
  6  7  1  0  0  0  0
  8  9  1  0  0  0  0
  9 10  2  0  0  0  0
M  END
>  <CHROM.1>
-16.29026659,30.20164934,-5.18743395,-0.99313711,-0.77595582,-2.89186668

>  <Name>
ligand

>  <RI>
0

>  <Rbt.Current_Directory>
/home/itssahil/PROJECTS/Mol_Feturizer/New_Systems/rnas/4XNR

>  <Rbt.Executable>
rbdock ($Id: //depot/dev/client3/rdock/2013.1/src/exe/rbdock.cxx#4 $)

>  <Rbt.Library>
libRbt.so (2013.1, Build901 2013/11/27)

>  <Rbt.Parameter_File>
/export/apps/rDock/src/rDock_2013.1_src/data/scripts/dock_solv.prm

>  <Rbt.Receptor>
prm/blind_docking_100.prm

>  <SCORE>
-8.95983

>  <SCORE.INTER>
-8.95983

>  <SCORE.INTER.CONST>
1

>  <SCORE.INTER.POLAR>
0

>  <SCORE.INTER.ROT>
0

>  <SCORE.INTER.SOLV>
5.03471

>  <SCORE.INTER.VDW>
-11.2515

>  <SCORE.INTER.norm>
-0.895983

>  <SCORE.INTRA>
0

>  <SCORE.INTRA.DIHEDRAL>
0

>  <SCORE.INTRA.DIHEDRAL.0>
0

>  <SCORE.INTRA.POLAR>
0

>  <SCORE.INTRA.POLAR.0>
0

>  <SCORE.INTRA.REPUL>
0

>  <SCORE.INTRA.REPUL.0>
0

>  <SCORE.INTRA.SOLV>
0

>  <SCORE.INTRA.SOLV.lig_0>
-23.8918

>  <SCORE.INTRA.VDW>
0

>  <SCORE.INTRA.VDW.0>
0

>  <SCORE.INTRA.norm>
0

>  <SCORE.RESTR>
0

>  <SCORE.RESTR.CAVITY>
0

>  <SCORE.RESTR.norm>
0

>  <SCORE.SYSTEM>
0

>  <SCORE.SYSTEM.CONST>
0

>  <SCORE.SYSTEM.DIHEDRAL>
0

>  <SCORE.SYSTEM.SOLV>
0

>  <SCORE.SYSTEM.norm>
0

>  <SCORE.heavy>
10

>  <SCORE.norm>
-0.895983

>  <RMSD>
27.160

$$$$
ligand
 OpenBabel11021811513D
libRbt.so/2013.1/901 2013/11/27
 10 11  0  0  0  0  0  0  0  0999 V2000
  -16.7207   31.8265   -6.1011 N   0  0  0  0  0  0  0  0  0  0  0  0
  -16.7790   31.0387   -7.1816 C   0  0  0  0  0  0  0  0  0  0  0  0
  -17.0885   29.7454   -7.2599 N   0  0  0  0  0  0  0  0  0  0  0  0
  -17.3656   29.2474   -6.0448 C   0  0  0  0  0  0  0  0  0  0  0  0
  -17.3477   29.9307   -4.8442 C   0  0  0  0  0  0  0  0  0  0  0  0
  -17.0051   31.2965   -4.8932 C   0  0  0  0  0  0  0  0  0  0  0  0
  -16.9486   32.0800   -3.8118 N   0  0  0  0  0  0  0  0  0  0  0  0
  -17.6891   29.0915   -3.7966 N   0  0  0  0  0  0  0  0  0  0  0  0
  -17.9017   27.9342   -4.3769 C   0  0  0  0  0  0  0  0  0  0  0  0
  -17.7244   27.9561   -5.7325 N   0  0  0  0  0  0  0  0  0  0  0  0
  1  2  2  0  0  0  0
  1  6  1  0  0  0  0
  2  3  1  0  0  0  0
  3  4  2  0  0  0  0
  4  5  1  0  0  0  0
  4 10  1  0  0  0  0
  5  6  2  0  0  0  0
  5  8  1  0  0  0  0
  6  7  1  0  0  0  0
  8  9  1  0  0  0  0
  9 10  2  0  0  0  0
M  END
>  <CHROM.1>
-17.25528710,30.02430399,-5.39934578,-0.28857349,-1.29985077,-2.04450624

>  <Name>
ligand

>  <RI>
0

>  <Rbt.Current_Directory>
/home/itssahil/PROJECTS/Mol_Feturizer/New_Systems/rnas/4XNR

>  <Rbt.Executable>
rbdock ($Id: //depot/dev/client3/rdock/2013.1/src/exe/rbdock.cxx#4 $)

>  <Rbt.Library>
libRbt.so (2013.1, Build901 2013/11/27)

>  <Rbt.Parameter_File>
/export/apps/rDock/src/rDock_2013.1_src/data/scripts/dock_solv.prm

>  <Rbt.Receptor>
prm/blind_docking_60.prm

>  <SCORE>
-8.91187

>  <SCORE.INTER>
-8.91193

>  <SCORE.INTER.CONST>
1

>  <SCORE.INTER.POLAR>
0

>  <SCORE.INTER.ROT>
0

>  <SCORE.INTER.SOLV>
8.37755

>  <SCORE.INTER.VDW>
-12.3338

>  <SCORE.INTER.norm>
-0.891193

>  <SCORE.INTRA>
0

>  <SCORE.INTRA.DIHEDRAL>
0

>  <SCORE.INTRA.DIHEDRAL.0>
0

>  <SCORE.INTRA.POLAR>
0

>  <SCORE.INTRA.POLAR.0>
0

>  <SCORE.INTRA.REPUL>
0

>  <SCORE.INTRA.REPUL.0>
0

>  <SCORE.INTRA.SOLV>
0

>  <SCORE.INTRA.SOLV.lig_0>
-23.8918

>  <SCORE.INTRA.VDW>
0

>  <SCORE.INTRA.VDW.0>
0

>  <SCORE.INTRA.norm>
0

>  <SCORE.RESTR>
5.6741e-05

>  <SCORE.RESTR.CAVITY>
5.6741e-05

>  <SCORE.RESTR.norm>
5.6741e-06

>  <SCORE.SYSTEM>
0

>  <SCORE.SYSTEM.CONST>
0

>  <SCORE.SYSTEM.DIHEDRAL>
0

>  <SCORE.SYSTEM.SOLV>
0

>  <SCORE.SYSTEM.norm>
0

>  <SCORE.heavy>
10

>  <SCORE.norm>
-0.891187

>  <RMSD>
27.955

$$$$
ligand
 OpenBabel11021811513D
libRbt.so/2013.1/901 2013/11/27
 10 11  0  0  0  0  0  0  0  0999 V2000
  -16.7433   31.8267   -6.0947 N   0  0  0  0  0  0  0  0  0  0  0  0
  -16.7844   31.0375   -7.1749 C   0  0  0  0  0  0  0  0  0  0  0  0
  -17.0788   29.7407   -7.2547 N   0  0  0  0  0  0  0  0  0  0  0  0
  -17.3598   29.2406   -6.0414 C   0  0  0  0  0  0  0  0  0  0  0  0
  -17.3590   29.9249   -4.8412 C   0  0  0  0  0  0  0  0  0  0  0  0
  -17.0312   31.2943   -4.8886 C   0  0  0  0  0  0  0  0  0  0  0  0
  -16.9919   32.0792   -3.8074 N   0  0  0  0  0  0  0  0  0  0  0  0
  -17.6992   29.0826   -3.7957 N   0  0  0  0  0  0  0  0  0  0  0  0
  -17.8943   27.9226   -4.3767 C   0  0  0  0  0  0  0  0  0  0  0  0
  -17.7067   27.9455   -5.7309 N   0  0  0  0  0  0  0  0  0  0  0  0
  1  2  2  0  0  0  0
  1  6  1  0  0  0  0
  2  3  1  0  0  0  0
  3  4  2  0  0  0  0
  4  5  1  0  0  0  0
  4 10  1  0  0  0  0
  5  6  2  0  0  0  0
  5  8  1  0  0  0  0
  6  7  1  0  0  0  0
  8  9  1  0  0  0  0
  9 10  2  0  0  0  0
M  END
>  <CHROM.1>
-17.26326382,30.01907283,-5.39572747,-0.33464192,-1.30593200,-2.08966510

>  <Name>
ligand

>  <RI>
0

>  <Rbt.Current_Directory>
/home/itssahil/PROJECTS/Mol_Feturizer/New_Systems/rnas/4XNR

>  <Rbt.Executable>
rbdock ($Id: //depot/dev/client3/rdock/2013.1/src/exe/rbdock.cxx#4 $)

>  <Rbt.Library>
libRbt.so (2013.1, Build901 2013/11/27)

>  <Rbt.Parameter_File>
/export/apps/rDock/src/rDock_2013.1_src/data/scripts/dock_solv.prm

>  <Rbt.Receptor>
prm/blind_docking_60.prm

>  <SCORE>
-8.90404

>  <SCORE.INTER>
-8.90572

>  <SCORE.INTER.CONST>
1

>  <SCORE.INTER.POLAR>
0

>  <SCORE.INTER.ROT>
0

>  <SCORE.INTER.SOLV>
8.51879

>  <SCORE.INTER.VDW>
-12.3767

>  <SCORE.INTER.norm>
-0.890572

>  <SCORE.INTRA>
0

>  <SCORE.INTRA.DIHEDRAL>
0

>  <SCORE.INTRA.DIHEDRAL.0>
0

>  <SCORE.INTRA.POLAR>
0

>  <SCORE.INTRA.POLAR.0>
0

>  <SCORE.INTRA.REPUL>
0

>  <SCORE.INTRA.REPUL.0>
0

>  <SCORE.INTRA.SOLV>
0

>  <SCORE.INTRA.SOLV.lig_0>
-23.8918

>  <SCORE.INTRA.VDW>
0

>  <SCORE.INTRA.VDW.0>
0

>  <SCORE.INTRA.norm>
0

>  <SCORE.RESTR>
0.00167734

>  <SCORE.RESTR.CAVITY>
0.00167734

>  <SCORE.RESTR.norm>
0.000167734

>  <SCORE.SYSTEM>
0

>  <SCORE.SYSTEM.CONST>
0

>  <SCORE.SYSTEM.DIHEDRAL>
0

>  <SCORE.SYSTEM.SOLV>
0

>  <SCORE.SYSTEM.norm>
0

>  <SCORE.heavy>
10

>  <SCORE.norm>
-0.890404

>  <RMSD>
27.957

$$$$
ligand
 OpenBabel11021811513D
libRbt.so/2013.1/901 2013/11/27
 10 11  0  0  0  0  0  0  0  0999 V2000
  -16.7401   31.8206   -6.1162 N   0  0  0  0  0  0  0  0  0  0  0  0
  -16.8064   31.0318   -7.1954 C   0  0  0  0  0  0  0  0  0  0  0  0
  -17.1187   29.7389   -7.2704 N   0  0  0  0  0  0  0  0  0  0  0  0
  -17.3893   29.2428   -6.0531 C   0  0  0  0  0  0  0  0  0  0  0  0
  -17.3629   29.9273   -4.8534 C   0  0  0  0  0  0  0  0  0  0  0  0
  -17.0181   31.2924   -4.9060 C   0  0  0  0  0  0  0  0  0  0  0  0
  -16.9536   32.0770   -3.8258 N   0  0  0  0  0  0  0  0  0  0  0  0
  -17.6993   29.0898   -3.8029 N   0  0  0  0  0  0  0  0  0  0  0  0
  -17.9175   27.9323   -4.3806 C   0  0  0  0  0  0  0  0  0  0  0  0
  -17.7485   27.9524   -5.7373 N   0  0  0  0  0  0  0  0  0  0  0  0
  1  2  2  0  0  0  0
  1  6  1  0  0  0  0
  2  3  1  0  0  0  0
  3  4  2  0  0  0  0
  4  5  1  0  0  0  0
  4 10  1  0  0  0  0
  5  6  2  0  0  0  0
  5  8  1  0  0  0  0
  6  7  1  0  0  0  0
  8  9  1  0  0  0  0
  9 10  2  0  0  0  0
M  END
>  <CHROM.1>
-17.27363139,30.02013385,-5.40922484,-0.26511868,-1.30097421,-2.02297494

>  <Name>
ligand

>  <RI>
0

>  <Rbt.Current_Directory>
/home/itssahil/PROJECTS/Mol_Feturizer/New_Systems/rnas/4XNR

>  <Rbt.Executable>
rbdock ($Id: //depot/dev/client3/rdock/2013.1/src/exe/rbdock.cxx#4 $)

>  <Rbt.Library>
libRbt.so (2013.1, Build901 2013/11/27)

>  <Rbt.Parameter_File>
/export/apps/rDock/src/rDock_2013.1_src/data/scripts/dock_solv.prm

>  <Rbt.Receptor>
prm/blind_docking_60.prm

>  <SCORE>
-8.90397

>  <SCORE.INTER>
-8.90397

>  <SCORE.INTER.CONST>
1

>  <SCORE.INTER.POLAR>
0

>  <SCORE.INTER.ROT>
0

>  <SCORE.INTER.SOLV>
8.38718

>  <SCORE.INTER.VDW>
-12.3317

>  <SCORE.INTER.norm>
-0.890397

>  <SCORE.INTRA>
0

>  <SCORE.INTRA.DIHEDRAL>
0

>  <SCORE.INTRA.DIHEDRAL.0>
0

>  <SCORE.INTRA.POLAR>
0

>  <SCORE.INTRA.POLAR.0>
0

>  <SCORE.INTRA.REPUL>
0

>  <SCORE.INTRA.REPUL.0>
0

>  <SCORE.INTRA.SOLV>
0

>  <SCORE.INTRA.SOLV.lig_0>
-23.8918

>  <SCORE.INTRA.VDW>
0

>  <SCORE.INTRA.VDW.0>
0

>  <SCORE.INTRA.norm>
0

>  <SCORE.RESTR>
0

>  <SCORE.RESTR.CAVITY>
0

>  <SCORE.RESTR.norm>
0

>  <SCORE.SYSTEM>
0

>  <SCORE.SYSTEM.CONST>
0

>  <SCORE.SYSTEM.DIHEDRAL>
0

>  <SCORE.SYSTEM.SOLV>
0

>  <SCORE.SYSTEM.norm>
0

>  <SCORE.heavy>
10

>  <SCORE.norm>
-0.890397

>  <RMSD>
27.971

$$$$
ligand
 OpenBabel11021811513D
libRbt.so/2013.1/901 2013/11/27
 10 11  0  0  0  0  0  0  0  0999 V2000
  -16.7492   31.8382   -6.1187 N   0  0  0  0  0  0  0  0  0  0  0  0
  -16.8119   31.0476   -7.1969 C   0  0  0  0  0  0  0  0  0  0  0  0
  -17.1148   29.7524   -7.2699 N   0  0  0  0  0  0  0  0  0  0  0  0
  -17.3792   29.2557   -6.0515 C   0  0  0  0  0  0  0  0  0  0  0  0
  -17.3554   29.9417   -4.8526 C   0  0  0  0  0  0  0  0  0  0  0  0
  -17.0208   31.3092   -4.9074 C   0  0  0  0  0  0  0  0  0  0  0  0
  -16.9598   32.0955   -3.8281 N   0  0  0  0  0  0  0  0  0  0  0  0
  -17.6835   29.1029   -3.8004 N   0  0  0  0  0  0  0  0  0  0  0  0
  -17.8944   27.9431   -4.3764 C   0  0  0  0  0  0  0  0  0  0  0  0
  -17.7284   27.9630   -5.7335 N   0  0  0  0  0  0  0  0  0  0  0  0
  1  2  2  0  0  0  0
  1  6  1  0  0  0  0
  2  3  1  0  0  0  0
  3  4  2  0  0  0  0
  4  5  1  0  0  0  0
  4 10  1  0  0  0  0
  5  6  2  0  0  0  0
  5  8  1  0  0  0  0
  6  7  1  0  0  0  0
  8  9  1  0  0  0  0
  9 10  2  0  0  0  0
M  END
>  <CHROM.1>
-17.26801591,30.03455764,-5.40868098,-0.27033125,-1.30848943,-2.02909888

>  <Name>
ligand

>  <RI>
0

>  <Rbt.Current_Directory>
/home/itssahil/PROJECTS/Mol_Feturizer/New_Systems/rnas/4XNR

>  <Rbt.Executable>
rbdock ($Id: //depot/dev/client3/rdock/2013.1/src/exe/rbdock.cxx#4 $)

>  <Rbt.Library>
libRbt.so (2013.1, Build901 2013/11/27)

>  <Rbt.Parameter_File>
/export/apps/rDock/src/rDock_2013.1_src/data/scripts/dock_solv.prm

>  <Rbt.Receptor>
prm/blind_docking_100.prm

>  <SCORE>
-8.91149

>  <SCORE.INTER>
-8.91149

>  <SCORE.INTER.CONST>
1

>  <SCORE.INTER.POLAR>
0

>  <SCORE.INTER.ROT>
0

>  <SCORE.INTER.SOLV>
8.35823

>  <SCORE.INTER.VDW>
-12.3271

>  <SCORE.INTER.norm>
-0.891149

>  <SCORE.INTRA>
0

>  <SCORE.INTRA.DIHEDRAL>
0

>  <SCORE.INTRA.DIHEDRAL.0>
0

>  <SCORE.INTRA.POLAR>
0

>  <SCORE.INTRA.POLAR.0>
0

>  <SCORE.INTRA.REPUL>
0

>  <SCORE.INTRA.REPUL.0>
0

>  <SCORE.INTRA.SOLV>
0

>  <SCORE.INTRA.SOLV.lig_0>
-23.8918

>  <SCORE.INTRA.VDW>
0

>  <SCORE.INTRA.VDW.0>
0

>  <SCORE.INTRA.norm>
0

>  <SCORE.RESTR>
0

>  <SCORE.RESTR.CAVITY>
0

>  <SCORE.RESTR.norm>
0

>  <SCORE.SYSTEM>
0

>  <SCORE.SYSTEM.CONST>
0

>  <SCORE.SYSTEM.DIHEDRAL>
0

>  <SCORE.SYSTEM.SOLV>
0

>  <SCORE.SYSTEM.norm>
0

>  <SCORE.heavy>
10

>  <SCORE.norm>
-0.891149

>  <RMSD>
27.973

$$$$
