@<TRIPOS>MOLECULE
4XNR_rdock.pdb
 1502 1677 0 0 0
SMALL
GASTEIGER

@<TRIPOS>ATOM
      1  P         24.3180    7.1280   -0.3430 P.3    13  G13         0.1280
      2  C5'       24.5150    7.3550   -2.9500 C.3    13  G13         0.1795
      3  O5'       23.8360    6.8110   -1.8270 O.3    13  G13        -0.3259
      4  C4'       24.5090    6.3960   -4.1130 C.3    13  G13         0.1772
      5  O4'       25.2720    5.2100   -3.7710 O.3    13  G13        -0.3307
      6  C3'       23.1450    5.8560   -4.5190 C.3    13  G13         0.1860
      7  O3'       22.4220    6.7460   -5.3520 O.3    13  G13        -0.3112
      8  C2'       23.4950    4.5370   -5.1920 C.3    13  G13         0.2309
      9  O2'       23.9660    4.7570   -6.5130 O.3    13  G13        -0.2156
     10  C1'       24.6680    4.0650   -4.3340 C.3    13  G13         0.2408
     11  N1        22.7390   -0.4710   -3.0230 N.ar   13  G13        -0.1709
     12  C2        23.0240    0.0230   -4.2710 C.ar   13  G13         0.2606
     13  N2        22.7640   -0.7930   -5.3040 N.pl3  13  G13        -0.0859
     14  N3        23.5270    1.2270   -4.4920 N.ar   13  G13        -0.1918
     15  C4        23.7270    1.9090   -3.3440 C.ar   13  G13         0.1723
     16  C5        23.4740    1.5050   -2.0490 C.ar   13  G13         0.1748
     17  C6        22.9340    0.2120   -1.8270 C.ar   13  G13         0.3023
     18  O6        22.6430   -0.3290   -0.7530 O.2    13  G13        -0.2633
     19  N7        23.8160    2.5010   -1.1450 N.ar   13  G13        -0.2173
     20  C8        24.2610    3.4740   -1.8920 C.ar   13  G13         0.1817
     21  N9        24.2330    3.1840   -3.2340 N.ar   13  G13        -0.2693
     22  OP1       24.5760    8.5880   -0.2440 O.3    13  G13        -0.1955
     23  OP2       23.3630    6.4860    0.5970 O.co2  13  G13        -0.7863
     24  P         20.8420    6.9460   -5.1400 P.3    14  G14         0.2141
     25  C5'       20.2670    5.4990   -7.2500 C.3    14  G14         0.1812
     26  O5'       20.1920    5.6730   -5.8430 O.3    14  G14        -0.3114
     27  C4'       19.8050    4.1240   -7.6640 C.3    14  G14         0.1773
     28  O4'       20.6870    3.1190   -7.0970 O.3    14  G14        -0.3307
     29  C3'       18.4220    3.7100   -7.1840 C.3    14  G14         0.1860
     30  O3'       17.3720    4.2360   -7.9760 O.3    14  G14        -0.3112
     31  C2'       18.5050    2.1920   -7.2090 C.3    14  G14         0.2309
     32  O2'       18.3780    1.7050   -8.5370 O.3    14  G14        -0.2156
     33  C1'       19.9450    1.9680   -6.7490 C.3    14  G14         0.2408
     34  N1        19.0280   -1.1430   -2.8310 N.ar   14  G14        -0.1709
     35  C2        18.8060   -1.3400   -4.1710 C.ar   14  G14         0.2606
     36  N2        18.2690   -2.5190   -4.5160 N.pl3  14  G14        -0.0859
     37  N3        19.0900   -0.4470   -5.1040 N.ar   14  G14        -0.1918
     38  C4        19.6230    0.6780   -4.5810 C.ar   14  G14         0.1723
     39  C5        19.8850    0.9740   -3.2600 C.ar   14  G14         0.1748
     40  C6        19.5760    0.0060   -2.2690 C.ar   14  G14         0.3023
     41  O6        19.7340    0.0790   -1.0450 O.2    14  G14        -0.2633
     42  N7        20.4370    2.2410   -3.1390 N.ar   14  G14        -0.2173
     43  C8        20.4990    2.6860   -4.3640 C.ar   14  G14         0.1817
     44  N9        20.0240    1.7860   -5.2880 N.ar   14  G14        -0.2693
     45  OP1       20.4260    8.1530   -5.8990 O.2    14  G14        -0.5172
     46  OP2       20.5630    6.8620   -3.6830 O.co2  14  G14        -0.4373
     47  P         15.9750    4.6410   -7.2930 P.3    15  G15         0.2141
     48  C5'       14.9010    2.3360   -7.9360 C.3    15  G15         0.1812
     49  O5'       15.3050    3.2440   -6.9210 O.3    15  G15        -0.3114
     50  C4'       14.4580    1.0140   -7.3590 C.3    15  G15         0.1773
     51  O4'       15.5640    0.3830   -6.6610 O.3    15  G15        -0.3307
     52  C3'       13.3540    1.0710   -6.3160 C.3    15  G15         0.1860
     53  O3'       12.0600    1.2110   -6.8770 O.3    15  G15        -0.3112
     54  C2'       13.5530   -0.2320   -5.5550 C.3    15  G15         0.2309
     55  O2'       13.0260   -1.3280   -6.2880 O.3    15  G15        -0.2156
     56  C1'       15.0780   -0.3440   -5.5500 C.3    15  G15         0.2408
     57  N1        15.8510   -1.0080   -0.5690 N.ar   15  G15        -0.1709
     58  C2        15.2150   -1.8240   -1.4710 C.ar   15  G15         0.2606
     59  N2        14.7180   -2.9700   -0.9840 N.pl3  15  G15        -0.0859
     60  N3        15.0770   -1.5380   -2.7550 N.ar   15  G15        -0.1918
     61  C4        15.6350   -0.3500   -3.0710 C.ar   15  G15         0.1723
     62  C5        16.2920    0.5390   -2.2470 C.ar   15  G15         0.1748
     63  C6        16.4340    0.2190   -0.8720 C.ar   15  G15         0.3023
     64  O6        16.9820    0.8770    0.0200 O.2    15  G15        -0.2633
     65  N7        16.7190    1.6490   -2.9620 N.ar   15  G15        -0.2173
     66  C8        16.3220    1.4200   -4.1850 C.ar   15  G15         0.1817
     67  N9        15.6610    0.2240   -4.3200 N.ar   15  G15        -0.2693
     68  OP1       15.1320    5.2980   -8.3240 O.2    15  G15        -0.5172
     69  OP2       16.2760    5.3550   -6.0260 O.co2  15  G15        -0.4373
     70  P         10.9240    2.0220   -6.0800 P.3    16  A16         0.2141
     71  C5'        9.8720   -0.1860   -5.1340 C.3    16  A16         0.1812
     72  O5'       10.5230    1.0510   -4.8820 O.3    16  A16        -0.3114
     73  C4'        9.7650   -1.0260   -3.8850 C.3    16  A16         0.1773
     74  O4'       11.0900   -1.3430   -3.3860 O.3    16  A16        -0.3307
     75  C3'        9.0730   -0.3800   -2.6950 C.3    16  A16         0.1860
     76  O3'        7.6600   -0.4080   -2.7850 O.3    16  A16        -0.3112
     77  C2'        9.6270   -1.1770   -1.5220 C.3    16  A16         0.2309
     78  O2'        8.9810   -2.4380   -1.4230 O.3    16  A16        -0.2156
     79  C1'       11.0690   -1.4080   -1.9750 C.3    16  A16         0.2408
     80  N1        13.6990    0.2100    2.1460 N.ar   16  A16        -0.2040
     81  C2        12.8960   -0.8420    1.9440 C.ar   16  A16         0.2016
     82  N3        12.2420   -1.2030    0.8420 N.ar   16  A16        -0.2048
     83  C4        12.4790   -0.3350   -0.1570 C.ar   16  A16         0.1692
     84  C5        13.2790    0.7920   -0.1040 C.ar   16  A16         0.1518
     85  C6        13.9160    1.0640    1.1210 C.ar   16  A16         0.1919
     86  N6        14.7170    2.1130    1.3230 N.pl3  16  A16        -0.1054
     87  N7        13.2860    1.4460   -1.3280 N.ar   16  A16        -0.2193
     88  C8        12.5020    0.7130   -2.0820 C.ar   16  A16         0.1816
     89  N9        11.9820   -0.3820   -1.4370 N.ar   16  A16        -0.2693
     90  OP1        9.7450    2.1660   -6.9720 O.2    16  A16        -0.5172
     91  OP2       11.5540    3.2320   -5.4950 O.co2  16  A16        -0.4373
     92  P          6.7860    0.7370   -2.0720 P.3    17  A17         0.2141
     93  C5'        6.1770   -0.8750   -0.0980 C.3    17  A17         0.1812
     94  O5'        6.7940    0.3280   -0.5320 O.3    17  A17        -0.3114
     95  C4'        6.5560   -1.2160    1.3210 C.3    17  A17         0.1773
     96  O4'        7.9940   -1.3870    1.4220 O.3    17  A17        -0.3307
     97  C3'        6.2400   -0.1640    2.3720 C.3    17  A17         0.1860
     98  O3'        4.8820   -0.1690    2.7770 O.3    17  A17        -0.3112
     99  C2'        7.2130   -0.5160    3.4880 C.3    17  A17         0.2309
    100  O2'        6.7480   -1.6390    4.2240 O.3    17  A17        -0.2156
    101  C1'        8.4420   -0.9410    2.6860 C.3    17  A17         0.2408
    102  N1        12.0040    2.0540    4.8770 N.ar   17  A17        -0.2040
    103  C2        11.2750    1.0300    5.3410 C.ar   17  A17         0.2016
    104  N3        10.3630    0.2940    4.7120 N.ar   17  A17        -0.2048
    105  C4        10.2190    0.7030    3.4390 C.ar   17  A17         0.1692
    106  C5        10.8940    1.7380    2.8180 C.ar   17  A17         0.1518
    107  C6        11.8340    2.4400    3.5930 C.ar   17  A17         0.1919
    108  N6        12.5610    3.4600    3.1320 N.pl3  17  A17        -0.1054
    109  N7        10.4820    1.8700    1.4980 N.ar   17  A17        -0.2193
    110  C8         9.5810    0.9270    1.3540 C.ar   17  A17         0.1816
    111  N9         9.3760    0.1820    2.4890 N.ar   17  A17        -0.2693
    112  OP1        5.3890    0.6260   -2.5660 O.2    17  A17        -0.5172
    113  OP2        7.5150    2.0230   -2.2110 O.co2  17  A17        -0.4373
    114  P          4.1790    1.1950    3.2580 P.3    18  G18         0.2141
    115  C5'        4.6280    0.5730    5.7630 C.3    18  G18         0.1812
    116  O5'        4.8240    1.4790    4.6880 O.3    18  G18        -0.3114
    117  C4'        5.5350    0.8790    6.9290 C.3    18  G18         0.1773
    118  O4'        6.9240    0.7930    6.5190 O.3    18  G18        -0.3307
    119  C3'        5.4180    2.2710    7.5250 C.3    18  G18         0.1860
    120  O3'        4.3050    2.4130    8.3890 O.3    18  G18        -0.3112
    121  C2'        6.7600    2.4410    8.2240 C.3    18  G18         0.2309
    122  O2'        6.7760    1.7410    9.4590 O.3    18  G18        -0.2156
    123  C1'        7.6970    1.7240    7.2510 C.3    18  G18         0.2408
    124  N1        11.2310    5.3270    6.6730 N.ar   18  G18        -0.1709
    125  C2        10.8890    4.6080    7.7910 C.ar   18  G18         0.2606
    126  N2        11.5780    4.8830    8.9080 N.pl3  18  G18        -0.0859
    127  N3         9.9400    3.6860    7.8130 N.ar   18  G18        -0.1918
    128  C4         9.3510    3.5390    6.6070 C.ar   18  G18         0.1723
    129  C5         9.6180    4.2060    5.4310 C.ar   18  G18         0.1748
    130  C6        10.6390    5.1930    5.4220 C.ar   18  G18         0.3023
    131  O6        11.0260    5.8940    4.4790 O.2    18  G18        -0.2633
    132  N7         8.7850    3.7590    4.4130 N.ar   18  G18        -0.2173
    133  C8         8.0420    2.8460    4.9780 C.ar   18  G18         0.1817
    134  N9         8.3340    2.6630    6.3080 N.ar   18  G18        -0.2693
    135  OP1        2.7340    0.9180    3.4550 O.3    18  G18        -0.4373
    136  OP2        4.5980    2.2830    2.3380 O.co2  18  G18        -0.5172
    137  P          3.6320    3.8560    8.6030 P.3    19  A19         0.2141
    138  C5'        4.8440    4.0160   10.9200 C.3    19  A19         0.1812
    139  O5'        4.6000    4.5800    9.6400 O.3    19  A19        -0.3114
    140  C4'        5.9940    4.7000   11.6160 C.3    19  A19         0.1773
    141  O4'        7.2190    4.4930   10.8650 O.3    19  A19        -0.3307
    142  C3'        5.8920    6.2110   11.7400 C.3    19  A19         0.1860
    143  O3'        5.0580    6.6270   12.8070 O.3    19  A19        -0.3112
    144  C2'        7.3470    6.6260   11.8990 C.3    19  A19         0.2309
    145  O2'        7.7980    6.3760   13.2220 O.3    19  A19        -0.2156
    146  C1'        8.0400    5.6390   10.9590 C.3    19  A19         0.2408
    147  N1        10.7690    8.8460    7.9880 N.ar   19  A19        -0.2040
    148  C2        10.8610    8.5210    9.2840 C.ar   19  A19         0.2016
    149  N3        10.1170    7.6770    9.9950 N.ar   19  A19        -0.2048
    150  C4         9.1660    7.1190    9.2260 C.ar   19  A19         0.1692
    151  C5         8.9450    7.3530    7.8800 C.ar   19  A19         0.1518
    152  C6         9.8020    8.2680    7.2430 C.ar   19  A19         0.1919
    153  N6         9.7100    8.5930    5.9510 N.pl3  19  A19        -0.1054
    154  N7         7.8740    6.5980    7.4210 N.ar   19  A19        -0.2193
    155  C8         7.4770    5.9370    8.4810 C.ar   19  A19         0.1816
    156  N9         8.2160    6.2030    9.6080 N.ar   19  A19        -0.2693
    157  OP1        2.3160    3.6590    9.2630 O.3    19  A19        -0.4373
    158  OP2        3.7050    4.5930    7.3160 O.co2  19  A19        -0.5172
    159  P          4.1000    7.9050   12.6270 P.3    20  U20         0.2141
    160  C5'        5.8960    9.3640   13.8530 C.3    20  U20         0.1812
    161  O5'        5.0990    9.1430   12.6990 O.3    20  U20        -0.3114
    162  C4'        6.8990   10.4670   13.6300 C.3    20  U20         0.1773
    163  O4'        7.8810   10.0540   12.6440 O.3    20  U20        -0.3307
    164  C3'        6.3470   11.7670   13.0710 C.3    20  U20         0.1860
    165  O3'        5.7240   12.5760   14.0530 O.3    20  U20        -0.3112
    166  C2'        7.5780   12.4020   12.4400 C.3    20  U20         0.2309
    167  O2'        8.4020   12.9950   13.4330 O.3    20  U20        -0.2156
    168  C1'        8.2990   11.1720   11.8860 C.3    20  U20         0.2420
    169  N1         7.9740   10.9350   10.4610 N.ar   20  U20        -0.2534
    170  C2         8.6600   11.6800    9.5200 C.ar   20  U20         0.3546
    171  O2         9.5080   12.5030    9.8180 O.2    20  U20        -0.2443
    172  N3         8.3190   11.4270    8.2150 N.ar   20  U20        -0.1530
    173  C4         7.3800   10.5230    7.7630 C.ar   20  U20         0.2846
    174  O4         7.1840   10.4090    6.5510 O.2    20  U20        -0.2650
    175  C5         6.7110    9.7930    8.7960 C.ar   20  U20         0.0814
    176  C6         7.0230   10.0180   10.0770 C.ar   20  U20         0.0870
    177  OP1        3.1980    7.9780   13.8040 O.3    20  U20        -0.4373
    178  OP2        3.5230    7.8590   11.2590 O.co2  20  U20        -0.5172
    179  P          4.3760   13.3740   13.6970 P.3    21  A21         0.2141
    180  C5'        5.7630   15.5060   13.0830 C.3    21  A21         0.1812
    181  O5'        4.8550   14.4960   12.6730 O.3    21  A21        -0.3114
    182  C4'        6.1500   16.4100   11.9400 C.3    21  A21         0.1773
    183  O4'        7.0050   15.7070   11.0080 O.3    21  A21        -0.3307
    184  C3'        5.0140   16.9260   11.0750 C.3    21  A21         0.1860
    185  O3'        4.3300   18.0150   11.6700 O.3    21  A21        -0.3112
    186  C2'        5.7230   17.2920    9.7740 C.3    21  A21         0.2309
    187  O2'        6.3250   18.5710    9.8730 O.3    21  A21        -0.2156
    188  C1'        6.8340   16.2380    9.7120 C.3    21  A21         0.2408
    189  N1         7.5400   14.5520    4.9290 N.ar   21  A21        -0.2040
    190  C2         7.9650   15.6420    5.5790 C.ar   21  A21         0.2016
    191  N3         7.7350   16.0110    6.8360 N.ar   21  A21        -0.2048
    192  C4         6.9620   15.1070    7.4640 C.ar   21  A21         0.1692
    193  C5         6.4500   13.9380    6.9340 C.ar   21  A21         0.1518
    194  C6         6.7660   13.6620    5.5910 C.ar   21  A21         0.1919
    195  N6         6.3450   12.5760    4.9400 N.pl3  21  A21        -0.1054
    196  N7         5.6980   13.2590    7.8840 N.ar   21  A21        -0.2193
    197  C8         5.7730   14.0190    8.9510 C.ar   21  A21         0.1816
    198  N9         6.5270   15.1510    8.7640 N.ar   21  A21        -0.2693
    199  OP1        3.9070   14.0600   14.9290 O.3    21  A21        -0.4373
    200  OP2        3.4640   12.4460   12.9800 O.co2  21  A21        -0.5172
    201  P          2.7690   17.8930   12.0300 P.3    22  U22         0.2141
    202  C5'        0.7570   17.4010   10.4140 C.3    22  U22         0.1812
    203  O5'        2.0480   17.9660   10.6130 O.3    22  U22        -0.3114
    204  C4'        0.5430   17.0120    8.9720 C.3    22  U22         0.1773
    205  O4'        0.7130   18.1890    8.1360 O.3    22  U22        -0.3307
    206  C3'        1.5130   15.9630    8.4330 C.3    22  U22         0.1860
    207  O3'        0.8500   15.1590    7.4610 O.3    22  U22        -0.3112
    208  C2'        2.5810   16.8130    7.7520 C.3    22  U22         0.2309
    209  O2'        3.3010   16.1500    6.7340 O.3    22  U22        -0.2156
    210  C1'        1.7500   17.9680    7.1980 C.3    22  U22         0.2420
    211  N1         2.5050   19.2210    7.0550 N.ar   22  U22        -0.2534
    212  C2         2.7690   19.6820    5.7800 C.ar   22  U22         0.3546
    213  O2         2.4010   19.0940    4.7780 O.2    22  U22        -0.2443
    214  N3         3.4800   20.8560    5.7240 N.ar   22  U22        -0.1530
    215  C4         3.9420   21.5980    6.7940 C.ar   22  U22         0.2846
    216  O4         4.5700   22.6370    6.5870 O.2    22  U22        -0.2650
    217  C5         3.6280   21.0530    8.0790 C.ar   22  U22         0.0814
    218  C6         2.9380   19.9120    8.1630 C.ar   22  U22         0.0870
    219  OP1        2.3850   19.1030   12.8010 O.3    22  U22        -0.4373
    220  OP2        2.5290   16.5450   12.6060 O.co2  22  U22        -0.5172
    221  P          0.0780   13.8220    7.9080 P.3    23  A23         0.2141
    222  C5'       -1.8030   14.7900    6.3650 C.3    23  A23         0.1812
    223  O5'       -1.4460   14.1320    7.5710 O.3    23  A23        -0.3114
    224  C4'       -3.1240   15.5040    6.4920 C.3    23  A23         0.1773
    225  O4'       -3.1070   16.3530    7.6660 O.3    23  A23        -0.3307
    226  C3'       -3.4760   16.4500    5.3550 C.3    23  A23         0.1860
    227  O3'       -4.0280   15.7840    4.2300 O.3    23  A23        -0.3112
    228  C2'       -4.4400   17.4340    6.0120 C.3    23  A23         0.2309
    229  O2'       -5.7540   16.8980    6.0530 O.3    23  A23        -0.2156
    230  C1'       -3.8960   17.5020    7.4430 C.3    23  A23         0.2408
    231  N1        -0.2390   20.9360    5.9100 N.ar   23  A23        -0.2040
    232  C2        -0.7490   19.8630    5.2950 C.ar   23  A23         0.2016
    233  N3        -1.6800   19.0130    5.7200 N.ar   23  A23        -0.2048
    234  C4        -2.1280   19.3410    6.9460 C.ar   23  A23         0.1692
    235  C5        -1.6930   20.4210    7.7000 C.ar   23  A23         0.1518
    236  C6        -0.7010   21.2470    7.1400 C.ar   23  A23         0.1919
    237  N6        -0.1970   22.3160    7.7590 N.pl3  23  A23        -0.1054
    238  N7        -2.3530   20.4750    8.9160 N.ar   23  A23        -0.2193
    239  C8        -3.1590   19.4460    8.8750 C.ar   23  A23         0.1816
    240  N9        -3.0880   18.7110    7.7180 N.ar   23  A23        -0.2693
    241  OP1        0.2040   13.6800    9.3810 O.3    23  A23        -0.4373
    242  OP2        0.5270   12.7160    7.0230 O.co2  23  A23        -0.5172
    243  P         -3.1270   15.4710    2.9340 P.3    24  A24         0.2141
    244  C5'       -2.4870   17.9790    2.4670 C.3    24  A24         0.1812
    245  O5'       -3.1890   16.8090    2.0670 O.3    24  A24        -0.3114
    246  C4'       -1.6600   18.5450    1.3420 C.3    24  A24         0.1773
    247  O4'       -0.6530   17.5840    0.9430 O.3    24  A24        -0.3307
    248  C3'       -2.4060   18.8610    0.0550 C.3    24  A24         0.1860
    249  O3'       -3.0550   20.1210    0.1070 O.3    24  A24        -0.3112
    250  C2'       -1.3060   18.7950   -0.9990 C.3    24  A24         0.2309
    251  O2'       -0.5690   20.0070   -1.0310 O.3    24  A24        -0.2156
    252  C1'       -0.3980   17.6990   -0.4390 C.3    24  A24         0.2408
    253  N1         0.1270   14.9200   -4.7410 N.ar   24  A24        -0.2040
    254  C2         0.4190   16.1940   -4.4510 C.ar   24  A24         0.2016
    255  N3         0.2540   16.8550   -3.3070 N.ar   24  A24        -0.2048
    256  C4        -0.2870   16.0560   -2.3710 C.ar   24  A24         0.1692
    257  C5        -0.6430   14.7280   -2.5170 C.ar   24  A24         0.1518
    258  C6        -0.4170   14.1460   -3.7760 C.ar   24  A24         0.1919
    259  N6        -0.7050   12.8760   -4.0620 N.pl3  24  A24        -0.1054
    260  N7        -1.1720   14.2260   -1.3360 N.ar   24  A24        -0.2193
    261  C8        -1.1260   15.2450   -0.5130 C.ar   24  A24         0.1816
    262  N9        -0.6100   16.3860   -1.0770 N.ar   24  A24        -0.2693
    263  OP1       -3.8130   14.4020    2.1630 O.2    24  A24        -0.5172
    264  OP2       -1.7240   15.2640    3.3720 O.co2  24  A24        -0.4373
    265  P         -4.6190   20.2560   -0.2360 P.3    25  U25         0.2141
    266  C5'       -5.6540   19.7020    2.1100 C.3    25  U25         0.1812
    267  O5'       -5.2810   20.6800    1.1500 O.3    25  U25        -0.3114
    268  C4'       -5.5830   20.2470    3.5140 C.3    25  U25         0.1773
    269  O4'       -4.1960   20.3650    3.9300 O.3    25  U25        -0.3307
    270  C3'       -6.1480   21.6440    3.7180 C.3    25  U25         0.1860
    271  O3'       -7.5600   21.6590    3.8400 O.3    25  U25        -0.3112
    272  C2'       -5.4220   22.1150    4.9690 C.3    25  U25         0.2309
    273  O2'       -6.0030   21.5410    6.1310 O.3    25  U25        -0.2156
    274  C1'       -4.0390   21.4940    4.7660 C.3    25  U25         0.2420
    275  N1        -3.0950   22.4340    4.1180 N.ar   25  U25        -0.2534
    276  C2        -2.5560   23.4500    4.8860 C.ar   25  U25         0.3546
    277  O2        -2.8240   23.6070    6.0650 O.2    25  U25        -0.2443
    278  N3        -1.6900   24.2830    4.2230 N.ar   25  U25        -0.1530
    279  C4        -1.3120   24.2070    2.8990 C.ar   25  U25         0.2846
    280  O4        -0.5180   25.0340    2.4460 O.2    25  U25        -0.2650
    281  C5        -1.9100   23.1300    2.1720 C.ar   25  U25         0.0814
    282  C6        -2.7570   22.3020    2.7920 C.ar   25  U25         0.0870
    283  OP1       -5.1380   18.9160   -0.6080 O.3    25  U25        -0.4373
    284  OP2       -4.7770   21.3930   -1.1780 O.co2  25  U25        -0.5172
    285  P         -8.4050   22.9170    3.3030 P.3    26  C26         0.2141
    286  C5'       -8.4940   23.9350    5.7180 C.3    26  C26         0.1812
    287  O5'       -8.1020   24.0690    4.3610 O.3    26  C26        -0.3114
    288  C4'       -7.8680   25.0000    6.5820 C.3    26  C26         0.1773
    289  O4'       -6.4210   24.8930    6.5220 O.3    26  C26        -0.3307
    290  C3'       -8.1450   26.4380    6.1730 C.3    26  C26         0.1860
    291  O3'       -9.4110   26.9060    6.6050 O.3    26  C26        -0.3112
    292  C2'       -6.9730   27.1890    6.7900 C.3    26  C26         0.2309
    293  O2'       -7.1790   27.3860    8.1810 O.3    26  C26        -0.2156
    294  C1'       -5.8390   26.1780    6.6090 C.3    26  C26         0.2420
    295  N1        -5.0580   26.4330    5.3770 N.ar   26  C26        -0.2535
    296  C2        -4.1080   27.4600    5.3840 C.ar   26  C26         0.3532
    297  O2        -3.9460   28.1270    6.4180 O.2    26  C26        -0.2443
    298  N3        -3.3880   27.7030    4.2650 N.ar   26  C26        -0.1739
    299  C4        -3.5870   26.9670    3.1710 C.ar   26  C26         0.1759
    300  N4        -2.8540   27.2440    2.0910 N.pl3  26  C26        -0.1070
    301  C5        -4.5460   25.9150    3.1360 C.ar   26  C26         0.0566
    302  C6        -5.2520   25.6850    4.2500 C.ar   26  C26         0.0850
    303  OP1       -9.8460   22.5720    3.4040 O.3    26  C26        -0.4373
    304  OP2       -7.8350   23.3380    1.9990 O.co2  26  C26        -0.5172
    305  P        -10.1600   28.0720    5.7910 P.3    27  C27         0.2141
    306  C5'       -9.3450   29.8140    7.5740 C.3    27  C27         0.1812
    307  O5'       -9.3900   29.3990    6.2180 O.3    27  C27        -0.3114
    308  C4'       -8.4270   30.9960    7.7570 C.3    27  C27         0.1773
    309  O4'       -7.0640   30.6220    7.4250 O.3    27  C27        -0.3307
    310  C3'       -8.7030   32.1970    6.8680 C.3    27  C27         0.1860
    311  O3'       -9.7640   33.0070    7.3430 O.3    27  C27        -0.3112
    312  C2'       -7.3560   32.9080    6.8440 C.3    27  C27         0.2309
    313  O2'       -7.1610   33.6560    8.0350 O.3    27  C27        -0.2156
    314  C1'       -6.3880   31.7230    6.8540 C.3    27  C27         0.2420
    315  N1        -5.9410   31.3580    5.4890 N.ar   27  C27        -0.2535
    316  C2        -4.9780   32.1530    4.8540 C.ar   27  C27         0.3532
    317  O2        -4.5190   33.1440    5.4430 O.2    27  C27        -0.2443
    318  N3        -4.5660   31.8240    3.6080 N.ar   27  C27        -0.1739
    319  C4        -5.0750   30.7540    2.9960 C.ar   27  C27         0.1759
    320  N4        -4.6360   30.4700    1.7670 N.pl3  27  C27        -0.1070
    321  C5        -6.0540   29.9260    3.6170 C.ar   27  C27         0.0566
    322  C6        -6.4540   30.2620    4.8510 C.ar   27  C27         0.0850
    323  OP1      -11.5560   28.1620    6.2920 O.3    27  C27        -0.4373
    324  OP2       -9.9080   27.8580    4.3430 O.co2  27  C27        -0.5172
    325  P        -10.7350   33.7600    6.3060 P.3    28  U28         0.2141
    326  C5'       -9.2700   35.9120    6.6180 C.3    28  U28         0.1812
    327  O5'       -9.8450   34.9540    5.7420 O.3    28  U28        -0.3114
    328  C4'       -8.2130   36.7290    5.9210 C.3    28  U28         0.1773
    329  O4'       -7.1090   35.8760    5.5240 O.3    28  U28        -0.3307
    330  C3'       -8.6410   37.4020    4.6280 C.3    28  U28         0.1860
    331  O3'       -9.3610   38.6010    4.8470 O.3    28  U28        -0.3112
    332  C2'       -7.3160   37.6020    3.9030 C.3    28  U28         0.2309
    333  O2'       -6.6240   38.7270    4.4230 O.3    28  U28        -0.2156
    334  C1'       -6.5560   36.3380    4.3080 C.3    28  U28         0.2420
    335  N1        -6.6710   35.2640    3.2950 N.ar   28  U28        -0.2534
    336  C2        -5.8340   35.3250    2.1970 C.ar   28  U28         0.3546
    337  O2        -5.0200   36.2170    2.0340 O.2    28  U28        -0.2443
    338  N3        -5.9830   34.3020    1.2930 N.ar   28  U28        -0.1530
    339  C4        -6.8670   33.2460    1.3740 C.ar   28  U28         0.2846
    340  O4        -6.8830   32.4010    0.4770 O.2    28  U28        -0.2650
    341  C5        -7.6990   33.2520    2.5390 C.ar   28  U28         0.0814
    342  C6        -7.5730   34.2350    3.4360 C.ar   28  U28         0.0870
    343  OP1      -11.8630   34.3480    7.0730 O.3    28  U28        -0.4373
    344  OP2      -11.0170   32.8340    5.1810 O.co2  28  U28        -0.5172
    345  P        -10.5030   39.0570    3.8150 P.3    29  A29         0.2141
    346  C5'       -8.8370   40.9420    3.0830 C.3    29  A29         0.1812
    347  O5'       -9.7060   39.8830    2.7110 O.3    29  A29        -0.3114
    348  C4'       -7.9670   41.3690    1.9290 C.3    29  A29         0.1773
    349  O4'       -6.9680   40.3520    1.6620 O.3    29  A29        -0.3307
    350  C3'       -8.6800   41.5460    0.5990 C.3    29  A29         0.1860
    351  O3'       -9.3430   42.7930    0.4920 O.3    29  A29        -0.3112
    352  C2'       -7.5550   41.3540   -0.4090 C.3    29  A29         0.2309
    353  O2'       -6.7660   42.5300   -0.5120 O.3    29  A29        -0.2156
    354  C1'       -6.7210   40.2710    0.2740 C.3    29  A29         0.2408
    355  N1        -6.0460   36.6410   -3.3320 N.ar   29  A29        -0.2040
    356  C2        -5.5350   37.8700   -3.1870 C.ar   29  A29         0.2016
    357  N3        -5.7530   38.7640   -2.2250 N.ar   29  A29        -0.2048
    358  C4        -6.6190   38.2830   -1.3150 C.ar   29  A29         0.1692
    359  C5        -7.2270   37.0410   -1.3270 C.ar   29  A29         0.1518
    360  C6        -6.9130   36.1870   -2.3990 C.ar   29  A29         0.1919
    361  N6        -7.4240   34.9620   -2.5430 N.pl3  29  A29        -0.1054
    362  N7        -8.0590   36.8910   -0.2280 N.ar   29  A29        -0.2193
    363  C8        -7.9370   38.0260    0.4160 C.ar   29  A29         0.1816
    364  N9        -7.0820   38.9160   -0.1860 N.ar   29  A29        -0.2693
    365  OP1      -11.4150   39.9910    4.5240 O.3    29  A29        -0.4373
    366  OP2      -11.0550   37.8390    3.1680 O.co2  29  A29        -0.5172
    367  P        -10.7000   42.9170   -0.3600 P.3    30  A30         0.2141
    368  C5'      -10.6230   42.6710   -2.9690 C.3    30  A30         0.1812
    369  O5'      -10.1980   43.3600   -1.8040 O.3    30  A30        -0.3114
    370  C4'       -9.4690   42.4170   -3.9050 C.3    30  A30         0.1773
    371  O4'       -8.6630   41.3180   -3.4050 O.3    30  A30        -0.3307
    372  C3'       -9.8410   41.9880   -5.3140 C.3    30  A30         0.1860
    373  O3'      -10.2000   43.0770   -6.1440 O.3    30  A30        -0.3112
    374  C2'       -8.5910   41.2520   -5.7750 C.3    30  A30         0.2309
    375  O2'       -7.5770   42.1730   -6.1490 O.3    30  A30        -0.2156
    376  C1'       -8.1610   40.5580   -4.4840 C.3    30  A30         0.2408
    377  N1        -8.2270   35.8110   -6.5050 N.ar   30  A30        -0.2040
    378  C2        -7.5740   36.9270   -6.8520 C.ar   30  A30         0.2016
    379  N3        -7.6000   38.1300   -6.2820 N.ar   30  A30        -0.2048
    380  C4        -8.4230   38.1350   -5.2190 C.ar   30  A30         0.1692
    381  C5        -9.1630   37.0690   -4.7410 C.ar   30  A30         0.1518
    382  C6        -9.0470   35.8490   -5.4320 C.ar   30  A30         0.1919
    383  N6        -9.7000   34.7370   -5.0860 N.pl3  30  A30        -0.1054
    384  N7        -9.9000   37.4430   -3.6270 N.ar   30  A30        -0.2193
    385  C8        -9.5950   38.7060   -3.4590 C.ar   30  A30         0.1816
    386  N9        -8.7070   39.1910   -4.3870 N.ar   30  A30        -0.2693
    387  OP1      -11.5000   44.0290    0.2120 O.3    30  A30        -0.4373
    388  OP2      -11.3020   41.5650   -0.4810 O.co2  30  A30        -0.5172
    389  P        -11.5170   42.9900   -7.0580 P.3    31  U31         0.2141
    390  C5'      -10.0910   41.9000   -8.9690 C.3    31  U31         0.1812
    391  O5'      -11.1940   41.8120   -8.0800 O.3    31  U31        -0.3114
    392  C4'       -9.8930   40.6130   -9.7280 C.3    31  U31         0.1773
    393  O4'       -9.4590   39.5640   -8.8230 O.3    31  U31        -0.3307
    394  C3'      -11.1350   40.0370  -10.3860 C.3    31  U31         0.1860
    395  O3'      -11.4550   40.6660  -11.6130 O.3    31  U31        -0.3112
    396  C2'      -10.7820   38.5630  -10.5250 C.3    31  U31         0.2309
    397  O2'       -9.9150   38.3560  -11.6300 O.3    31  U31        -0.2156
    398  C1'       -9.9910   38.3220   -9.2380 C.3    31  U31         0.2420
    399  N1       -10.8420   37.7800   -8.1530 N.ar   31  U31        -0.2534
    400  C2       -11.1460   36.4320   -8.1910 C.ar   31  U31         0.3546
    401  O2       -10.7470   35.6870   -9.0690 O.2    31  U31        -0.2443
    402  N3       -11.9370   35.9850   -7.1620 N.ar   31  U31        -0.1530
    403  C4       -12.4440   36.7320   -6.1200 C.ar   31  U31         0.2846
    404  O4       -13.1430   36.1840   -5.2670 O.2    31  U31        -0.2650
    405  C5       -12.0860   38.1180   -6.1510 C.ar   31  U31         0.0814
    406  C6       -11.3160   38.5820   -7.1410 C.ar   31  U31         0.0870
    407  OP1      -11.6290   44.2530   -7.8310 O.2    31  U31        -0.5172
    408  OP2      -12.6450   42.5510   -6.1960 O.co2  31  U31        -0.4373
    409  P        -12.9910   40.8460  -12.0430 P.3    32  G32         0.2141
    410  C5'      -12.7540   38.7520  -13.5970 C.3    32  G32         0.1812
    411  O5'      -13.4240   39.3900  -12.5210 O.3    32  G32        -0.3114
    412  C4'      -13.1890   37.3180  -13.7490 C.3    32  G32         0.1773
    413  O4'      -12.7420   36.5390  -12.6100 O.3    32  G32        -0.3307
    414  C3'      -14.6880   37.0760  -13.7900 C.3    32  G32         0.1860
    415  O3'      -15.2550   37.3460  -15.0590 O.3    32  G32        -0.3112
    416  C2'      -14.8000   35.6180  -13.3630 C.3    32  G32         0.2309
    417  O2'      -14.4890   34.7540  -14.4450 O.3    32  G32        -0.2156
    418  C1'      -13.6790   35.5190  -12.3280 C.3    32  G32         0.2408
    419  N1       -15.6800   33.2220   -8.2530 N.ar   32  G32        -0.1709
    420  C2       -15.3200   32.6900   -9.4670 C.ar   32  G32         0.2606
    421  N2       -15.5180   31.3730   -9.6180 N.pl3  32  G32        -0.0859
    422  N3       -14.8040   33.3990  -10.4580 N.ar   32  G32        -0.1918
    423  C4       -14.6760   34.7040  -10.1350 C.ar   32  G32         0.1723
    424  C5       -15.0050   35.3330   -8.9530 C.ar   32  G32         0.1748
    425  C6       -15.5570   34.5610   -7.8980 C.ar   32  G32         0.3023
    426  O6       -15.9150   34.9330   -6.7740 O.2    32  G32        -0.2633
    427  N7       -14.7170   36.6900   -9.0220 N.ar   32  G32        -0.2173
    428  C8       -14.2270   36.8580  -10.2210 C.ar   32  G32         0.1817
    429  N9       -14.1730   35.6930  -10.9480 N.ar   32  G32        -0.2693
    430  OP1      -13.0360   41.7510  -13.2200 O.2    32  G32        -0.5172
    431  OP2      -13.7730   41.1850  -10.8260 O.co2  32  G32        -0.4373
    432  P        -16.8510   37.3600  -15.2390 P.3    33  A33         0.2141
    433  C5'      -18.5150   35.3390  -15.0800 C.3    33  A33         0.1812
    434  O5'      -17.2230   35.8220  -15.4110 O.3    33  A33        -0.3114
    435  C4'      -18.5400   33.8330  -15.0490 C.3    33  A33         0.1773
    436  O4'      -17.6680   33.3450  -13.9970 O.3    33  A33        -0.3307
    437  C3'      -19.8840   33.1960  -14.7390 C.3    33  A33         0.1860
    438  O3'      -20.7270   33.1320  -15.8760 O.3    33  A33        -0.3112
    439  C2'      -19.4890   31.8290  -14.1960 C.3    33  A33         0.2309
    440  O2'      -19.1780   30.9370  -15.2560 O.3    33  A33        -0.2156
    441  C1'      -18.1950   32.1570  -13.4470 C.3    33  A33         0.2408
    442  N1       -19.6280   29.9540   -9.0170 N.ar   33  A33        -0.2040
    443  C2       -19.5270   29.4820  -10.2660 C.ar   33  A33         0.2016
    444  N3       -19.1450   30.1130  -11.3730 N.ar   33  A33        -0.2048
    445  C4       -18.8410   31.3970  -11.1100 C.ar   33  A33         0.1692
    446  C5       -18.8970   32.0260   -9.8800 C.ar   33  A33         0.1518
    447  C6       -19.3140   31.2470   -8.7850 C.ar   33  A33         0.1919
    448  N6       -19.4180   31.7140   -7.5380 N.pl3  33  A33        -0.1054
    449  N7       -18.5110   33.3550   -9.9910 N.ar   33  A33        -0.2193
    450  C8       -18.2340   33.4980  -11.2640 C.ar   33  A33         0.1816
    451  N9       -18.4160   32.3530  -12.0010 N.ar   33  A33        -0.2693
    452  OP1      -17.1710   38.0560  -16.5120 O.2    33  A33        -0.5172
    453  OP2      -17.4510   37.8400  -13.9670 O.co2  33  A33        -0.4373
    454  P        -22.3050   33.3970  -15.7350 P.3    34  U34         0.2141
    455  C5'      -22.5170   30.7840  -15.7700 C.3    34  U34         0.1812
    456  O5'      -22.8710   32.0230  -15.1640 O.3    34  U34        -0.3114
    457  C4'      -22.8360   29.6120  -14.8770 C.3    34  U34         0.1773
    458  O4'      -22.2080   29.8110  -13.5810 O.3    34  U34        -0.3307
    459  C3'      -24.3220   29.3860  -14.6070 C.3    34  U34         0.1860
    460  O3'      -24.5890   27.9890  -14.5400 O.3    34  U34        -0.3112
    461  C2'      -24.5210   30.0120  -13.2310 C.3    34  U34         0.2309
    462  O2'      -25.5970   29.4720  -12.4920 O.3    34  U34        -0.2156
    463  C1'      -23.1830   29.7280  -12.5590 C.3    34  U34         0.2420
    464  N1       -22.8430   30.7030  -11.5140 N.ar   34  U34        -0.2534
    465  C2       -22.8550   30.2770  -10.2010 C.ar   34  U34         0.3546
    466  O2       -23.1190   29.1320   -9.8780 O.2    34  U34        -0.2443
    467  N3       -22.5400   31.2450   -9.2790 N.ar   34  U34        -0.1530
    468  C4       -22.2280   32.5650   -9.5340 C.ar   34  U34         0.2846
    469  O4       -21.9650   33.3170   -8.5950 O.2    34  U34        -0.2650
    470  C5       -22.2420   32.9260  -10.9180 C.ar   34  U34         0.0814
    471  C6       -22.5460   32.0050  -11.8370 C.ar   34  U34         0.0870
    472  OP1      -22.8590   33.5890  -17.0990 O.2    34  U34        -0.5172
    473  OP2      -22.5110   34.4460  -14.7030 O.co2  34  U34        -0.4373
    474  P        -25.3350   27.2630  -15.7630 P.3    35  A35         0.2141
    475  C5'      -24.0210   24.9960  -15.6280 C.3    35  A35         0.1812
    476  O5'      -25.2280   25.7160  -15.4110 O.3    35  A35        -0.3114
    477  C4'      -24.1690   23.5450  -15.2420 C.3    35  A35         0.1773
    478  O4'      -24.3480   23.4530  -13.8040 O.3    35  A35        -0.3307
    479  C3'      -25.3630   22.8300  -15.8680 C.3    35  A35         0.1860
    480  O3'      -25.0280   21.4620  -16.0970 O.3    35  A35        -0.3112
    481  C2'      -26.4260   22.9290  -14.7760 C.3    35  A35         0.2309
    482  O2'      -27.4170   21.9250  -14.8300 O.3    35  A35        -0.2156
    483  C1'      -25.5810   22.8230  -13.5090 C.3    35  A35         0.2408
    484  N1       -28.4340   22.3620   -9.2310 N.ar   35  A35        -0.2040
    485  C2       -28.0770   21.4760  -10.1690 C.ar   35  A35         0.2016
    486  N3       -27.3340   21.6570  -11.2600 N.ar   35  A35        -0.2048
    487  C4       -26.9250   22.9350  -11.3510 C.ar   35  A35         0.1692
    488  C5       -27.2140   23.9610  -10.4670 C.ar   35  A35         0.1518
    489  C6       -28.0100   23.6400   -9.3520 C.ar   35  A35         0.1919
    490  N6       -28.3660   24.5220   -8.4160 N.pl3  35  A35        -0.1054
    491  N7       -26.6280   25.1480  -10.8830 N.ar   35  A35        -0.2193
    492  C8       -26.0110   24.8190  -11.9930 C.ar   35  A35         0.1816
    493  N9       -26.1570   23.4990  -12.3420 N.ar   35  A35        -0.2693
    494  OP1      -24.5430   27.5100  -16.9950 O.2    35  A35        -0.5172
    495  OP2      -26.7700   27.6470  -15.7230 O.co2  35  A35        -0.4373
    496  P        -24.5670   20.9760  -17.5580 P.3    36  U36         0.2141
    497  C5'      -22.0330   21.5770  -17.8860 C.3    36  U36         0.1812
    498  O5'      -23.3970   21.9820  -17.9580 O.3    36  U36        -0.3114
    499  C4'      -21.1940   22.2080  -18.9730 C.3    36  U36         0.1773
    500  O4'      -21.8490   22.0150  -20.2570 O.3    36  U36        -0.3307
    501  C3'      -20.9590   23.7120  -18.8360 C.3    36  U36         0.1860
    502  O3'      -19.6590   24.0340  -19.3310 O.3    36  U36        -0.3112
    503  C2'      -22.0110   24.3010  -19.7690 C.3    36  U36         0.2309
    504  O2'      -21.7090   25.5920  -20.2550 O.3    36  U36        -0.2156
    505  C1'      -22.0350   23.2660  -20.8890 C.3    36  U36         0.2420
    506  N1       -23.2960   23.2260  -21.6420 N.ar   36  U36        -0.2534
    507  C2       -23.2260   23.4110  -23.0090 C.ar   36  U36         0.3546
    508  O2       -22.1740   23.5950  -23.5960 O.2    36  U36        -0.2443
    509  N3       -24.4320   23.3670  -23.6630 N.ar   36  U36        -0.1530
    510  C4       -25.6750   23.1640  -23.0980 C.ar   36  U36         0.2846
    511  O4       -26.6730   23.1520  -23.8210 O.2    36  U36        -0.2650
    512  C5       -25.6630   22.9850  -21.6780 C.ar   36  U36         0.0814
    513  C6       -24.5020   23.0220  -21.0140 C.ar   36  U36         0.0870
    514  OP1      -25.7020   21.1940  -18.4920 O.2    36  U36        -0.5172
    515  OP2      -23.9730   19.6220  -17.4240 O.co2  36  U36        -0.4373
    516  P        -18.3900   24.0250  -18.3450 P.3    37  G37         0.2141
    517  C5'      -18.6720   26.4890  -17.4840 C.3    37  G37         0.1812
    518  O5'      -18.7630   25.0950  -17.2270 O.3    37  G37        -0.3114
    519  C4'      -18.8980   27.2860  -16.2250 C.3    37  G37         0.1773
    520  O4'      -20.2400   27.0400  -15.7310 O.3    37  G37        -0.3307
    521  C3'      -17.9950   26.9300  -15.0530 C.3    37  G37         0.1860
    522  O3'      -16.7350   27.5720  -15.1210 O.3    37  G37        -0.3112
    523  C2'      -18.8270   27.3420  -13.8460 C.3    37  G37         0.2309
    524  O2'      -18.7490   28.7440  -13.6370 O.3    37  G37        -0.2156
    525  C1'      -20.2390   27.0000  -14.3200 C.3    37  G37         0.2408
    526  N1       -22.5690   24.1970  -10.7630 N.ar   37  G37        -0.1709
    527  C2       -22.3580   25.5530  -10.8010 C.ar   37  G37         0.2606
    528  N2       -22.8290   26.2530   -9.7590 N.pl3  37  G37        -0.0859
    529  N3       -21.7330   26.1760  -11.7870 N.ar   37  G37        -0.1918
    530  C4       -21.3290   25.3180  -12.7480 C.ar   37  G37         0.1723
    531  C5       -21.4910   23.9490  -12.8040 C.ar   37  G37         0.1748
    532  C6       -22.1630   23.2950  -11.7400 C.ar   37  G37         0.3023
    533  O6       -22.4060   22.0890  -11.6080 O.2    37  G37        -0.2633
    534  N7       -20.9310   23.4320  -13.9630 N.ar   37  G37        -0.2173
    535  C8       -20.4490   24.4750  -14.5810 C.ar   37  G37         0.1817
    536  N9       -20.6550   25.6500  -13.8990 N.ar   37  G37        -0.2693
    537  OP1      -17.2160   24.5350  -19.0970 O.2    37  G37        -0.5172
    538  OP2      -18.3240   22.6920  -17.6940 O.co2  37  G37        -0.4373
    539  P        -15.4090   26.8050  -14.6400 P.3    38  G38         0.2141
    540  C5'      -15.5310   28.0530  -12.3420 C.3    38  G38         0.1812
    541  O5'      -15.5100   26.8240  -13.0510 O.3    38  G38        -0.3114
    542  C4'      -15.9770   27.8640  -10.9150 C.3    38  G38         0.1773
    543  O4'      -17.3300   27.3440  -10.8840 O.3    38  G38        -0.3307
    544  C3'      -15.1850   26.8670  -10.0880 C.3    38  G38         0.1860
    545  O3'      -13.9700   27.4040   -9.5970 O.3    38  G38        -0.3112
    546  C2'      -16.1720   26.4910   -8.9890 C.3    38  G38         0.2309
    547  O2'      -16.2080   27.4940   -7.9850 O.3    38  G38        -0.2156
    548  C1'      -17.5010   26.5190   -9.7500 C.3    38  G38         0.2408
    549  N1       -20.4720   22.5260   -8.7460 N.ar   38  G38        -0.1709
    550  C2       -20.3350   23.7110   -8.0650 C.ar   38  G38         0.2606
    551  N2       -21.0900   23.8550   -6.9660 N.pl3  38  G38        -0.0859
    552  N3       -19.5180   24.6830   -8.4350 N.ar   38  G38        -0.1918
    553  C4       -18.8360   24.3710   -9.5570 C.ar   38  G38         0.1723
    554  C5       -18.9000   23.2200  -10.3130 C.ar   38  G38         0.1748
    555  C6       -19.7800   22.1840   -9.9030 C.ar   38  G38         0.3023
    556  O6       -19.9830   21.0860  -10.4360 O.2    38  G38        -0.2633
    557  N7       -18.0360   23.2960  -11.3970 N.ar   38  G38        -0.2173
    558  C8       -17.4740   24.4700  -11.2830 C.ar   38  G38         0.1817
    559  N9       -17.9180   25.1750  -10.1900 N.ar   38  G38        -0.2693
    560  OP1      -14.2430   27.6340  -15.0390 O.3    38  G38        -0.4373
    561  OP2      -15.4990   25.3920  -15.0870 O.co2  38  G38        -0.5172
    562  P        -12.6180   26.5370   -9.6510 P.3    39  U39         0.2141
    563  C5'      -11.9950   27.1970  -12.1130 C.3    39  U39         0.1812
    564  O5'      -11.7150   27.2950  -10.7240 O.3    39  U39        -0.3114
    565  C4'      -11.6480   28.4720  -12.8410 C.3    39  U39         0.1773
    566  O4'      -12.5460   29.5360  -12.4330 O.3    39  U39        -0.3307
    567  C3'      -10.2620   29.0370  -12.5780 C.3    39  U39         0.1860
    568  O3'       -9.2540   28.3950  -13.3390 O.3    39  U39        -0.3112
    569  C2'      -10.4330   30.5120  -12.9200 C.3    39  U39         0.2309
    570  O2'      -10.3780   30.7120  -14.3250 O.3    39  U39        -0.2156
    571  C1'      -11.8650   30.7730  -12.4500 C.3    39  U39         0.2420
    572  N1       -11.9170   31.3670  -11.0930 N.ar   39  U39        -0.2534
    573  C2       -11.5960   32.7060  -10.9580 C.ar   39  U39         0.3546
    574  O2       -11.2650   33.4120  -11.8940 O.2    39  U39        -0.2443
    575  N3       -11.6690   33.1940   -9.6780 N.ar   39  U39        -0.1530
    576  C4       -12.0280   32.4980   -8.5430 C.ar   39  U39         0.2846
    577  O4       -12.0460   33.0820   -7.4580 O.2    39  U39        -0.2650
    578  C5       -12.3500   31.1220   -8.7650 C.ar   39  U39         0.0814
    579  C6       -12.2870   30.6170  -10.0010 C.ar   39  U39         0.0870
    580  OP1      -12.9530   25.1960  -10.1950 O.2    39  U39        -0.5172
    581  OP2      -11.9540   26.6480   -8.3280 O.co2  39  U39        -0.4373
    582  P         -7.7730   28.2130  -12.7400 P.3    40  U40         0.2141
    583  C5'       -6.9860   30.4570  -13.8440 C.3    40  U40         0.1812
    584  O5'       -7.2010   29.6980  -12.6640 O.3    40  U40        -0.3114
    585  C4'       -6.6310   31.8870  -13.5260 C.3    40  U40         0.1773
    586  O4'       -7.7260   32.5250  -12.8180 O.3    40  U40        -0.3307
    587  C3'       -5.4350   32.0900  -12.6100 C.3    40  U40         0.1860
    588  O3'       -4.1960   31.9760  -13.2900 O.3    40  U40        -0.3112
    589  C2'       -5.6940   33.4760  -12.0290 C.3    40  U40         0.2309
    590  O2'       -5.3300   34.4860  -12.9570 O.3    40  U40        -0.2156
    591  C1'       -7.2180   33.4700  -11.8980 C.3    40  U40         0.2420
    592  N1        -7.6630   33.0990  -10.5350 N.ar   40  U40        -0.2534
    593  C2        -7.6480   34.0850   -9.5670 C.ar   40  U40         0.3546
    594  O2        -7.2860   35.2280   -9.7880 O.2    40  U40        -0.2443
    595  N3        -8.0730   33.6860   -8.3240 N.ar   40  U40        -0.1530
    596  C4        -8.5030   32.4270   -7.9600 C.ar   40  U40         0.2846
    597  O4        -8.8550   32.2210   -6.7980 O.2    40  U40        -0.2650
    598  C5        -8.4900   31.4630   -9.0170 C.ar   40  U40         0.0814
    599  C6        -8.0820   31.8240  -10.2380 C.ar   40  U40         0.0870
    600  OP1       -6.9710   27.4640  -13.7400 O.2    40  U40        -0.5172
    601  OP2       -7.8900   27.6920  -11.3540 O.co2  40  U40        -0.4373
    602  P         -2.8410   31.7150  -12.4670 P.3    41  U41         0.2141
    603  C5'       -1.8690   33.1540  -10.5010 C.3    41  U41         0.1812
    604  O5'       -2.5790   33.1000  -11.7270 O.3    41  U41        -0.3114
    605  C4'       -1.9540   34.5270   -9.8870 C.3    41  U41         0.1773
    606  O4'       -3.3370   34.8460   -9.5790 O.3    41  U41        -0.3307
    607  C3'       -1.2320   34.7110   -8.5630 C.3    41  U41         0.1860
    608  O3'        0.1610   34.9160   -8.7180 O.3    41  U41        -0.3112
    609  C2'       -1.9640   35.8960   -7.9500 C.3    41  U41         0.2309
    610  O2'       -1.5300   37.1120   -8.5410 O.3    41  U41        -0.2156
    611  C1'       -3.4000   35.6270   -8.4040 C.3    41  U41         0.2420
    612  N1        -4.1770   34.8880   -7.3830 N.ar   41  U41        -0.2534
    613  C2        -4.6190   35.5870   -6.2750 C.ar   41  U41         0.3546
    614  O2        -4.4010   36.7750   -6.1040 O.2    41  U41        -0.2443
    615  N3        -5.3340   34.8450   -5.3680 N.ar   41  U41        -0.1530
    616  C4        -5.6450   33.5040   -5.4520 C.ar   41  U41         0.2846
    617  O4        -6.2980   32.9760   -4.5510 O.2    41  U41        -0.2650
    618  C5        -5.1530   32.8510   -6.6260 C.ar   41  U41         0.0814
    619  C6        -4.4550   33.5480   -7.5270 C.ar   41  U41         0.0870
    620  OP1       -1.7450   31.5100  -13.4470 O.2    41  U41        -0.5172
    621  OP2       -3.1060   30.6780  -11.4360 O.co2  41  U41        -0.4373
    622  P          1.1780   34.4310   -7.5740 P.3    42  G42         0.2141
    623  C5'        1.3710   36.9170   -6.7800 C.3    42  G42         0.1812
    624  O5'        1.0700   35.5670   -6.4630 O.3    42  G42        -0.3114
    625  C4'        1.0700   37.8410   -5.6270 C.3    42  G42         0.1773
    626  O4'       -0.3650   37.9740   -5.4520 O.3    42  G42        -0.3307
    627  C3'        1.5590   37.3930   -4.2600 C.3    42  G42         0.1860
    628  O3'        2.9420   37.6160   -4.0570 O.3    42  G42        -0.3112
    629  C2'        0.6640   38.1890   -3.3220 C.3    42  G42         0.2309
    630  O2'        1.1000   39.5380   -3.2380 O.3    42  G42        -0.2156
    631  C1'       -0.6630   38.1570   -4.0810 C.3    42  G42         0.2408
    632  N1        -3.7650   36.5160   -0.4220 N.ar   42  G42        -0.1709
    633  C2        -3.0940   37.7090   -0.5340 C.ar   42  G42         0.2606
    634  N2        -3.2690   38.5870    0.4640 N.pl3  42  G42        -0.0859
    635  N3        -2.3080   38.0180   -1.5510 N.ar   42  G42        -0.1918
    636  C4        -2.2450   37.0230   -2.4610 C.ar   42  G42         0.1723
    637  C5        -2.8740   35.7970   -2.4450 C.ar   42  G42         0.1748
    638  C6        -3.7160   35.4780   -1.3470 C.ar   42  G42         0.3023
    639  O6        -4.3620   34.4440   -1.1450 O.2    42  G42        -0.2633
    640  N7        -2.5440   35.0620   -3.5750 N.ar   42  G42        -0.2173
    641  C8        -1.7360   35.8390   -4.2450 C.ar   42  G42         0.1817
    642  N9        -1.5180   37.0450   -3.6250 N.ar   42  G42        -0.2693
    643  OP1        2.5500   34.4640   -8.1410 O.2    42  G42        -0.5172
    644  OP2        0.6540   33.1700   -6.9900 O.co2  42  G42        -0.4373
    645  P          3.7980   36.5800   -3.1770 P.3    43  G43         0.2141
    646  C5'        3.4830   38.0680   -1.0490 C.3    43  G43         0.1812
    647  O5'        3.2800   36.8190   -1.6900 O.3    43  G43        -0.3114
    648  C4'        2.6910   38.1810    0.2300 C.3    43  G43         0.1773
    649  O4'        1.2670   38.1100   -0.0510 O.3    43  G43        -0.3307
    650  C3'        2.9060   37.0830    1.2570 C.3    43  G43         0.1860
    651  O3'        4.1040   37.2240    1.9960 O.3    43  G43        -0.3112
    652  C2'        1.6450   37.1860    2.1010 C.3    43  G43         0.2309
    653  O2'        1.7120   38.3060    2.9710 O.3    43  G43        -0.2156
    654  C1'        0.6010   37.4770    1.0240 C.3    43  G43         0.2408
    655  N1        -2.6160   33.7330    2.1420 N.ar   43  G43        -0.1709
    656  C2        -2.2650   34.8380    2.8760 C.ar   43  G43         0.2606
    657  N2        -2.8500   34.9650    4.0760 N.pl3  43  G43        -0.0859
    658  N3        -1.4040   35.7520    2.4630 N.ar   43  G43        -0.1918
    659  C4        -0.9150   35.4670    1.2380 C.ar   43  G43         0.1723
    660  C5        -1.1970   34.3930    0.4230 C.ar   43  G43         0.1748
    661  C6        -2.1250   33.4200    0.8790 C.ar   43  G43         0.3023
    662  O6        -2.5120   32.3950    0.3070 O.2    43  G43        -0.2633
    663  N7        -0.4780   34.4750   -0.7630 N.ar   43  G43        -0.2173
    664  C8         0.2170   35.5750   -0.6480 C.ar   43  G43         0.1817
    665  N9        -0.0110   36.2270    0.5390 N.ar   43  G43        -0.2693
    666  OP1        5.2220   36.9980   -3.2350 O.3    43  G43        -0.4373
    667  OP2        3.4170   35.2040   -3.5860 O.co2  43  G43        -0.5172
    668  P          4.8860   35.9130    2.5010 P.3    44  G44         0.2141
    669  C5'        3.8330   36.2610    4.8730 C.3    44  G44         0.1812
    670  O5'        4.0320   35.4150    3.7510 O.3    44  G44        -0.3114
    671  C4'        2.6930   35.7890    5.7410 C.3    44  G44         0.1773
    672  O4'        1.4910   35.6230    4.9440 O.3    44  G44        -0.3307
    673  C3'        2.8680   34.4390    6.4150 C.3    44  G44         0.1860
    674  O3'        3.6930   34.4890    7.5650 O.3    44  G44        -0.3112
    675  C2'        1.4300   34.0390    6.7130 C.3    44  G44         0.2309
    676  O2'        0.9400   34.7380    7.8480 O.3    44  G44        -0.2156
    677  C1'        0.7100   34.5700    5.4720 C.3    44  G44         0.2408
    678  N1        -1.6360   30.2420    4.2630 N.ar   44  G44        -0.1709
    679  C2        -1.7460   31.0140    5.3940 C.ar   44  G44         0.2606
    680  N2        -2.5960   30.5750    6.3340 N.pl3  44  G44        -0.0859
    681  N3        -1.0710   32.1340    5.5870 N.ar   44  G44        -0.1918
    682  C4        -0.2650   32.4260    4.5440 C.ar   44  G44         0.1723
    683  C5        -0.0820   31.7240    3.3720 C.ar   44  G44         0.1748
    684  C6        -0.8130   30.5230    3.1770 C.ar   44  G44         0.3023
    685  O6        -0.7920   29.7550    2.2060 O.2    44  G44        -0.2633
    686  N7         0.8390   32.3650    2.5540 N.ar   44  G44        -0.2173
    687  C8         1.1940   33.4250    3.2310 C.ar   44  G44         0.1817
    688  N9         0.5580   33.5220    4.4460 N.ar   44  G44        -0.2693
    689  OP1        6.2220   36.3390    2.9910 O.3    44  G44        -0.4373
    690  OP2        4.7860   34.8790    1.4390 O.co2  44  G44        -0.5172
    691  P          4.4650   33.1690    8.0610 P.3    45  A45         0.2141
    692  C5'        2.5940   32.7500    9.8500 C.3    45  A45         0.1812
    693  O5'        3.3230   32.2800    8.7260 O.3    45  A45        -0.3114
    694  C4'        1.4600   31.8210   10.1990 C.3    45  A45         0.1773
    695  O4'        0.5440   31.7220    9.0780 O.3    45  A45        -0.3307
    696  C3'        1.8500   30.3800   10.4860 C.3    45  A45         0.1860
    697  O3'        2.3220   30.1920   11.8090 O.3    45  A45        -0.3112
    698  C2'        0.5650   29.6200   10.1830 C.3    45  A45         0.2309
    699  O2'       -0.3500   29.7320   11.2630 O.3    45  A45        -0.2156
    700  C1'        0.0150   30.4150    9.0000 C.3    45  A45         0.2408
    701  N1        -0.5510   26.4420    5.7720 N.ar   45  A45        -0.2040
    702  C2        -1.0840   26.7120    6.9700 C.ar   45  A45         0.2016
    703  N3        -0.8940   27.7680    7.7570 N.ar   45  A45        -0.2048
    704  C4        -0.0310   28.6300    7.1930 C.ar   45  A45         0.1692
    705  C5         0.6010   28.4920    5.9700 C.ar   45  A45         0.1518
    706  C6         0.3130   27.3300    5.2330 C.ar   45  A45         0.1919
    707  N6         0.8440   27.0590    4.0390 N.pl3  45  A45        -0.1054
    708  N7         1.4230   29.5810    5.7160 N.ar   45  A45        -0.2193
    709  C8         1.2740   30.3410    6.7740 C.ar   45  A45         0.1816
    710  N9         0.4090   29.8260    7.7070 N.ar   45  A45        -0.2693
    711  OP1        5.4150   33.5630    9.1320 O.3    45  A45        -0.4373
    712  OP2        4.9680   32.4510    6.8620 O.co2  45  A45        -0.5172
    713  P          3.6140   29.2780   12.0870 P.3    46  G46         0.2141
    714  C5'        2.0460   27.1970   12.3770 C.3    46  G46         0.1812
    715  O5'        3.1350   27.8080   11.7030 O.3    46  G46        -0.3114
    716  C4'        1.5930   25.9440   11.6710 C.3    46  G46         0.1773
    717  O4'        1.0940   26.2720   10.3490 O.3    46  G46        -0.3307
    718  C3'        2.6700   24.9050   11.4110 C.3    46  G46         0.1860
    719  O3'        2.9430   24.1060   12.5470 O.3    46  G46        -0.3112
    720  C2'        2.1010   24.1220   10.2340 C.3    46  G46         0.2309
    721  O2'        1.1210   23.1940   10.6770 O.3    46  G46        -0.2156
    722  C1'        1.4000   25.2300    9.4460 C.3    46  G46         0.2408
    723  N1         2.9170   24.7850    4.5960 N.ar   46  G46        -0.1709
    724  C2         2.0260   24.0190    5.3050 C.ar   46  G46         0.2606
    725  N2         1.4630   23.0010    4.6390 N.pl3  46  G46        -0.0859
    726  N3         1.7080   24.2330    6.5720 N.ar   46  G46        -0.1918
    727  C4         2.3640   25.2940    7.0870 C.ar   46  G46         0.1723
    728  C5         3.2720   26.1240    6.4640 C.ar   46  G46         0.1748
    729  C6         3.6030   25.8830    5.1060 C.ar   46  G46         0.3023
    730  O6         4.3860   26.5090    4.3830 O.2    46  G46        -0.2633
    731  N7         3.7230   27.1040    7.3380 N.ar   46  G46        -0.2173
    732  C8         3.0930   26.8570    8.4540 C.ar   46  G46         0.1817
    733  N9         2.2520   25.7740    8.3710 N.ar   46  G46        -0.2693
    734  OP1        3.8880   29.3080   13.5470 O.3    46  G46        -0.4373
    735  OP2        4.6800   29.6780   11.1340 O.co2  46  G46        -0.5172
    736  P          4.3250   24.2880   13.3450 P.3    47  U47         0.2141
    737  C5'        4.8860   21.7750   12.8450 C.3    47  U47         0.1812
    738  O5'        5.2590   23.1450   12.7500 O.3    47  U47        -0.3114
    739  C4'        5.9370   20.8690   12.2530 C.3    47  U47         0.1773
    740  O4'        6.0150   21.1010   10.8200 O.3    47  U47        -0.3307
    741  C3'        7.3510   21.0660   12.7960 C.3    47  U47         0.1860
    742  O3'        8.0210   19.8070   12.8360 O.3    47  U47        -0.3112
    743  C2'        7.9990   21.9530   11.7360 C.3    47  U47         0.2309
    744  O2'        9.4060   21.8660   11.6760 O.3    47  U47        -0.2156
    745  C1'        7.3440   21.4300   10.4610 C.3    47  U47         0.2420
    746  N1         7.2990   22.4020    9.3600 N.ar   47  U47        -0.2534
    747  C2         7.7180   21.9680    8.1170 C.ar   47  U47         0.3546
    748  O2         8.1080   20.8320    7.9130 O.2    47  U47        -0.2443
    749  N3         7.6590   22.9120    7.1220 N.ar   47  U47        -0.1530
    750  C4         7.2350   24.2190    7.2440 C.ar   47  U47         0.2846
    751  O4         7.2410   24.9510    6.2530 O.2    47  U47        -0.2650
    752  C5         6.8190   24.5920    8.5620 C.ar   47  U47         0.0814
    753  C6         6.8650   23.6930    9.5510 C.ar   47  U47         0.0870
    754  OP1        4.0770   23.9810   14.7770 O.3    47  U47        -0.4373
    755  OP2        4.9090   25.5990   12.9650 O.co2  47  U47        -0.5172
    756  P          8.0440   18.9480   14.1940 P.3    48  U48         0.2141
    757  C5'       10.4660   19.8770   14.5710 C.3    48  U48         0.1812
    758  O5'        9.1550   19.6630   15.0810 O.3    48  U48        -0.3114
    759  C4'       11.0840   21.1280   15.1400 C.3    48  U48         0.1773
    760  O4'       11.4190   20.9000   16.5360 O.3    48  U48        -0.3307
    761  C3'       12.3740   21.5790   14.4610 C.3    48  U48         0.1860
    762  O3'       12.4430   23.0040   14.4700 O.3    48  U48        -0.3112
    763  C2'       13.4540   21.0080   15.3730 C.3    48  U48         0.2309
    764  O2'       14.6880   21.6890   15.3160 O.3    48  U48        -0.2156
    765  C1'       12.7980   21.1390   16.7440 C.3    48  U48         0.2420
    766  N1        13.2870   20.1670   17.7320 N.ar   48  U48        -0.2534
    767  C2        13.6910   20.6480   18.9620 C.ar   48  U48         0.3546
    768  O2        13.6500   21.8310   19.2540 O.2    48  U48        -0.2443
    769  N3        14.1400   19.6920   19.8410 N.ar   48  U48        -0.1530
    770  C4        14.2280   18.3330   19.6170 C.ar   48  U48         0.2846
    771  O4        14.6570   17.5990   20.5090 O.2    48  U48        -0.2650
    772  C5        13.7950   17.9150   18.3180 C.ar   48  U48         0.0814
    773  C6        13.3510   18.8240   17.4420 C.ar   48  U48         0.0870
    774  OP1        8.5290   17.5820   13.8680 O.2    48  U48        -0.5172
    775  OP2        6.7350   19.1270   14.8740 O.co2  48  U48        -0.4373
    776  P         11.8270   23.8480   13.2480 P.3    49  U49         0.2141
    777  C5'       13.5610   23.0630   11.4410 C.3    49  U49         0.1812
    778  O5'       12.2340   23.0110   11.9550 O.3    49  U49        -0.3114
    779  C4'       13.6110   22.7380    9.9680 C.3    49  U49         0.1773
    780  O4'       13.5130   21.2980    9.7810 O.3    49  U49        -0.3307
    781  C3'       12.5030   23.3600    9.1160 C.3    49  U49         0.1860
    782  O3'       13.0350   23.7450    7.8510 O.3    49  U49        -0.3112
    783  C2'       11.5310   22.1990    8.9210 C.3    49  U49         0.2309
    784  O2'       10.7330   22.2950    7.7600 O.3    49  U49        -0.2156
    785  C1'       12.4840   21.0120    8.8550 C.3    49  U49         0.2420
    786  N1        11.8700   19.7240    9.2120 N.ar   49  U49        -0.2534
    787  C2        12.0740   18.6650    8.3490 C.ar   49  U49         0.3546
    788  O2        12.7410   18.7610    7.3340 O.2    49  U49        -0.2443
    789  N3        11.4770   17.4870    8.7220 N.ar   49  U49        -0.1530
    790  C4        10.7070   17.2680    9.8450 C.ar   49  U49         0.2846
    791  O4        10.2350   16.1480   10.0440 O.2    49  U49        -0.2650
    792  C5        10.5370   18.4140   10.6850 C.ar   49  U49         0.0814
    793  C6        11.1090   19.5750   10.3470 C.ar   49  U49         0.0870
    794  OP1       12.5320   25.1540   13.1880 O.2    49  U49        -0.5172
    795  OP2       10.3480   23.8160   13.3680 O.co2  49  U49        -0.4373
    796  P         12.5130   25.0840    7.1320 P.3    50  C50         0.2141
    797  C5'       14.5710   25.3160    5.5240 C.3    50  C50         0.1812
    798  O5'       13.1900   25.0320    5.6920 O.3    50  C50        -0.3114
    799  C4'       15.1390   24.5970    4.3280 C.3    50  C50         0.1773
    800  O4'       15.2850   23.1830    4.6240 O.3    50  C50        -0.3307
    801  C3'       14.2860   24.6230    3.0700 C.3    50  C50         0.1860
    802  O3'       14.4090   25.8290    2.3370 O.3    50  C50        -0.3112
    803  C2'       14.7740   23.3950    2.3140 C.3    50  C50         0.2309
    804  O2'       16.0090   23.6620    1.6660 O.3    50  C50        -0.2156
    805  C1'       15.0330   22.4190    3.4620 C.3    50  C50         0.2420
    806  N1        13.8730   21.5350    3.7190 N.ar   50  C50        -0.2535
    807  C2        13.5870   20.5010    2.8190 C.ar   50  C50         0.3532
    808  O2        14.3040   20.3450    1.8200 O.2    50  C50        -0.2443
    809  N3        12.5280   19.6940    3.0560 N.ar   50  C50        -0.1739
    810  C4        11.7720   19.8810    4.1380 C.ar   50  C50         0.1759
    811  N4        10.7400   19.0550    4.3260 N.pl3  50  C50        -0.1070
    812  C5        12.0420   20.9210    5.0740 C.ar   50  C50         0.0566
    813  C6        13.0910   21.7140    4.8260 C.ar   50  C50         0.0850
    814  OP1       13.0710   26.2490    7.8640 O.3    50  C50        -0.4373
    815  OP2       11.0420   24.9660    6.9540 O.co2  50  C50        -0.5172
    816  P         13.0940   26.6080    1.8390 P.3    51  U51         0.2141
    817  C5'       12.9900   25.2370   -0.3950 C.3    51  U51         0.1812
    818  O5'       12.3870   25.5820    0.8430 O.3    51  U51        -0.3114
    819  C4'       12.4060   23.9690   -0.9680 C.3    51  U51         0.1773
    820  O4'       12.4830   22.9040    0.0150 O.3    51  U51        -0.3307
    821  C3'       10.9330   24.0150   -1.3450 C.3    51  U51         0.1860
    822  O3'       10.7000   24.6230   -2.6040 O.3    51  U51        -0.3112
    823  C2'       10.5340   22.5460   -1.2980 C.3    51  U51         0.2309
    824  O2'       10.9570   21.8740   -2.4750 O.3    51  U51        -0.2156
    825  C1'       11.3740   22.0410   -0.1240 C.3    51  U51         0.2420
    826  N1        10.6110   22.0350    1.1450 N.ar   51  U51        -0.2534
    827  C2         9.7410   20.9830    1.3600 C.ar   51  U51         0.3546
    828  O2         9.5830   20.0790    0.5580 O.2    51  U51        -0.2443
    829  N3         9.0600   21.0270    2.5510 N.ar   51  U51        -0.1530
    830  C4         9.1560   21.9950    3.5280 C.ar   51  U51         0.2846
    831  O4         8.4730   21.8930    4.5480 O.2    51  U51        -0.2650
    832  C5        10.0760   23.0510    3.2310 C.ar   51  U51         0.0814
    833  C6        10.7550   23.0340    2.0800 C.ar   51  U51         0.0870
    834  OP1       13.5350   27.7820    1.0450 O.2    51  U51        -0.5172
    835  OP2       12.2050   26.8050    3.0120 O.co2  51  U51        -0.4373
    836  P          9.3410   25.4410   -2.8700 P.3    52  A52         0.2141
    837  C5'        8.1340   23.3720   -3.9510 C.3    52  A52         0.1812
    838  O5'        8.2060   24.3210   -2.8960 O.3    52  A52        -0.3114
    839  C4'        7.1660   22.2610   -3.6260 C.3    52  A52         0.1773
    840  O4'        7.5520   21.6360   -2.3750 O.3    52  A52        -0.3307
    841  C3'        5.7200   22.6840   -3.4080 C.3    52  A52         0.1860
    842  O3'        5.0010   22.8050   -4.6240 O.3    52  A52        -0.3112
    843  C2'        5.1780   21.5900   -2.4950 C.3    52  A52         0.2309
    844  O2'        4.8270   20.4370   -3.2460 O.3    52  A52        -0.2156
    845  C1'        6.4060   21.2600   -1.6450 C.3    52  A52         0.2408
    846  N1         4.5960   21.4520    3.1870 N.ar   52  A52        -0.2040
    847  C2         4.3700   20.6030    2.1750 C.ar   52  A52         0.2016
    848  N3         4.8730   20.6100    0.9420 N.ar   52  A52        -0.2048
    849  C4         5.7130   21.6460    0.7760 C.ar   52  A52         0.1692
    850  C5         6.0460   22.6020    1.7190 C.ar   52  A52         0.1518
    851  C6         5.4470   22.4840    2.9860 C.ar   52  A52         0.1919
    852  N6         5.6750   23.3320    3.9930 N.pl3  52  A52        -0.1054
    853  N7         6.9420   23.5200    1.1950 N.ar   52  A52        -0.2193
    854  C8         7.1300   23.1070   -0.0340 C.ar   52  A52         0.1816
    855  N9         6.4150   21.9810   -0.3570 N.ar   52  A52        -0.2693
    856  OP1        9.4210   26.0360   -4.2290 O.2    52  A52        -0.5172
    857  OP2        9.0960   26.3180   -1.6970 O.co2  52  A52        -0.4373
    858  P          4.1660   24.1380   -4.9560 P.3    53  C53         0.2141
    859  C5'        1.9040   22.9200   -4.3990 C.3    53  C53         0.1812
    860  O5'        2.8160   23.9740   -4.1230 O.3    53  C53        -0.3114
    861  C4'        1.0970   22.5570   -3.1760 C.3    53  C53         0.1773
    862  O4'        1.9970   22.2430   -2.0840 O.3    53  C53        -0.3307
    863  C3'        0.1960   23.6500   -2.6180 C.3    53  C53         0.1860
    864  O3'       -1.0540   23.7200   -3.2810 O.3    53  C53        -0.3112
    865  C2'        0.0630   23.2630   -1.1490 C.3    53  C53         0.2309
    866  O2'       -0.9220   22.2530   -0.9840 O.3    53  C53        -0.2156
    867  C1'        1.4360   22.6560   -0.8580 C.3    53  C53         0.2420
    868  N1         2.3530   23.6210   -0.2110 N.ar   53  C53        -0.2535
    869  C2         2.3440   23.6990    1.1830 C.ar   53  C53         0.3532
    870  O2         1.5740   22.9610    1.8160 O.2    53  C53        -0.2443
    871  N3         3.1710   24.5700    1.8050 N.ar   53  C53        -0.1739
    872  C4         3.9820   25.3440    1.0850 C.ar   53  C53         0.1759
    873  N4         4.7800   26.1900    1.7410 N.pl3  53  C53        -0.1070
    874  C5         4.0120   25.2860   -0.3400 C.ar   53  C53         0.0566
    875  C6         3.1900   24.4180   -0.9420 C.ar   53  C53         0.0850
    876  OP1        3.8270   24.1080   -6.4020 O.2    53  C53        -0.5172
    877  OP2        4.9070   25.3000   -4.4030 O.co2  53  C53        -0.4373
    878  P         -1.3160   24.7970   -4.4430 P.3    54  C54         0.2141
    879  C5'       -1.1480   23.9790   -6.9270 C.3    54  C54         0.1812
    880  O5'       -1.8030   23.9040   -5.6710 O.3    54  C54        -0.3114
    881  C4'       -0.9170   22.6140   -7.5310 C.3    54  C54         0.1773
    882  O4'       -0.5130   21.6660   -6.5080 O.3    54  C54        -0.3307
    883  C3'       -2.1110   21.9400   -8.1850 C.3    54  C54         0.1860
    884  O3'       -2.4130   22.4560   -9.4700 O.3    54  C54        -0.3112
    885  C2'       -1.6840   20.4790   -8.2030 C.3    54  C54         0.2309
    886  O2'       -0.7540   20.2450   -9.2500 O.3    54  C54        -0.2156
    887  C1'       -0.9420   20.3670   -6.8700 C.3    54  C54         0.2420
    888  N1        -1.8040   19.8130   -5.8010 N.ar   54  C54        -0.2535
    889  C2        -2.0370   18.4330   -5.7930 C.ar   54  C54         0.3532
    890  O2        -1.5180   17.7240   -6.6680 O.2    54  C54        -0.2443
    891  N3        -2.8210   17.8980   -4.8300 N.ar   54  C54        -0.1739
    892  C4        -3.3640   18.6850   -3.9030 C.ar   54  C54         0.1759
    893  N4        -4.1310   18.1090   -2.9740 N.pl3  54  C54        -0.1070
    894  C5        -3.1460   20.0940   -3.8880 C.ar   54  C54         0.0566
    895  C6        -2.3670   20.6120   -4.8470 C.ar   54  C54         0.0850
    896  OP1       -0.0270   25.4410   -4.8030 O.2    54  C54        -0.5172
    897  OP2       -2.4580   25.6500   -4.0250 O.co2  54  C54        -0.4373
    898  P         -3.8960   22.3030  -10.0710 P.3    55  A55         0.2141
    899  C5'       -3.1600   20.2200  -11.4820 C.3    55  A55         0.1812
    900  O5'       -3.9970   20.7650  -10.4740 O.3    55  A55        -0.3114
    901  C4'       -3.3100   18.7220  -11.5760 C.3    55  A55         0.1773
    902  O4'       -2.9310   18.1080  -10.3170 O.3    55  A55        -0.3307
    903  C3'       -4.7190   18.2100  -11.8260 C.3    55  A55         0.1860
    904  O3'       -5.0920   18.2800  -13.1900 O.3    55  A55        -0.3112
    905  C2'       -4.6590   16.7890  -11.2800 C.3    55  A55         0.2309
    906  O2'       -4.0320   15.9190  -12.2110 O.3    55  A55        -0.2156
    907  C1'       -3.7250   16.9640  -10.0820 C.3    55  A55         0.2408
    908  N1        -6.4830   14.6840   -6.3730 N.ar   55  A55        -0.2040
    909  C2        -5.9000   14.2130   -7.4820 C.ar   55  A55         0.2016
    910  N3        -5.1970   14.8640   -8.4060 N.ar   55  A55        -0.2048
    911  C4        -5.1100   16.1710   -8.1040 C.ar   55  A55         0.1692
    912  C5        -5.6550   16.8050   -7.0020 C.ar   55  A55         0.1518
    913  C6        -6.3770   16.0030   -6.0980 C.ar   55  A55         0.1919
    914  N6        -6.9590   16.4710   -4.9920 N.pl3  55  A55        -0.1054
    915  N7        -5.3600   18.1610   -7.0220 N.ar   55  A55        -0.2193
    916  C8        -4.6550   18.3160   -8.1160 C.ar   55  A55         0.1816
    917  N9        -4.4660   17.1520   -8.8200 N.ar   55  A55        -0.2693
    918  OP1       -3.9700   23.1090  -11.3170 O.2    55  A55        -0.5172
    919  OP2       -4.8670   22.5490   -8.9740 O.co2  55  A55        -0.4373
    920  P         -6.6190   18.5690  -13.5960 P.3    56  A56         0.2141
    921  C5'       -6.9440   16.0520  -14.2470 C.3    56  A56         0.1812
    922  O5'       -7.3300   17.1520  -13.4370 O.3    56  A56        -0.3114
    923  C4'       -7.4320   14.7420  -13.6800 C.3    56  A56         0.1773
    924  O4'       -6.8680   14.5380  -12.3580 O.3    56  A56        -0.3307
    925  C3'       -8.9320   14.6210  -13.4590 C.3    56  A56         0.1860
    926  O3'       -9.6510   14.3140  -14.6410 O.3    56  A56        -0.3112
    927  C2'       -9.0190   13.5400  -12.3940 C.3    56  A56         0.2309
    928  O2'       -8.8150   12.2570  -12.9660 O.3    56  A56        -0.2156
    929  C1'       -7.8050   13.8800  -11.5310 C.3    56  A56         0.2408
    930  N1        -9.8510   14.2550   -6.8210 N.ar   56  A56        -0.2040
    931  C2        -9.6320   13.2080   -7.6270 C.ar   56  A56         0.2016
    932  N3        -9.0940   13.1810   -8.8440 N.ar   56  A56        -0.2048
    933  C4        -8.7530   14.4210   -9.2390 C.ar   56  A56         0.1692
    934  C5        -8.9130   15.5940   -8.5240 C.ar   56  A56         0.1518
    935  C6        -9.4960   15.4870   -7.2490 C.ar   56  A56         0.1919
    936  N6        -9.7140   16.5300   -6.4440 N.pl3  56  A56        -0.1054
    937  N7        -8.4430   16.6800   -9.2510 N.ar   56  A56        -0.2193
    938  C8        -8.0160   16.1480  -10.3700 C.ar   56  A56         0.1816
    939  N9        -8.1690   14.7850  -10.4260 N.ar   56  A56        -0.2693
    940  OP1       -6.6410   18.9380  -15.0340 O.2    56  A56        -0.5172
    941  OP2       -7.1980   19.4970  -12.5910 O.co2  56  A56        -0.4373
    942  P        -11.1430   14.8770  -14.8440 P.3    57  G57         0.2141
    943  C5'      -12.2450   12.6400  -14.0330 C.3    57  G57         0.1812
    944  O5'      -12.0220   14.0260  -13.8220 O.3    57  G57        -0.3114
    945  C4'      -12.7900   11.9610  -12.8000 C.3    57  G57         0.1773
    946  O4'      -11.9210   12.2180  -11.6660 O.3    57  G57        -0.3307
    947  C3'      -14.1570   12.4220  -12.3180 C.3    57  G57         0.1860
    948  O3'      -15.2330   11.8680  -13.0550 O.3    57  G57        -0.3112
    949  C2'      -14.1410   12.0020  -10.8560 C.3    57  G57         0.2309
    950  O2'      -14.3670   10.6050  -10.7320 O.3    57  G57        -0.2156
    951  C1'      -12.6880   12.2880  -10.4810 C.3    57  G57         0.2408
    952  N1       -13.4080   15.1520   -6.3500 N.ar   57  G57        -0.1709
    953  C2       -13.6840   13.8230   -6.5520 C.ar   57  G57         0.2606
    954  N2       -14.2250   13.1660   -5.5170 N.pl3  57  G57        -0.0859
    955  N3       -13.4460   13.1850   -7.6870 N.ar   57  G57        -0.1918
    956  C4       -12.9020   13.9970   -8.6180 C.ar   57  G57         0.1723
    957  C5       -12.5880   15.3350   -8.5170 C.ar   57  G57         0.1748
    958  C6       -12.8470   16.0070   -7.2940 C.ar   57  G57         0.3023
    959  O6       -12.6400   17.1930   -7.0070 O.2    57  G57        -0.2633
    960  N7       -12.0410   15.8030   -9.7050 N.ar   57  G57        -0.2173
    961  C8       -12.0340   14.7610  -10.4920 C.ar   57  G57         0.1817
    962  N9       -12.5380   13.6320   -9.8930 N.ar   57  G57        -0.2693
    963  OP1      -11.5750   14.5360  -16.2240 O.2    57  G57        -0.5172
    964  OP2      -11.1670   16.2940  -14.4010 O.co2  57  G57        -0.4373
    965  P        -16.6050   12.6910  -13.2190 P.3    58  A58         0.2141
    966  C5'      -17.7770   11.3970  -11.2620 C.3    58  A58         0.1812
    967  O5'      -17.2790   12.6230  -11.7760 O.3    58  A58        -0.3114
    968  C4'      -17.9940   11.4600   -9.7690 C.3    58  A58         0.1773
    969  O4'      -16.8010   11.9730   -9.1170 O.3    58  A58        -0.3307
    970  C3'      -19.0980   12.3860   -9.2830 C.3    58  A58         0.1860
    971  O3'      -20.3950   11.8270   -9.4030 O.3    58  A58        -0.3112
    972  C2'      -18.6840   12.6570   -7.8440 C.3    58  A58         0.2309
    973  O2'      -19.0060   11.5520   -7.0120 O.3    58  A58        -0.2156
    974  C1'      -17.1640   12.7300   -7.9810 C.3    58  A58         0.2408
    975  N1       -16.4050   17.2830   -5.7050 N.ar   58  A58        -0.2040
    976  C2       -16.8650   16.1110   -5.2490 C.ar   58  A58         0.2016
    977  N3       -17.0350   14.9640   -5.9030 N.ar   58  A58        -0.2048
    978  C4       -16.6690   15.0900   -7.1900 C.ar   58  A58         0.1692
    979  C5       -16.1780   16.2270   -7.8050 C.ar   58  A58         0.1518
    980  C6       -16.0450   17.3760   -7.0040 C.ar   58  A58         0.1919
    981  N6       -15.5850   18.5450   -7.4550 N.pl3  58  A58        -0.1054
    982  N7       -15.9080   15.9800   -9.1440 N.ar   58  A58        -0.2193
    983  C8       -16.2370   14.7210   -9.3070 C.ar   58  A58         0.1816
    984  N9       -16.7020   14.1200   -8.1640 N.ar   58  A58        -0.2693
    985  OP1      -17.4710   11.9460  -14.1680 O.2    58  A58        -0.5172
    986  OP2      -16.2640   14.1090  -13.4970 O.co2  58  A58        -0.4373
    987  P        -21.6720   12.7890   -9.5770 P.3    59  G59         0.2141
    988  C5'      -22.2190   12.5990   -7.0180 C.3    59  G59         0.1812
    989  O5'      -21.8880   13.4190   -8.1290 O.3    59  G59        -0.3114
    990  C4'      -21.9970   13.3170   -5.7100 C.3    59  G59         0.1773
    991  O4'      -20.6610   13.8810   -5.6810 O.3    59  G59        -0.3307
    992  C3'      -22.9070   14.5050   -5.4340 C.3    59  G59         0.1860
    993  O3'      -24.1720   14.1190   -4.9210 O.3    59  G59        -0.3112
    994  C2'      -22.0850   15.3360   -4.4560 C.3    59  G59         0.2309
    995  O2'      -22.1790   14.8040   -3.1420 O.3    59  G59        -0.2156
    996  C1'      -20.6650   15.1000   -4.9710 C.3    59  G59         0.2408
    997  N1       -19.3180   20.0000   -5.3760 N.ar   59  G59        -0.1709
    998  C2       -19.7320   19.2990   -4.2710 C.ar   59  G59         0.2606
    999  N2       -19.7960   19.9890   -3.1240 N.pl3  59  G59        -0.0859
   1000  N3       -20.0580   18.0170   -4.2890 N.ar   59  G59        -0.1918
   1001  C4       -19.9370   17.4810   -5.5230 C.ar   59  G59         0.1723
   1002  C5       -19.5330   18.0950   -6.6900 C.ar   59  G59         0.1748
   1003  C6       -19.1850   19.4710   -6.6540 C.ar   59  G59         0.3023
   1004  O6       -18.8030   20.1940   -7.5820 O.2    59  G59        -0.2633
   1005  N7       -19.5430   17.1970   -7.7480 N.ar   59  G59        -0.2173
   1006  C8       -19.9440   16.0740   -7.2170 C.ar   59  G59         0.1817
   1007  N9       -20.2050   16.1760   -5.8710 N.ar   59  G59        -0.2693
   1008  OP1      -22.8530   11.9430   -9.8880 O.3    59  G59        -0.4373
   1009  OP2      -21.2920   13.8850  -10.5040 O.co2  59  G59        -0.5172
   1010  P        -25.5010   14.9240   -5.3330 P.3    60  C60         0.2141
   1011  C5'      -25.2710   16.4940   -3.2420 C.3    60  C60         0.1812
   1012  O5'      -25.3150   16.3540   -4.6550 O.3    60  C60        -0.3114
   1013  C4'      -24.7820   17.8630   -2.8430 C.3    60  C60         0.1773
   1014  O4'      -23.4450   18.0750   -3.3670 O.3    60  C60        -0.3307
   1015  C3'      -25.5850   19.0360   -3.3850 C.3    60  C60         0.1860
   1016  O3'      -26.7430   19.3120   -2.6180 O.3    60  C60        -0.3112
   1017  C2'      -24.5670   20.1680   -3.3850 C.3    60  C60         0.2309
   1018  O2'      -24.4130   20.7040   -2.0790 O.3    60  C60        -0.2156
   1019  C1'      -23.2840   19.4220   -3.7560 C.3    60  C60         0.2420
   1020  N1       -23.0090   19.4610   -5.2120 N.ar   60  C60        -0.2535
   1021  C2       -22.4720   20.6220   -5.7800 C.ar   60  C60         0.3532
   1022  O2       -22.2440   21.6010   -5.0540 O.2    60  C60        -0.2443
   1023  N3       -22.2170   20.6510   -7.1090 N.ar   60  C60        -0.1739
   1024  C4       -22.4740   19.5820   -7.8650 C.ar   60  C60         0.1759
   1025  N4       -22.2060   19.6560   -9.1710 N.pl3  60  C60        -0.1070
   1026  C5       -23.0160   18.3860   -7.3150 C.ar   60  C60         0.0566
   1027  C6       -23.2630   18.3710   -5.9990 C.ar   60  C60         0.0850
   1028  OP1      -26.6590   14.2610   -4.6810 O.3    60  C60        -0.4373
   1029  OP2      -25.4950   15.1080   -6.8060 O.co2  60  C60        -0.5172
   1030  P        -28.0740   19.8630   -3.3310 P.3    61  C61         0.2141
   1031  C5'      -27.4310   22.2960   -2.5940 C.3    61  C61         0.1812
   1032  O5'      -27.7410   21.3880   -3.6410 O.3    61  C61        -0.3114
   1033  C4'      -26.8910   23.5950   -3.1350 C.3    61  C61         0.1773
   1034  O4'      -25.6320   23.3580   -3.8150 O.3    61  C61        -0.3307
   1035  C3'      -27.7540   24.2870   -4.1780 C.3    61  C61         0.1860
   1036  O3'      -28.7980   25.0510   -3.5990 O.3    61  C61        -0.3112
   1037  C2'      -26.7440   25.1280   -4.9490 C.3    61  C61         0.2309
   1038  O2'      -26.4510   26.3260   -4.2460 O.3    61  C61        -0.2156
   1039  C1'      -25.5040   24.2310   -4.9160 C.3    61  C61         0.2420
   1040  N1       -25.3520   23.4230   -6.1480 N.ar   61  C61        -0.2535
   1041  C2       -24.8030   24.0190   -7.2870 C.ar   61  C61         0.3532
   1042  O2       -24.4650   25.2110   -7.2400 O.2    61  C61        -0.2443
   1043  N3       -24.6560   23.2850   -8.4140 N.ar   61  C61        -0.1739
   1044  C4       -25.0280   22.0050   -8.4310 C.ar   61  C61         0.1759
   1045  N4       -24.8630   21.3200   -9.5650 N.pl3  61  C61        -0.1070
   1046  C5       -25.5870   21.3690   -7.2850 C.ar   61  C61         0.0566
   1047  C6       -25.7270   22.1080   -6.1770 C.ar   61  C61         0.0850
   1048  OP1      -29.1780   19.8290   -2.3370 O.3    61  C61        -0.4373
   1049  OP2      -28.2300   19.1530   -4.6260 O.co2  61  C61        -0.5172
   1050  P        -30.3340   24.7200   -3.9330 P.3    62  U62         0.2141
   1051  C5'      -31.9320   25.7000   -5.7680 C.3    62  U62         0.1812
   1052  O5'      -30.6050   25.4890   -5.3010 O.3    62  U62        -0.3114
   1053  C4'      -31.9570   26.0220   -7.2410 C.3    62  U62         0.1773
   1054  O4'      -31.3490   24.9240   -7.9750 O.3    62  U62        -0.3307
   1055  C3'      -33.3480   26.2160   -7.8390 C.3    62  U62         0.1860
   1056  O3'      -33.2830   27.1890   -8.8810 O.3    62  U62        -0.3112
   1057  C2'      -33.6510   24.8450   -8.4340 C.3    62  U62         0.2309
   1058  O2'      -34.5950   24.8550   -9.4840 O.3    62  U62        -0.2156
   1059  C1'      -32.2710   24.4060   -8.9150 C.3    62  U62         0.2420
   1060  N1       -32.0970   22.9470   -8.9660 N.ar   62  U62        -0.2534
   1061  C2       -31.8350   22.3640  -10.1910 C.ar   62  U62         0.3546
   1062  O2       -31.7420   23.0050  -11.2240 O.2    62  U62        -0.2443
   1063  N3       -31.6850   20.9990  -10.1600 N.ar   62  U62        -0.1530
   1064  C4       -31.7700   20.1780   -9.0530 C.ar   62  U62         0.2846
   1065  O4       -31.6110   18.9630   -9.1850 O.2    62  U62        -0.2650
   1066  C5       -32.0440   20.8580   -7.8250 C.ar   62  U62         0.0814
   1067  C6       -32.1950   22.1860   -7.8250 C.ar   62  U62         0.0870
   1068  OP1      -31.1730   25.3500   -2.8820 O.3    62  U62        -0.4373
   1069  OP2      -30.4560   23.2630   -4.1930 O.co2  62  U62        -0.5172
   1070  P        -33.8900   28.6590   -8.6510 P.3    63  U63         0.2141
   1071  C5'      -31.7990   30.1910   -8.2140 C.3    63  U63         0.1812
   1072  O5'      -32.7320   29.6380   -9.1390 O.3    63  U63        -0.3114
   1073  C4'      -30.6100   30.8110   -8.9110 C.3    63  U63         0.1773
   1074  O4'      -29.7290   29.7600   -9.3920 O.3    63  U63        -0.3307
   1075  C3'      -30.9350   31.6840  -10.1230 C.3    63  U63         0.1860
   1076  O3'      -29.9940   32.7540  -10.2050 O.3    63  U63        -0.3112
   1077  C2'      -30.7110   30.7280  -11.2910 C.3    63  U63         0.2309
   1078  O2'      -30.4200   31.3590  -12.5200 O.3    63  U63        -0.2156
   1079  C1'      -29.5310   29.9030  -10.7850 C.3    63  U63         0.2420
   1080  N1       -29.4410   28.5610  -11.3750 N.ar   63  U63        -0.2534
   1081  C2       -28.5620   28.3780  -12.4230 C.ar   63  U63         0.3546
   1082  O2       -27.8770   29.2800  -12.8750 O.2    63  U63        -0.2443
   1083  N3       -28.5220   27.1010  -12.9270 N.ar   63  U63        -0.1530
   1084  C4       -29.2540   26.0150  -12.4930 C.ar   63  U63         0.2846
   1085  O4       -29.1070   24.9250  -13.0480 O.2    63  U63        -0.2650
   1086  C5       -30.1370   26.2870  -11.4000 C.ar   63  U63         0.0814
   1087  C6       -30.1980   27.5210  -10.8900 C.ar   63  U63         0.0870
   1088  OP1      -34.0730   28.8550   -7.1900 O.3    63  U63        -0.4373
   1089  OP2      -35.0490   28.8260   -9.5640 O.co2  63  U63        -0.5172
   1090  P        -30.3150   34.1770   -9.5290 P.3    64  A64         0.2141
   1091  C5'      -29.5720   34.7420   -7.0780 C.3    64  A64         0.1812
   1092  O5'      -30.2650   33.8780   -7.9650 O.3    64  A64        -0.3114
   1093  C4'      -29.1440   34.0150   -5.8280 C.3    64  A64         0.1773
   1094  O4'      -29.4540   32.6060   -5.9540 O.3    64  A64        -0.3307
   1095  C3'      -27.6550   34.0480   -5.5210 C.3    64  A64         0.1860
   1096  O3'      -27.2730   35.2410   -4.8570 O.3    64  A64        -0.3112
   1097  C2'      -27.4430   32.7880   -4.6840 C.3    64  A64         0.2309
   1098  O2'      -27.7670   33.0300   -3.3230 O.3    64  A64        -0.2156
   1099  C1'      -28.4920   31.8350   -5.2690 C.3    64  A64         0.2408
   1100  N1       -25.9720   30.7720   -9.7100 N.ar   64  A64        -0.2040
   1101  C2       -26.3130   31.9340   -9.1420 C.ar   64  A64         0.2016
   1102  N3       -26.9590   32.1550   -7.9990 N.ar   64  A64        -0.2048
   1103  C4       -27.2750   30.9990   -7.3900 C.ar   64  A64         0.1692
   1104  C5       -26.9900   29.7260   -7.8550 C.ar   64  A64         0.1518
   1105  C6       -26.3040   29.6250   -9.0780 C.ar   64  A64         0.1919
   1106  N6       -25.9650   28.4630   -9.6420 N.pl3  64  A64        -0.1054
   1107  N7       -27.4620   28.7600   -6.9790 N.ar   64  A64        -0.2193
   1108  C8       -28.0140   29.4600   -6.0200 C.ar   64  A64         0.1816
   1109  N9       -27.9360   30.8210   -6.1920 N.ar   64  A64        -0.2693
   1110  OP1      -31.7090   34.5530   -9.8780 O.2    64  A64        -0.5172
   1111  OP2      -29.2000   35.1010   -9.8570 O.co2  64  A64        -0.4373
   1112  P        -25.9650   36.0530   -5.3160 P.3    65  A65         0.2141
   1113  C5'      -24.9370   35.4560   -2.9800 C.3    65  A65         0.1812
   1114  O5'      -24.8070   35.4580   -4.3980 O.3    65  A65        -0.3114
   1115  C4'      -24.0070   34.4630   -2.3230 C.3    65  A65         0.1773
   1116  O4'      -24.2150   33.1440   -2.9050 O.3    65  A65        -0.3307
   1117  C3'      -22.5130   34.7580   -2.4690 C.3    65  A65         0.1860
   1118  O3'      -21.8370   34.3040   -1.2960 O.3    65  A65        -0.3112
   1119  C2'      -22.1180   33.8690   -3.6410 C.3    65  A65         0.2309
   1120  O2'      -20.7450   33.5480   -3.7040 O.3    65  A65        -0.2156
   1121  C1'      -22.9780   32.6410   -3.3720 C.3    65  A65         0.2408
   1122  N1       -24.4080   27.9800   -4.9390 N.ar   65  A65        -0.2040
   1123  C2       -24.2900   28.5290   -3.7230 C.ar   65  A65         0.2016
   1124  N3       -23.9110   29.7600   -3.3910 N.ar   65  A65        -0.2048
   1125  C4       -23.6270   30.4800   -4.4900 C.ar   65  A65         0.1692
   1126  C5       -23.6980   30.0590   -5.8040 C.ar   65  A65         0.1518
   1127  C6       -24.1140   28.7330   -6.0210 C.ar   65  A65         0.1919
   1128  N6       -24.2310   28.1820   -7.2300 N.pl3  65  A65        -0.1054
   1129  N7       -23.3270   31.0820   -6.6670 N.ar   65  A65        -0.2193
   1130  C8       -23.0440   32.0830   -5.8680 C.ar   65  A65         0.1816
   1131  N9       -23.2100   31.7860   -4.5380 N.ar   65  A65        -0.2693
   1132  OP1      -26.1590   37.4760   -4.9390 O.3    65  A65        -0.4373
   1133  OP2      -25.6740   35.7070   -6.7310 O.co2  65  A65        -0.5172
   1134  P        -20.5150   35.0530   -0.7740 P.3    66  A66         0.2141
   1135  C5'      -19.0810   32.8690   -1.0840 C.3    66  A66         0.1812
   1136  O5'      -19.5930   33.8750   -0.2210 O.3    66  A66        -0.3114
   1137  C4'      -19.5350   31.4960   -0.6550 C.3    66  A66         0.1773
   1138  O4'      -20.7390   31.1260   -1.3820 O.3    66  A66        -0.3307
   1139  C3'      -18.5790   30.3470   -0.9360 C.3    66  A66         0.1860
   1140  O3'      -17.5210   30.2480    0.0030 O.3    66  A66        -0.3112
   1141  C2'      -19.5140   29.1470   -0.9330 C.3    66  A66         0.2309
   1142  O2'      -19.8760   28.7960    0.3940 O.3    66  A66        -0.2156
   1143  C1'      -20.7400   29.7340   -1.6280 C.3    66  A66         0.2408
   1144  N1       -21.1850   26.2840   -5.4200 N.ar   66  A66        -0.2040
   1145  C2       -21.3190   26.1860   -4.0910 C.ar   66  A66         0.2016
   1146  N3       -21.1900   27.1310   -3.1620 N.ar   66  A66        -0.2048
   1147  C4       -20.8820   28.3130   -3.7240 C.ar   66  A66         0.1692
   1148  C5       -20.7110   28.5710   -5.0720 C.ar   66  A66         0.1518
   1149  C6       -20.8750   27.4860   -5.9530 C.ar   66  A66         0.1919
   1150  N6       -20.7420   27.5810   -7.2780 N.pl3  66  A66        -0.1054
   1151  N7       -20.4000   29.9070   -5.2800 N.ar   66  A66        -0.2193
   1152  C8       -20.3870   30.4190   -4.0720 C.ar   66  A66         0.1816
   1153  N9       -20.6800   29.5120   -3.0840 N.ar   66  A66        -0.2693
   1154  OP1      -20.9010   35.9050    0.3800 O.3    66  A66        -0.4373
   1155  OP2      -19.8370   35.6640   -1.9460 O.co2  66  A66        -0.5172
   1156  P        -15.9960   30.1340   -0.5000 P.3    67  C67         0.2141
   1157  C5'      -16.0510   27.7440   -1.5860 C.3    67  C67         0.1812
   1158  O5'      -15.6910   28.5690   -0.4880 O.3    67  C67        -0.3114
   1159  C4'      -17.0510   26.6910   -1.1810 C.3    67  C67         0.1773
   1160  O4'      -17.9430   26.4060   -2.2870 O.3    67  C67        -0.3307
   1161  C3'      -16.4920   25.3310   -0.7940 C.3    67  C67         0.1860
   1162  O3'      -16.0120   25.2970    0.5390 O.3    67  C67        -0.3112
   1163  C2'      -17.6770   24.4030   -1.0330 C.3    67  C67         0.2309
   1164  O2'      -18.5870   24.4640    0.0560 O.3    67  C67        -0.2156
   1165  C1'      -18.3380   25.0530   -2.2520 C.3    67  C67         0.2420
   1166  N1       -17.9440   24.4080   -3.5260 N.ar   67  C67        -0.2535
   1167  C2       -18.6090   23.2430   -3.9150 C.ar   67  C67         0.3532
   1168  O2       -19.4970   22.7870   -3.1800 O.2    67  C67        -0.2443
   1169  N3       -18.2670   22.6420   -5.0780 N.ar   67  C67        -0.1739
   1170  C4       -17.3070   23.1650   -5.8410 C.ar   67  C67         0.1759
   1171  N4       -17.0050   22.5360   -6.9790 N.pl3  67  C67        -0.1070
   1172  C5       -16.6140   24.3540   -5.4710 C.ar   67  C67         0.0566
   1173  C6       -16.9630   24.9390   -4.3170 C.ar   67  C67         0.0850
   1174  OP1      -15.1300   30.7700    0.5240 O.3    67  C67        -0.4373
   1175  OP2      -15.9370   30.6050   -1.9070 O.co2  67  C67        -0.5172
   1176  P        -14.8400   24.2800    0.9580 P.3    68  U68         0.2141
   1177  C5'      -16.5150   22.5320    1.9710 C.3    68  U68         0.1812
   1178  O5'      -15.5500   22.8540    0.9800 O.3    68  U68        -0.3114
   1179  C4'      -17.0880   21.1530    1.7570 C.3    68  U68         0.1773
   1180  O4'      -17.7990   21.1090    0.4920 O.3    68  U68        -0.3307
   1181  C3'      -16.0780   20.0200    1.6510 C.3    68  U68         0.1860
   1182  O3'      -15.6190   19.5620    2.9110 O.3    68  U68        -0.3112
   1183  C2'      -16.8440   18.9660    0.8640 C.3    68  U68         0.2309
   1184  O2'      -17.7500   18.2700    1.7070 O.3    68  U68        -0.2156
   1185  C1'      -17.6510   19.8350   -0.1000 C.3    68  U68         0.2420
   1186  N1       -16.9790   19.9920   -1.4110 N.ar   68  U68        -0.2534
   1187  C2       -17.0090   18.9260   -2.2930 C.ar   68  U68         0.3546
   1188  O2       -17.5550   17.8660   -2.0420 O.2    68  U68        -0.2443
   1189  N3       -16.3720   19.1450   -3.4890 N.ar   68  U68        -0.1530
   1190  C4       -15.7230   20.2940   -3.8880 C.ar   68  U68         0.2846
   1191  O4       -15.1960   20.3370   -5.0000 O.2    68  U68        -0.2650
   1192  C5       -15.7370   21.3510   -2.9230 C.ar   68  U68         0.0814
   1193  C6       -16.3490   21.1670   -1.7500 C.ar   68  U68         0.0870
   1194  OP1      -14.4280   24.6100    2.3460 O.3    68  U68        -0.4373
   1195  OP2      -13.8270   24.2690   -0.1280 O.co2  68  U68        -0.5172
   1196  P        -14.1700   18.8770    3.0430 P.3    69  C69         0.2141
   1197  C5'      -15.2490   16.4860    2.9450 C.3    69  C69         0.1812
   1198  O5'      -14.3560   17.4370    2.3840 O.3    69  C69        -0.3114
   1199  C4'      -15.5430   15.3580    1.9850 C.3    69  C69         0.1773
   1200  O4'      -16.0700   15.8890    0.7420 O.3    69  C69        -0.3307
   1201  C3'      -14.3530   14.5170    1.5510 C.3    69  C69         0.1860
   1202  O3'      -13.9990   13.5330    2.5080 O.3    69  C69        -0.3112
   1203  C2'      -14.8250   13.9310    0.2260 C.3    69  C69         0.2309
   1204  O2'      -15.6870   12.8250    0.4450 O.3    69  C69        -0.2156
   1205  C1'      -15.6550   15.0830   -0.3410 C.3    69  C69         0.2420
   1206  N1       -14.8890   15.9180   -1.2950 N.ar   69  C69        -0.2535
   1207  C2       -14.7150   15.4650   -2.6080 C.ar   69  C69         0.3532
   1208  O2       -15.1990   14.3720   -2.9420 O.2    69  C69        -0.2443
   1209  N3       -14.0200   16.2260   -3.4850 N.ar   69  C69        -0.1739
   1210  C4       -13.5130   17.3970   -3.0960 C.ar   69  C69         0.1759
   1211  N4       -12.8360   18.1140   -3.9950 N.pl3  69  C69        -0.1070
   1212  C5       -13.6750   17.8850   -1.7680 C.ar   69  C69         0.0566
   1213  C6       -14.3650   17.1210   -0.9110 C.ar   69  C69         0.0850
   1214  OP1      -13.8820   18.6940    4.4880 O.3    69  C69        -0.4373
   1215  OP2      -13.2210   19.6480    2.1990 O.co2  69  C69        -0.5172
   1216  P        -12.4960   12.9670    2.5750 P.3    70  U70         0.2141
   1217  C5'      -13.2140   10.8390    1.2150 C.3    70  U70         0.1812
   1218  O5'      -12.3910   11.9920    1.3180 O.3    70  U70        -0.3114
   1219  C4'      -13.0700   10.1770   -0.1320 C.3    70  U70         0.1773
   1220  O4'      -13.5150   11.0810   -1.1750 O.3    70  U70        -0.3307
   1221  C3'      -11.6530    9.8080   -0.5410 C.3    70  U70         0.1860
   1222  O3'      -11.2250    8.5850    0.0300 O.3    70  U70        -0.3112
   1223  C2'      -11.7390    9.7720   -2.0620 C.3    70  U70         0.2309
   1224  O2'      -12.3080    8.5490   -2.5050 O.3    70  U70        -0.2156
   1225  C1'      -12.7370   10.8980   -2.3390 C.3    70  U70         0.2420
   1226  N1       -12.0750   12.1800   -2.6740 N.ar   70  U70        -0.2534
   1227  C2       -11.5540   12.3380   -3.9470 C.ar   70  U70         0.3546
   1228  O2       -11.6020   11.4680   -4.8010 O.2    70  U70        -0.2443
   1229  N3       -10.9660   13.5560   -4.1850 N.ar   70  U70        -0.1530
   1230  C4       -10.8520   14.6110   -3.3030 C.ar   70  U70         0.2846
   1231  O4       -10.2930   15.6480   -3.6650 O.2    70  U70        -0.2650
   1232  C5       -11.4180   14.3720   -2.0130 C.ar   70  U70         0.0814
   1233  C6       -11.9970   13.1960   -1.7520 C.ar   70  U70         0.0870
   1234  OP1      -12.3760   12.1460    3.8070 O.3    70  U70        -0.4373
   1235  OP2      -11.5640   14.1020    2.3550 O.co2  70  U70        -0.5172
   1236  P         -9.6910    8.3850    0.4610 P.3    71  U71         0.2141
   1237  C5'       -9.2090    7.1260   -1.7840 C.3    71  U71         0.1812
   1238  O5'       -8.9240    8.2180   -0.9240 O.3    71  U71        -0.3114
   1239  C4'       -8.5850    7.3190   -3.1410 C.3    71  U71         0.1773
   1240  O4'       -9.1970    8.4530   -3.8070 O.3    71  U71        -0.3307
   1241  C3'       -7.1010    7.6470   -3.1470 C.3    71  U71         0.1860
   1242  O3'       -6.2830    6.5010   -2.9860 O.3    71  U71        -0.3112
   1243  C2'       -6.9220    8.3490   -4.4870 C.3    71  U71         0.2309
   1244  O2'       -6.8640    7.4030   -5.5450 O.3    71  U71        -0.2156
   1245  C1'       -8.2390    9.1190   -4.6030 C.3    71  U71         0.2420
   1246  N1        -8.1160   10.5190   -4.1340 N.ar   71  U71        -0.2534
   1247  C2        -7.6530   11.4540   -5.0400 C.ar   71  U71         0.3546
   1248  O2        -7.3490   11.1690   -6.1840 O.2    71  U71        -0.2443
   1249  N3        -7.5600   12.7370   -4.5600 N.ar   71  U71        -0.1530
   1250  C4        -7.8750   13.1710   -3.2890 C.ar   71  U71         0.2846
   1251  O4        -7.7370   14.3620   -3.0070 O.2    71  U71        -0.2650
   1252  C5        -8.3470   12.1460   -2.4090 C.ar   71  U71         0.0814
   1253  C6        -8.4490   10.8880   -2.8510 C.ar   71  U71         0.0870
   1254  OP1       -9.5920    7.0980    1.1950 O.3    71  U71        -0.4373
   1255  OP2       -9.2180    9.6410    1.0990 O.co2  71  U71        -0.5172
   1256  P         -4.8690    6.6160   -2.2310 P.3    72  G72         0.2141
   1257  C5'       -3.7350    6.6290   -4.5870 C.3    72  G72         0.1812
   1258  O5'       -3.9080    7.2550   -3.3250 O.3    72  G72        -0.3114
   1259  C4'       -2.9930    7.5240   -5.5440 C.3    72  G72         0.1773
   1260  O4'       -3.8280    8.6490   -5.9170 O.3    72  G72        -0.3307
   1261  C3'       -1.7300    8.1670   -4.9990 C.3    72  G72         0.1860
   1262  O3'       -0.6190    7.2880   -5.0200 O.3    72  G72        -0.3112
   1263  C2'       -1.5700    9.3910   -5.8920 C.3    72  G72         0.2309
   1264  O2'       -1.0130    9.0280   -7.1470 O.3    72  G72        -0.2156
   1265  C1'       -3.0290    9.7970   -6.1110 C.3    72  G72         0.2408
   1266  N1        -3.3280   14.7920   -5.1890 N.ar   72  G72        -0.1709
   1267  C2        -2.8100   14.1330   -6.2760 C.ar   72  G72         0.2606
   1268  N2        -2.3030   14.9030   -7.2500 N.pl3  72  G72        -0.0859
   1269  N3        -2.7920   12.8170   -6.4010 N.ar   72  G72        -0.1918
   1270  C4        -3.3410   12.2000   -5.3340 C.ar   72  G72         0.1723
   1271  C5        -3.8830   12.7640   -4.1990 C.ar   72  G72         0.1748
   1272  C6        -3.8970   14.1790   -4.0780 C.ar   72  G72         0.3023
   1273  O6        -4.3340   14.8700   -3.1500 O.2    72  G72        -0.2633
   1274  N7        -4.3430   11.7810   -3.3330 N.ar   72  G72        -0.2173
   1275  C8        -4.0750   10.6590   -3.9450 C.ar   72  G72         0.1817
   1276  N9        -3.4660   10.8410   -5.1640 N.ar   72  G72        -0.2693
   1277  OP1       -4.3770    5.2430   -1.9540 O.2    72  G72        -0.5172
   1278  OP2       -5.0130    7.5850   -1.1140 O.co2  72  G72        -0.4373
   1279  P          0.6510    7.5630   -4.0750 P.3    73  A73         0.2141
   1280  C5'        2.7970    9.0160   -4.4540 C.3    73  A73         0.1812
   1281  O5'        1.5790    8.4990   -4.9640 O.3    73  A73        -0.3114
   1282  C4'        3.1280   10.3410   -5.0870 C.3    73  A73         0.1773
   1283  O4'        2.1260   11.3250   -4.7190 O.3    73  A73        -0.3307
   1284  C3'        4.4400   10.9730   -4.6590 C.3    73  A73         0.1860
   1285  O3'        5.5540   10.4290   -5.3430 O.3    73  A73        -0.3112
   1286  C2'        4.2050   12.4500   -4.9490 C.3    73  A73         0.2309
   1287  O2'        4.3550   12.7170   -6.3360 O.3    73  A73        -0.2156
   1288  C1'        2.7270   12.5960   -4.5890 C.3    73  A73         0.2408
   1289  N1         3.1940   16.5390   -1.2920 N.ar   73  A73        -0.2040
   1290  C2         3.4950   16.4130   -2.5920 C.ar   73  A73         0.2016
   1291  N3         3.3490   15.3570   -3.3900 N.ar   73  A73        -0.2048
   1292  C4         2.8190   14.3210   -2.7170 C.ar   73  A73         0.1692
   1293  C5         2.4590   14.2980   -1.3810 C.ar   73  A73         0.1518
   1294  C6         2.6640   15.4780   -0.6440 C.ar   73  A73         0.1919
   1295  N6         2.3640   15.6060    0.6510 N.pl3  73  A73        -0.1054
   1296  N7         1.9460   13.0570   -1.0320 N.ar   73  A73        -0.2193
   1297  C8         2.0070   12.3670   -2.1450 C.ar   73  A73         0.1816
   1298  N9         2.5280   13.0680   -3.2050 N.ar   73  A73        -0.2693
   1299  OP1        1.3610    6.2750   -3.8660 O.2    73  A73        -0.5172
   1300  OP2        0.2020    8.3490   -2.8980 O.co2  73  A73        -0.4373
   1301  P          6.9360   10.1770   -4.5640 P.3    74  U74         0.2141
   1302  C5'        7.8110   12.4380   -5.5540 C.3    74  U74         0.1812
   1303  O5'        7.5550   11.6360   -4.4110 O.3    74  U74        -0.3114
   1304  C4'        8.0000   13.8840   -5.1770 C.3    74  U74         0.1773
   1305  O4'        6.7870   14.3910   -4.5630 O.3    74  U74        -0.3307
   1306  C3'        9.0790   14.1580   -4.1440 C.3    74  U74         0.1860
   1307  O3'       10.3800   14.2000   -4.7030 O.3    74  U74        -0.3112
   1308  C2'        8.6300   15.4800   -3.5360 C.3    74  U74         0.2309
   1309  O2'        8.9670   16.5650   -4.3880 O.3    74  U74        -0.2156
   1310  C1'        7.1110   15.3150   -3.5460 C.3    74  U74         0.2420
   1311  N1         6.5930   14.8010   -2.2570 N.ar   74  U74        -0.2534
   1312  C2         6.4760   15.6970   -1.2120 C.ar   74  U74         0.3546
   1313  O2         6.7820   16.8730   -1.3110 O.2    74  U74        -0.2443
   1314  N3         5.9850   15.1650   -0.0450 N.ar   74  U74        -0.1530
   1315  C4         5.6070   13.8570    0.1790 C.ar   74  U74         0.2846
   1316  O4         5.1830   13.5320    1.2900 O.2    74  U74        -0.2650
   1317  C5         5.7560   12.9920   -0.9510 C.ar   74  U74         0.0814
   1318  C6         6.2310   13.4820   -2.1010 C.ar   74  U74         0.0870
   1319  OP1        7.8320    9.4010   -5.4590 O.2    74  U74        -0.5172
   1320  OP2        6.6170    9.6600   -3.2080 O.co2  74  U74        -0.4373
   1321  P         11.6280   13.6010   -3.8880 P.3    75  U75         0.2141
   1322  C5'       12.1690   16.0100   -3.0050 C.3    75  U75         0.1812
   1323  O5'       11.8580   14.6550   -2.7160 O.3    75  U75        -0.3114
   1324  C4'       12.0940   16.8660   -1.7670 C.3    75  U75         0.1773
   1325  O4'       10.7210   16.9460   -1.3040 O.3    75  U75        -0.3307
   1326  C3'       12.8590   16.3520   -0.5590 C.3    75  U75         0.1860
   1327  O3'       14.2460   16.6350   -0.6180 O.3    75  U75        -0.3112
   1328  C2'       12.1410   17.0300    0.6000 C.3    75  U75         0.2309
   1329  O2'       12.5550   18.3820    0.7270 O.3    75  U75        -0.2156
   1330  C1'       10.6930   17.0110    0.1070 C.3    75  U75         0.2420
   1331  N1         9.9450   15.8420    0.6250 N.ar   75  U75        -0.2534
   1332  C2         9.4620   15.9210    1.9160 C.ar   75  U75         0.3546
   1333  O2         9.6270   16.9010    2.6230 O.2    75  U75        -0.2443
   1334  N3         8.7790   14.8130    2.3510 N.ar   75  U75        -0.1530
   1335  C4         8.5370   13.6560    1.6400 C.ar   75  U75         0.2846
   1336  O4         7.9040   12.7420    2.1700 O.2    75  U75        -0.2650
   1337  C5         9.0680   13.6510    0.3110 C.ar   75  U75         0.0814
   1338  C6         9.7380   14.7170   -0.1390 C.ar   75  U75         0.0870
   1339  OP1       12.8190   13.6320   -4.7760 O.2    75  U75        -0.5172
   1340  OP2       11.2040   12.3180   -3.2720 O.co2  75  U75        -0.4373
   1341  P         15.3040   15.5850   -0.0180 P.3    76  A76         0.2141
   1342  C5'       15.5670   17.1260    2.0860 C.3    76  A76         0.1812
   1343  O5'       15.2550   15.8480    1.5520 O.3    76  A76        -0.3114
   1344  C4'       15.3090   17.1810    3.5710 C.3    76  A76         0.1773
   1345  O4'       13.8800   17.2030    3.8250 O.3    76  A76        -0.3307
   1346  C3'       15.8060   15.9930    4.3770 C.3    76  A76         0.1860
   1347  O3'       17.1920   16.0590    4.6630 O.3    76  A76        -0.3112
   1348  C2'       14.9200   16.0380    5.6150 C.3    76  A76         0.2309
   1349  O2'       15.3720   17.0350    6.5190 O.3    76  A76        -0.2156
   1350  C1'       13.5910   16.4980    5.0140 C.3    76  A76         0.2408
   1351  N1        10.0650   13.1700    6.7620 N.ar   76  A76        -0.2040
   1352  C2        10.7310   14.1700    7.3540 C.ar   76  A76         0.2016
   1353  N3        11.6360   14.9990    6.8400 N.ar   76  A76        -0.2048
   1354  C4        11.8510   14.7200    5.5420 C.ar   76  A76         0.1692
   1355  C5        11.2440   13.7260    4.7960 C.ar   76  A76         0.1518
   1356  C6        10.3030   12.9170    5.4570 C.ar   76  A76         0.1919
   1357  N6         9.6400   11.9200    4.8680 N.pl3  76  A76        -0.1054
   1358  N7        11.7140   13.7370    3.4890 N.ar   76  A76        -0.2193
   1359  C8        12.5790   14.7210    3.4750 C.ar   76  A76         0.1816
   1360  N9        12.7110   15.3610    4.6830 N.ar   76  A76        -0.2693
   1361  OP1       16.6540   15.9590   -0.5130 O.2    76  A76        -0.5172
   1362  OP2       14.7850   14.2160   -0.2650 O.co2  76  A76        -0.4373
   1363  P         18.0820   14.7220    4.6480 P.3    77  U77         0.2141
   1364  C5'       18.0550   14.7020    7.2670 C.3    77  U77         0.1812
   1365  O5'       17.7640   14.0340    6.0490 O.3    77  U77        -0.3114
   1366  C4'       17.4110   14.0170    8.4460 C.3    77  U77         0.1773
   1367  O4'       15.9660   14.1340    8.3580 O.3    77  U77        -0.3307
   1368  C3'       17.6490   12.5210    8.5640 C.3    77  U77         0.1860
   1369  O3'       18.9120   12.1990    9.1180 O.3    77  U77        -0.3112
   1370  C2'       16.4720   12.0680    9.4160 C.3    77  U77         0.2309
   1371  O2'       16.6950   12.3740   10.7850 O.3    77  U77        -0.2156
   1372  C1'       15.3570   12.9760    8.8950 C.3    77  U77         0.2420
   1373  N1        14.5610   12.3200    7.8330 N.ar   77  U77        -0.2534
   1374  C2        13.5680   11.4450    8.2280 C.ar   77  U77         0.3546
   1375  O2        13.3250   11.2030    9.3980 O.2    77  U77        -0.2443
   1376  N3        12.8640   10.8640    7.2020 N.ar   77  U77        -0.1530
   1377  C4        13.0510   11.0620    5.8490 C.ar   77  U77         0.2846
   1378  O4        12.3350   10.4640    5.0440 O.2    77  U77        -0.2650
   1379  C5        14.0980   11.9800    5.5200 C.ar   77  U77         0.0814
   1380  C6        14.7990   12.5610    6.4990 C.ar   77  U77         0.0870
   1381  OP1       19.5120   15.1220    4.6440 O.3    77  U77        -0.4373
   1382  OP2       17.5650   13.8370    3.5720 O.co2  77  U77        -0.5172
   1383  P         19.6730   10.8590    8.6600 P.3    78  C78         0.2141
   1384  C5'       18.7930    9.6280   10.7990 C.3    78  C78         0.1812
   1385  O5'       18.8640    9.6920    9.3830 O.3    78  C78        -0.3114
   1386  C4'       17.7240    8.6700   11.2640 C.3    78  C78         0.1773
   1387  O4'       16.4230    9.1110   10.7950 O.3    78  C78        -0.3307
   1388  C3'       17.8290    7.2440   10.7530 C.3    78  C78         0.1860
   1389  O3'       18.7850    6.4680   11.4530 O.3    78  C78        -0.3112
   1390  C2'       16.4010    6.7360   10.9030 C.3    78  C78         0.2309
   1391  O2'       16.1270    6.4000   12.2550 O.3    78  C78        -0.2156
   1392  C1'       15.5990    7.9890   10.5470 C.3    78  C78         0.2420
   1393  N1        15.1850    7.9980    9.1250 N.ar   78  C78        -0.2535
   1394  C2        14.0500    7.2660    8.7630 C.ar   78  C78         0.3532
   1395  O2        13.4330    6.6420    9.6390 O.2    78  C78        -0.2443
   1396  N3        13.6520    7.2560    7.4700 N.ar   78  C78        -0.1739
   1397  C4        14.3400    7.9390    6.5550 C.ar   78  C78         0.1759
   1398  N4        13.9090    7.9000    5.2920 N.pl3  78  C78        -0.1070
   1399  C5        15.5020    8.6930    6.8960 C.ar   78  C78         0.0566
   1400  C6        15.8840    8.6950    8.1790 C.ar   78  C78         0.0850
   1401  OP1       21.0440   10.8930    9.2300 O.3    78  C78        -0.4373
   1402  OP2       19.4910   10.7010    7.1940 O.co2  78  C78        -0.5172
   1403  P         19.4570    5.1930   10.7430 P.3    79  U79         0.2141
   1404  C5'       17.9130    3.6160   12.1570 C.3    79  U79         0.1812
   1405  O5'       18.3530    4.0520   10.8800 O.3    79  U79        -0.3114
   1406  C4'       16.7470    2.6660   12.0490 C.3    79  U79         0.1773
   1407  O4'       15.5920    3.3580   11.5080 O.3    79  U79        -0.3307
   1408  C3'       16.9320    1.4830   11.1150 C.3    79  U79         0.1860
   1409  O3'       17.6890    0.4330   11.6890 O.3    79  U79        -0.3112
   1410  C2'       15.4970    1.0950   10.7870 C.3    79  U79         0.2309
   1411  O2'       14.9200    0.3580   11.8540 O.3    79  U79        -0.2156
   1412  C1'       14.8220    2.4670   10.7260 C.3    79  U79         0.2420
   1413  N1        14.7420    2.9870    9.3410 N.ar   79  U79        -0.2534
   1414  C2        13.7090    2.5240    8.5480 C.ar   79  U79         0.3546
   1415  O2        12.8790    1.7220    8.9420 O.2    79  U79        -0.2443
   1416  N3        13.6800    3.0340    7.2740 N.ar   79  U79        -0.1530
   1417  C4        14.5600    3.9410    6.7220 C.ar   79  U79         0.2846
   1418  O4        14.4000    4.3060    5.5560 O.2    79  U79        -0.2650
   1419  C5        15.6020    4.3720    7.6040 C.ar   79  U79         0.0814
   1420  C6        15.6550    3.8920    8.8510 C.ar   79  U79         0.0870
   1421  OP1       20.6410    4.7870   11.5430 O.3    79  U79        -0.4373
   1422  OP2       19.6150    5.5040    9.3000 O.co2  79  U79        -0.5172
   1423  P         18.6220   -0.4850   10.7580 P.3    80  U80         0.2141
   1424  C5'       16.7660   -2.3350   10.7810 C.3    80  U80         0.1812
   1425  O5'       17.5950   -1.4610   10.0300 O.3    80  U80        -0.3114
   1426  C4'       15.6870   -2.9490    9.9240 C.3    80  U80         0.1773
   1427  O4'       14.8050   -1.9110    9.4210 O.3    80  U80        -0.3307
   1428  C3'       16.1580   -3.6690    8.6710 C.3    80  U80         0.1860
   1429  O3'       16.6350   -4.9780    8.9280 O.3    80  U80        -0.3112
   1430  C2'       14.9220   -3.6290    7.7830 C.3    80  U80         0.2309
   1431  O2'       13.9860   -4.6210    8.1810 O.3    80  U80        -0.2156
   1432  C1'       14.3470   -2.2550    8.1290 C.3    80  U80         0.2420
   1433  N1        14.7870   -1.2110    7.1740 N.ar   80  U80        -0.2534
   1434  C2        14.1190   -1.1240    5.9680 C.ar   80  U80         0.3546
   1435  O2        13.1960   -1.8610    5.6670 O.2    80  U80        -0.2443
   1436  N3        14.5700   -0.1400    5.1240 N.ar   80  U80        -0.1530
   1437  C4        15.6010    0.7480    5.3570 C.ar   80  U80         0.2846
   1438  O4        15.8910    1.5800    4.4950 O.2    80  U80        -0.2650
   1439  C5        16.2420    0.5940    6.6270 C.ar   80  U80         0.0814
   1440  C6        15.8230   -0.3560    7.4700 C.ar   80  U80         0.0870
   1441  OP1       19.4910   -1.3050   11.6400 O.3    80  U80        -0.4373
   1442  OP2       19.2370    0.3870    9.7250 O.co2  80  U80        -0.5172
   1443  P         17.8390   -5.5820    8.0520 P.3    81  C81         0.2141
   1444  C5'       16.1050   -6.9560    6.6460 C.3    81  C81         0.1812
   1445  O5'       17.1460   -5.9910    6.6770 O.3    81  C81        -0.3114
   1446  C4'       15.4280   -7.0000    5.2990 C.3    81  C81         0.1773
   1447  O4'       14.7470   -5.7430    5.0470 O.3    81  C81        -0.3307
   1448  C3'       16.3430   -7.1690    4.0970 C.3    81  C81         0.1860
   1449  O3'       16.7390   -8.5130    3.8870 O.3    81  C81        -0.3112
   1450  C2'       15.5100   -6.5910    2.9610 C.3    81  C81         0.2309
   1451  O2'       14.5330   -7.5270    2.5300 O.3    81  C81        -0.2156
   1452  C1'       14.7950   -5.4380    3.6680 C.3    81  C81         0.2420
   1453  N1        15.5010   -4.1480    3.4890 N.ar   81  C81        -0.2535
   1454  C2        15.3260   -3.4420    2.2950 C.ar   81  C81         0.3532
   1455  O2        14.5860   -3.9150    1.4180 O.2    81  C81        -0.2443
   1456  N3        15.9660   -2.2630    2.1220 N.ar   81  C81        -0.1739
   1457  C4        16.7540   -1.7830    3.0850 C.ar   81  C81         0.1759
   1458  N4        17.3660   -0.6160    2.8710 N.pl3  81  C81        -0.1070
   1459  C5        16.9510   -2.4790    4.3120 C.ar   81  C81         0.0566
   1460  C6        16.3110   -3.6450    4.4700 C.ar   81  C81         0.0850
   1461  OP1       18.3160   -6.8220    8.7150 O.3    81  C81        -0.4373
   1462  OP2       18.8000   -4.4850    7.7730 O.co2  81  C81        -0.5172
   1463  P         18.1730   -8.8380    3.2410 P.3    82  C82         0.2141
   1464  C5'       17.0020   -9.3900    0.9620 C.3    82  C82         0.1812
   1465  O5'       17.9500   -8.6150    1.6790 O.3    82  C82        -0.3114
   1466  C4'       16.7670   -8.8380   -0.4210 C.3    82  C82         0.1773
   1467  O4'       16.1840   -7.5120   -0.3300 O.3    82  C82        -0.3307
   1468  C3'       18.0060   -8.6350   -1.2790 C.3    82  C82         0.1860
   1469  O3'       18.4610   -9.8310   -1.8880 O.3    82  C82        -0.3112
   1470  C2'       17.5510   -7.5760   -2.2740 C.3    82  C82         0.2309
   1471  O2'       16.7590   -8.1580   -3.2990 O.3    82  C82        -0.2156
   1472  C1'       16.6450   -6.7090   -1.3980 C.3    82  C82         0.2420
   1473  N1        17.3590   -5.5380   -0.8400 N.ar   82  C82        -0.2535
   1474  C2        17.5180   -4.4030   -1.6420 C.ar   82  C82         0.3532
   1475  O2        17.0590   -4.4120   -2.7940 O.2    82  C82        -0.2443
   1476  N3        18.1680   -3.3260   -1.1450 N.ar   82  C82        -0.1739
   1477  C4        18.6490   -3.3520    0.0990 C.ar   82  C82         0.1759
   1478  N4        19.2830   -2.2660    0.5480 N.pl3  82  C82        -0.1070
   1479  C5        18.5020   -4.4930    0.9390 C.ar   82  C82         0.0566
   1480  C6        17.8560   -5.5520    0.4340 C.ar   82  C82         0.0850
   1481  OP1       18.4630  -10.2770    3.4660 O.2    82  C82        -0.5172
   1482  OP2       19.1360   -7.8110    3.7160 O.co2  82  C82        -0.4373
   1483  P         20.0310  -10.0590   -2.1430 P.3    83  C83         0.2141
   1484  C5'       19.7500   -9.3490   -4.6520 C.3    83  C83         0.1813
   1485  O5'       20.3580   -9.1220   -3.3890 O.3    83  C83        -0.3114
   1486  C4'       20.0600   -8.2360   -5.6200 C.3    83  C83         0.1801
   1487  O4'       19.4870   -6.9930   -5.1360 O.3    83  C83        -0.3306
   1488  C3'       21.5350   -7.9130   -5.8100 C.3    83  C83         0.2161
   1489  O3'       22.1830   -8.7900   -6.7140 O.3    83  C83        -0.2175
   1490  C2'       21.5020   -6.4640   -6.2800 C.3    83  C83         0.2338
   1491  O2'       21.1700   -6.3910   -7.6590 O.3    83  C83        -0.2155
   1492  C1'       20.3280   -5.9100   -5.4700 C.3    83  C83         0.2421
   1493  N1        20.7710   -5.2480   -4.2200 N.ar   83  C83        -0.2535
   1494  C2        21.2470   -3.9360   -4.2840 C.ar   83  C83         0.3532
   1495  O2        21.2890   -3.3620   -5.3830 O.2    83  C83        -0.2443
   1496  N3        21.6520   -3.3220   -3.1480 N.ar   83  C83        -0.1739
   1497  C4        21.5940   -3.9670   -1.9810 C.ar   83  C83         0.1759
   1498  N4        22.0040   -3.3220   -0.8870 N.pl3  83  C83        -0.1070
   1499  C5        21.1120   -5.3040   -1.8860 C.ar   83  C83         0.0566
   1500  C6        20.7140   -5.8990   -3.0180 C.ar   83  C83         0.0850
   1501  OP1       20.2300  -11.4680   -2.5660 O.2    83  C83        -0.5172
   1502  OP2       20.7720   -9.5340   -0.9670 O.co2  83  C83        -0.4373
@<TRIPOS>BOND
     1   511   510    2
     2   509   510   ar
     3   509   507   ar
     4   508   507    2
     5   510   512   ar
     6   507   506   ar
     7   512   513   ar
     8   506   513   ar
     9   506   505    1
    10   505   500    1
    11   505   503    1
    12   500   499    1
    13   504   503    1
    14   503   501    1
    15   502   501    1
    16   502   516    1
    17   537   516    2
    18   499   501    1
    19   499   497    1
    20   514   496    2
    21   516   538    1
    22   516   518    1
    23   498   497    1
    24   498   496    1
    25   496   515    1
    26   496   480    1
    27   517   518    1
    28   517   519    1
    29   472   454    2
    30   494   474    2
    31   452   432    2
    32   519   520    1
    33   519   521    1
    34   963   942    2
    35   480   479    1
    36   438   454    1
    37   438   437    1
    38   479   477    1
    39   479   481    1
    40   455   456    1
    41   455   457    1
    42   474   495    1
    43   474   476    1
    44   474   460    1
    45   454   456    1
    46   454   473    1
    47   520   525    1
    48   475   476    1
    49   475   477    1
    50   434   432    1
    51   434   433    1
    52   440   439    1
    53   477   478    1
    54   432   415    1
    55   432   453    1
    56   522   521    1
    57   522   539    1
    58   561   539    2
    59   433   435    1
    60   415   414    1
    61   521   523    1
    62   435   437    1
    63   435   436    1
    64   560   539    1
    65   940   920    2
    66   457   459    1
    67   457   458    1
    68   942   926    1
    69   942   964    1
    70   942   944    1
    71   482   481    1
    72   481   483    1
    73   437   439    1
    74   926   925    1
    75   539   541    1
    76   459   460    1
    77   459   461    1
    78   535   534   ar
    79   535   536   ar
    80   417   416    1
    81   570   569    1
    82   525   536    1
    83   525   523    1
    84   921   923    1
    85   921   922    1
    86   439   441    1
    87   985   965    2
    88   943   944    1
    89   943   945    1
    90   436   441    1
    91   534   531   ar
    92   536   530   ar
    93   523   524    1
    94   583   585    1
    95   583   584    1
    96   478   483    1
    97   414   412    1
    98   414   416    1
    99   412   410    1
   100   412   413    1
   101   600   582    2
   102   923   925    1
   103   923   924    1
   104   410   411    1
   105   920   922    1
   106   920   904    1
   107   920   941    1
   108   458   463    1
   109   585   586    1
   110   585   587    1
   111   483   493    1
   112   986   965    1
   113   925   927    1
   114   620   602    2
   115   441   451    1
   116   416   418    1
   117   568   582    1
   118   568   567    1
   119   588   587    1
   120   588   602    1
   121   461   463    1
   122   461   462    1
   123   430   409    2
   124   965   948    1
   125   965   967    1
   126   904   903    1
   127   948   947    1
   128   541   540    1
   129  1085  1084    2
   130   928   927    1
   131   590   589    1
   132  1083  1084   ar
   133  1083  1081   ar
   134   569   567    1
   135   569   571    1
   136  1082  1081    2
   137   565   567    1
   138   565   566    1
   139   565   563    1
   140   586   591    1
   141   531   530   ar
   142   531   532   ar
   143   945   947    1
   144   945   946    1
   145   530   529   ar
   146   582   584    1
   147   582   601    1
   148   587   589    1
   149   413   418    1
   150   463   464    1
   151   411   409    1
   152  1078  1077    1
   153  1084  1086   ar
   154   602   604    1
   155   602   621    1
   156   571   566    1
   157   571   572    1
   158  1081  1080   ar
   159   927   929    1
   160   924   929    1
   161   540   542    1
   162   493   492   ar
   163   493   487   ar
   164   418   429    1
   165   947   949    1
   166   906   905    1
   167   563   564    1
   168   409   395    1
   169   409   431    1
   170   589   591    1
   171   451   450   ar
   172   451   445   ar
   173   492   491   ar
   174   591   592    1
   175   574   573    2
   176   471   464   ar
   177   471   470   ar
   178   903   901    1
   179   903   905    1
   180   529   527   ar
   181   967   966    1
   182   532   533    2
   183   532   526   ar
   184   604   603    1
   185   946   951    1
   186   397   396    1
   187   395   394    1
   188   901   899    1
   189   901   902    1
   190   929   939    1
   191   464   465   ar
   192   899   900    1
   193  1086  1087   ar
   194   557   558   ar
   195   557   554   ar
   196  1080  1087   ar
   197  1080  1079    1
   198   444   445   ar
   199   444   443   ar
   200   487   486   ar
   201   487   488   ar
   202   918   898    2
   203  1077  1079    1
   204  1077  1075    1
   205   558   559   ar
   206   905   907    1
   207   450   449   ar
   208   966   968    1
   209   486   485   ar
   210  1062  1061    2
   211   445   446   ar
   212   572   573   ar
   213   572   579   ar
   214   573   575   ar
   215   429   428   ar
   216   429   423   ar
   217   470   468   ar
   218   542   543    1
   219   542   544    1
   220   543   548    1
   221   491   488   ar
   222   949   950    1
   223   949   951    1
   224   527   526   ar
   225   527   528    1
   226  1079  1074    1
   227   564   562    1
   228   592   599   ar
   229   592   593   ar
   230   396   394    1
   231   396   398    1
   232  1009   987    2
   233   603   605    1
   234   961   962   ar
   235   961   960   ar
   236   951   962    1
   237   900   898    1
   238   488   489   ar
   239   422   423   ar
   240   422   420   ar
   241   556   555    2
   242   939   938   ar
   243   939   933   ar
   244   394   392    1
   245   938   937   ar
   246   902   907    1
   247   554   555   ar
   248   554   553   ar
   249   443   442   ar
   250   599   598   ar
   251   428   427   ar
   252  1076  1075    1
   253  1076  1090    1
   254   465   466    2
   255   465   467   ar
   256   580   562    2
   257  1061  1063   ar
   258  1061  1060   ar
   259   559   548    1
   260   559   553   ar
   261   485   484   ar
   262  1063  1064   ar
   263   423   424   ar
   264  1075  1073    1
   265   544   545    1
   266   544   546    1
   267   907   917    1
   268   898   884    1
   269   898   919    1
   270   579   578   ar
   271   449   446   ar
   272   555   549   ar
   273   962   956   ar
   274  1008   987    1
   275   605   606    1
   276   605   607    1
   277   446   447   ar
   278  1110  1090    2
   279  1111  1090    1
   280   594   593    2
   281   968   970    1
   282   968   969    1
   283   548   546    1
   284   392   390    1
   285   392   393    1
   286  1100  1101   ar
   287  1100  1105   ar
   288   960   957   ar
   289   575   576   ar
   290   562   545    1
   291   562   581    1
   292  1106  1105    1
   293   421   420    1
   294   606   611    1
   295   987   971    1
   296   987   989    1
   297   593   595   ar
   298  1045  1044    1
   299  1089  1070    2
   300   553   552   ar
   301   468   467   ar
   302   468   469    2
   303  1090  1092    1
   304  1058  1057    1
   305   884   883    1
   306   420   419   ar
   307   971   970    1
   308  1074  1073    1
   309   489   484   ar
   310   489   490    1
   311   983   982   ar
   312   983   984   ar
   313   970   972    1
   314   937   934   ar
   315   886   885    1
   316   933   932   ar
   317   933   934   ar
   318   398   393    1
   319   398   399    1
   320  1065  1064    2
   321  1025  1024    1
   322   982   979   ar
   323  1101  1102   ar
   324  1072  1070    1
   325  1072  1071    1
   326   969   974    1
   327  1105  1104   ar
   328   401   400    2
   329  1064  1066   ar
   330   427   424   ar
   331   442   447   ar
   332   598   596   ar
   333   546   547    1
   334   390   391    1
   335  1060  1059    1
   336  1060  1067   ar
   337   424   425   ar
   338  1059  1057    1
   339  1059  1054    1
   340  1073  1071    1
   341  1056  1070    1
   342  1056  1055    1
   343   932   931   ar
   344   917   916   ar
   345   917   911   ar
   346   447   448    1
   347   578   576   ar
   348   549   550   ar
   349   608   607    1
   350   608   622    1
   351  1070  1088    1
   352   956   957   ar
   353   956   955   ar
   354   607   609    1
   355   576   577    2
   356   610   609    1
   357    32    31    1
   358   934   935   ar
   359   957   958   ar
   360   552   550   ar
   361  1057  1055    1
   362  1044  1043   ar
   363  1044  1046   ar
   364  1043  1041   ar
   365   910   911   ar
   366   910   909   ar
   367   611   609    1
   368   611   612    1
   369   595   596   ar
   370    68    47    2
   371   419   425   ar
   372   885   883    1
   373   885   887    1
   374   400   399   ar
   375   400   402   ar
   376   883   881    1
   377   984   974    1
   378   984   978   ar
   379   399   406   ar
   380   643   622    2
   381   989   988    1
   382   916   915   ar
   383   911   912   ar
   384   391   389    1
   385   550   551    1
   386  1102  1103   ar
   387   974   972    1
   388    30    47    1
   389    30    29    1
   390  1054  1053    1
   391  1092  1091    1
   392   596   597    2
   393    48    50    1
   394    48    49    1
   395   425   426    2
   396  1024  1026   ar
   397  1024  1023   ar
   398  1104  1103   ar
   399  1104  1107   ar
   400   972   973    1
   401  1055  1053    1
   402   407   389    2
   403  1066  1067   ar
   404   979   978   ar
   405   979   980   ar
   406  1005  1006   ar
   407  1005  1002   ar
   408   955   953   ar
   409    27    25    1
   410    27    29    1
   411    27    28    1
   412  1491  1490    1
   413   931   930   ar
   414  1004  1003    2
   415   622   644    1
   416   622   624    1
   417   881   879    1
   418   881   882    1
   419   619   612   ar
   420   619   618   ar
   421   909   908   ar
   422   981   980    1
   423  1103  1109   ar
   424   612   613   ar
   425    50    51    1
   426    50    52    1
   427  1026  1027   ar
   428   958   959    2
   429   958   952   ar
   430    47    49    1
   431    47    69    1
   432  1041  1042    2
   433  1041  1040   ar
   434  1046  1047   ar
   435  1150  1149    1
   436    25    26    1
   437  1268  1267    1
   438   935   930   ar
   439   935   936    1
   440  1053  1051    1
   441  1128  1127    1
   442  1006  1007   ar
   443    31    29    1
   444    31    33    1
   445   978   977   ar
   446   402   403   ar
   447  1264  1263    1
   448   406   405   ar
   449  1023  1021   ar
   450    28    33    1
   451  1091  1093    1
   452   389   408    1
   453   389   373    1
   454   915   912   ar
   455   988   990    1
   456   980   975   ar
   457   912   913   ar
   458  1107  1108   ar
   459  1171  1170    1
   460    90    70    2
   461   879   880    1
   462    53    52    1
   463    53    70    1
   464   887   882    1
   465   887   888    1
   466   378   377   ar
   467   378   379   ar
   468  1029  1010    2
   469   623   624    1
   470   623   625    1
   471    33    44    1
   472  1133  1112    2
   473  1489  1488    1
   474  1002  1003   ar
   475  1002  1001   ar
   476   890   889    2
   477  1129  1130   ar
   478  1129  1126   ar
   479    51    56    1
   480  1003   997   ar
   481   618   616   ar
   482   953   952   ar
   483   953   954    1
   484     9     8    1
   485   377   382   ar
   486   876   858    2
   487  1269  1267   ar
   488  1269  1270   ar
   489   908   913   ar
   490  1287  1286    1
   491    52    54    1
   492    55    54    1
   493   379   380   ar
   494  1490  1488    1
   495  1490  1492    1
   496  1267  1266   ar
   497   613   614    2
   498   613   615   ar
   499  1109  1108   ar
   500  1109  1099    1
   501  1248  1247    2
   502  1047  1040   ar
   503   405   403   ar
   504   375   374    1
   505  1040  1039    1
   506   373   372    1
   507   403   404    2
   508  1265  1260    1
   509  1265  1263    1
   510  1265  1276    1
   511   913   914    1
   512    70    91    1
   513    70    72    1
   514  1127  1126   ar
   515  1127  1122   ar
   516  1027  1020   ar
   517  1094  1093    1
   518  1094  1099    1
   519  1149  1144   ar
   520  1149  1148   ar
   521  1260  1259    1
   522   977   976   ar
   523    45    24    2
   524  1263  1261    1
   525  1007  1001   ar
   526  1007   996    1
   527  1130  1131   ar
   528    26    24    1
   529  1170  1172   ar
   530  1170  1169   ar
   531  1093  1095    1
   532  1488  1486    1
   533  1126  1125   ar
   534   888   889   ar
   535   888   895   ar
   536   889   891   ar
   537  1021  1020   ar
   538  1021  1022    2
   539   374   372    1
   540   374   376    1
   541  1051  1052    1
   542   990   991    1
   543   990   992    1
   544   975   976   ar
   545   991   996    1
   546   880   878    1
   547   625   626    1
   548   625   627    1
   549  1486  1487    1
   550  1486  1484    1
   551    54    56    1
   552  1302  1304    1
   553  1302  1303    1
   554    56    67    1
   555  1244  1243    1
   556  1259  1261    1
   557  1259  1257    1
   558  1001  1000   ar
   559  1095  1096    1
   560  1095  1097    1
   561  1172  1173   ar
   562  1492  1487    1
   563  1492  1493    1
   564  1319  1301    2
   565   616   615   ar
   566   616   617    2
   567   626   631    1
   568   992   993    1
   569   992   994    1
   570   382   383    1
   571   382   381   ar
   572  1144  1145   ar
   573  1495  1494    2
   574   997   998   ar
   575     7    24    1
   576     7     6    1
   577  1285  1284    1
   578  1285  1301    1
   579  1270  1276   ar
   580  1270  1271   ar
   581  1010   993    1
   582  1010  1028    1
   583  1010  1012    1
   584  1112  1132    1
   585  1112  1096    1
   586  1112  1114    1
   587   372   370    1
   588    13    12    1
   589  1052  1050    1
   590    44    38   ar
   591    44    43   ar
   592  1151  1148   ar
   593  1151  1152   ar
   594  1099  1097    1
   595   380   381   ar
   596   380   386   ar
   597  1020  1019    1
   598     8     6    1
   599     8    10    1
   600  1266  1272   ar
   601  1304  1305    1
   602  1304  1306    1
   603  1276  1275   ar
   604    24    46    1
   605    71    72    1
   606    71    73    1
   607    37    38   ar
   608    37    35   ar
   609  1282  1283    1
   610  1282  1284    1
   611  1282  1280    1
   612  1169  1167   ar
   613  1148  1147   ar
   614  1247  1249   ar
   615  1247  1246   ar
   616  1262  1261    1
   617  1262  1279    1
   618  1191  1190    2
   619   996   994    1
   620  1281  1280    1
   621  1281  1279    1
   622   858   842    1
   623   858   877    1
   624   858   860    1
   625  1037  1039    1
   626  1037  1038    1
   627  1037  1035    1
   628  1286  1284    1
   629  1286  1288    1
   630  1122  1123   ar
   631  1039  1034    1
   632   895   894   ar
   633   891   892   ar
   634   896   878    2
   635  1228  1227    2
   636  1339  1321    2
   637   381   384   ar
   638   253   254   ar
   639   253   258   ar
   640  1283  1288    1
   641  1307  1306    1
   642  1307  1321    1
   643  1097  1098    1
   644  1012  1011    1
   645  1484  1485    1
   646  1049  1030    2
   647   842   841    1
   648  1245  1243    1
   649  1245  1246    1
   650  1245  1240    1
   651  1288  1298    1
   652  1257  1258    1
   653    38    39   ar
   654  1301  1303    1
   655  1301  1320    1
   656  1305  1310    1
   657  1249  1250   ar
   658  1131  1125   ar
   659  1131  1121    1
   660     6     4    1
   661    36    35    1
   662    14    12   ar
   663    14    15   ar
   664  1125  1124   ar
   665  1243  1241    1
   666   376   386    1
   667   376   371    1
   668   994   995    1
   669   254   255   ar
   670   878   897    1
   671   878   864    1
   672   859   860    1
   673   859   861    1
   674  1114  1113    1
   675  1309  1308    1
   676   386   385   ar
   677    43    42   ar
   678    10     5    1
   679    10    21    1
   680    67    66   ar
   681    67    61   ar
   682  1173  1166   ar
   683  1000   998   ar
   684  1494  1493   ar
   685  1494  1496   ar
   686   998   999    1
   687    12    11   ar
   688   627   628    1
   689   627   629    1
   690   641   642   ar
   691   641   640   ar
   692   856   836    2
   693  1493  1500   ar
   694  1271  1272   ar
   695  1271  1274   ar
   696  1069  1050    2
   697    66    65   ar
   698  1229  1227   ar
   699  1229  1230   ar
   700  1035  1036    1
   701  1035  1033    1
   702    35    34   ar
   703  1306  1308    1
   704  1246  1253   ar
   705     4     5    1
   706     4     2    1
   707  1145  1146   ar
   708   631   642    1
   709   631   629    1
   710  1272  1273    2
   711  1279  1299    2
   712  1279  1300    1
   713  1152  1153   ar
   714   259   258    1
   715   628   645    1
   716  1211  1210    1
   717   837   839    1
   718   837   838    1
   719  1227  1226   ar
   720  1275  1274   ar
   721  1050  1036    1
   722  1050  1068    1
   723  1167  1166   ar
   724  1167  1168    2
   725   370   371    1
   726   370   368    1
   727   892   894   ar
   728   892   893    1
   729  1321  1340    1
   730  1321  1323    1
   731  1190  1189   ar
   732  1190  1192   ar
   733    73    74    1
   734    73    75    1
   735  1034  1033    1
   736  1240  1239    1
   737   258   257   ar
   738  1019  1017    1
   739  1019  1014    1
   740  1147  1146   ar
   741  1147  1153   ar
   742  1123  1124   ar
   743  1120  1119    1
   744  1231  1230    2
   745  1119  1121    1
   746  1119  1117    1
   747  1032  1030    1
   748  1032  1031    1
   749   384   385   ar
   750   839   841    1
   751   839   840    1
   752   642   636   ar
   753   667   645    2
   754   640   637   ar
   755  1310  1308    1
   756  1310  1311    1
   757  1166  1165    1
   758  1189  1187   ar
   759  1209  1210   ar
   760  1209  1207   ar
   761   841   843    1
   762  1291  1292   ar
   763  1291  1290   ar
   764  1485  1483    1
   765    74    79    1
   766  1017  1015    1
   767  1017  1018    1
   768  1015  1013    1
   769  1015  1016    1
   770  1121  1116    1
   771  1014  1013    1
   772    15    21   ar
   773    15    16   ar
   774   355   356   ar
   775   355   360   ar
   776  1030  1016    1
   777  1030  1048    1
   778  1258  1256    1
   779   629   630    1
   780   255   256   ar
   781  1230  1232   ar
   782  1471  1470    1
   783  1250  1251    2
   784  1250  1252   ar
   785   864   863    1
   786    39    42   ar
   787    39    40   ar
   788   844   843    1
   789  1011  1013    1
   790   666   645    1
   791    21    20   ar
   792  1298  1292   ar
   793  1298  1297   ar
   794   356   357   ar
   795   645   647    1
   796   861   863    1
   797   861   862    1
   798  1496  1497   ar
   799  1241  1239    1
   800  1241  1242    1
   801  1239  1237    1
   802  1033  1031    1
   803  1210  1212   ar
   804  1153  1143    1
   805    61    60   ar
   806    61    62   ar
   807    11    17   ar
   808  1500  1499   ar
   809  1322  1323    1
   810  1322  1324    1
   811  1242  1256    1
   812  1113  1115    1
   813   368   369    1
   814    65    62   ar
   815     2     3    1
   816  1208  1207    2
   817  1192  1193   ar
   818  1116  1115    1
   819   838   836    1
   820   836   822    1
   821   836   857    1
   822  1253  1252   ar
   823    34    40   ar
   824  1475  1474    2
   825    76    75    1
   826    76    92    1
   827    60    58   ar
   828  1292  1293   ar
   829    75    77    1
   830  1226  1225    1
   831  1226  1233   ar
   832   863   865    1
   833  1207  1206   ar
   834   822   821    1
   835  1290  1289   ar
   836  1501  1483    2
   837   112    92    2
   838   361   360    1
   839   257   256   ar
   840   257   260   ar
   841  1224  1223    1
   842   843   845    1
   843   824   823    1
   844  1117  1115    1
   845  1117  1118    1
   846   636   637   ar
   847   636   635   ar
   848   637   638   ar
   849   360   359   ar
   850   840   845    1
   851   256   262   ar
   852  1225  1223    1
   853  1225  1220    1
   854  1187  1188    2
   855  1187  1186   ar
   856  1160  1165    1
   857  1160  1159    1
   858  1470  1472    1
   859  1470  1468    1
   860    40    41    2
   861  1311  1318   ar
   862  1311  1312   ar
   863  1165  1163    1
   864    62    63   ar
   865  1256  1277    2
   866  1256  1278    1
   867   357   358   ar
   868   113    92    1
   869  1297  1296   ar
   870  1483  1469    1
   871  1483  1502    1
   872  1318  1317   ar
   873   862   867    1
   874    88    89   ar
   875    88    87   ar
   876    92    94    1
   877  1223  1221    1
   878    16    17   ar
   879    16    19   ar
   880  1232  1233   ar
   881  1497  1499   ar
   882  1497  1498    1
   883    79    77    1
   884    79    89    1
   885  1155  1134    2
   886  1175  1156    2
   887    20    19   ar
   888  1469  1468    1
   889    17    18    2
   890     3     1    1
   891   369   367    1
   892  1237  1238    1
   893  1212  1213   ar
   894  1324  1325    1
   895  1324  1326    1
   896  1193  1186   ar
   897   647   646    1
   898   845   855    1
   899  1474  1476   ar
   900  1474  1473   ar
   901  1143  1138    1
   902  1143  1141    1
   903  1157  1159    1
   904  1157  1158    1
   905   635   633   ar
   906    77    78    1
   907    58    59    1
   908    58    57   ar
   909    89    83   ar
   910  1186  1185    1
   911  1472  1473    1
   912  1472  1467    1
   913  1138  1137    1
   914  1293  1296   ar
   915  1293  1294   ar
   916   638   639    2
   917   638   632   ar
   918   821   823    1
   919   821   819    1
   920   260   261   ar
   921    87    84   ar
   922   359   358   ar
   923   359   362   ar
   924   358   364   ar
   925  1313  1312    2
   926  1325  1330    1
   927   823   825    1
   928  1118  1134    1
   929  1206  1213   ar
   930  1206  1205    1
   931  1289  1294   ar
   932  1468  1466    1
   933  1312  1314   ar
   934  1159  1161    1
   935   284   265    2
   936  1220  1219    1
   937   865   866    1
   938   865   867    1
   939  1476  1477   ar
   940  1135  1137    1
   941  1135  1136    1
   942   262   261   ar
   943   262   252    1
   944   646   648    1
   945  1163  1161    1
   946  1163  1164    1
   947   251   250    1
   948   250   252    1
   949   250   248    1
   950   819   817    1
   951   819   820    1
   952  1317  1315   ar
   953   875   874   ar
   954   875   868   ar
   955  1139  1141    1
   956  1139  1137    1
   957  1139  1140    1
   958  1141  1142    1
   959  1238  1236    1
   960    63    57   ar
   961    63    64    2
   962   867   868    1
   963  1473  1480   ar
   964  1161  1162    1
   965  1134  1136    1
   966  1134  1154    1
   967   663   664   ar
   968   663   660   ar
   969   664   665   ar
   970  1294  1295    1
   971  1327  1326    1
   972  1327  1341    1
   973   283   265    1
   974  1326  1328    1
   975  1221  1219    1
   976  1221  1222    1
   977   633   632   ar
   978   633   634    1
   979    94    93    1
   980  1361  1341    2
   981   353   352    1
   982  1156  1158    1
   983  1156  1140    1
   984  1156  1174    1
   985   388   367    2
   986   252   247    1
   987  1466  1467    1
   988  1466  1464    1
   989   352   354    1
   990   352   350    1
   991   817   818    1
   992   367   387    1
   993   367   351    1
   994   855   854   ar
   995   855   849   ar
   996     1    22    1
   997     1    23    1
   998  1205  1203    1
   999  1205  1200    1
  1000   874   872   ar
  1001  1362  1341    1
  1002   265   249    1
  1003   265   267    1
  1004   362   363   ar
  1005   868   869   ar
  1006   364   354    1
  1007   364   363   ar
  1008    83    84   ar
  1009    83    82   ar
  1010  1338  1337   ar
  1011  1338  1331   ar
  1012  1219  1217    1
  1013  1195  1176    2
  1014   825   820    1
  1015   825   826    1
  1016    84    85   ar
  1017  1185  1180    1
  1018  1185  1183    1
  1019    93    95    1
  1020   649   648    1
  1021   649   654    1
  1022  1314  1315   ar
  1023   854   853   ar
  1024  1341  1343    1
  1025  1222  1236    1
  1026   248   249    1
  1027   248   246    1
  1028  1477  1478    1
  1029  1477  1479   ar
  1030  1330  1328    1
  1031  1330  1331    1
  1032  1315  1316    2
  1033  1203  1204    1
  1034  1203  1201    1
  1035   648   650    1
  1036   354   349    1
  1037   662   661    2
  1038  1337  1335   ar
  1039   660   661   ar
  1040   660   659   ar
  1041  1480  1479   ar
  1042  1236  1255    2
  1043  1236  1254    1
  1044   340   339    2
  1045   351   350    1
  1046  1180  1179    1
  1047   665   654    1
  1048   665   659   ar
  1049  1162  1176    1
  1050   828   827    2
  1051   350   348    1
  1052  1328  1329    1
  1053  1331  1332   ar
  1054  1200  1199    1
  1055   849   848   ar
  1056   849   850   ar
  1057    82    81   ar
  1058   818   816    1
  1059  1183  1181    1
  1060  1183  1184    1
  1061   661   655   ar
  1062   848   847   ar
  1063   247   246    1
  1064  1176  1178    1
  1065  1176  1194    1
  1066  1464  1465    1
  1067  1178  1177    1
  1068   654   652    1
  1069   834   816    2
  1070   872   873    1
  1071   872   871   ar
  1072    85    86    1
  1073    85    80   ar
  1074   826   827   ar
  1075   826   833   ar
  1076   267   266    1
  1077   869   871   ar
  1078   869   870    2
  1079   853   850   ar
  1080  1217  1218    1
  1081   659   658   ar
  1082   650   651    1
  1083   650   652    1
  1084   338   339   ar
  1085   338   336   ar
  1086  1218  1216    1
  1087    95    96    1
  1088    95    97    1
  1089   246   244    1
  1090   110   109   ar
  1091   110   111   ar
  1092   827   829   ar
  1093   339   341   ar
  1094  1455  1454    2
  1095    96   101    1
  1096   690   668    2
  1097   109   106   ar
  1098  1201  1199    1
  1099  1201  1202    1
  1100  1343  1342    1
  1101  1335  1336    2
  1102  1335  1334   ar
  1103  1181  1179    1
  1104  1181  1182    1
  1105   349   348    1
  1106   804   803    1
  1107  1465  1463    1
  1108   850   851   ar
  1109  1179  1177    1
  1110   320   319    1
  1111   808   807    2
  1112   816   802    1
  1113   816   835    1
  1114  1332  1334   ar
  1115  1332  1333    2
  1116   348   346    1
  1117    81    80   ar
  1118  1199  1197    1
  1119   651   668    1
  1120   304   285    2
  1121   337   336    2
  1122   245   244    1
  1123   245   243    1
  1124   833   832   ar
  1125  1342  1344    1
  1126   300   299    1
  1127   652   653    1
  1128   266   268    1
  1129  1456  1454   ar
  1130  1456  1457   ar
  1131   655   656   ar
  1132   263   243    2
  1133   281   282   ar
  1134   281   279   ar
  1135   847   846   ar
  1136   336   335   ar
  1137  1215  1196    2
  1138   685   684    2
  1139  1454  1453   ar
  1140   803   801    1
  1141   803   805    1
  1142   802   801    1
  1143   136   114    2
  1144  1235  1216    2
  1145    97    98    1
  1146    97    99    1
  1147  1198  1197    1
  1148  1198  1196    1
  1149   280   279    2
  1150   658   656   ar
  1151   111   101    1
  1152   111   105   ar
  1153   668   689    1
  1154   668   670    1
  1155  1202  1216    1
  1156  1451  1450    1
  1157   341   342   ar
  1158   829   830   ar
  1159   686   687   ar
  1160   686   683   ar
  1161  1216  1234    1
  1162   101    99    1
  1163   347   346    1
  1164   347   345    1
  1165    98   114    1
  1166   282   275   ar
  1167   106   105   ar
  1168   106   107   ar
  1169   807   809   ar
  1170   807   806   ar
  1171  1458  1457    1
  1172   656   657    1
  1173   279   278   ar
  1174  1182  1196    1
  1175   243   264    1
  1176   243   227    1
  1177  1450  1452    1
  1178  1450  1448    1
  1179   851   846   ar
  1180   851   852    1
  1181   319   318   ar
  1182   319   321   ar
  1183  1196  1214    1
  1184   809   810   ar
  1185   801   799    1
  1186  1457  1459   ar
  1187   108   107    1
  1188   301   299   ar
  1189   301   302   ar
  1190   366   345    2
  1191   299   298   ar
  1192   684   683   ar
  1193   684   678   ar
  1194   687   688   ar
  1195   832   830   ar
  1196  1463  1481    2
  1197  1463  1482    1
  1198  1463  1449    1
  1199   114   135    1
  1200   114   116    1
  1201   335   342   ar
  1202   335   334    1
  1203   285   303    1
  1204   285   271    1
  1205   285   287    1
  1206   683   682   ar
  1207   105   104   ar
  1208   805   806    1
  1209   805   800    1
  1210  1359  1358   ar
  1211  1359  1360   ar
  1212    99   100    1
  1213  1358  1355   ar
  1214  1453  1452    1
  1215  1453  1460   ar
  1216   268   270    1
  1217   268   269    1
  1218   830   831    2
  1219  1344  1345    1
  1220  1344  1346    1
  1221  1382  1363    2
  1222   107   102   ar
  1223   318   316   ar
  1224   321   322   ar
  1225  1452  1447    1
  1226   270   271    1
  1227   270   272    1
  1228   806   813   ar
  1229   670   669    1
  1230   345   365    1
  1231   345   331    1
  1232  1345  1350    1
  1233  1449  1448    1
  1234   332   334    1
  1235   332   333    1
  1236   332   330    1
  1237   269   274    1
  1238   707   706    1
  1239  1448  1446    1
  1240   275   274    1
  1241   275   276   ar
  1242   810   811    1
  1243   810   812   ar
  1244   278   276   ar
  1245   227   226    1
  1246   302   295   ar
  1247   678   679   ar
  1248   298   296   ar
  1249   334   329    1
  1250  1459  1460   ar
  1251   799   800    1
  1252   799   797    1
  1253   324   305    2
  1254   287   286    1
  1255  1346  1347    1
  1256  1346  1348    1
  1257   730   729    2
  1258   132   133   ar
  1259   132   129   ar
  1260   688   682   ar
  1261   688   677    1
  1262   131   130    2
  1263  1438  1437    2
  1264   682   681   ar
  1265   723   729   ar
  1266   723   724   ar
  1267   330   331    1
  1268   330   328    1
  1269   725   724    1
  1270  1381  1363    1
  1271  1363  1347    1
  1272  1363  1365    1
  1273  1360  1350    1
  1274  1360  1354   ar
  1275   116   115    1
  1276   104   103   ar
  1277   274   272    1
  1278   213   212    2
  1279  1355  1356   ar
  1280  1355  1354   ar
  1281   813   812   ar
  1282   322   315   ar
  1283   316   317    2
  1284   316   315   ar
  1285  1357  1356    1
  1286   669   671    1
  1287   102   103   ar
  1288   276   277    2
  1289   189   190   ar
  1290   189   194   ar
  1291   195   194    1
  1292   672   677    1
  1293   672   671    1
  1294   272   273    1
  1295   133   134   ar
  1296  1350  1348    1
  1297  1378  1377    2
  1298  1447  1446    1
  1299   729   728   ar
  1300  1436  1437   ar
  1301  1436  1434   ar
  1302   344   325    2
  1303   706   701   ar
  1304   706   705   ar
  1305  1398  1397    1
  1306   232   233   ar
  1307   232   231   ar
  1308  1446  1444    1
  1309   724   726   ar
  1310   226   228    1
  1311   226   224    1
  1312  1437  1439   ar
  1313   295   296   ar
  1314   295   294    1
  1315   296   297    2
  1316   679   681   ar
  1317   679   680    1
  1318   130   129   ar
  1319   130   124   ar
  1320   129   128   ar
  1321  1356  1351   ar
  1322   677   675    1
  1323   315   314    1
  1324  1379  1377   ar
  1325  1379  1380   ar
  1326   329   328    1
  1327   797   798    1
  1328  1354  1353   ar
  1329  1418  1417    2
  1330   190   191   ar
  1331   194   193   ar
  1332  1348  1349    1
  1333  1435  1434    2
  1334   798   796    1
  1335   708   705   ar
  1336   708   709   ar
  1337   286   288    1
  1338   233   234   ar
  1339   214   212   ar
  1340   214   215   ar
  1341   671   673    1
  1342   327   325    1
  1343   327   326    1
  1344   115   117    1
  1345   701   702   ar
  1346   212   211   ar
  1347   305   307    1
  1348   305   323    1
  1349   305   291    1
  1350  1377  1376   ar
  1351   231   236   ar
  1352   328   326    1
  1353   153   152    1
  1354  1434  1433   ar
  1355   705   704   ar
  1356   228   229    1
  1357   228   230    1
  1358  1365  1364    1
  1359   290   288    1
  1360   290   291    1
  1361   290   292    1
  1362   307   306    1
  1363   751   750    2
  1364   325   343    1
  1365   325   311    1
  1366   134   128   ar
  1367   134   123    1
  1368   222   224    1
  1369   222   223    1
  1370   673   675    1
  1371   673   674    1
  1372   728   727   ar
  1373   728   731   ar
  1374   224   225    1
  1375  1380  1373   ar
  1376   118   117    1
  1377   118   123    1
  1378   289   288    1
  1379   289   294    1
  1380   174   173    2
  1381  1397  1399   ar
  1382  1397  1396   ar
  1383   726   727   ar
  1384   216   215    2
  1385   128   127   ar
  1386   294   292    1
  1387  1439  1440   ar
  1388  1444  1445    1
  1389   124   125   ar
  1390  1445  1443    1
  1391   675   676    1
  1392  1417  1416   ar
  1393  1417  1419   ar
  1394   209   208    1
  1395  1351  1352   ar
  1396   709   710   ar
  1397   292   293    1
  1398   215   217   ar
  1399   191   192   ar
  1400  1353  1352   ar
  1401   312   314    1
  1402   312   310    1
  1403   312   313    1
  1404   314   309    1
  1405   712   691    2
  1406   310   311    1
  1407   310   308    1
  1408  1399  1400   ar
  1409   117   119    1
  1410   193   192   ar
  1411   193   196   ar
  1412   234   235   ar
  1413   234   240   ar
  1414   815   796    2
  1415   702   703   ar
  1416   242   221    2
  1417   211   210    1
  1418   211   218   ar
  1419   727   733   ar
  1420   749   750   ar
  1421   749   747   ar
  1422   796   782    1
  1423   796   814    1
  1424   236   235   ar
  1425   236   237    1
  1426  1433  1440   ar
  1427  1433  1432    1
  1428   704   710   ar
  1429   704   703   ar
  1430  1402  1383    2
  1431   210   208    1
  1432   210   205    1
  1433  1376  1374   ar
  1434   152   151   ar
  1435   152   147   ar
  1436   750   752   ar
  1437   123   121    1
  1438  1364  1366    1
  1439  1416  1414   ar
  1440   158   137    2
  1441   788   787    2
  1442   731   732   ar
  1443   154   151   ar
  1444   154   155   ar
  1445   309   308    1
  1446   230   225    1
  1447   230   240    1
  1448   207   221    1
  1449   207   206    1
  1450   192   198   ar
  1451  1396  1394   ar
  1452   119   121    1
  1453   119   120    1
  1454   674   691    1
  1455   223   221    1
  1456   306   308    1
  1457  1419  1420   ar
  1458   235   238   ar
  1459   710   700    1
  1460   240   239   ar
  1461   208   206    1
  1462   784   783    1
  1463   173   172   ar
  1464   173   175   ar
  1465  1462  1443    2
  1466  1430  1432    1
  1467  1430  1431    1
  1468  1430  1428    1
  1469   125   127   ar
  1470   125   126    1
  1471  1373  1374   ar
  1472  1373  1372    1
  1473   782   781    1
  1474   151   150   ar
  1475   196   197   ar
  1476   221   241    1
  1477   748   747    2
  1478   147   148   ar
  1479  1443  1461    1
  1480  1443  1429    1
  1481   691   693    1
  1482   691   711    1
  1483   217   218   ar
  1484   747   746   ar
  1485  1432  1427    1
  1486   205   204    1
  1487  1400  1393   ar
  1488   172   170   ar
  1489   121   122    1
  1490  1374  1375    2
  1491   787   789   ar
  1492   787   786   ar
  1493  1367  1366    1
  1494  1367  1372    1
  1495   733   732   ar
  1496   733   722    1
  1497   120   137    1
  1498   206   204    1
  1499  1366  1368    1
  1500   155   156   ar
  1501  1414  1415    2
  1502  1414  1413   ar
  1503   752   753   ar
  1504  1368  1369    1
  1505  1368  1370    1
  1506   137   157    1
  1507   137   139    1
  1508  1383  1369    1
  1509  1383  1401    1
  1510  1383  1385    1
  1511  1428  1429    1
  1512  1428  1426    1
  1513   789   790   ar
  1514   693   692    1
  1515  1394  1393   ar
  1516  1394  1395    2
  1517   198   197   ar
  1518   198   188    1
  1519   175   176   ar
  1520  1420  1413   ar
  1521   785   783    1
  1522   785   786    1
  1523   785   780    1
  1524   239   238   ar
  1525  1372  1370    1
  1526   783   781    1
  1527   204   202    1
  1528   700   695    1
  1529   700   698    1
  1530   695   694    1
  1531   781   779    1
  1532  1393  1392    1
  1533   786   793   ar
  1534   150   156   ar
  1535   150   149   ar
  1536   148   149   ar
  1537  1422  1403    2
  1538  1413  1412    1
  1539   746   753   ar
  1540   746   745    1
  1541  1385  1384    1
  1542  1370  1371    1
  1543  1427  1426    1
  1544   722   720    1
  1545   722   717    1
  1546   170   171    2
  1547   170   169   ar
  1548   156   146    1
  1549   139   138    1
  1550   188   186    1
  1551   188   183    1
  1552  1442  1423    2
  1553   186   187    1
  1554   186   184    1
  1555   780   779    1
  1556   790   791    2
  1557   790   792   ar
  1558   692   694    1
  1559  1426  1424    1
  1560   779   777    1
  1561  1425  1423    1
  1562  1425  1424    1
  1563   176   169   ar
  1564   698   696    1
  1565   698   699    1
  1566   694   696    1
  1567   720   721    1
  1568   720   718    1
  1569   793   792   ar
  1570   717   716    1
  1571   202   203    1
  1572   745   740    1
  1573   745   743    1
  1574   169   168    1
  1575   696   697    1
  1576  1392  1387    1
  1577  1392  1390    1
  1578   203   201    1
  1579  1412  1410    1
  1580  1412  1407    1
  1581  1403  1405    1
  1582  1403  1389    1
  1583  1403  1421    1
  1584  1388  1390    1
  1585  1388  1386    1
  1586  1388  1389    1
  1587  1423  1441    1
  1588  1423  1409    1
  1589  1410  1408    1
  1590  1410  1411    1
  1591  1387  1386    1
  1592  1384  1386    1
  1593   740   739    1
  1594   141   146    1
  1595   141   140    1
  1596  1405  1404    1
  1597  1390  1391    1
  1598   138   140    1
  1599   146   144    1
  1600   183   182    1
  1601   184   185    1
  1602   184   182    1
  1603  1408  1409    1
  1604  1408  1406    1
  1605   735   713    2
  1606   178   159    2
  1607   718   716    1
  1608   718   719    1
  1609   777   778    1
  1610  1407  1406    1
  1611   140   142    1
  1612   185   201    1
  1613   716   714    1
  1614   744   743    1
  1615   715   713    1
  1616   715   714    1
  1617   743   741    1
  1618   142   144    1
  1619   142   143    1
  1620   697   713    1
  1621   168   166    1
  1622   168   163    1
  1623   144   145    1
  1624   182   180    1
  1625   778   776    1
  1626   201   220    2
  1627   201   219    1
  1628  1406  1404    1
  1629   713   734    1
  1630   739   741    1
  1631   739   737    1
  1632   166   164    1
  1633   166   167    1
  1634   719   736    1
  1635   159   161    1
  1636   159   143    1
  1637   159   177    1
  1638   163   162    1
  1639   181   180    1
  1640   181   179    1
  1641   161   160    1
  1642   738   737    1
  1643   738   736    1
  1644   741   742    1
  1645   742   756    1
  1646   755   736    2
  1647   200   179    2
  1648   164   162    1
  1649   164   165    1
  1650   794   776    2
  1651   776   795    1
  1652   776   762    1
  1653   736   754    1
  1654   162   160    1
  1655   179   165    1
  1656   179   199    1
  1657   774   756    2
  1658   756   775    1
  1659   756   758    1
  1660   761   762    1
  1661   761   759    1
  1662   761   763    1
  1663   757   758    1
  1664   757   759    1
  1665   759   760    1
  1666   764   763    1
  1667   763   765    1
  1668   760   765    1
  1669   765   766    1
  1670   773   766   ar
  1671   773   772   ar
  1672   766   767   ar
  1673   772   770   ar
  1674   767   768    2
  1675   767   769   ar
  1676   770   769   ar
  1677   770   771    2
